data_PCOD8112520
_publ_section_title
;
Structure prediction by ZEFSAII (Michael W. Deem and Ramdas Pophale) SiO2 
 PCOD8112520
Probable space group: C 2/M
;
_chemical_formula_sum "Si O2"
_cell_formula_units_Z 48
_cell_length_a 15.289962
_cell_length_b 32.571424
_cell_length_c 8.558303
_cell_angle_alpha 90.000000
_cell_angle_beta 36.560154
_cell_angle_gamma 90.000000
_cell_volume 2538.831778
_symmetry_space_group_name_H-M "C 2/M"
_symmetry_group_IT_number 12
_symmetry_cell_setting 'monoclinic'
loop_
_space_group_symop_operation_xyz
x,y,z
-x,y,-z
-x,-y,-z
x,-y,z
1/2+x,1/2+y,z
1/2-x,1/2+y,-z
1/2-x,1/2-y,-z
1/2+x,1/2-y,z
loop_
_atom_site_type_symbol
_atom_site_label
_atom_site_fract_x
_atom_site_fract_y
_atom_site_fract_z
Si Si1 0.692297 0.385181 0.595566
Si Si2 0.078141 0.452843 0.722655
Si Si3 0.135460 0.331338 0.888224
Si Si4 0.094570 0.391885 0.219105
Si Si5 0.376057 0.634393 0.962178
Si Si6 0.651253 0.285758 0.210284
O O1 0.763237 0.430329 0.515156
O O2 0.804206 0.361203 0.329083
O O3 0.535210 0.387406 0.732799
O O4 0.677477 0.361673 0.782191
O O5 0.109321 0.500000 0.639546
O O6 0.965650 0.435592 0.753569
O O7 0.000000 0.446803 0.000000
O O8 0.261236 0.301361 0.764604
O O9 0.070264 0.357709 0.123342
O O10 0.000000 0.307038 0.000000
O O11 0.000000 0.375927 0.500000
O O12 0.266101 0.394906 0.021835
O O13 0.379828 0.679236 0.875047
O O14 0.500000 0.268521 0.500000
O O15 0.750000 0.250000 0.000000
#
# Coordination Sequence:
#
# PCOD8112520 Si02
#       6
#     8   8   8   8   8   8
#     4  11  19  41  62  88 119 160 217 243 301 372
#     4  11  22  38  60  89 126 162 202 260 311 357
#     4  11  20  38  66  89 116 165 210 247 302 373
#     4  11  19  35  59  91 118 156 211 247 301 366
#     4  10  23  37  66  87 117 163 207 254 297 369
#     4  11  25  44  61  95 131 162 199 264 321 364
#
# _framework density 18.906334000000001
#
# number of rings (size 3 to 8) (size 9 to 14) (size 15 to 20)
#    0.000    1.167    6.667    0.000    0.000    4.333 
#    3.000    4.167    0.000    2.000    0.000    0.000 
#    0.000    0.000    0.000    0.000    0.000    0.000 
#
# Total GULP energy -297499.774805 kJ/mol
# GULP energy per Si atom -12395.823950 kJ/mol
# Density = 1.886330 g / cm^3
# Si number density = 18.906334 Si / 1000 Ang^3
#
#
#
# Elastic Constant Matrix: (Units=GPa)
#
#
# Indices 1 2 3 4 5 6 
#
# 1 144.8824 48.7546 54.1306 0.0000 -30.3658 0.0000
# 2 48.7546 95.7171 50.5839 0.0000 -20.7481 0.0000
# 3 54.1306 50.5839 120.2152 0.0000 -7.5698 0.0000
# 4 0.0000 0.0000 0.0000 26.1165 0.0000 -8.7276
# 5 -30.3658 -20.7481 -7.5698 0.0000 36.9452 0.0000
# 6 0.0000 0.0000 0.0000 -8.7276 0.0000 10.4376
#
#
#
# Elastic Compliance Matrix: (Units=1/GPa)
#
#
# Indices 1 2 3 4 5 6 
#
# 1 0.010202 -0.002009 -0.003334 0.000000 0.006573 0.000000
# 2 -0.002009 0.015553 -0.005261 0.000000 0.006005 0.000000
# 3 -0.003334 -0.005261 0.011828 0.000000 -0.003272 0.000000
# 4 0.000000 0.000000 0.000000 0.053138 0.000000 0.044433
# 5 0.006573 0.006005 -0.003272 0.000000 0.035172 0.000000
# 6 0.000000 0.000000 0.000000 0.044433 0.000000 0.132961
#
#
# Mechanical properties :
#
#
# Convention : Reuss Voigt Hill
#
# Bulk Modulus (GPa) = 61.07893 74.19477 67.63685
# Shear Modulus (GPa) = 17.51183 28.52290 23.01737
#
# Velocity S-wave (km/s) = 3.04672 3.88834 3.49297
# Velocity P-wave (km/s) = 6.68976 7.71281 7.21943
#
# Compressibility (1/GPa) = 0.01637226
#
# Stress axis : x y z
#
# Youngs Moduli (GPa) = 98.02205 64.29541 84.54773
#
# Poissons Ratio (x) = 0.12920 0.28190
# Poissons Ratio (y) = 0.19698 0.44485
# Poissons Ratio (z) = 0.32682 0.33829
#
# Static dielectric constant tensor:
#      x y z
#    x 3.771490 0.000000 0.028870 
#    y 0.000000 3.397850 0.000000 
#    z 0.028870 0.000000 3.602000 
# 
# 
# High freq. dielectric constant tensor:
#      x y z
#    x 1.760580 0.000000 -0.002220 
#    y 0.000000 1.693520 0.000000 
#    z -0.002220 0.000000 1.750910 
# 
# From -- ./inp_files/68039.got.cif
#   From: 2010.06.25/outbox.cif.g09.slc.cpg/sg12_35_cif.got.tgz:68039.got - 2010.06.28 00:19:55.
