data_PCOD8112067
_publ_section_title
;
Structure prediction by ZEFSAII (Michael W. Deem and Ramdas Pophale) SiO2 
 PCOD8112067
Probable space group: C 2/M
;
_chemical_formula_sum "Si O2"
_cell_formula_units_Z 40
_cell_length_a 19.347026
_cell_length_b 13.595612
_cell_length_c 16.158347
_cell_angle_alpha 90.000000
_cell_angle_beta 153.921841
_cell_angle_gamma 90.000000
_cell_volume 1868.376697
_symmetry_space_group_name_H-M "C 2/M"
_symmetry_group_IT_number 12
_symmetry_cell_setting 'monoclinic'
loop_
_space_group_symop_operation_xyz
x,y,z
-x,y,-z
-x,-y,-z
x,-y,z
1/2+x,1/2+y,z
1/2-x,1/2+y,-z
1/2-x,1/2-y,-z
1/2+x,1/2-y,z
loop_
_atom_site_type_symbol
_atom_site_label
_atom_site_fract_x
_atom_site_fract_y
_atom_site_fract_z
Si Si1 0.292262 0.735008 0.664067
Si Si2 0.592947 0.612952 0.937081
Si Si3 0.327759 0.770002 0.288130
Si Si4 0.910890 0.616253 0.669985
Si Si5 0.771042 0.886979 0.092493
O O1 0.275133 0.757364 0.742171
O O2 0.144489 0.669759 0.473905
O O3 0.303703 0.839639 0.628902
O O4 0.451607 0.676702 0.818959
O O5 0.552603 0.500000 0.909056
O O6 0.750651 0.638941 0.156940
O O7 0.620672 0.635051 0.870221
O O8 0.500000 0.803512 0.500000
O O9 0.335973 0.674267 0.239122
O O10 0.880938 0.500000 0.631890
O O11 0.092451 0.642960 0.879497
O O12 0.779544 0.000000 0.127932
#
# Coordination Sequence:
#
# PCOD8112067 Si02
#       5
#     8   8   8   8   8
#     4  11  24  40  65 100 127 168 207 265 320 370
#     4  11  24  43  68  94 127 169 214 259 313 379
#     4  12  26  41  63  95 133 167 209 264 318 375
#     4  10  22  41  67  94 126 167 213 258 316 381
#     4  10  23  44  68  93 126 170 212 258 317 379
#
# _framework density 21.40896
#
# number of rings (size 3 to 8) (size 9 to 14) (size 15 to 20)
#    0.000    1.200    2.000    3.000    5.600    4.000 
#    0.000    2.000    0.000    0.000    0.000    0.000 
#    0.000    0.000    0.000    0.000    0.000    0.000 
#
# Total GULP energy -248102.183270 kJ/mol
# GULP energy per Si atom -12405.109163 kJ/mol
# Density = 2.136023 g / cm^3
# Si number density = 21.408960 Si / 1000 Ang^3
#
#
#
# Elastic Constant Matrix: (Units=GPa)
#
#
# Indices 1 2 3 4 5 6 
#
# 1 111.6003 27.2948 24.8810 -0.0006 -11.2249 -0.0004
# 2 27.2948 62.2632 21.6451 -0.0005 -7.7073 -0.0003
# 3 24.8810 21.6451 95.8033 -0.0009 -2.7386 -0.0007
# 4 -0.0006 -0.0005 -0.0009 26.9864 -0.0009 2.2408
# 5 -11.2249 -7.7073 -2.7386 -0.0009 34.7008 -0.0007
# 6 -0.0004 -0.0003 -0.0007 2.2408 -0.0007 24.6912
#
#
#
# Elastic Compliance Matrix: (Units=1/GPa)
#
#
# Indices 1 2 3 4 5 6 
#
# 1 0.010512 -0.003669 -0.001831 0.000000 0.002441 0.000000
# 2 -0.003669 0.019163 -0.003296 0.000000 0.002809 0.000000
# 3 -0.001831 -0.003296 0.011647 0.000000 -0.000405 0.000000
# 4 0.000000 0.000000 0.000000 0.037337 0.000001 -0.003388
# 5 0.002441 0.002809 -0.000405 0.000001 0.030199 0.000001
# 6 0.000000 0.000000 0.000000 -0.003388 0.000001 0.040808
#
#
# Mechanical properties :
#
#
# Convention : Reuss Voigt Hill
#
# Bulk Modulus (GPa) = 42.14454 46.36762 44.25608
# Shear Modulus (GPa) = 28.54389 30.33206 29.43798
#
# Velocity S-wave (km/s) = 3.65536 3.76811 3.71216
# Velocity P-wave (km/s) = 6.12729 6.37469 6.25221
#
# Compressibility (1/GPa) = 0.02372787
#
# Stress axis : x y z
#
# Youngs Moduli (GPa) = 95.13156 52.18362 85.86054
#
# Poissons Ratio (x) = 0.19148 0.15723
# Poissons Ratio (y) = 0.34908 0.28302
# Poissons Ratio (z) = 0.17420 0.17201
#
# Static dielectric constant tensor:
#      x y z
#    x 3.948220 0.000000 -0.012220 
#    y 0.000000 3.938420 0.000000 
#    z -0.012220 0.000000 3.951660 
# 
# 
# High freq. dielectric constant tensor:
#      x y z
#    x 1.844520 0.000000 0.003740 
#    y 0.000000 1.843540 0.000000 
#    z 0.003740 0.000000 1.849290 
# 
# From -- ./inp_files/72831.got.cif
#   From: 2010.06.25/outbox.cif.g09.slc.cpg/sg12_37_cif.got.tgz:72831.got - 2010.06.28 00:19:55.
