data_PCOD8112081
_publ_section_title
;
Structure prediction by ZEFSAII (Michael W. Deem and Ramdas Pophale) SiO2 
 PCOD8112081
Probable space group: C 2/M
;
_chemical_formula_sum "Si O2"
_cell_formula_units_Z 56
_cell_length_a 22.752249
_cell_length_b 22.684716
_cell_length_c 13.671821
_cell_angle_alpha 90.000000
_cell_angle_beta 22.947571
_cell_angle_gamma 90.000000
_cell_volume 2751.215654
_symmetry_space_group_name_H-M "C 2/M"
_symmetry_group_IT_number 12
_symmetry_cell_setting 'monoclinic'
loop_
_space_group_symop_operation_xyz
x,y,z
-x,y,-z
-x,-y,-z
x,-y,z
1/2+x,1/2+y,z
1/2-x,1/2+y,-z
1/2-x,1/2-y,-z
1/2+x,1/2-y,z
loop_
_atom_site_type_symbol
_atom_site_label
_atom_site_fract_x
_atom_site_fract_y
_atom_site_fract_z
Si Si1 0.006814 0.143691 0.754772
Si Si2 0.859580 0.259629 0.920684
Si Si3 0.234727 0.432768 0.163470
Si Si4 0.396149 0.850619 0.474123
Si Si5 0.354623 0.652619 0.662132
Si Si6 0.349593 0.066241 0.931628
Si Si7 0.649799 0.298973 0.712314
O O1 0.119959 0.144436 0.490951
O O2 0.098764 0.150962 0.713744
O O3 0.891769 0.198410 0.924024
O O4 0.912442 0.083008 0.895322
O O5 0.013096 0.289824 0.644824
O O6 0.750000 0.250000 0.000000
O O7 0.778529 0.299852 0.125339
O O8 0.213210 0.500000 0.235506
O O9 0.148699 0.384247 0.358685
O O10 0.166549 0.427826 0.160169
O O11 0.508962 0.895741 0.245864
O O12 0.250679 0.835106 0.633699
O O13 0.500000 0.674829 0.500000
O O14 0.303809 0.590366 0.785652
O O15 0.373868 0.000000 0.929042
O O16 0.750000 0.250000 0.500000
O O17 0.500000 0.273669 0.000000
#
# Coordination Sequence:
#
# PCOD8112081 Si02
#       7
#     8   8   8   8   8   8   8
#     4  12  24  41  63  94 134 171 223 269 337 398
#     4  11  23  38  62  96 134 172 211 280 344 411
#     4  11  23  41  68 100 135 174 220 278 336 399
#     4  11  23  43  63  95 131 173 225 273 339 403
#     4  11  22  38  59  97 130 169 215 269 339 408
#     4  10  22  41  67  98 132 174 222 277 340 404
#     4  12  27  46  68  96 135 186 230 280 338 409
#
# _framework density 20.354637
#
# number of rings (size 3 to 8) (size 9 to 14) (size 15 to 20)
#    0.000    0.857    5.714    1.714    4.000    2.000 
#    2.571    2.143    0.000    0.857    0.000    0.000 
#    0.000    0.000    0.000    0.000    0.000    0.000 
#
# Total GULP energy -347129.569597 kJ/mol
# GULP energy per Si atom -12397.484628 kJ/mol
# Density = 2.030831 g / cm^3
# Si number density = 20.354637 Si / 1000 Ang^3
#
#
#
# Elastic Constant Matrix: (Units=GPa)
#
#
# Indices 1 2 3 4 5 6 
#
# 1 86.7051 25.2403 44.4008 -0.0070 -9.9960 0.0026
# 2 25.2403 90.8307 35.9492 -0.0084 -9.6632 0.0024
# 3 44.4008 35.9492 115.9730 -0.0129 2.5861 0.0046
# 4 -0.0070 -0.0084 -0.0129 18.1547 0.0022 2.4043
# 5 -9.9960 -9.6632 2.5861 0.0022 40.0668 -0.0034
# 6 0.0026 0.0024 0.0046 2.4043 -0.0034 24.6420
#
#
#
# Elastic Compliance Matrix: (Units=1/GPa)
#
#
# Indices 1 2 3 4 5 6 
#
# 1 0.015214 -0.001701 -0.005381 0.000001 0.003733 0.000000
# 2 -0.001701 0.013186 -0.003503 0.000003 0.002982 0.000000
# 3 -0.005381 -0.003503 0.011834 0.000005 -0.002951 -0.000002
# 4 0.000001 0.000003 0.000005 0.055803 -0.000003 -0.005445
# 5 0.003733 0.002982 -0.002951 -0.000003 0.026799 0.000004
# 6 0.000000 0.000000 -0.000002 -0.005445 0.000004 0.041112
#
#
# Mechanical properties :
#
#
# Convention : Reuss Voigt Hill
#
# Bulk Modulus (GPa) = 52.45082 56.07661 54.26371
# Shear Modulus (GPa) = 26.11335 29.10061 27.60698
#
# Velocity S-wave (km/s) = 3.58567 3.78521 3.68679
# Velocity P-wave (km/s) = 6.55493 6.83472 6.69629
#
# Compressibility (1/GPa) = 0.01906548
#
# Stress axis : x y z
#
# Youngs Moduli (GPa) = 65.72748 75.84013 84.50026
#
# Poissons Ratio (x) = 0.12901 0.45468
# Poissons Ratio (y) = 0.11181 0.29596
# Poissons Ratio (z) = 0.35367 0.26563
#
# Static dielectric constant tensor:
#      x y z
#    x 3.539380 -0.000010 0.147720 
#    y -0.000010 3.846420 0.000030 
#    z 0.147720 0.000030 3.895930 
# 
# 
# High freq. dielectric constant tensor:
#      x y z
#    x 1.774170 0.000000 0.003810 
#    y 0.000000 1.789410 0.000000 
#    z 0.003810 0.000000 1.818420 
# 
# From -- ./inp_files/242113.got.cif
#   From: 2010.06.25/outbox.cif.g09.slc.cpg/sg12_122_cif.got.tgz:242113.got - 2010.06.28 00:19:55.
