data_PCOD8112507
_publ_section_title
;
Structure prediction by ZEFSAII (Michael W. Deem and Ramdas Pophale) SiO2 
 PCOD8112507
Probable space group: C 2/M
;
_chemical_formula_sum "Si O2"
_cell_formula_units_Z 40
_cell_length_a 27.118445
_cell_length_b 7.449717
_cell_length_c 9.595358
_cell_angle_alpha 90.000000
_cell_angle_beta 79.207174
_cell_angle_gamma 90.000000
_cell_volume 1904.209019
_symmetry_space_group_name_H-M "C 2/M"
_symmetry_group_IT_number 12
_symmetry_cell_setting 'monoclinic'
loop_
_space_group_symop_operation_xyz
x,y,z
-x,y,-z
-x,-y,-z
x,-y,z
1/2+x,1/2+y,z
1/2-x,1/2+y,-z
1/2-x,1/2-y,-z
1/2+x,1/2-y,z
loop_
_atom_site_type_symbol
_atom_site_label
_atom_site_fract_x
_atom_site_fract_y
_atom_site_fract_z
Si Si1 0.732014 0.291924 0.661600
Si Si2 0.401188 0.698641 0.917440
Si Si3 0.066509 0.500000 0.602159
Si Si4 0.948735 0.500000 0.707180
Si Si5 0.880285 0.786818 0.241585
Si Si6 0.795257 0.709025 0.875464
O O1 0.727734 0.500000 0.696155
O O2 0.750000 0.250000 0.500000
O O3 0.676866 0.212258 0.720791
O O4 0.775692 0.214661 0.737726
O O5 0.424805 0.500000 0.894142
O O6 0.343959 0.683597 0.896503
O O7 0.433636 0.825461 0.802359
O O8 0.402267 0.762832 0.077863
O O9 0.078337 0.500000 0.429881
O O10 0.088834 0.680775 0.657527
O O11 0.007688 0.500000 0.658149
O O12 0.883886 0.000000 0.270170
O O13 0.809981 0.500000 0.863978
O O14 0.750000 0.750000 0.000000
#
# Coordination Sequence:
#
# PCOD8112507 Si02
#       6
#     8   8   4   4   8   8
#     4  10  23  37  55  90 133 171 213 256 312 382
#     4  11  23  42  68  98 133 172 222 275 325 392
#     4  11  27  47  73  91 133 171 215 285 346 397
#     4  11  27  49  67 101 125 169 225 279 346 399
#     4  10  23  43  66  98 133 171 220 272 326 394
#     4  11  21  36  59  92 133 175 217 258 312 384
#
# _framework density 21.006098000000001
#
# number of rings (size 3 to 8) (size 9 to 14) (size 15 to 20)
#    0.000    1.400    3.000    1.200    4.200    4.800 
#    0.000    4.000    0.000    0.000    0.000    0.000 
#    0.000    0.000    0.000    0.000    0.000    0.000 
#
# Total GULP energy -247987.389455 kJ/mol
# GULP energy per Si atom -12399.369473 kJ/mol
# Density = 2.095829 g / cm^3
# Si number density = 21.006098 Si / 1000 Ang^3
#
#
#
# Elastic Constant Matrix: (Units=GPa)
#
#
# Indices 1 2 3 4 5 6 
#
# 1 59.7777 23.5232 21.8589 0.0000 7.3140 0.0000
# 2 23.5232 92.3052 48.7862 0.0000 2.2196 0.0000
# 3 21.8589 48.7862 153.1774 0.0000 7.7905 0.0000
# 4 0.0000 0.0000 0.0000 30.5248 0.0000 -1.9033
# 5 7.3140 2.2196 7.7905 0.0000 39.4820 0.0000
# 6 0.0000 0.0000 0.0000 -1.9033 0.0000 28.7856
#
#
#
# Elastic Compliance Matrix: (Units=1/GPa)
#
#
# Indices 1 2 3 4 5 6 
#
# 1 0.019200 -0.004153 -0.001261 0.000000 -0.003075 0.000000
# 2 -0.004153 0.013925 -0.003881 0.000000 0.000752 0.000000
# 3 -0.001261 -0.003881 0.008002 0.000000 -0.001127 0.000000
# 4 0.000000 0.000000 0.000000 0.032896 0.000000 0.002175
# 5 -0.003075 0.000752 -0.001127 0.000000 0.026078 0.000000
# 6 0.000000 0.000000 0.000000 0.002175 0.000000 0.034883
#
#
# Mechanical properties :
#
#
# Convention : Reuss Voigt Hill
#
# Bulk Modulus (GPa) = 44.36936 54.84410 49.60673
# Shear Modulus (GPa) = 31.03964 33.83129 32.43547
#
# Velocity S-wave (km/s) = 3.84819 4.01751 3.93376
# Velocity P-wave (km/s) = 6.39631 6.90550 6.65577
#
# Compressibility (1/GPa) = 0.02253807
#
# Stress axis : x y z
#
# Youngs Moduli (GPa) = 52.08338 71.81418 124.97478
#
# Poissons Ratio (x) = 0.29821 0.15759
# Poissons Ratio (y) = 0.21628 0.48498
# Poissons Ratio (z) = 0.06567 0.27869
#
# Static dielectric constant tensor:
#      x y z
#    x 2.593400 0.000000 -0.213210 
#    y 0.000000 3.712200 0.000000 
#    z -0.213210 0.000000 3.816460 
# 
# 
# High freq. dielectric constant tensor:
#      x y z
#    x 1.817020 0.000000 0.007730 
#    y 0.000000 1.826790 0.000000 
#    z 0.007730 0.000000 1.834290 
# 
# From -- ./inp_files/92866.got.cif
#   From: 2010.06.25/outbox.cif.g09.slc.cpg/sg12_47_cif.got.tgz:92866.got - 2010.06.28 00:19:55.
