data_PCOD8112015
_publ_section_title
;
Structure prediction by ZEFSAII (Michael W. Deem and Ramdas Pophale) SiO2 
 PCOD8112015
Probable space group: C 2/M
;
_chemical_formula_sum "Si O2"
_cell_formula_units_Z 40
_cell_length_a 10.657861
_cell_length_b 19.074011
_cell_length_c 8.195698
_cell_angle_alpha 90.000000
_cell_angle_beta 83.973461
_cell_angle_gamma 90.000000
_cell_volume 1656.880499
_symmetry_space_group_name_H-M "C 2/M"
_symmetry_group_IT_number 12
_symmetry_cell_setting 'monoclinic'
loop_
_space_group_symop_operation_xyz
x,y,z
-x,y,-z
-x,-y,-z
x,-y,z
1/2+x,1/2+y,z
1/2-x,1/2+y,-z
1/2-x,1/2-y,-z
1/2+x,1/2-y,z
loop_
_atom_site_type_symbol
_atom_site_label
_atom_site_fract_x
_atom_site_fract_y
_atom_site_fract_z
Si Si1 0.704204 0.917195 0.683909
Si Si2 0.797107 0.921782 0.315089
Si Si3 0.235341 0.716286 0.177872
Si Si4 0.034565 0.300749 0.804672
Si Si5 0.942171 0.920816 0.845082
O O1 0.740921 0.898099 0.494835
O O2 0.572512 0.879456 0.745007
O O3 0.814749 0.886358 0.788954
O O4 0.687361 0.000000 0.707540
O O5 0.752883 0.868318 0.178712
O O6 0.949523 0.920521 0.307580
O O7 0.750790 0.000000 0.273428
O O8 0.347943 0.751441 0.267517
O O9 0.092579 0.728107 0.266618
O O10 0.250000 0.750000 0.000000
O O11 0.000000 0.301468 0.000000
O O12 0.906134 0.000000 0.901474
O O13 0.000000 0.881991 0.000000
#
# Coordination Sequence:
#
# PCOD8112015 Si02
#       5
#     8   8   8   8   8
#     4  10  22  41  66 103 144 181 232 290 347 412
#     4  10  22  41  69 101 139 184 231 289 350 411
#     4  10  24  44  66  97 136 178 233 286 347 417
#     4  10  24  43  66  97 135 185 231 289 350 416
#     4   9  19  34  62 101 138 179 225 277 341 408
#
# _framework density 24.141752
#
# number of rings (size 3 to 8) (size 9 to 14) (size 15 to 20)
#    0.000    2.200    0.000    0.600    8.400    6.000 
#    0.000    2.000    0.000    0.000    0.000    0.000 
#    0.000    0.000    0.000    0.000    0.000    0.000 
#
# Total GULP energy -247783.029498 kJ/mol
# GULP energy per Si atom -12389.151475 kJ/mol
# Density = 2.408680 g / cm^3
# Si number density = 24.141752 Si / 1000 Ang^3
#
#
#
# Elastic Constant Matrix: (Units=GPa)
#
#
# Indices 1 2 3 4 5 6 
#
# 1 194.3850 67.3908 42.1033 0.0000 -22.7656 0.0000
# 2 67.3908 112.5717 50.4642 0.0000 2.8255 0.0000
# 3 42.1033 50.4642 78.7507 0.0000 -4.9682 0.0000
# 4 0.0000 0.0000 0.0000 35.1231 0.0000 -7.2870
# 5 -22.7656 2.8255 -4.9682 0.0000 30.9459 0.0000
# 6 0.0000 0.0000 0.0000 -7.2870 0.0000 43.2737
#
#
#
# Elastic Compliance Matrix: (Units=1/GPa)
#
#
# Indices 1 2 3 4 5 6 
#
# 1 0.007475 -0.004194 -0.000947 0.000000 0.005730 0.000000
# 2 -0.004194 0.015002 -0.007731 0.000000 -0.005696 0.000000
# 3 -0.000947 -0.007731 0.018345 0.000000 0.002954 0.000000
# 4 0.000000 0.000000 0.000000 0.029502 0.000000 0.004968
# 5 0.005730 -0.005696 0.002954 0.000000 0.037524 0.000000
# 6 0.000000 0.000000 0.000000 0.004968 0.000000 0.023945
#
#
# Mechanical properties :
#
#
# Convention : Reuss Voigt Hill
#
# Bulk Modulus (GPa) = 66.32095 78.40265 72.36180
# Shear Modulus (GPa) = 30.75725 36.91849 33.83787
#
# Velocity S-wave (km/s) = 3.57322 3.91479 3.74790
# Velocity P-wave (km/s) = 6.67495 7.27878 6.98339
#
# Compressibility (1/GPa) = 0.01507819
#
# Stress axis : x y z
#
# Youngs Moduli (GPa) = 133.78707 66.65594 54.51020
#
# Poissons Ratio (x) = 0.27954 0.05164
# Poissons Ratio (y) = 0.56107 0.42141
# Poissons Ratio (z) = 0.12674 0.51531
#
# Static dielectric constant tensor:
#      x y z
#    x 5.488850 0.000000 -0.029890 
#    y 0.000000 4.341270 0.000000 
#    z -0.029890 0.000000 3.968550 
# 
# 
# High freq. dielectric constant tensor:
#      x y z
#    x 1.964380 0.000000 -0.015450 
#    y 0.000000 1.955190 0.000000 
#    z -0.015450 0.000000 1.926610 
# 
# From -- ./inp_files/39176.got.cif
#   From: 2010.06.25/outbox.cif.g09.slc.cpg/sg12_20_cif.got.tgz:39176.got - 2010.06.28 00:19:55.
