data_PCOD8112880
_publ_section_title
;
Structure prediction by ZEFSAII (Michael W. Deem and Ramdas Pophale) SiO2 
 PCOD8112880
Probable space group: C 2/M
;
_chemical_formula_sum "Si O2"
_cell_formula_units_Z 64
_cell_length_a 25.651510
_cell_length_b 18.560666
_cell_length_c 19.819699
_cell_angle_alpha 90.000000
_cell_angle_beta 160.759229
_cell_angle_gamma 90.000000
_cell_volume 3109.637744
_symmetry_space_group_name_H-M "C 2/M"
_symmetry_group_IT_number 12
_symmetry_cell_setting 'monoclinic'
loop_
_space_group_symop_operation_xyz
x,y,z
-x,y,-z
-x,-y,-z
x,-y,z
1/2+x,1/2+y,z
1/2-x,1/2+y,-z
1/2-x,1/2-y,-z
1/2+x,1/2-y,z
loop_
_atom_site_type_symbol
_atom_site_label
_atom_site_fract_x
_atom_site_fract_y
_atom_site_fract_z
Si Si1 0.392984 0.582011 0.256437
Si Si2 0.826192 0.324579 0.263184
Si Si3 0.690716 0.171471 0.104987
Si Si4 0.832334 0.319809 0.633502
Si Si5 0.336931 0.083978 0.515409
Si Si6 0.668777 0.081560 0.858950
Si Si7 0.821304 0.173004 0.784250
Si Si8 0.703444 0.324708 0.622192
O O1 0.449520 0.500000 0.340803
O O2 0.263249 0.603328 0.154290
O O3 0.536096 0.638230 0.431894
O O4 0.314041 0.585774 0.087211
O O5 0.804587 0.239041 0.228395
O O6 0.785727 0.365352 0.145356
O O7 0.708644 0.355552 0.176915
O O8 0.000000 0.343897 0.500000
O O9 0.684138 0.152802 0.177181
O O10 0.518388 0.194102 0.868582
O O11 0.750000 0.250000 0.500000
O O12 0.801504 0.385339 0.545724
O O13 0.765240 0.346026 0.623734
O O14 0.509170 0.108634 0.700071
O O15 0.203721 0.110080 0.300183
O O16 0.323127 0.000000 0.505833
O O17 0.645318 0.000000 0.803418
O O18 0.696402 0.237319 0.614898
O O19 0.000000 0.202757 0.000000
#
# Coordination Sequence:
#
# PCOD8112880 Si02
#       8
#     8   8   8   8   8   8   8   8
#     4  11  25  45  68  97 133 173 223 278 336 392
#     4  11  22  37  65  99 127 168 222 271 320 391
#     4  11  24  42  68  97 132 170 217 274 330 394
#     4  12  25  42  69  96 131 179 218 269 334 390
#     4  11  24  43  66  96 134 178 222 269 329 398
#     4  10  23  42  64  94 133 175 218 269 326 394
#     4  11  23  42  66  96 136 174 215 269 331 400
#     4  11  24  42  67  98 131 167 222 276 325 388
#
# _framework density 20.581175999999999
#
# number of rings (size 3 to 8) (size 9 to 14) (size 15 to 20)
#    0.000    1.000    3.750    3.750    1.750    3.000 
#    0.000    1.250    0.000    4.125    0.000    0.000 
#    0.000    0.000    0.000    0.000    0.000    0.000 
#
# Total GULP energy -396789.549080 kJ/mol
# GULP energy per Si atom -12399.673409 kJ/mol
# Density = 2.053433 g / cm^3
# Si number density = 20.581176 Si / 1000 Ang^3
#
#
#
# Elastic Constant Matrix: (Units=GPa)
#
#
# Indices 1 2 3 4 5 6 
#
# 1 163.5538 70.9494 39.4531 -0.0046 -14.4003 -0.0204
# 2 70.9494 92.3984 52.0192 -0.0113 -8.7624 -0.0190
# 3 39.4531 52.0192 107.3664 0.0006 2.6796 -0.0286
# 4 -0.0046 -0.0113 0.0006 19.7376 -0.0002 -0.3362
# 5 -14.4003 -8.7624 2.6796 -0.0002 34.4253 -0.0072
# 6 -0.0204 -0.0190 -0.0286 -0.3362 -0.0072 30.5069
#
#
#
# Elastic Compliance Matrix: (Units=1/GPa)
#
#
# Indices 1 2 3 4 5 6 
#
# 1 0.009320 -0.006865 -0.000152 -0.000002 0.002163 0.000002
# 2 -0.006865 0.020622 -0.007543 0.000011 0.002964 0.000002
# 3 -0.000152 -0.007543 0.013099 -0.000005 -0.003003 0.000007
# 4 -0.000002 0.000011 -0.000005 0.050674 0.000003 0.000558
# 5 0.002163 0.002964 -0.003003 0.000003 0.030941 0.000008
# 6 0.000002 0.000002 0.000007 0.000558 0.000008 0.032786
#
#
# Mechanical properties :
#
#
# Convention : Reuss Voigt Hill
#
# Bulk Modulus (GPa) = 71.83783 76.46246 74.15015
# Shear Modulus (GPa) = 26.15034 30.32707 28.23871
#
# Velocity S-wave (km/s) = 3.56841 3.84283 3.70816
# Velocity P-wave (km/s) = 7.20822 7.54467 7.37836
#
# Compressibility (1/GPa) = 0.01392024
#
# Stress axis : x y z
#
# Youngs Moduli (GPa) = 107.30180 48.49253 76.34060
#
# Poissons Ratio (x) = 0.33291 0.01163
# Poissons Ratio (y) = 0.73665 0.57580
# Poissons Ratio (z) = 0.01634 0.36576
#
# Static dielectric constant tensor:
#      x y z
#    x 4.162770 -0.000020 -0.122150 
#    y -0.000020 3.613050 -0.000020 
#    z -0.122150 -0.000020 3.756760 
# 
# 
# High freq. dielectric constant tensor:
#      x y z
#    x 1.820010 0.000000 -0.010340 
#    y 0.000000 1.791210 0.000000 
#    z -0.010340 0.000000 1.808010 
# 
# From -- ./inp_files/290958.got.cif
#   From: 2010.06.25/outbox.cif.g09.slc.cpg/sg12_146_cif.got.tgz:290958.got - 2010.06.28 00:19:55.
