data_PCOD8112956
_publ_section_title
;
Structure prediction by ZEFSAII (Michael W. Deem and Ramdas Pophale) SiO2 
 PCOD8112956
Probable space group: C 2/M
;
_chemical_formula_sum "Si O2"
_cell_formula_units_Z 40
_cell_length_a 12.215969
_cell_length_b 16.026763
_cell_length_c 9.073926
_cell_angle_alpha 90.000000
_cell_angle_beta 108.134705
_cell_angle_gamma 90.000000
_cell_volume 1688.271191
_symmetry_space_group_name_H-M "C 2/M"
_symmetry_group_IT_number 12
_symmetry_cell_setting 'monoclinic'
loop_
_space_group_symop_operation_xyz
x,y,z
-x,y,-z
-x,-y,-z
x,-y,z
1/2+x,1/2+y,z
1/2-x,1/2+y,-z
1/2-x,1/2-y,-z
1/2+x,1/2-y,z
loop_
_atom_site_type_symbol
_atom_site_label
_atom_site_fract_x
_atom_site_fract_y
_atom_site_fract_z
Si Si1 0.599530 0.904489 0.161664
Si Si2 0.966761 0.091721 0.639298
Si Si3 0.332375 0.657371 0.128085
Si Si4 0.783846 0.098720 0.789202
Si Si5 0.052413 0.682707 0.675280
O O1 0.709410 0.852621 0.153288
O O2 0.554372 0.861483 0.289780
O O3 0.635873 0.000000 0.207718
O O4 0.500000 0.900888 0.000000
O O5 0.080716 0.084300 0.787650
O O6 0.000000 0.139436 0.500000
O O7 0.863440 0.134126 0.689104
O O8 0.922071 0.000000 0.578470
O O9 0.395496 0.742293 0.205522
O O10 0.317002 0.653454 0.946120
O O11 0.651656 0.113888 0.691031
O O12 0.803559 0.000000 0.827551
O O13 0.000000 0.715474 0.500000
#
# Coordination Sequence:
#
# PCOD8112956 Si02
#       5
#     8   8   8   8   8
#     4  11  25  46  74 107 146 194 248 300 361 439
#     4  10  23  42  69 106 145 187 237 297 363 432
#     4  12  25  45  73 103 145 192 245 300 360 433
#     4  11  24  46  75 106 143 191 247 296 355 438
#     4  12  29  46  71 109 151 190 239 305 375 435
#
# _framework density 23.692875999999998
#
# number of rings (size 3 to 8) (size 9 to 14) (size 15 to 20)
#    0.000    0.800    2.000    4.200    5.600    4.000 
#    0.000    0.000    0.000    0.000    0.000    0.000 
#    0.000    0.000    0.000    0.000    0.000    0.000 
#
# Total GULP energy -247938.511355 kJ/mol
# GULP energy per Si atom -12396.925568 kJ/mol
# Density = 2.363895 g / cm^3
# Si number density = 23.692876 Si / 1000 Ang^3
#
#
#
# Elastic Constant Matrix: (Units=GPa)
#
#
# Indices 1 2 3 4 5 6 
#
# 1 166.9193 25.6642 69.9715 0.0000 -41.6883 0.0000
# 2 25.6642 78.3717 47.6500 0.0000 -4.6806 0.0000
# 3 69.9715 47.6500 141.2571 0.0000 -28.2772 0.0000
# 4 0.0000 0.0000 0.0000 21.0391 0.0000 6.9642
# 5 -41.6883 -4.6806 -28.2772 0.0000 48.1060 0.0000
# 6 0.0000 0.0000 0.0000 6.9642 0.0000 23.9038
#
#
#
# Elastic Compliance Matrix: (Units=1/GPa)
#
#
# Indices 1 2 3 4 5 6 
#
# 1 0.008790 -0.000744 -0.002938 0.000000 0.005818 0.000000
# 2 -0.000744 0.016259 -0.005586 0.000000 -0.002346 0.000000
# 3 -0.002938 -0.005586 0.011108 0.000000 0.003439 0.000000
# 4 0.000000 0.000000 0.000000 0.052604 0.000000 -0.015326
# 5 0.005818 -0.002346 0.003439 0.000000 0.027622 0.000000
# 6 0.000000 0.000000 0.000000 -0.015326 0.000000 0.046299
#
#
# Mechanical properties :
#
#
# Convention : Reuss Voigt Hill
#
# Bulk Modulus (GPa) = 56.75399 74.79104 65.77251
# Shear Modulus (GPa) = 26.72467 34.82728 30.77598
#
# Velocity S-wave (km/s) = 3.36216 3.83815 3.60801
# Velocity P-wave (km/s) = 6.25125 7.16081 6.72144
#
# Compressibility (1/GPa) = 0.01761991
#
# Stress axis : x y z
#
# Youngs Moduli (GPa) = 113.76360 61.50253 90.02889
#
# Poissons Ratio (x) = 0.04579 0.26454
# Poissons Ratio (y) = 0.08469 0.50288
# Poissons Ratio (z) = 0.33429 0.34354
#
# Static dielectric constant tensor:
#      x y z
#    x 4.595640 0.000000 -0.094160 
#    y 0.000000 4.182840 0.000000 
#    z -0.094160 0.000000 4.393140 
# 
# 
# High freq. dielectric constant tensor:
#      x y z
#    x 1.954270 0.000000 -0.006350 
#    y 0.000000 1.940250 0.000000 
#    z -0.006350 0.000000 1.938240 
# 
# From -- ./inp_files/47125.got.cif
#   From: 2010.06.25/outbox.cif.g09.slc.cpg/sg12_24_cif.got.tgz:47125.got - 2010.06.28 00:19:55.
