data_PCOD8112379
_publ_section_title
;
Structure prediction by ZEFSAII (Michael W. Deem and Ramdas Pophale) SiO2 
 PCOD8112379
Probable space group: C 2/M
;
_chemical_formula_sum "Si O2"
_cell_formula_units_Z 40
_cell_length_a 9.405118
_cell_length_b 9.517511
_cell_length_c 21.537025
_cell_angle_alpha 90.000000
_cell_angle_beta 78.283190
_cell_angle_gamma 90.000000
_cell_volume 1887.680387
_symmetry_space_group_name_H-M "C 2/M"
_symmetry_group_IT_number 12
_symmetry_cell_setting 'monoclinic'
loop_
_space_group_symop_operation_xyz
x,y,z
-x,y,-z
-x,-y,-z
x,-y,z
1/2+x,1/2+y,z
1/2-x,1/2+y,-z
1/2-x,1/2-y,-z
1/2+x,1/2-y,z
loop_
_atom_site_type_symbol
_atom_site_label
_atom_site_fract_x
_atom_site_fract_y
_atom_site_fract_z
Si Si1 0.146571 0.166975 0.767419
Si Si2 0.883432 0.000000 0.918685
Si Si3 0.636966 0.765375 0.150887
Si Si4 0.289012 0.500000 0.068121
Si Si5 0.341420 0.837827 0.359592
Si Si6 0.406813 0.159405 0.567941
O O1 0.298568 0.193143 0.787967
O O2 0.153236 0.238087 0.700246
O O3 0.033851 0.250282 0.821104
O O4 0.111769 0.000000 0.763593
O O5 0.812471 0.876857 0.885488
O O6 0.061360 0.000000 0.904666
O O7 0.823094 0.000000 0.993117
O O8 0.683688 0.872978 0.094015
O O9 0.496796 0.832015 0.378641
O O10 0.221713 0.772637 0.416428
O O11 0.301629 0.000000 0.346466
O O12 0.500000 0.201615 0.500000
O O13 0.345793 0.000000 0.566127
#
# Coordination Sequence:
#
# PCOD8112379 Si02
#       6
#     8   4   8   4   8   8
#     4  12  26  44  64  90 135 169 214 266 319 382
#     4  11  24  45  67  97 131 163 210 265 323 385
#     4  12  22  45  65  95 123 174 208 264 324 377
#     4  11  24  45  67  95 133 163 208 267 321 385
#     4  11  25  40  64 100 125 172 220 264 315 379
#     4  10  22  43  67  95 134 171 212 264 322 378
#
# _framework density 21.190027000000001
#
# number of rings (size 3 to 8) (size 9 to 14) (size 15 to 20)
#    0.000    0.800    4.000    3.000    2.800    5.200 
#    0.000    1.000    0.000    0.000    0.000    0.000 
#    0.000    0.000    0.000    0.000    0.000    0.000 
#
# Total GULP energy -247903.956316 kJ/mol
# GULP energy per Si atom -12395.197816 kJ/mol
# Density = 2.114180 g / cm^3
# Si number density = 21.190027 Si / 1000 Ang^3
#
#
#
# Elastic Constant Matrix: (Units=GPa)
#
#
# Indices 1 2 3 4 5 6 
#
# 1 39.5929 32.8889 -0.0336 0.0000 -9.5308 0.0000
# 2 32.8889 144.3051 35.9779 0.0000 -17.7001 0.0000
# 3 -0.0336 35.9779 88.5522 0.0000 -6.8426 0.0000
# 4 0.0000 0.0000 0.0000 35.1488 0.0000 -12.2192
# 5 -9.5308 -17.7001 -6.8426 0.0000 33.9381 0.0000
# 6 0.0000 0.0000 0.0000 -12.2192 0.0000 27.6165
#
#
#
# Elastic Compliance Matrix: (Units=1/GPa)
#
#
# Indices 1 2 3 4 5 6 
#
# 1 0.033110 -0.007709 0.003609 0.000000 0.006005 0.000000
# 2 -0.007709 0.009923 -0.003862 0.000000 0.002232 0.000000
# 3 0.003609 -0.003862 0.012988 0.000000 0.001618 0.000000
# 4 0.000000 0.000000 0.000000 0.033622 0.000000 0.014876
# 5 0.006005 0.002232 0.001618 0.000000 0.032642 0.000000
# 6 0.000000 0.000000 0.000000 0.014876 0.000000 0.042792
#
#
# Mechanical properties :
#
#
# Convention : Reuss Voigt Hill
#
# Bulk Modulus (GPa) = 24.94016 45.56849 35.25433
# Shear Modulus (GPa) = 25.72428 32.91514 29.31971
#
# Velocity S-wave (km/s) = 3.48800 3.94551 3.72379
# Velocity P-wave (km/s) = 5.29310 6.50442 5.92977
#
# Compressibility (1/GPa) = 0.04009598
#
# Stress axis : x y z
#
# Youngs Moduli (GPa) = 30.20271 100.77105 76.99192
#
# Poissons Ratio (x) = 0.77687 -0.27785
# Poissons Ratio (y) = 0.23284 0.29737
# Poissons Ratio (z) = -0.10900 0.38921
#
# Static dielectric constant tensor:
#      x y z
#    x 3.741600 0.000000 -0.084520 
#    y 0.000000 3.970310 0.000000 
#    z -0.084520 0.000000 3.895750 
# 
# 
# High freq. dielectric constant tensor:
#      x y z
#    x 1.819440 0.000000 -0.006370 
#    y 0.000000 1.842840 0.000000 
#    z -0.006370 0.000000 1.850560 
# 
# From -- ./inp_files/331759.got.cif
#   From: 2010.06.25/outbox.cif.g09.slc.cpg/sg12_166_cif.got.tgz:331759.got - 2010.06.28 00:19:55.
