data_PCOD8112202
_publ_section_title
;
Structure prediction by ZEFSAII (Michael W. Deem and Ramdas Pophale) SiO2 
 PCOD8112202
Probable space group: C 2/M
;
_chemical_formula_sum "Si O2"
_cell_formula_units_Z 48
_cell_length_a 16.688129
_cell_length_b 16.349714
_cell_length_c 23.169397
_cell_angle_alpha 90.000000
_cell_angle_beta 159.249962
_cell_angle_gamma 90.000000
_cell_volume 2239.718650
_symmetry_space_group_name_H-M "C 2/M"
_symmetry_group_IT_number 12
_symmetry_cell_setting 'monoclinic'
loop_
_space_group_symop_operation_xyz
x,y,z
-x,y,-z
-x,-y,-z
x,-y,z
1/2+x,1/2+y,z
1/2-x,1/2+y,-z
1/2-x,1/2-y,-z
1/2+x,1/2-y,z
loop_
_atom_site_type_symbol
_atom_site_label
_atom_site_fract_x
_atom_site_fract_y
_atom_site_fract_z
Si Si1 0.359004 0.744782 0.797400
Si Si2 0.755488 0.671186 0.114878
Si Si3 0.607416 0.000000 0.634554
Si Si4 0.514238 0.311136 0.781915
Si Si5 0.532710 0.829350 0.413383
Si Si6 0.094198 0.000000 0.998879
Si Si7 0.940711 0.595138 0.028019
O O1 0.432312 0.686967 0.792729
O O2 0.091413 0.729450 0.623713
O O3 0.493047 0.702803 0.942621
O O4 0.404464 0.842910 0.828915
O O5 0.922854 0.694683 0.278865
O O6 0.857303 0.724244 0.131276
O O7 0.758647 0.576444 0.100119
O O8 0.500000 0.000000 0.500000
O O9 0.521239 0.923445 0.612154
O O10 0.880203 0.000000 0.811667
O O11 0.681116 0.382819 0.870696
O O12 0.298867 0.313663 0.594152
O O13 0.000000 0.000000 0.000000
O O14 0.986038 0.500000 0.075178
O O15 0.000000 0.608464 0.000000
#
# Coordination Sequence:
#
# PCOD8112202 Si02
#       7
#     8   8   4   8   8   4   8
#     4  11  21  42  64  95 127 164 213 258 325 381
#     4  11  21  39  61  92 124 170 210 249 311 386
#     4  12  24  38  60 102 125 162 200 261 337 371
#     4  11  25  41  61 100 128 162 212 267 327 374
#     4  12  23  40  66  91 133 164 206 259 322 388
#     4  12  20  40  64  92 125 158 213 258 315 395
#     4  10  22  42  66  90 123 172 222 262 306 377
#
# _framework density 21.431263000000001
#
# number of rings (size 3 to 8) (size 9 to 14) (size 15 to 20)
#    0.000    0.833    3.333    6.500    1.167    0.667 
#    7.500    0.000    1.833    1.000    0.000    0.000 
#    0.000    0.000    0.000    0.000    0.000    0.000 
#
# Total GULP energy -297333.662593 kJ/mol
# GULP energy per Si atom -12388.902608 kJ/mol
# Density = 2.138248 g / cm^3
# Si number density = 21.431263 Si / 1000 Ang^3
#
#
#
# Elastic Constant Matrix: (Units=GPa)
#
#
# Indices 1 2 3 4 5 6 
#
# 1 62.7137 17.0637 7.0780 0.0015 -0.1479 -0.0630
# 2 17.0637 153.5237 24.8801 0.0061 14.5312 -0.0636
# 3 7.0780 24.8801 91.5538 -0.0609 8.0221 -0.1204
# 4 0.0015 0.0061 -0.0609 24.1971 -0.0002 0.8047
# 5 -0.1479 14.5312 8.0221 -0.0002 37.1004 0.0130
# 6 -0.0630 -0.0636 -0.1204 0.8047 0.0130 20.0517
#
#
#
# Elastic Compliance Matrix: (Units=1/GPa)
#
#
# Indices 1 2 3 4 5 6 
#
# 1 0.016533 -0.001786 -0.000876 -0.000004 0.000955 0.000041
# 2 -0.001786 0.007207 -0.001603 -0.000006 -0.002483 0.000009
# 3 -0.000876 -0.001603 0.011591 0.000028 -0.001882 0.000062
# 4 -0.000004 -0.000006 0.000028 0.041383 -0.000003 -0.001661
# 5 0.000955 -0.002483 -0.001882 -0.000003 0.028337 -0.000034
# 6 0.000041 0.000009 0.000062 -0.001661 -0.000034 0.049938
#
#
# Mechanical properties :
#
#
# Convention : Reuss Voigt Hill
#
# Bulk Modulus (GPa) = 37.31327 45.09275 41.20301
# Shear Modulus (GPa) = 28.99352 33.52112 31.25732
#
# Velocity S-wave (km/s) = 3.68212 3.95919 3.82316
# Velocity P-wave (km/s) = 5.96035 6.47970 6.22545
#
# Compressibility (1/GPa) = 0.02680012
#
# Stress axis : x y z
#
# Youngs Moduli (GPa) = 60.48654 138.75477 86.27467
#
# Poissons Ratio (x) = 0.24780 0.07561
# Poissons Ratio (y) = 0.10802 0.13829
# Poissons Ratio (z) = 0.05301 0.22240
#
# Static dielectric constant tensor:
#      x y z
#    x 4.830860 -0.002400 -1.638690 
#    y -0.002400 4.002350 0.003440 
#    z -1.638690 0.003440 6.780730 
# 
# 
# High freq. dielectric constant tensor:
#      x y z
#    x 1.833060 0.000000 -0.002380 
#    y 0.000000 1.842960 -0.000040 
#    z -0.002380 -0.000040 1.843130 
# 
# From -- ./inp_files/344511.got.cif
#   From: 2010.06.25/outbox.cif.g09.slc.cpg/sg12_173_cif.got.tgz:344511.got - 2010.06.28 00:19:55.
