data_PCOD8112164
_publ_section_title
;
Structure prediction by ZEFSAII (Michael W. Deem and Ramdas Pophale) SiO2 
 PCOD8112164
Probable space group: C 2/M
;
_chemical_formula_sum "Si O2"
_cell_formula_units_Z 40
_cell_length_a 27.242710
_cell_length_b 10.848735
_cell_length_c 11.498387
_cell_angle_alpha 90.000000
_cell_angle_beta 148.968291
_cell_angle_gamma 90.000000
_cell_volume 1751.884318
_symmetry_space_group_name_H-M "C 2/M"
_symmetry_group_IT_number 12
_symmetry_cell_setting 'monoclinic'
loop_
_space_group_symop_operation_xyz
x,y,z
-x,y,-z
-x,-y,-z
x,-y,z
1/2+x,1/2+y,z
1/2-x,1/2+y,-z
1/2-x,1/2-y,-z
1/2+x,1/2-y,z
loop_
_atom_site_type_symbol
_atom_site_label
_atom_site_fract_x
_atom_site_fract_y
_atom_site_fract_z
Si Si1 0.778571 0.635218 0.710505
Si Si2 0.030938 0.137212 0.693031
Si Si3 0.072038 0.635812 0.397289
Si Si4 0.103588 0.768998 0.235279
Si Si5 0.739679 0.708114 0.110183
O O1 0.822368 0.500000 0.796548
O O2 0.853783 0.724306 0.800720
O O3 0.675988 0.632943 0.437844
O O4 0.764682 0.672384 0.816000
O O5 0.000000 0.169146 0.500000
O O6 0.992873 0.248742 0.695311
O O7 0.992071 0.000000 0.650612
O O8 0.144623 0.128570 0.932304
O O9 0.023145 0.500000 0.313642
O O10 0.094444 0.654190 0.306136
O O11 0.169328 0.628285 0.668205
O O12 0.000000 0.829266 0.000000
O O13 0.750000 0.750000 0.000000
#
# Coordination Sequence:
#
# PCOD8112164 Si02
#       5
#     8   8   8   8   8
#     4  10  23  41  66  97 129 171 223 272 327 395
#     4  11  24  43  64  93 132 173 218 268 324 389
#     4  11  24  42  67  99 132 171 221 272 330 394
#     4  10  22  42  64  94 132 169 215 274 332 390
#     4  11  23  43  64  95 131 176 216 271 327 394
#
# _framework density 22.832559
#
# number of rings (size 3 to 8) (size 9 to 14) (size 15 to 20)
#    0.000    1.400    2.000    2.400    0.000    9.600 
#    0.000    7.000    0.000    0.000    0.000    0.000 
#    0.000    0.000    0.000    0.000    0.000    0.000 
#
# Total GULP energy -247924.358616 kJ/mol
# GULP energy per Si atom -12396.217931 kJ/mol
# Density = 2.278059 g / cm^3
# Si number density = 22.832559 Si / 1000 Ang^3
#
#
#
# Elastic Constant Matrix: (Units=GPa)
#
#
# Indices 1 2 3 4 5 6 
#
# 1 131.0790 47.3659 27.8577 0.0000 -13.5291 0.0000
# 2 47.3659 130.3257 -1.7753 0.0000 1.1972 0.0000
# 3 27.8577 -1.7753 109.6221 0.0000 15.5542 0.0000
# 4 0.0000 0.0000 0.0000 6.4336 0.0000 8.3722
# 5 -13.5291 1.1972 15.5542 0.0000 44.3613 0.0000
# 6 0.0000 0.0000 0.0000 8.3722 0.0000 19.1706
#
#
#
# Elastic Compliance Matrix: (Units=1/GPa)
#
#
# Indices 1 2 3 4 5 6 
#
# 1 0.010126 -0.003764 -0.003249 0.000000 0.004329 0.000000
# 2 -0.003764 0.009077 0.001369 0.000000 -0.001873 0.000000
# 3 -0.003249 0.001369 0.010645 0.000000 -0.004760 0.000000
# 4 0.000000 0.000000 0.000000 0.360062 0.000000 -0.157247
# 5 0.004329 -0.001873 -0.004760 0.000000 0.025582 0.000000
# 6 0.000000 0.000000 0.000000 -0.157247 0.000000 0.120836
#
#
# Mechanical properties :
#
#
# Convention : Reuss Voigt Hill
#
# Bulk Modulus (GPa) = 53.87408 57.54705 55.71056
# Shear Modulus (GPa) = 9.02847 33.83168 21.43008
#
# Velocity S-wave (km/s) = 1.99068 3.85350 3.06694
# Velocity P-wave (km/s) = 5.37868 6.71252 6.08228
#
# Compressibility (1/GPa) = 0.01856180
#
# Stress axis : x y z
#
# Youngs Moduli (GPa) = 98.75087 110.16744 93.93730
#
# Poissons Ratio (x) = 0.41472 0.30516
# Poissons Ratio (y) = 0.37174 -0.12864
# Poissons Ratio (z) = 0.32080 -0.15087
#
# Static dielectric constant tensor:
#      x y z
#    x 4.098490 0.000000 0.026480 
#    y 0.000000 3.803780 0.000000 
#    z 0.026480 0.000000 4.500370 
# 
# 
# High freq. dielectric constant tensor:
#      x y z
#    x 1.900240 0.000000 -0.005440 
#    y 0.000000 1.877760 0.000000 
#    z -0.005440 0.000000 1.923640 
# 
# From -- ./inp_files/140383.got.cif
#   From: 2010.06.25/outbox.cif.g09.slc.cpg/sg12_71_cif.got.tgz:140383.got - 2010.06.28 00:19:55.
