data_PCOD8112007
_publ_section_title
;
Structure prediction by ZEFSAII (Michael W. Deem and Ramdas Pophale) SiO2 
 PCOD8112007
Probable space group: C 2/M
;
_chemical_formula_sum "Si O2"
_cell_formula_units_Z 60
_cell_length_a 19.801617
_cell_length_b 12.579820
_cell_length_c 23.092549
_cell_angle_alpha 90.000000
_cell_angle_beta 30.463029
_cell_angle_gamma 90.000000
_cell_volume 2916.350614
_symmetry_space_group_name_H-M "C 2/M"
_symmetry_group_IT_number 12
_symmetry_cell_setting 'monoclinic'
loop_
_space_group_symop_operation_xyz
x,y,z
-x,y,-z
-x,-y,-z
x,-y,z
1/2+x,1/2+y,z
1/2-x,1/2+y,-z
1/2-x,1/2-y,-z
1/2+x,1/2-y,z
loop_
_atom_site_type_symbol
_atom_site_label
_atom_site_fract_x
_atom_site_fract_y
_atom_site_fract_z
Si Si1 0.500000 0.775352 0.000000
Si Si2 0.107199 0.793478 0.090444
Si Si3 0.050468 0.279063 0.321555
Si Si4 0.823520 0.621882 0.558571
Si Si5 0.360183 0.703571 0.624977
Si Si6 0.440627 0.621427 0.311324
Si Si7 0.926495 0.620722 0.172182
Si Si8 0.695739 0.378110 0.906717
O O1 0.480928 0.851752 0.068507
O O2 0.372960 0.697759 0.089692
O O3 0.060493 0.869099 0.176797
O O4 0.000951 0.697635 0.162364
O O5 0.250000 0.750000 0.000000
O O6 0.119307 0.863993 0.023828
O O7 0.133618 0.222231 0.310989
O O8 0.149695 0.341792 0.204919
O O9 0.949536 0.363481 0.423678
O O10 0.968155 0.191091 0.347496
O O11 0.808866 0.500000 0.587809
O O12 0.840466 0.685551 0.605630
O O13 0.694204 0.661422 0.619397
O O14 0.500000 0.650513 0.500000
O O15 0.233760 0.629489 0.704888
O O16 0.428533 0.500000 0.340982
O O17 0.966004 0.500000 0.157873
O O18 0.685310 0.500000 0.894573
#
# Coordination Sequence:
#
# PCOD8112007 Si02
#       8
#     4   8   8   8   8   8   8   8
#     4  10  22  42  56  90 126 160 204 258 302 386
#     4  11  23  43  60  89 127 162 218 269 310 381
#     4  11  22  40  62  98 131 159 212 269 311 387
#     4  10  22  42  68  92 124 170 214 263 327 381
#     4  10  22  41  65  94 132 165 211 266 316 390
#     4  11  23  42  67  91 127 173 210 264 328 381
#     4  11  23  41  65  91 124 172 215 262 322 377
#     4  11  22  37  62  91 123 161 203 258 314 361
#
# _framework density 20.573658999999999
#
# number of rings (size 3 to 8) (size 9 to 14) (size 15 to 20)
#    0.000    1.333    4.000    1.600    0.000    4.800 
#    0.000    2.000    0.000    0.000    0.000    0.000 
#    0.000    0.000    0.000    0.000    0.000    0.000 
#
# Total GULP energy -372072.993560 kJ/mol
# GULP energy per Si atom -12402.433119 kJ/mol
# Density = 2.052683 g / cm^3
# Si number density = 20.573659 Si / 1000 Ang^3
#
#
#
# Elastic Constant Matrix: (Units=GPa)
#
#
# Indices 1 2 3 4 5 6 
#
# 1 91.2434 21.7565 11.7352 0.0006 -7.7364 -0.0003
# 2 21.7565 83.1630 14.7043 0.0004 -2.6141 -0.0001
# 3 11.7352 14.7043 75.3677 -0.0013 -15.2575 0.0005
# 4 0.0006 0.0004 -0.0013 28.5605 0.0009 -2.2887
# 5 -7.7364 -2.6141 -15.2575 0.0009 39.9704 -0.0002
# 6 -0.0003 -0.0001 0.0005 -2.2887 -0.0002 19.8903
#
#
#
# Elastic Compliance Matrix: (Units=1/GPa)
#
#
# Indices 1 2 3 4 5 6 
#
# 1 0.011920 -0.002898 -0.000934 0.000000 0.001761 0.000000
# 2 -0.002898 0.013159 -0.002228 0.000000 -0.000551 0.000000
# 3 -0.000934 -0.002228 0.014936 0.000001 0.005375 0.000000
# 4 0.000000 0.000000 0.000001 0.035339 -0.000001 0.004066
# 5 0.001761 -0.000551 0.005375 -0.000001 0.027375 0.000000
# 6 0.000000 0.000000 0.000000 0.004066 0.000000 0.050744
#
#
# Mechanical properties :
#
#
# Convention : Reuss Voigt Hill
#
# Bulk Modulus (GPa) = 35.84676 38.46290 37.15483
# Shear Modulus (GPa) = 28.58907 31.12280 29.85594
#
# Velocity S-wave (km/s) = 3.73177 3.89363 3.81356
# Velocity P-wave (km/s) = 6.00247 6.24096 6.12288
#
# Compressibility (1/GPa) = 0.02789652
#
# Stress axis : x y z
#
# Youngs Moduli (GPa) = 83.89154 75.99203 66.95023
#
# Poissons Ratio (x) = 0.22022 0.06254
# Poissons Ratio (y) = 0.24311 0.14914
# Poissons Ratio (z) = 0.07837 0.16928
#
# Static dielectric constant tensor:
#      x y z
#    x 3.736910 0.000000 -0.144660 
#    y 0.000000 3.443860 0.000010 
#    z -0.144660 0.000010 3.905310 
# 
# 
# High freq. dielectric constant tensor:
#      x y z
#    x 1.806280 0.000000 -0.009900 
#    y 0.000000 1.788130 0.000000 
#    z -0.009900 0.000000 1.818790 
# 
# From -- ./inp_files/347132.got.cif
#   From: 2010.06.25/outbox.cif.g09.slc.cpg/sg12_174_cif.got.tgz:347132.got - 2010.06.28 00:19:55.
