data_PCOD8112298
_publ_section_title
;
Structure prediction by ZEFSAII (Michael W. Deem and Ramdas Pophale) SiO2 
 PCOD8112298
Probable space group: C 2/M
;
_chemical_formula_sum "Si O2"
_cell_formula_units_Z 56
_cell_length_a 9.719483
_cell_length_b 16.000885
_cell_length_c 26.020178
_cell_angle_alpha 90.000000
_cell_angle_beta 137.298014
_cell_angle_gamma 90.000000
_cell_volume 2744.389210
_symmetry_space_group_name_H-M "C 2/M"
_symmetry_group_IT_number 12
_symmetry_cell_setting 'monoclinic'
loop_
_space_group_symop_operation_xyz
x,y,z
-x,y,-z
-x,-y,-z
x,-y,z
1/2+x,1/2+y,z
1/2-x,1/2+y,-z
1/2-x,1/2-y,-z
1/2+x,1/2-y,z
loop_
_atom_site_type_symbol
_atom_site_label
_atom_site_fract_x
_atom_site_fract_y
_atom_site_fract_z
Si Si1 0.609715 0.170887 0.475582
Si Si2 0.693000 0.906402 0.860792
Si Si3 0.997600 0.093564 0.557179
Si Si4 0.270157 0.243544 0.945801
Si Si5 0.125071 0.676419 0.292259
Si Si6 0.516343 0.407112 0.151650
Si Si7 0.169598 0.325114 0.696976
O O1 0.500000 0.180584 0.500000
O O2 0.750000 0.250000 0.500000
O O3 0.771775 0.095154 0.519820
O O4 0.438573 0.151243 0.386129
O O5 0.703080 0.833847 0.905683
O O6 0.491642 0.895306 0.770965
O O7 0.891518 0.897819 0.880030
O O8 0.684610 0.000000 0.883158
O O9 0.000000 0.129561 0.500000
O O10 0.148742 0.149110 0.631519
O O11 0.081983 0.000000 0.580170
O O12 0.145426 0.167128 0.886020
O O13 0.500000 0.220796 0.000000
O O14 0.250000 0.250000 0.000000
O O15 0.160310 0.754403 0.264626
O O16 0.000110 0.703751 0.308512
O O17 0.419006 0.500000 0.131465
O O18 0.698809 0.401140 0.243603
#
# Coordination Sequence:
#
# PCOD8112298 Si02
#       7
#     8   8   8   8   8   8   8
#     4  12  23  38  61  89 121 164 214 264 322 379
#     4  10  22  42  69  97 128 172 219 255 311 391
#     4  11  23  39  58  87 125 162 212 271 323 376
#     4  12  24  42  70 101 133 164 207 261 321 383
#     4  11  21  38  65  93 122 166 214 266 317 377
#     4  10  23  44  68  96 131 172 216 262 318 387
#     4  11  22  37  66  91 122 167 218 261 318 379
#
# _framework density 20.405269000000001
#
# number of rings (size 3 to 8) (size 9 to 14) (size 15 to 20)
#    0.000    1.000    5.714    1.714    0.000    2.571 
#    0.000    0.000    0.000    0.000    0.000    0.000 
#    0.000    0.000    0.000    0.000    0.000    0.000 
#
# Total GULP energy -347091.694610 kJ/mol
# GULP energy per Si atom -12396.131950 kJ/mol
# Density = 2.035883 g / cm^3
# Si number density = 20.405269 Si / 1000 Ang^3
#
#
#
# Elastic Constant Matrix: (Units=GPa)
#
#
# Indices 1 2 3 4 5 6 
#
# 1 130.0360 45.9900 51.7124 0.0000 -0.9334 0.0000
# 2 45.9900 134.3350 54.3106 0.0000 -1.3746 0.0000
# 3 51.7124 54.3106 118.3012 0.0000 -0.4003 0.0000
# 4 0.0000 0.0000 0.0000 22.1789 0.0000 0.0730
# 5 -0.9334 -1.3746 -0.4003 0.0000 33.6541 0.0000
# 6 0.0000 0.0000 0.0000 0.0730 0.0000 28.9495
#
#
#
# Elastic Compliance Matrix: (Units=1/GPa)
#
#
# Indices 1 2 3 4 5 6 
#
# 1 0.009718 -0.001975 -0.003341 0.000000 0.000149 0.000000
# 2 -0.001975 0.009545 -0.003518 0.000000 0.000293 0.000000
# 3 -0.003341 -0.003518 0.011528 0.000000 -0.000099 0.000000
# 4 0.000000 0.000000 0.000000 0.045088 0.000000 -0.000114
# 5 0.000149 0.000293 -0.000099 0.000000 0.029729 0.000000
# 6 0.000000 0.000000 0.000000 -0.000114 0.000000 0.034543
#
#
# Mechanical properties :
#
#
# Convention : Reuss Voigt Hill
#
# Bulk Modulus (GPa) = 76.19424 76.29981 76.24702
# Shear Modulus (GPa) = 30.82714 32.33379 31.58047
#
# Velocity S-wave (km/s) = 3.89105 3.98500 3.93830
# Velocity P-wave (km/s) = 7.59003 7.65813 7.62416
#
# Compressibility (1/GPa) = 0.01312435
#
# Stress axis : x y z
#
# Youngs Moduli (GPa) = 102.89835 104.76198 86.74423
#
# Poissons Ratio (x) = 0.20689 0.28981
# Poissons Ratio (y) = 0.20321 0.30516
# Poissons Ratio (z) = 0.34378 0.36855
#
# Static dielectric constant tensor:
#      x y z
#    x 3.730480 0.000000 0.086860 
#    y 0.000000 3.776110 0.000000 
#    z 0.086860 0.000000 3.775370 
# 
# 
# High freq. dielectric constant tensor:
#      x y z
#    x 1.788850 0.000000 0.006840 
#    y 0.000000 1.793880 0.000000 
#    z 0.006840 0.000000 1.809030 
# 
# From -- ./inp_files/333386.got.cif
#   From: 2010.06.25/outbox.cif.g09.slc.cpg/sg12_167_cif.got.tgz:333386.got - 2010.06.28 00:19:55.
