data_PCOD8112803
_publ_section_title
;
Structure prediction by ZEFSAII (Michael W. Deem and Ramdas Pophale) SiO2 
 PCOD8112803
Probable space group: C 2/M
;
_chemical_formula_sum "Si O2"
_cell_formula_units_Z 56
_cell_length_a 30.905979
_cell_length_b 9.072682
_cell_length_c 11.755639
_cell_angle_alpha 90.000000
_cell_angle_beta 120.370717
_cell_angle_gamma 90.000000
_cell_volume 2843.940915
_symmetry_space_group_name_H-M "C 2/M"
_symmetry_group_IT_number 12
_symmetry_cell_setting 'monoclinic'
loop_
_space_group_symop_operation_xyz
x,y,z
-x,y,-z
-x,-y,-z
x,-y,z
1/2+x,1/2+y,z
1/2-x,1/2+y,-z
1/2-x,1/2-y,-z
1/2+x,1/2-y,z
loop_
_atom_site_type_symbol
_atom_site_label
_atom_site_fract_x
_atom_site_fract_y
_atom_site_fract_z
Si Si1 0.144104 0.673264 0.625541
Si Si2 0.171783 0.827997 0.119795
Si Si3 0.418719 0.167210 0.910986
Si Si4 0.696453 0.174361 0.929649
Si Si5 0.236534 0.671988 0.599111
Si Si6 0.508997 0.167351 0.195967
Si Si7 0.461813 0.326957 0.546070
O O1 0.134743 0.500000 0.607883
O O2 0.166489 0.719432 0.776939
O O3 0.182375 0.721277 0.575713
O O4 0.091766 0.752294 0.538767
O O5 0.126781 0.781442 0.142887
O O6 0.223604 0.787930 0.250317
O O7 0.168737 0.000000 0.086566
O O8 0.165686 0.734330 0.996490
O O9 0.442513 0.185838 0.818762
O O10 0.399358 0.000000 0.901348
O O11 0.459133 0.206347 0.060750
O O12 0.703743 0.000000 0.947187
O O13 0.750000 0.250000 0.000000
O O14 0.237553 0.500000 0.574460
O O15 0.250000 0.750000 0.500000
O O16 0.512706 0.282214 0.302241
O O17 0.506618 0.000000 0.239257
O O18 0.500000 0.273060 0.500000
O O19 0.453460 0.500000 0.530805
#
# Coordination Sequence:
#
# PCOD8112803 Si02
#       7
#     8   8   8   8   8   8   8
#     4  10  23  44  65  87 119 162 207 251 298 359
#     4  11  23  39  60  91 127 159 196 247 304 360
#     4   9  20  39  63  92 119 153 202 251 300 360
#     4  11  22  40  64  90 120 156 200 247 297 355
#     4  10  23  42  61  89 126 162 204 247 296 361
#     4   9  20  41  65  87 118 157 202 252 303 361
#     4  11  26  43  60  89 125 159 203 255 308 364
#
# _framework density 19.690985999999999
#
# number of rings (size 3 to 8) (size 9 to 14) (size 15 to 20)
#    0.000    1.857    1.429    2.143    4.000    5.143 
#    0.000    1.429    0.000    0.000    0.000    0.000 
#    0.000    0.000    0.000    0.000    0.000    0.000 
#
# Total GULP energy -347292.291757 kJ/mol
# GULP energy per Si atom -12403.296134 kJ/mol
# Density = 1.964617 g / cm^3
# Si number density = 19.690986 Si / 1000 Ang^3
#
#
#
# Elastic Constant Matrix: (Units=GPa)
#
#
# Indices 1 2 3 4 5 6 
#
# 1 131.6604 45.4386 47.9896 0.0000 -0.9369 0.0000
# 2 45.4386 56.0480 42.5750 0.0000 -4.3105 0.0000
# 3 47.9896 42.5750 90.6334 0.0000 -17.0986 0.0000
# 4 0.0000 0.0000 0.0000 31.9778 0.0000 -0.1870
# 5 -0.9369 -4.3105 -17.0986 0.0000 32.5936 0.0000
# 6 0.0000 0.0000 0.0000 -0.1870 0.0000 36.9809
#
#
#
# Elastic Compliance Matrix: (Units=1/GPa)
#
#
# Indices 1 2 3 4 5 6 
#
# 1 0.011042 -0.006787 -0.003072 0.000000 -0.002192 0.000000
# 2 -0.006787 0.032280 -0.011988 0.000000 -0.002215 0.000000
# 3 -0.003072 -0.011988 0.019950 0.000000 0.008792 0.000000
# 4 0.000000 0.000000 0.000000 0.031273 0.000000 0.000158
# 5 -0.002192 -0.002215 0.008792 0.000000 0.034937 0.000000
# 6 0.000000 0.000000 0.000000 0.000158 0.000000 0.027042
#
#
# Mechanical properties :
#
#
# Convention : Reuss Voigt Hill
#
# Bulk Modulus (GPa) = 51.07610 61.14979 56.11295
# Shear Modulus (GPa) = 24.18481 29.79970 26.99225
#
# Velocity S-wave (km/s) = 3.50840 3.89442 3.70644
# Velocity P-wave (km/s) = 6.51206 7.16548 6.84657
#
# Compressibility (1/GPa) = 0.01957863
#
# Stress axis : x y z
#
# Youngs Moduli (GPa) = 90.56675 30.97936 50.12557
#
# Poissons Ratio (x) = 0.21024 0.15398
# Poissons Ratio (y) = 0.61464 0.60089
# Poissons Ratio (z) = 0.27821 0.37137
#
# Static dielectric constant tensor:
#      x y z
#    x 3.751850 0.000000 -0.101510 
#    y 0.000000 3.517550 0.000000 
#    z -0.101510 0.000000 3.662210 
# 
# 
# High freq. dielectric constant tensor:
#      x y z
#    x 1.780880 0.000000 -0.002660 
#    y 0.000000 1.762970 0.000000 
#    z -0.002660 0.000000 1.772600 
# 
# From -- ./inp_files/181097.got.cif
#   From: 2010.06.25/outbox.cif.g09.slc.cpg/sg12_91_cif.got.tgz:181097.got - 2010.06.28 00:19:55.
