data_PCOD8112799
_publ_section_title
;
Structure prediction by ZEFSAII (Michael W. Deem and Ramdas Pophale) SiO2 
 PCOD8112799
Probable space group: C 2/M
;
_chemical_formula_sum "Si O2"
_cell_formula_units_Z 56
_cell_length_a 9.436687
_cell_length_b 16.848964
_cell_length_c 25.899950
_cell_angle_alpha 90.000000
_cell_angle_beta 41.927424
_cell_angle_gamma 90.000000
_cell_volume 2751.635022
_symmetry_space_group_name_H-M "C 2/M"
_symmetry_group_IT_number 12
_symmetry_cell_setting 'monoclinic'
loop_
_space_group_symop_operation_xyz
x,y,z
-x,y,-z
-x,-y,-z
x,-y,z
1/2+x,1/2+y,z
1/2-x,1/2+y,-z
1/2-x,1/2-y,-z
1/2+x,1/2-y,z
loop_
_atom_site_type_symbol
_atom_site_label
_atom_site_fract_x
_atom_site_fract_y
_atom_site_fract_z
Si Si1 0.928650 0.182844 0.307280
Si Si2 0.071280 0.815705 0.038711
Si Si3 0.364168 0.165326 0.792273
Si Si4 0.350578 0.093812 0.198931
Si Si5 0.059376 0.409121 0.038490
Si Si6 0.263649 0.715236 0.552789
Si Si7 0.597539 0.906701 0.328013
O O1 0.798745 0.213863 0.391584
O O2 0.790901 0.122635 0.310891
O O3 0.991466 0.257487 0.255001
O O4 0.134120 0.137319 0.273360
O O5 0.872750 0.806302 0.130273
O O6 0.250000 0.750000 0.000000
O O7 0.190313 0.898775 0.018111
O O8 0.000000 0.812781 0.000000
O O9 0.463834 0.114173 0.811268
O O10 0.349977 0.110652 0.745645
O O11 0.419904 0.125784 0.123471
O O12 0.314092 0.000000 0.209218
O O13 0.001291 0.500000 0.049517
O O14 0.000000 0.366298 0.000000
O O15 0.500000 0.685417 0.500000
O O16 0.250000 0.750000 0.500000
O O17 0.115333 0.638611 0.598059
O O18 0.564349 0.000000 0.345644
#
# Coordination Sequence:
#
# PCOD8112799 Si02
#       7
#     8   8   8   8   8   8   8
#     4  11  24  43  69  94 130 172 215 256 322 395
#     4  12  25  40  63  92 125 167 229 283 330 385
#     4  11  24  41  65  92 130 174 219 274 325 390
#     4  11  23  42  64  92 127 169 218 269 322 385
#     4  10  23  42  61  86 124 170 216 268 334 388
#     4  11  23  46  73  99 132 172 212 260 318 388
#     4  11  25  43  67 102 135 170 217 265 323 389
#
# _framework density 20.351537
#
# number of rings (size 3 to 8) (size 9 to 14) (size 15 to 20)
#    0.000    1.000    2.857    3.857    6.000    1.714 
#    0.000    2.143    0.000    0.000    0.000    0.000 
#    0.000    0.000    0.000    0.000    0.000    0.000 
#
# Total GULP energy -347261.130454 kJ/mol
# GULP energy per Si atom -12402.183230 kJ/mol
# Density = 2.030522 g / cm^3
# Si number density = 20.351537 Si / 1000 Ang^3
#
#
#
# Elastic Constant Matrix: (Units=GPa)
#
#
# Indices 1 2 3 4 5 6 
#
# 1 146.4940 48.5354 62.7170 -0.0025 2.4752 0.0022
# 2 48.5354 103.7353 43.1760 0.0001 5.2419 -0.0010
# 3 62.7170 43.1760 140.7828 0.0025 3.0056 0.0006
# 4 -0.0025 0.0001 0.0025 20.9621 0.0028 -5.0047
# 5 2.4752 5.2419 3.0056 0.0028 43.1844 0.0010
# 6 0.0022 -0.0010 0.0006 -5.0047 0.0010 32.4538
#
#
#
# Elastic Compliance Matrix: (Units=1/GPa)
#
#
# Indices 1 2 3 4 5 6 
#
# 1 0.009169 -0.002971 -0.003174 0.000001 0.000056 0.000000
# 2 -0.002971 0.012067 -0.002353 0.000000 -0.001131 0.000001
# 3 -0.003174 -0.002353 0.009243 -0.000002 -0.000176 0.000000
# 4 0.000001 0.000000 -0.000002 0.049529 -0.000003 0.007638
# 5 0.000056 -0.001131 -0.000176 -0.000003 0.023303 -0.000001
# 6 0.000000 0.000001 0.000000 0.007638 -0.000001 0.031991
#
#
# Mechanical properties :
#
#
# Convention : Reuss Voigt Hill
#
# Bulk Modulus (GPa) = 74.18047 77.76321 75.97184
# Shear Modulus (GPa) = 31.88955 35.09232 33.49093
#
# Velocity S-wave (km/s) = 3.96275 4.15698 4.06103
# Velocity P-wave (km/s) = 7.58067 7.83158 7.70714
#
# Compressibility (1/GPa) = 0.01348064
#
# Stress axis : x y z
#
# Youngs Moduli (GPa) = 109.06541 82.87362 108.19415
#
# Poissons Ratio (x) = 0.24625 0.34346
# Poissons Ratio (y) = 0.32408 0.25455
# Poissons Ratio (z) = 0.34623 0.19498
#
# Static dielectric constant tensor:
#      x y z
#    x 4.029380 -0.000020 -0.041890 
#    y -0.000020 3.743560 0.000030 
#    z -0.041890 0.000030 3.930070 
# 
# 
# High freq. dielectric constant tensor:
#      x y z
#    x 1.813890 0.000000 0.000580 
#    y 0.000000 1.795340 0.000000 
#    z 0.000580 0.000000 1.801260 
# 
# From -- ./inp_files/356688.got.cif
#   From: 2010.06.25/outbox.cif.g09.slc.cpg/sg12_179_cif.got.tgz:356688.got - 2010.06.28 00:19:55.
