data_PCOD8112749
_publ_section_title
;
Structure prediction by ZEFSAII (Michael W. Deem and Ramdas Pophale) SiO2 
 PCOD8112749
Probable space group: C 2/M
;
_chemical_formula_sum "Si O2"
_cell_formula_units_Z 56
_cell_length_a 25.605768
_cell_length_b 12.467647
_cell_length_c 9.264726
_cell_angle_alpha 90.000000
_cell_angle_beta 110.381385
_cell_angle_gamma 90.000000
_cell_volume 2772.538615
_symmetry_space_group_name_H-M "C 2/M"
_symmetry_group_IT_number 12
_symmetry_cell_setting 'monoclinic'
loop_
_space_group_symop_operation_xyz
x,y,z
-x,y,-z
-x,-y,-z
x,-y,z
1/2+x,1/2+y,z
1/2-x,1/2+y,-z
1/2-x,1/2-y,-z
1/2+x,1/2-y,z
loop_
_atom_site_type_symbol
_atom_site_label
_atom_site_fract_x
_atom_site_fract_y
_atom_site_fract_z
Si Si1 0.732732 0.120401 0.135490
Si Si2 0.108472 0.624428 0.534593
Si Si3 0.429645 0.623724 0.097953
Si Si4 0.524584 0.293462 0.373106
Si Si5 0.663053 0.752608 0.844788
Si Si6 0.609606 0.618508 0.250257
Si Si7 0.693837 0.798771 0.386153
O O1 0.786902 0.195574 0.191976
O O2 0.706016 0.119614 0.268474
O O3 0.749929 0.000000 0.110203
O O4 0.687349 0.159838 0.977077
O O5 0.098134 0.500000 0.557383
O O6 0.050588 0.673983 0.416676
O O7 0.122482 0.687487 0.694546
O O8 0.159388 0.636807 0.472731
O O9 0.440833 0.500000 0.154538
O O10 0.476106 0.703644 0.207100
O O11 0.369917 0.660869 0.100460
O O12 0.430978 0.634877 0.926098
O O13 0.500000 0.338184 0.500000
O O14 0.574839 0.368393 0.364960
O O15 0.635829 0.500000 0.273454
O O16 0.659961 0.699879 0.287951
O O17 0.750000 0.750000 0.500000
#
# Coordination Sequence:
#
# PCOD8112749 Si02
#       7
#     8   8   8   8   8   8   8
#     4  11  23  40  64  90 126 166 203 253 305 358
#     4  11  24  43  64  88 124 167 204 251 312 362
#     4  11  22  41  65  89 123 165 202 253 310 360
#     4  11  23  41  62  94 123 152 203 260 304 366
#     4  11  22  42  61  94 125 158 213 252 294 372
#     4  10  23  41  64  89 123 165 202 248 309 367
#     4  11  22  42  61  93 128 160 206 254 298 369
#
# _framework density 20.198094000000001
#
# number of rings (size 3 to 8) (size 9 to 14) (size 15 to 20)
#    0.000    1.143    4.286    2.143    0.000    3.714 
#    0.000    0.000    0.000    1.714    0.000    0.000 
#    0.000    0.000    0.000    0.000    0.000    0.000 
#
# Total GULP energy -347261.747403 kJ/mol
# GULP energy per Si atom -12402.205264 kJ/mol
# Density = 2.015212 g / cm^3
# Si number density = 20.198094 Si / 1000 Ang^3
#
#
#
# Elastic Constant Matrix: (Units=GPa)
#
#
# Indices 1 2 3 4 5 6 
#
# 1 77.7269 29.4610 34.1964 0.0000 -0.5479 0.0000
# 2 29.4610 119.8047 55.6931 0.0000 11.1622 0.0000
# 3 34.1964 55.6931 90.8507 0.0000 -0.8564 0.0000
# 4 0.0000 0.0000 0.0000 23.9961 0.0000 2.0725
# 5 -0.5479 11.1622 -0.8564 0.0000 42.0045 0.0000
# 6 0.0000 0.0000 0.0000 2.0725 0.0000 22.2504
#
#
#
# Elastic Compliance Matrix: (Units=1/GPa)
#
#
# Indices 1 2 3 4 5 6 
#
# 1 0.015634 -0.001624 -0.004884 0.000000 0.000536 0.000000
# 2 -0.001624 0.012303 -0.006963 0.000000 -0.003433 0.000000
# 3 -0.004884 -0.006963 0.017134 0.000000 0.002136 0.000000
# 4 0.000000 0.000000 0.000000 0.042011 0.000000 -0.003913
# 5 0.000536 -0.003433 0.002136 0.000000 0.024770 0.000000
# 6 0.000000 0.000000 0.000000 -0.003913 0.000000 0.045307
#
#
# Mechanical properties :
#
#
# Convention : Reuss Voigt Hill
#
# Bulk Modulus (GPa) = 55.16129 58.56481 56.86305
# Shear Modulus (GPa) = 26.29587 28.91898 27.60743
#
# Velocity S-wave (km/s) = 3.61210 3.78798 3.70108
# Velocity P-wave (km/s) = 6.69072 6.94189 6.81746
#
# Compressibility (1/GPa) = 0.01812866
#
# Stress axis : x y z
#
# Youngs Moduli (GPa) = 63.96481 81.28135 58.36357
#
# Poissons Ratio (x) = 0.13200 0.28504
# Poissons Ratio (y) = 0.10388 0.40639
# Poissons Ratio (z) = 0.31240 0.56596
#
# Static dielectric constant tensor:
#      x y z
#    x 3.779290 0.000000 -0.065050 
#    y 0.000000 3.085280 0.000000 
#    z -0.065050 0.000000 3.779540 
# 
# 
# High freq. dielectric constant tensor:
#      x y z
#    x 1.797620 0.000000 -0.005350 
#    y 0.000000 1.777310 0.000000 
#    z -0.005350 0.000000 1.797720 
# 
# From -- ./inp_files/103140.got.cif
#   From: 2010.06.25/outbox.cif.g09.slc.cpg/sg12_52_cif.got.tgz:103140.got - 2010.06.28 00:19:55.
