data_PCOD8112748
_publ_section_title
;
Structure prediction by ZEFSAII (Michael W. Deem and Ramdas Pophale) SiO2 
 PCOD8112748
Probable space group: C 2/M
;
_chemical_formula_sum "Si O2"
_cell_formula_units_Z 40
_cell_length_a 8.821300
_cell_length_b 17.622764
_cell_length_c 12.314430
_cell_angle_alpha 90.000000
_cell_angle_beta 65.773049
_cell_angle_gamma 90.000000
_cell_volume 1745.746173
_symmetry_space_group_name_H-M "C 2/M"
_symmetry_group_IT_number 12
_symmetry_cell_setting 'monoclinic'
loop_
_space_group_symop_operation_xyz
x,y,z
-x,y,-z
-x,-y,-z
x,-y,z
1/2+x,1/2+y,z
1/2-x,1/2+y,-z
1/2-x,1/2-y,-z
1/2+x,1/2-y,z
loop_
_atom_site_type_symbol
_atom_site_label
_atom_site_fract_x
_atom_site_fract_y
_atom_site_fract_z
Si Si1 0.270345 0.710163 0.263648
Si Si2 0.308080 0.184349 0.066106
Si Si3 0.993888 0.084901 0.822508
Si Si4 0.135857 0.914277 0.539578
Si Si5 0.419457 0.797795 0.415708
O O1 0.280974 0.788773 0.197441
O O2 0.386495 0.650230 0.163879
O O3 0.323210 0.730965 0.375417
O O4 0.085538 0.675454 0.303356
O O5 0.194772 0.108763 0.093029
O O6 0.500000 0.160809 0.000000
O O7 0.250000 0.250000 0.000000
O O8 0.050067 0.087737 0.681648
O O9 0.021576 0.000000 0.861807
O O10 0.309975 0.870452 0.477853
O O11 0.000000 0.878289 0.500000
O O12 0.179501 0.000000 0.492837
O O13 0.500000 0.759305 0.500000
#
# Coordination Sequence:
#
# PCOD8112748 Si02
#       5
#     8   8   8   8   8
#     4  12  24  42  65 101 133 173 225 278 321 398
#     4  12  24  45  72  95 125 171 227 283 339 389
#     4  11  24  42  66  98 135 169 214 275 335 390
#     4  10  23  41  63  95 140 180 212 263 333 401
#     4  12  24  37  66  98 136 178 224 261 320 397
#
# _framework density 22.912839000000002
#
# number of rings (size 3 to 8) (size 9 to 14) (size 15 to 20)
#    0.000    0.600    6.000    1.800    0.000    1.600 
#    0.000    2.000    0.000    4.800    0.000    0.000 
#    0.000    0.000    0.000    0.000    0.000    0.000 
#
# Total GULP energy -247763.799834 kJ/mol
# GULP energy per Si atom -12388.189992 kJ/mol
# Density = 2.286069 g / cm^3
# Si number density = 22.912839 Si / 1000 Ang^3
#
#
#
# Elastic Constant Matrix: (Units=GPa)
#
#
# Indices 1 2 3 4 5 6 
#
# 1 136.4702 44.6554 44.8906 0.0000 -44.6366 0.0000
# 2 44.6554 131.1570 27.3158 0.0000 -27.5996 0.0000
# 3 44.8906 27.3158 79.1696 0.0000 -30.2611 0.0000
# 4 0.0000 0.0000 0.0000 126.6245 0.0000 -52.8167
# 5 -44.6366 -27.5996 -30.2611 0.0000 61.4241 0.0000
# 6 0.0000 0.0000 0.0000 -52.8167 0.0000 39.9592
#
#
#
# Elastic Compliance Matrix: (Units=1/GPa)
#
#
# Indices 1 2 3 4 5 6 
#
# 1 0.010809 -0.001839 -0.003459 0.000000 0.005324 0.000000
# 2 -0.001839 0.008947 -0.001254 0.000000 0.002065 0.000000
# 3 -0.003459 -0.001254 0.017062 0.000000 0.005328 0.000000
# 4 0.000000 0.000000 0.000000 0.017602 0.000000 0.023265
# 5 0.005324 0.002065 0.005328 0.000000 0.023702 0.000000
# 6 0.000000 0.000000 0.000000 0.023265 0.000000 0.055776
#
#
# Mechanical properties :
#
#
# Convention : Reuss Voigt Hill
#
# Bulk Modulus (GPa) = 42.17377 64.50228 53.33803
# Shear Modulus (GPa) = 32.27743 60.93057 46.60400
#
# Velocity S-wave (km/s) = 3.75734 5.16237 4.51485
# Velocity P-wave (km/s) = 6.10489 7.98409 7.10687
#
# Compressibility (1/GPa) = 0.02371142
#
# Stress axis : x y z
#
# Youngs Moduli (GPa) = 92.51831 111.77492 58.60988
#
# Poissons Ratio (x) = 0.20559 0.20274
# Poissons Ratio (y) = 0.17017 0.07353
# Poissons Ratio (z) = 0.32003 0.14022
#
# Static dielectric constant tensor:
#      x y z
#    x 4.507530 0.000000 -0.227250 
#    y 0.000000 4.467590 0.000000 
#    z -0.227250 0.000000 4.704850 
# 
# 
# High freq. dielectric constant tensor:
#      x y z
#    x 1.910630 0.000000 -0.018010 
#    y 0.000000 1.892160 0.000000 
#    z -0.018010 0.000000 1.916120 
# 
# From -- ./inp_files/195313.got.cif
#   From: 2010.06.25/outbox.cif.g09.slc.cpg/sg12_98_cif.got.tgz:195313.got - 2010.06.28 00:19:55.
