data_PCOD8112427
_publ_section_title
;
Structure prediction by ZEFSAII (Michael W. Deem and Ramdas Pophale) SiO2 
 PCOD8112427
Probable space group: C 2/M
;
_chemical_formula_sum "Si O2"
_cell_formula_units_Z 32
_cell_length_a 13.496005
_cell_length_b 11.160824
_cell_length_c 16.418191
_cell_angle_alpha 90.000000
_cell_angle_beta 34.449716
_cell_angle_gamma 90.000000
_cell_volume 1398.942061
_symmetry_space_group_name_H-M "C 2/M"
_symmetry_group_IT_number 12
_symmetry_cell_setting 'monoclinic'
loop_
_space_group_symop_operation_xyz
x,y,z
-x,y,-z
-x,-y,-z
x,-y,z
1/2+x,1/2+y,z
1/2-x,1/2+y,-z
1/2-x,1/2-y,-z
1/2+x,1/2-y,z
loop_
_atom_site_type_symbol
_atom_site_label
_atom_site_fract_x
_atom_site_fract_y
_atom_site_fract_z
Si Si1 0.669259 0.366931 0.599553
Si Si2 0.812572 0.269151 0.657359
Si Si3 0.669721 0.765097 0.173854
Si Si4 0.030077 0.632335 0.111168
O O1 0.712328 0.500000 0.533034
O O2 0.750000 0.250000 0.500000
O O3 0.741150 0.369600 0.643554
O O4 0.459655 0.350401 0.740920
O O5 0.829777 0.324387 0.736620
O O6 0.676383 0.159475 0.751753
O O7 0.000000 0.219219 0.500000
O O8 0.599187 0.861934 0.157303
O O9 0.864800 0.723677 0.017834
O O10 0.058963 0.500000 0.057702
#
# Coordination Sequence:
#
# PCOD8112427 Si02
#       4
#     8   8   8   8
#     4  11  24  43  66  96 133 173 219 272 329 390
#     4  11  23  42  61  99 129 170 214 273 322 394
#     4  10  22  44  64  93 133 168 220 272 327 386
#     4  10  23  41  66  93 128 176 220 267 326 390
#
# _framework density 22.874427000000001
#
# number of rings (size 3 to 8) (size 9 to 14) (size 15 to 20)
#    0.000    1.500    2.500    1.500    0.000    9.000 
#    0.000    0.000    0.000    9.000    0.000    0.000 
#    0.000    0.000    0.000    0.000    0.000    0.000 
#
# Total GULP energy -198299.589801 kJ/mol
# GULP energy per Si atom -12393.724363 kJ/mol
# Density = 2.282236 g / cm^3
# Si number density = 22.874427 Si / 1000 Ang^3
#
#
#
# Elastic Constant Matrix: (Units=GPa)
#
#
# Indices 1 2 3 4 5 6 
#
# 1 112.0570 3.0103 43.3771 -0.0016 12.2182 0.0008
# 2 3.0103 104.9134 25.6922 -0.0016 -3.0235 0.0008
# 3 43.3771 25.6922 137.9528 -0.0027 -11.4394 0.0015
# 4 -0.0016 -0.0016 -0.0027 20.5653 0.0008 6.5299
# 5 12.2182 -3.0235 -11.4394 0.0008 53.8434 -0.0004
# 6 0.0008 0.0008 0.0015 6.5299 -0.0004 5.1776
#
#
#
# Elastic Compliance Matrix: (Units=1/GPa)
#
#
# Indices 1 2 3 4 5 6 
#
# 1 0.010700 0.000513 -0.003725 0.000001 -0.003191 -0.000003
# 2 0.000513 0.010013 -0.002025 0.000002 0.000016 -0.000003
# 3 -0.003725 -0.002025 0.009017 0.000002 0.002647 -0.000004
# 4 0.000001 0.000002 0.000002 0.081104 -0.000002 -0.102288
# 5 -0.003191 0.000016 0.002647 -0.000002 0.019860 0.000004
# 6 -0.000003 -0.000003 -0.000004 -0.102288 0.000004 0.322146
#
#
# Mechanical properties :
#
#
# Convention : Reuss Voigt Hill
#
# Bulk Modulus (GPa) = 51.92885 55.45362 53.69123
# Shear Modulus (GPa) = 10.64438 34.77350 22.70894
#
# Velocity S-wave (km/s) = 2.15951 3.90319 3.15424
# Velocity P-wave (km/s) = 5.38228 6.67896 6.06537
#
# Compressibility (1/GPa) = 0.01925712
#
# Stress axis : x y z
#
# Youngs Moduli (GPa) = 93.45891 99.86743 110.90644
#
# Poissons Ratio (x) = -0.05125 0.41308
# Poissons Ratio (y) = -0.04796 0.22458
# Poissons Ratio (z) = 0.34809 0.20222
#
# Static dielectric constant tensor:
#      x y z
#    x 4.567700 0.000000 0.008420 
#    y 0.000000 3.448330 0.000000 
#    z 0.008420 0.000000 4.308030 
# 
# 
# High freq. dielectric constant tensor:
#      x y z
#    x 1.924060 0.000000 -0.004810 
#    y 0.000000 1.850830 0.000000 
#    z -0.004810 0.000000 1.916230 
# 
# From -- ./inp_files/56465.got.cif
#   From: 2010.06.25/outbox.cif.g09.slc.cpg/sg12_29_cif.got.tgz:56465.got - 2010.06.28 00:19:55.
