data_PCOD8112516
_publ_section_title
;
Structure prediction by ZEFSAII (Michael W. Deem and Ramdas Pophale) SiO2 
 PCOD8112516
Probable space group: C 2/M
;
_chemical_formula_sum "Si O2"
_cell_formula_units_Z 32
_cell_length_a 12.565116
_cell_length_b 17.800428
_cell_length_c 9.395344
_cell_angle_alpha 90.000000
_cell_angle_beta 44.872531
_cell_angle_gamma 90.000000
_cell_volume 1482.607812
_symmetry_space_group_name_H-M "C 2/M"
_symmetry_group_IT_number 12
_symmetry_cell_setting 'monoclinic'
loop_
_space_group_symop_operation_xyz
x,y,z
-x,y,-z
-x,-y,-z
x,-y,z
1/2+x,1/2+y,z
1/2-x,1/2+y,-z
1/2-x,1/2-y,-z
1/2+x,1/2-y,z
loop_
_atom_site_type_symbol
_atom_site_label
_atom_site_fract_x
_atom_site_fract_y
_atom_site_fract_z
Si Si1 0.235056 0.651054 0.994727
Si Si2 0.236371 0.337715 0.333838
Si Si3 0.131129 0.500000 0.489502
Si Si4 0.405356 0.000000 0.949322
Si Si5 0.010102 0.757467 0.730126
O O1 0.242729 0.661228 0.158220
O O2 0.210331 0.567913 0.962733
O O3 0.090090 0.699261 0.081462
O O4 0.389899 0.682354 0.777538
O O5 0.231053 0.424889 0.386261
O O6 0.095015 0.288702 0.525215
O O7 0.384079 0.301464 0.261572
O O8 0.000000 0.500000 0.500000
O O9 0.047309 0.500000 0.715157
O O10 0.500000 0.000000 0.000000
#
# Coordination Sequence:
#
# PCOD8112516 Si02
#       5
#     8   8   4   4   8
#     4  11  22  43  66  94 132 172 213 266 325 384
#     4  11  21  41  68  96 127 171 222 260 320 387
#     4  12  20  43  69  91 123 175 221 265 322 391
#     4  12  26  43  65  97 131 171 215 274 329 383
#     4  10  23  37  63 103 129 163 214 270 316 377
#
# _framework density 21.583589
#
# number of rings (size 3 to 8) (size 9 to 14) (size 15 to 20)
#    0.000    1.000    5.000    1.500    0.000    5.000 
#    4.500    2.500    0.000    1.500    0.000    0.000 
#    0.000    0.000    0.000    0.000    0.000    0.000 
#
# Total GULP energy -198251.782612 kJ/mol
# GULP energy per Si atom -12390.736413 kJ/mol
# Density = 2.153446 g / cm^3
# Si number density = 21.583589 Si / 1000 Ang^3
#
#
#
# Elastic Constant Matrix: (Units=GPa)
#
#
# Indices 1 2 3 4 5 6 
#
# 1 123.4167 80.9239 48.5365 0.0002 -11.5323 -0.0002
# 2 80.9239 211.9907 53.2634 0.0000 -15.9442 0.0000
# 3 48.5365 53.2634 86.1572 0.0001 -12.5282 -0.0001
# 4 0.0002 0.0000 0.0001 27.8582 -0.0001 -11.1943
# 5 -11.5323 -15.9442 -12.5282 -0.0001 43.8039 0.0001
# 6 -0.0002 0.0000 -0.0001 -11.1943 0.0001 62.8721
#
#
#
# Elastic Compliance Matrix: (Units=1/GPa)
#
#
# Indices 1 2 3 4 5 6 
#
# 1 0.012272 -0.003461 -0.004682 0.000000 0.000632 0.000000
# 2 -0.003461 0.006611 -0.002003 0.000000 0.000922 0.000000
# 3 -0.004682 -0.002003 0.015857 0.000000 0.002573 0.000000
# 4 0.000000 0.000000 0.000000 0.038662 0.000000 0.006884
# 5 0.000632 0.000922 0.002573 0.000000 0.024067 0.000000
# 6 0.000000 0.000000 0.000000 0.006884 0.000000 0.017131
#
#
# Mechanical properties :
#
#
# Convention : Reuss Voigt Hill
#
# Bulk Modulus (GPa) = 69.21430 87.44580 78.33005
# Shear Modulus (GPa) = 35.78870 42.82956 39.30913
#
# Velocity S-wave (km/s) = 4.07645 4.45945 4.27224
# Velocity P-wave (km/s) = 7.36846 8.19258 7.79143
#
# Compressibility (1/GPa) = 0.01444788
#
# Stress axis : x y z
#
# Youngs Moduli (GPa) = 81.48435 151.26362 63.06365
#
# Poissons Ratio (x) = 0.52349 0.29527
# Poissons Ratio (y) = 0.28200 0.12633
# Poissons Ratio (z) = 0.38152 0.30302
#
# Static dielectric constant tensor:
#      x y z
#    x 3.930630 -0.000030 -0.282930 
#    y -0.000030 17.791510 0.000040 
#    z -0.282930 0.000040 3.941100 
# 
# 
# High freq. dielectric constant tensor:
#      x y z
#    x 1.849530 0.000000 -0.010560 
#    y 0.000000 1.865250 0.000000 
#    z -0.010560 0.000000 1.840760 
# 
# From -- ./inp_files/48325.got.cif
#   From: 2010.06.25/outbox.cif.g09.slc.cpg/sg12_25_cif.got.tgz:48325.got - 2010.06.28 00:19:55.
