data_PCOD8112987
_publ_section_title
;
Structure prediction by ZEFSAII (Michael W. Deem and Ramdas Pophale) SiO2 
 PCOD8112987
Probable space group: C 2/M
;
_chemical_formula_sum "Si O2"
_cell_formula_units_Z 48
_cell_length_a 24.406517
_cell_length_b 8.692777
_cell_length_c 11.476395
_cell_angle_alpha 90.000000
_cell_angle_beta 69.416307
_cell_angle_gamma 90.000000
_cell_volume 2279.395805
_symmetry_space_group_name_H-M "C 2/M"
_symmetry_group_IT_number 12
_symmetry_cell_setting 'monoclinic'
loop_
_space_group_symop_operation_xyz
x,y,z
-x,y,-z
-x,-y,-z
x,-y,z
1/2+x,1/2+y,z
1/2-x,1/2+y,-z
1/2-x,1/2-y,-z
1/2+x,1/2-y,z
loop_
_atom_site_type_symbol
_atom_site_label
_atom_site_fract_x
_atom_site_fract_y
_atom_site_fract_z
Si Si1 0.767818 0.821107 0.364217
Si Si2 0.108499 0.177428 0.118519
Si Si3 0.882972 0.179101 0.151361
Si Si4 0.443172 0.677511 0.468163
Si Si5 0.518099 0.178614 0.787722
Si Si6 0.654969 0.178189 0.306433
O O1 0.750000 0.750000 0.500000
O O2 0.829828 0.756864 0.270735
O O3 0.720538 0.786624 0.299235
O O4 0.774019 0.000000 0.382098
O O5 0.148323 0.276688 0.176151
O O6 0.040870 0.224405 0.175069
O O7 0.112337 0.000000 0.152953
O O8 0.133840 0.205173 0.970743
O O9 0.942454 0.273271 0.131292
O O10 0.895067 0.000000 0.167127
O O11 0.500000 0.716670 0.500000
O O12 0.440872 0.500000 0.431789
O O13 0.442855 0.783642 0.354528
O O14 0.386954 0.716285 0.585720
O O15 0.502369 0.000000 0.806717
O O16 0.638300 0.000000 0.335490
#
# Coordination Sequence:
#
# PCOD8112987 Si02
#       6
#     8   8   8   8   8   8
#     4  10  23  43  65  91 121 157 200 249 303 358
#     4  11  23  40  62  89 121 164 208 246 299 365
#     4  10  23  43  64  86 121 165 208 248 294 363
#     4  11  22  37  60  88 120 159 202 243 295 362
#     4  12  24  38  61  92 126 159 200 257 311 356
#     4  11  23  39  62  93 127 158 198 255 308 354
#
# _framework density 21.058209999999999
#
# number of rings (size 3 to 8) (size 9 to 14) (size 15 to 20)
#    0.000    1.167    1.667    4.500    0.000    9.333 
#    0.000    0.000    0.000    0.000    0.000    0.000 
#    0.000    0.000    0.000    0.000    0.000    0.000 
#
# Total GULP energy -297732.902366 kJ/mol
# GULP energy per Si atom -12405.537599 kJ/mol
# Density = 2.101028 g / cm^3
# Si number density = 21.058210 Si / 1000 Ang^3
#
#
#
# Elastic Constant Matrix: (Units=GPa)
#
#
# Indices 1 2 3 4 5 6 
#
# 1 109.7742 28.9631 33.0014 0.0000 12.0787 0.0000
# 2 28.9631 56.3723 19.6081 0.0000 4.9555 0.0000
# 3 33.0014 19.6081 99.7624 0.0000 6.2014 0.0000
# 4 0.0000 0.0000 0.0000 34.4842 0.0000 7.9086
# 5 12.0787 4.9555 6.2014 0.0000 31.3216 0.0000
# 6 0.0000 0.0000 0.0000 7.9086 0.0000 22.0728
#
#
#
# Elastic Compliance Matrix: (Units=1/GPa)
#
#
# Indices 1 2 3 4 5 6 
#
# 1 0.011505 -0.004699 -0.002686 0.000000 -0.003161 0.000000
# 2 -0.004699 0.021125 -0.002534 0.000000 -0.001029 0.000000
# 3 -0.002686 -0.002534 0.011462 0.000000 -0.000833 0.000000
# 4 0.000000 0.000000 0.000000 0.031595 0.000000 -0.011320
# 5 -0.003161 -0.001029 -0.000833 0.000000 0.033474 0.000000
# 6 0.000000 0.000000 0.000000 -0.011320 0.000000 0.049361
#
#
# Mechanical properties :
#
#
# Convention : Reuss Voigt Hill
#
# Bulk Modulus (GPa) = 41.22824 47.67269 44.45047
# Shear Modulus (GPa) = 26.81790 29.86480 28.34135
#
# Velocity S-wave (km/s) = 3.57250 3.76999 3.67257
# Velocity P-wave (km/s) = 6.05291 6.45276 6.25603
#
# Compressibility (1/GPa) = 0.02425522
#
# Stress axis : x y z
#
# Youngs Moduli (GPa) = 86.92173 47.33702 87.24461
#
# Poissons Ratio (x) = 0.22243 0.23431
# Poissons Ratio (y) = 0.40843 0.22106
# Poissons Ratio (z) = 0.23344 0.11994
#
# Static dielectric constant tensor:
#      x y z
#    x 3.887790 0.000000 0.113510 
#    y 0.000000 3.731870 0.000000 
#    z 0.113510 0.000000 3.966590 
# 
# 
# High freq. dielectric constant tensor:
#      x y z
#    x 1.828590 0.000000 0.009530 
#    y 0.000000 1.821500 0.000000 
#    z 0.009530 0.000000 1.833970 
# 
# From -- ./inp_files/172889.got.cif
#   From: 2010.06.25/outbox.cif.g09.slc.cpg/sg12_87_cif.got.tgz:172889.got - 2010.06.28 00:19:55.
