data_PCOD8112443
_publ_section_title
;
Structure prediction by ZEFSAII (Michael W. Deem and Ramdas Pophale) SiO2 
 PCOD8112443
Probable space group: C 2/M
;
_chemical_formula_sum "Si O2"
_cell_formula_units_Z 24
_cell_length_a 12.678942
_cell_length_b 14.952114
_cell_length_c 7.835216
_cell_angle_alpha 90.000000
_cell_angle_beta 39.993989
_cell_angle_gamma 90.000000
_cell_volume 954.662316
_symmetry_space_group_name_H-M "C 2/M"
_symmetry_group_IT_number 12
_symmetry_cell_setting 'monoclinic'
loop_
_space_group_symop_operation_xyz
x,y,z
-x,y,-z
-x,-y,-z
x,-y,z
1/2+x,1/2+y,z
1/2-x,1/2+y,-z
1/2-x,1/2-y,-z
1/2+x,1/2-y,z
loop_
_atom_site_type_symbol
_atom_site_label
_atom_site_fract_x
_atom_site_fract_y
_atom_site_fract_z
Si Si1 0.190918 0.000000 0.320708
Si Si2 0.324528 0.308423 0.559687
Si Si3 0.318749 0.000000 0.800684
Si Si4 0.629397 0.320329 0.991808
O O1 0.232514 0.911934 0.380082
O O2 0.000000 0.000000 0.500000
O O3 0.317775 0.000000 0.006468
O O4 0.250000 0.250000 0.500000
O O5 0.524401 0.309778 0.298463
O O6 0.257061 0.262881 0.818219
O O7 0.500000 0.000000 0.500000
O O8 0.224471 0.087375 0.854432
O O9 0.500000 0.317101 0.000000
#
# Coordination Sequence:
#
# PCOD8112443 Si02
#       4
#     4   8   4   8
#     4  12  24  46  70 100 148 192 227 302 367 405
#     4  10  23  43  71 101 138 189 236 287 353 430
#     4  12  27  42  68 106 144 186 240 296 356 423
#     4  10  22  44  69  98 141 192 238 290 349 431
#
# _framework density 25.139778
#
# number of rings (size 3 to 8) (size 9 to 14) (size 15 to 20)
#    0.000    1.333    3.333    0.500    4.667    6.667 
#    0.000    7.500    0.000    0.000    0.000    0.000 
#    0.000    0.000    0.000    0.000    0.000    0.000 
#
# Total GULP energy -148739.929408 kJ/mol
# GULP energy per Si atom -12394.994117 kJ/mol
# Density = 2.508256 g / cm^3
# Si number density = 25.139778 Si / 1000 Ang^3
#
#
#
# Elastic Constant Matrix: (Units=GPa)
#
#
# Indices 1 2 3 4 5 6 
#
# 1 38.4323 38.0334 21.2383 0.0000 -22.4263 0.0000
# 2 38.0334 274.1710 103.7392 0.0000 -14.7323 0.0000
# 3 21.2383 103.7392 282.8479 0.0000 -21.6172 0.0000
# 4 0.0000 0.0000 0.0000 54.7679 0.0000 -4.6918
# 5 -22.4263 -14.7323 -21.6172 0.0000 33.5343 0.0000
# 6 0.0000 0.0000 0.0000 -4.6918 0.0000 37.3786
#
#
#
# Elastic Compliance Matrix: (Units=1/GPa)
#
#
# Indices 1 2 3 4 5 6 
#
# 1 0.048957 -0.005383 0.000652 0.000000 0.030796 0.000000
# 2 -0.005383 0.004853 -0.001565 0.000000 -0.002477 0.000000
# 3 0.000652 -0.001565 0.004251 0.000000 0.002489 0.000000
# 4 0.000000 0.000000 0.000000 0.018457 0.000000 0.002317
# 5 0.030796 -0.002477 0.002489 0.000000 0.050931 0.000000
# 6 0.000000 0.000000 0.000000 0.002317 0.000000 0.027044
#
#
# Mechanical properties :
#
#
# Convention : Reuss Voigt Hill
#
# Bulk Modulus (GPa) = 21.99335 102.38590 62.18962
# Shear Modulus (GPa) = 27.43593 53.96550 40.70071
#
# Velocity S-wave (km/s) = 3.30712 4.63819 4.02802
# Velocity P-wave (km/s) = 4.83220 8.33659 6.81355
#
# Compressibility (1/GPa) = 0.04546829
#
# Stress axis : x y z
#
# Youngs Moduli (GPa) = 20.42602 206.04825 235.25372
#
# Poissons Ratio (x) = 1.10922 -0.15338
# Poissons Ratio (y) = 0.10996 0.36819
# Poissons Ratio (z) = -0.01332 0.32248
#
# Static dielectric constant tensor:
#      x y z
#    x 4.001540 0.000000 0.229550 
#    y 0.000000 5.136160 0.000000 
#    z 0.229550 0.000000 7.581290 
# 
# 
# High freq. dielectric constant tensor:
#      x y z
#    x 1.987670 0.000000 0.005020 
#    y 0.000000 2.017440 0.000000 
#    z 0.005020 0.000000 2.039200 
# 
# From -- ./inp_files/58125.got.cif
#   From: 2010.06.25/outbox.cif.g09.slc.cpg/sg12_30_cif.got.tgz:58125.got - 2010.06.28 00:19:55.
