data_PCOD8112494
_publ_section_title
;
Structure prediction by ZEFSAII (Michael W. Deem and Ramdas Pophale) SiO2 
 PCOD8112494
Probable space group: C 2/M
;
_chemical_formula_sum "Si O2"
_cell_formula_units_Z 48
_cell_length_a 23.569884
_cell_length_b 27.743093
_cell_length_c 11.411227
_cell_angle_alpha 90.000000
_cell_angle_beta 158.989622
_cell_angle_gamma 90.000000
_cell_volume 2675.338260
_symmetry_space_group_name_H-M "C 2/M"
_symmetry_group_IT_number 12
_symmetry_cell_setting 'monoclinic'
loop_
_space_group_symop_operation_xyz
x,y,z
-x,y,-z
-x,-y,-z
x,-y,z
1/2+x,1/2+y,z
1/2-x,1/2+y,-z
1/2-x,1/2-y,-z
1/2+x,1/2-y,z
loop_
_atom_site_type_symbol
_atom_site_label
_atom_site_fract_x
_atom_site_fract_y
_atom_site_fract_z
Si Si1 0.433473 0.396096 0.184047
Si Si2 0.743007 0.895439 0.052415
Si Si3 0.969814 0.184980 0.072577
Si Si4 0.063620 0.299945 0.746290
Si Si5 0.066669 0.000000 0.813313
Si Si6 0.253109 0.000000 0.940681
Si Si7 0.293490 0.751621 0.350481
O O1 0.304336 0.388008 0.037559
O O2 0.608489 0.390574 0.574638
O O3 0.405028 0.357997 0.027584
O O4 0.412373 0.448858 0.079974
O O5 0.657876 0.948443 0.905714
O O6 0.610822 0.856090 0.828684
O O7 0.130482 0.206322 0.436361
O O8 0.000000 0.165965 0.000000
O O9 0.834905 0.225799 0.809435
O O10 0.922285 0.292493 0.566872
O O11 0.000000 0.280151 0.500000
O O12 0.212151 0.267631 0.073823
O O13 0.195744 0.000000 0.961811
O O14 0.892903 0.000000 0.426949
#
# Coordination Sequence:
#
# PCOD8112494 Si02
#       7
#     8   8   8   8   4   4   8
#     4   9  16  29  50  77 100 131 162 203 249 292
#     4   9  16  29  50  75 106 129 161 199 246 304
#     4  11  21  37  54  72  97 132 174 212 245 286
#     4  11  20  33  50  75 104 134 161 202 250 304
#     4   7  12  24  45  72 103 124 159 199 241 296
#     4   7  12  24  45  72  99 136 157 186 242 300
#     4  10  23  36  49  71 101 134 173 201 250 293
#
# _framework density 17.941655999999998
#
# number of rings (size 3 to 8) (size 9 to 14) (size 15 to 20)
#    0.000    2.500    1.667    4.000    0.000    1.333 
#    0.000    0.833    0.000    1.000    0.000    0.000 
#    0.000    4.000    0.000    0.000    0.000    0.000 
#
# Total GULP energy -297331.151157 kJ/mol
# GULP energy per Si atom -12388.797965 kJ/mol
# Density = 1.790082 g / cm^3
# Si number density = 17.941656 Si / 1000 Ang^3
#
#
#
# Elastic Constant Matrix: (Units=GPa)
#
#
# Indices 1 2 3 4 5 6 
#
# 1 64.9153 39.7850 18.0072 0.0000 -7.6834 0.0000
# 2 39.7850 130.4605 30.3366 0.0000 0.7181 0.0000
# 3 18.0072 30.3366 60.6888 0.0000 -0.4674 0.0000
# 4 0.0000 0.0000 0.0000 11.1514 0.0000 3.5391
# 5 -7.6834 0.7181 -0.4674 0.0000 15.6136 0.0000
# 6 0.0000 0.0000 0.0000 3.5391 0.0000 15.5324
#
#
#
# Elastic Compliance Matrix: (Units=1/GPa)
#
#
# Indices 1 2 3 4 5 6 
#
# 1 0.021073 -0.005713 -0.003316 0.000000 0.010533 0.000000
# 2 -0.005713 0.010227 -0.003443 0.000000 -0.003385 0.000000
# 3 -0.003316 -0.003443 0.019175 0.000000 -0.000899 0.000000
# 4 0.000000 0.000000 0.000000 0.096664 0.000000 -0.022025
# 5 0.010533 -0.003385 -0.000899 0.000000 0.069359 0.000000
# 6 0.000000 0.000000 0.000000 -0.022025 0.000000 0.069400
#
#
# Mechanical properties :
#
#
# Convention : Reuss Voigt Hill
#
# Bulk Modulus (GPa) = 39.16762 48.03579 43.60171
# Shear Modulus (GPa) = 15.65673 19.65522 17.65597
#
# Velocity S-wave (km/s) = 2.95726 3.31344 3.14040
# Velocity P-wave (km/s) = 5.79124 6.43972 6.12407
#
# Compressibility (1/GPa) = 0.02553129
#
# Stress axis : x y z
#
# Youngs Moduli (GPa) = 47.45495 97.78347 52.15031
#
# Poissons Ratio (x) = 0.55866 0.17291
# Poissons Ratio (y) = 0.27112 0.17955
# Poissons Ratio (z) = 0.15734 0.33666
#
# Static dielectric constant tensor:
#      x y z
#    x 2.889190 0.000000 0.004660 
#    y 0.000000 3.704990 0.000000 
#    z 0.004660 0.000000 3.228930 
# 
# 
# High freq. dielectric constant tensor:
#      x y z
#    x 1.645700 0.000000 0.004770 
#    y 0.000000 1.708560 0.000000 
#    z 0.004770 0.000000 1.684370 
# 
# From -- ./inp_files/124781.got.cif
#   From: 2010.06.25/outbox.cif.g09.slc.cpg/sg12_63_cif.got.tgz:124781.got - 2010.06.28 00:19:55.
