data_PCOD8112222
_publ_section_title
;
Structure prediction by ZEFSAII (Michael W. Deem and Ramdas Pophale) SiO2 
 PCOD8112222
Probable space group: C 2/M
;
_chemical_formula_sum "Si O2"
_cell_formula_units_Z 64
_cell_length_a 9.427683
_cell_length_b 15.218297
_cell_length_c 32.544046
_cell_angle_alpha 90.000000
_cell_angle_beta 137.002514
_cell_angle_gamma 90.000000
_cell_volume 3184.237602
_symmetry_space_group_name_H-M "C 2/M"
_symmetry_group_IT_number 12
_symmetry_cell_setting 'monoclinic'
loop_
_space_group_symop_operation_xyz
x,y,z
-x,y,-z
-x,-y,-z
x,-y,z
1/2+x,1/2+y,z
1/2-x,1/2+y,-z
1/2-x,1/2-y,-z
1/2+x,1/2-y,z
loop_
_atom_site_type_symbol
_atom_site_label
_atom_site_fract_x
_atom_site_fract_y
_atom_site_fract_z
Si Si1 0.514845 0.099252 0.621966
Si Si2 0.679466 0.661007 0.760359
Si Si3 0.856681 0.900941 0.628328
Si Si4 0.237834 0.745759 0.545131
Si Si5 0.061952 0.097385 0.136431
Si Si6 0.865742 0.599835 0.127960
Si Si7 0.667326 0.658193 0.244944
Si Si8 0.231422 0.258454 0.043759
O O1 0.650217 0.122605 0.610431
O O2 0.318096 0.163965 0.582615
O O3 0.655952 0.109699 0.691860
O O4 0.430330 0.000000 0.602136
O O5 0.556708 0.605986 0.700040
O O6 0.538789 0.674927 0.771262
O O7 0.743111 0.752204 0.753868
O O8 0.886164 0.608951 0.816539
O O9 0.870267 0.834570 0.592785
O O10 0.846557 0.000000 0.608965
O O11 0.250000 0.750000 0.500000
O O12 0.000000 0.728493 0.500000
O O13 0.259081 0.121308 0.149345
O O14 0.122478 0.095486 0.197031
O O15 0.884395 0.169124 0.093964
O O16 0.979190 0.000000 0.107443
O O17 0.815845 0.500000 0.103639
O O18 0.771406 0.665053 0.074036
O O19 0.250000 0.250000 0.000000
O O20 0.000000 0.293089 0.000000
#
# Coordination Sequence:
#
# PCOD8112222 Si02
#       8
#     8   8   8   8   8   8   8   8
#     4  10  22  42  66  94 129 167 210 264 321 378
#     4  11  22  39  69  99 129 167 211 264 326 388
#     4  10  22  42  67  94 126 169 214 259 317 388
#     4  12  24  41  65  92 126 168 218 265 313 374
#     4  11  25  45  68  99 133 168 212 268 326 380
#     4  11  25  45  69  98 132 170 213 266 325 384
#     4  11  22  39  69  98 130 168 210 262 330 385
#     4  12  26  45  67  94 128 172 224 264 310 375
#
# _framework density 20.099001999999999
#
# number of rings (size 3 to 8) (size 9 to 14) (size 15 to 20)
#    0.000    1.000    5.000    1.500    1.750    3.500 
#    2.250    0.000    0.000    0.000    0.000    0.000 
#    0.000    0.000    0.000    0.000    0.000    0.000 
#
# Total GULP energy -396784.542172 kJ/mol
# GULP energy per Si atom -12399.516943 kJ/mol
# Density = 2.005326 g / cm^3
# Si number density = 20.099002 Si / 1000 Ang^3
#
#
#
# Elastic Constant Matrix: (Units=GPa)
#
#
# Indices 1 2 3 4 5 6 
#
# 1 105.9448 29.6901 43.6505 0.0000 -15.1649 0.0000
# 2 29.6901 132.4496 46.0022 0.0000 -10.1423 0.0000
# 3 43.6505 46.0022 109.9151 0.0001 -14.7409 0.0000
# 4 0.0000 0.0000 0.0001 10.5894 0.0000 -1.6768
# 5 -15.1649 -10.1423 -14.7409 0.0000 40.1572 0.0000
# 6 0.0000 0.0000 0.0000 -1.6768 0.0000 29.2994
#
#
#
# Elastic Compliance Matrix: (Units=1/GPa)
#
#
# Indices 1 2 3 4 5 6 
#
# 1 0.011714 -0.001086 -0.003830 0.000000 0.002744 0.000000
# 2 -0.001086 0.008967 -0.003232 0.000000 0.000668 0.000000
# 3 -0.003830 -0.003232 0.012272 0.000000 0.002242 0.000000
# 4 0.000000 0.000000 0.000000 0.095298 0.000000 0.005454
# 5 0.002744 0.000668 0.002242 0.000000 0.026930 0.000000
# 6 0.000000 0.000000 0.000000 0.005454 0.000000 0.034443
#
#
# Mechanical properties :
#
#
# Convention : Reuss Voigt Hill
#
# Bulk Modulus (GPa) = 60.02996 65.22168 62.62582
# Shear Modulus (GPa) = 23.64390 31.27363 27.45877
#
# Velocity S-wave (km/s) = 3.43355 3.94887 3.70019
# Velocity P-wave (km/s) = 6.75655 7.30151 7.03431
#
# Compressibility (1/GPa) = 0.01665835
#
# Stress axis : x y z
#
# Youngs Moduli (GPa) = 85.37061 111.51770 81.48462
#
# Poissons Ratio (x) = 0.12106 0.31205
# Poissons Ratio (y) = 0.09268 0.26338
# Poissons Ratio (z) = 0.32693 0.36045
#
# Static dielectric constant tensor:
#      x y z
#    x 3.672260 0.000000 -0.064010 
#    y 0.000000 4.049220 0.000000 
#    z -0.064010 0.000000 3.657610 
# 
# 
# High freq. dielectric constant tensor:
#      x y z
#    x 1.784740 0.000000 -0.003450 
#    y 0.000000 1.794300 0.000000 
#    z -0.003450 0.000000 1.792530 
# 
# From -- ./inp_files/372533.got.cif
#   From: 2010.06.25/outbox.cif.g09.slc.cpg/sg12_187_cif.got.tgz:372533.got - 2010.06.28 00:19:55.
