data_PCOD8112615
_publ_section_title
;
Structure prediction by ZEFSAII (Michael W. Deem and Ramdas Pophale) SiO2 
 PCOD8112615
Probable space group: C 2/M
;
_chemical_formula_sum "Si O2"
_cell_formula_units_Z 40
_cell_length_a 14.671716
_cell_length_b 19.432569
_cell_length_c 9.590734
_cell_angle_alpha 90.000000
_cell_angle_beta 49.477780
_cell_angle_gamma 90.000000
_cell_volume 2078.569674
_symmetry_space_group_name_H-M "C 2/M"
_symmetry_group_IT_number 12
_symmetry_cell_setting 'monoclinic'
loop_
_space_group_symop_operation_xyz
x,y,z
-x,y,-z
-x,-y,-z
x,-y,z
1/2+x,1/2+y,z
1/2-x,1/2+y,-z
1/2-x,1/2-y,-z
1/2+x,1/2-y,z
loop_
_atom_site_type_symbol
_atom_site_label
_atom_site_fract_x
_atom_site_fract_y
_atom_site_fract_z
Si Si1 0.716738 0.079205 0.004097
Si Si2 0.023280 0.079085 0.137595
Si Si3 0.033009 0.314206 0.181738
Si Si4 0.682444 0.167036 0.788431
Si Si5 0.432725 0.314546 0.432854
O O1 0.840526 0.097415 0.957668
O O2 0.723854 0.097696 0.830566
O O3 0.683123 0.000000 0.055921
O O4 0.610471 0.125321 0.180170
O O5 0.933096 0.127417 0.313532
O O6 0.993965 0.000000 0.203157
O O7 0.000000 0.094856 0.000000
O O8 0.912216 0.348933 0.240095
O O9 0.003175 0.253779 0.317326
O O10 0.116184 0.284611 0.970834
O O11 0.796083 0.204649 0.606531
O O12 0.500000 0.345103 0.500000
#
# Coordination Sequence:
#
# PCOD8112615 Si02
#       5
#     8   8   8   8   8
#     4   9  18  38  65  86 118 160 202 247 299 359
#     4  10  23  40  60  89 123 160 199 251 313 361
#     4   9  21  38  57  92 126 151 198 251 306 356
#     4   9  20  37  58  93 118 160 197 249 304 351
#     4  12  22  38  63  92 119 163 204 251 302 359
#
# _framework density 19.244002999999999
#
# number of rings (size 3 to 8) (size 9 to 14) (size 15 to 20)
#    1.200    1.000    2.000    0.600    2.800    6.000 
#    3.600    0.000    0.000    0.600    0.000    0.000 
#    0.000    0.000    0.000    0.000    0.000    0.000 
#
# Total GULP energy -247793.739687 kJ/mol
# GULP energy per Si atom -12389.686984 kJ/mol
# Density = 1.920020 g / cm^3
# Si number density = 19.244003 Si / 1000 Ang^3
#
#
#
# Elastic Constant Matrix: (Units=GPa)
#
#
# Indices 1 2 3 4 5 6 
#
# 1 108.3603 32.5283 43.6132 0.0000 -1.8518 0.0000
# 2 32.5283 88.4218 53.3866 0.0000 -1.2970 0.0000
# 3 43.6132 53.3866 119.9390 0.0000 -21.1854 0.0000
# 4 0.0000 0.0000 0.0000 13.6921 0.0000 2.0161
# 5 -1.8518 -1.2970 -21.1854 0.0000 29.4503 0.0000
# 6 0.0000 0.0000 0.0000 2.0161 0.0000 24.7535
#
#
#
# Elastic Compliance Matrix: (Units=1/GPa)
#
#
# Indices 1 2 3 4 5 6 
#
# 1 0.011220 -0.002036 -0.003511 0.000000 -0.001910 0.000000
# 2 -0.002036 0.016476 -0.007432 0.000000 -0.004749 0.000000
# 3 -0.003511 -0.007432 0.014693 0.000000 0.010021 0.000000
# 4 0.000000 0.000000 0.000000 0.073921 0.000000 -0.006021
# 5 -0.001910 -0.004749 0.010021 0.000000 0.040835 0.000000
# 6 0.000000 0.000000 0.000000 -0.006021 0.000000 0.040889
#
#
# Mechanical properties :
#
#
# Convention : Reuss Voigt Hill
#
# Bulk Modulus (GPa) = 60.86262 63.97527 62.41894
# Shear Modulus (GPa) = 21.78941 26.05872 23.92406
#
# Velocity S-wave (km/s) = 3.36857 3.68383 3.52972
# Velocity P-wave (km/s) = 6.84289 7.17012 7.00841
#
# Compressibility (1/GPa) = 0.01643045
#
# Stress axis : x y z
#
# Youngs Moduli (GPa) = 89.12570 60.69403 68.06096
#
# Poissons Ratio (x) = 0.12355 0.23898
# Poissons Ratio (y) = 0.18143 0.50585
# Poissons Ratio (z) = 0.31294 0.45110
#
# Static dielectric constant tensor:
#      x y z
#    x 3.606690 0.000000 -0.101200 
#    y 0.000000 3.214940 0.000000 
#    z -0.101200 0.000000 3.435860 
# 
# 
# High freq. dielectric constant tensor:
#      x y z
#    x 1.762000 0.000000 -0.012020 
#    y 0.000000 1.721880 0.000000 
#    z -0.012020 0.000000 1.735120 
# 
# From -- ./inp_files/157604.got.cif
#   From: 2010.06.25/outbox.cif.g09.slc.cpg/sg12_79_cif.got.tgz:157604.got - 2010.06.28 00:19:55.
