data_PCOD8112762
_publ_section_title
;
Structure prediction by ZEFSAII (Michael W. Deem and Ramdas Pophale) SiO2 
 PCOD8112762
Probable space group: C 2/M
;
_chemical_formula_sum "Si O2"
_cell_formula_units_Z 56
_cell_length_a 22.235584
_cell_length_b 22.345943
_cell_length_c 13.404174
_cell_angle_alpha 90.000000
_cell_angle_beta 156.845000
_cell_angle_gamma 90.000000
_cell_volume 2618.923262
_symmetry_space_group_name_H-M "C 2/M"
_symmetry_group_IT_number 12
_symmetry_cell_setting 'monoclinic'
loop_
_space_group_symop_operation_xyz
x,y,z
-x,y,-z
-x,-y,-z
x,-y,z
1/2+x,1/2+y,z
1/2-x,1/2+y,-z
1/2-x,1/2-y,-z
1/2+x,1/2-y,z
loop_
_atom_site_type_symbol
_atom_site_label
_atom_site_fract_x
_atom_site_fract_y
_atom_site_fract_z
Si Si1 0.630253 0.864874 0.618296
Si Si2 0.577034 0.568185 0.921282
Si Si3 0.132522 0.820200 0.365136
Si Si4 0.311054 0.845235 0.828905
Si Si5 0.433134 0.567028 0.495905
Si Si6 0.595439 0.810514 0.352383
Si Si7 0.683722 0.748411 0.788820
O O1 0.500000 0.883560 0.500000
O O2 0.562436 0.838791 0.410965
O O3 0.734824 0.812164 0.822161
O O4 0.746036 0.920543 0.778743
O O5 0.532682 0.500000 0.888964
O O6 0.468980 0.620006 0.802975
O O7 0.559255 0.572764 0.774877
O O8 0.263469 0.821770 0.648909
O O9 0.224602 0.814499 0.400993
O O10 0.039948 0.759355 0.253488
O O11 0.230522 0.908747 0.720170
O O12 0.257099 0.803743 0.837367
O O13 0.494235 0.849744 0.119891
O O14 0.500000 0.600942 0.500000
O O15 0.396349 0.500000 0.409372
O O16 0.500000 0.743975 0.500000
O O17 0.750000 0.750000 0.000000
#
# Coordination Sequence:
#
# PCOD8112762 Si02
#       7
#     8   8   8   8   8   8   8
#     4  11  24  39  60  93 128 161 203 259 321 381
#     4  10  23  43  65  88 125 171 212 255 302 374
#     4  10  23  41  65  89 126 163 213 257 308 373
#     4  11  20  36  61  87 120 158 205 259 314 371
#     4   9  20  36  58  88 118 161 209 251 302 365
#     4  11  23  41  61  96 124 163 202 263 323 371
#     4  11  23  34  56  90 129 167 204 257 327 392
#
# _framework density 21.382833000000002
#
# number of rings (size 3 to 8) (size 9 to 14) (size 15 to 20)
#    0.000    1.571    1.429    3.429    8.000    0.857 
#    0.000    2.857    0.000    3.429    0.000    0.000 
#    0.000    0.000    0.000    0.000    0.000    0.000 
#
# Total GULP energy -346927.670233 kJ/mol
# GULP energy per Si atom -12390.273937 kJ/mol
# Density = 2.133417 g / cm^3
# Si number density = 21.382833 Si / 1000 Ang^3
#
#
#
# Elastic Constant Matrix: (Units=GPa)
#
#
# Indices 1 2 3 4 5 6 
#
# 1 71.1577 19.1226 15.9038 0.0000 2.6965 0.0000
# 2 19.1226 100.2818 35.5532 0.0000 8.3885 0.0000
# 3 15.9038 35.5532 97.1993 0.0000 -2.8046 0.0000
# 4 0.0000 0.0000 0.0000 23.7166 0.0000 0.0204
# 5 2.6965 8.3885 -2.8046 0.0000 26.1162 0.0000
# 6 0.0000 0.0000 0.0000 0.0204 0.0000 21.7766
#
#
#
# Elastic Compliance Matrix: (Units=1/GPa)
#
#
# Indices 1 2 3 4 5 6 
#
# 1 0.015058 -0.002184 -0.001695 0.000000 -0.001035 0.000000
# 2 -0.002184 0.012240 -0.004240 0.000000 -0.004161 0.000000
# 3 -0.001695 -0.004240 0.012198 0.000000 0.002847 0.000000
# 4 0.000000 0.000000 0.000000 0.042165 0.000000 -0.000039
# 5 -0.001035 -0.004161 0.002847 0.000000 0.040040 0.000000
# 6 0.000000 0.000000 0.000000 -0.000039 0.000000 0.045921
#
#
# Mechanical properties :
#
#
# Convention : Reuss Voigt Hill
#
# Bulk Modulus (GPa) = 42.99381 45.53313 44.26347
# Shear Modulus (GPa) = 26.09452 27.52584 26.81018
#
# Velocity S-wave (km/s) = 3.49714 3.59177 3.54477
# Velocity P-wave (km/s) = 6.03796 6.20818 6.12367
#
# Compressibility (1/GPa) = 0.02325916
#
# Stress axis : x y z
#
# Youngs Moduli (GPa) = 66.40889 81.70243 81.97818
#
# Poissons Ratio (x) = 0.17843 0.13894
# Poissons Ratio (y) = 0.14503 0.34756
# Poissons Ratio (z) = 0.11255 0.34639
#
# Static dielectric constant tensor:
#      x y z
#    x 3.844710 0.000000 -0.099040 
#    y 0.000000 3.905490 0.000000 
#    z -0.099040 0.000000 3.725950 
# 
# 
# High freq. dielectric constant tensor:
#      x y z
#    x 1.839110 0.000000 -0.003450 
#    y 0.000000 1.824550 0.000000 
#    z -0.003450 0.000000 1.837330 
# 
# From -- ./inp_files/242186.got.cif
#   From: 2010.06.25/outbox.cif.g09.slc.cpg/sg12_122_cif.got.tgz:242186.got - 2010.06.28 00:19:55.
