data_PCOD8112997
_publ_section_title
;
Structure prediction by ZEFSAII (Michael W. Deem and Ramdas Pophale) SiO2 
 PCOD8112997
Probable space group: C 2/M
;
_chemical_formula_sum "Si O2"
_cell_formula_units_Z 48
_cell_length_a 20.357858
_cell_length_b 8.590547
_cell_length_c 17.444919
_cell_angle_alpha 90.000000
_cell_angle_beta 53.953498
_cell_angle_gamma 90.000000
_cell_volume 2466.738949
_symmetry_space_group_name_H-M "C 2/M"
_symmetry_group_IT_number 12
_symmetry_cell_setting 'monoclinic'
loop_
_space_group_symop_operation_xyz
x,y,z
-x,y,-z
-x,-y,-z
x,-y,z
1/2+x,1/2+y,z
1/2-x,1/2+y,-z
1/2-x,1/2-y,-z
1/2+x,1/2-y,z
loop_
_atom_site_type_symbol
_atom_site_label
_atom_site_fract_x
_atom_site_fract_y
_atom_site_fract_z
Si Si1 0.089298 0.815909 0.442102
Si Si2 0.633914 0.317187 0.244868
Si Si3 0.277777 0.682755 0.060377
Si Si4 0.984368 0.683423 0.251346
Si Si5 0.535108 0.317220 0.057256
Si Si6 0.160733 0.815032 0.550647
O O1 0.132577 0.766108 0.334190
O O2 0.134390 0.749403 0.485555
O O3 0.000000 0.742284 0.500000
O O4 0.083819 0.000000 0.453842
O O5 0.620546 0.500000 0.242603
O O6 0.723889 0.266396 0.160922
O O7 0.564141 0.236497 0.242709
O O8 0.262541 0.500000 0.073651
O O9 0.250000 0.750000 0.000000
O O10 0.370616 0.727072 0.009855
O O11 0.976934 0.500000 0.262345
O O12 0.902332 0.757012 0.341908
O O13 0.990997 0.731028 0.157696
O O14 0.521414 0.500000 0.078721
O O15 0.500000 0.260198 0.000000
O O16 0.250000 0.750000 0.500000
O O17 0.162334 0.000000 0.552669
#
# Coordination Sequence:
#
# PCOD8112997 Si02
#       6
#     8   8   8   8   8   8
#     4   9  18  36  62  89 117 158 205 250 301 357
#     4  11  21  37  63  91 121 160 207 258 308 360
#     4  11  22  37  60  90 123 158 201 251 304 365
#     4  12  24  39  62  92 124 162 205 250 311 374
#     4  10  23  43  65  89 122 165 207 253 309 365
#     4  11  23  42  65  91 127 164 205 253 307 368
#
# _framework density 19.458888999999999
#
# number of rings (size 3 to 8) (size 9 to 14) (size 15 to 20)
#    0.000    1.333    3.333    3.000    0.000    2.333 
#    0.000    7.500    0.000    0.000    0.000    0.000 
#    0.000    0.000    0.000    0.000    0.000    0.000 
#
# Total GULP energy -297607.334821 kJ/mol
# GULP energy per Si atom -12400.305618 kJ/mol
# Density = 1.941460 g / cm^3
# Si number density = 19.458889 Si / 1000 Ang^3
#
#
#
# Elastic Constant Matrix: (Units=GPa)
#
#
# Indices 1 2 3 4 5 6 
#
# 1 158.0100 41.5587 88.1816 0.0000 9.6478 -0.0005
# 2 41.5587 74.3310 52.1173 -0.0004 5.0505 -0.0004
# 3 88.1816 52.1173 188.0432 0.0000 4.6957 0.0000
# 4 0.0000 -0.0004 0.0000 29.8168 0.0001 -9.4667
# 5 9.6478 5.0505 4.6957 0.0001 34.6614 0.0001
# 6 -0.0005 -0.0004 0.0000 -9.4667 0.0001 22.5385
#
#
#
# Elastic Compliance Matrix: (Units=1/GPa)
#
#
# Indices 1 2 3 4 5 6 
#
# 1 0.009043 -0.002480 -0.003511 0.000000 -0.001680 0.000000
# 2 -0.002480 0.017493 -0.003651 0.000000 -0.001364 0.000000
# 3 -0.003511 -0.003651 0.007966 0.000000 0.000430 0.000000
# 4 0.000000 0.000000 0.000000 0.038699 0.000000 0.016254
# 5 -0.001680 -0.001364 0.000430 0.000000 0.029459 0.000000
# 6 0.000000 0.000000 0.000000 0.016254 0.000000 0.051196
#
#
# Mechanical properties :
#
#
# Convention : Reuss Voigt Hill
#
# Bulk Modulus (GPa) = 65.71812 87.12216 76.42014
# Shear Modulus (GPa) = 28.05648 33.30512 30.68080
#
# Velocity S-wave (km/s) = 3.80127 4.14159 3.97507
# Velocity P-wave (km/s) = 7.28782 8.23043 7.77343
#
# Compressibility (1/GPa) = 0.01521650
#
# Stress axis : x y z
#
# Youngs Moduli (GPa) = 110.58015 57.16723 125.53626
#
# Poissons Ratio (x) = 0.14177 0.44082
# Poissons Ratio (y) = 0.27422 0.45836
# Poissons Ratio (z) = 0.38830 0.20873
#
# Static dielectric constant tensor:
#      x y z
#    x 3.617020 0.000000 0.010070 
#    y 0.000000 3.480570 0.000000 
#    z 0.010070 0.000000 3.650100 
# 
# 
# High freq. dielectric constant tensor:
#      x y z
#    x 1.759510 0.000000 0.001660 
#    y 0.000000 1.750710 0.000000 
#    z 0.001660 0.000000 1.778610 
# 
# From -- ./inp_files/280810.got.cif
#   From: 2010.06.25/outbox.cif.g09.slc.cpg/sg12_141_cif.got.tgz:280810.got - 2010.06.28 00:19:55.
