data_PCOD8112594
_publ_section_title
;
Structure prediction by ZEFSAII (Michael W. Deem and Ramdas Pophale) SiO2 
 PCOD8112594
Probable space group: C 2/M
;
_chemical_formula_sum "Si O2"
_cell_formula_units_Z 44
_cell_length_a 17.111592
_cell_length_b 12.088862
_cell_length_c 12.398766
_cell_angle_alpha 90.000000
_cell_angle_beta 125.410249
_cell_angle_gamma 90.000000
_cell_volume 2090.377797
_symmetry_space_group_name_H-M "C 2/M"
_symmetry_group_IT_number 12
_symmetry_cell_setting 'monoclinic'
loop_
_space_group_symop_operation_xyz
x,y,z
-x,y,-z
-x,-y,-z
x,-y,z
1/2+x,1/2+y,z
1/2-x,1/2+y,-z
1/2-x,1/2-y,-z
1/2+x,1/2-y,z
loop_
_atom_site_type_symbol
_atom_site_label
_atom_site_fract_x
_atom_site_fract_y
_atom_site_fract_z
Si Si1 0.217298 0.000000 0.158273
Si Si2 0.325880 0.631652 0.286283
Si Si3 0.522937 0.705319 0.773760
Si Si4 0.614015 0.000000 0.572372
Si Si5 0.654911 0.773592 0.492193
Si Si6 0.950489 0.000000 0.842829
Si Si7 0.817569 0.237973 0.955281
O O1 0.164217 0.000000 0.231625
O O2 0.180737 0.892465 0.066790
O O3 0.332692 0.000000 0.267943
O O4 0.315735 0.500000 0.283989
O O5 0.404193 0.667501 0.261540
O O6 0.356999 0.677953 0.427447
O O7 0.221269 0.685447 0.173263
O O8 0.438990 0.779411 0.657826
O O9 0.473249 0.602853 0.788303
O O10 0.577248 0.771723 0.914556
O O11 0.500000 0.000000 0.500000
O O12 0.655670 0.106767 0.546532
O O13 0.750000 0.750000 0.500000
O O14 0.000000 0.000000 0.000000
O O15 0.750000 0.250000 0.000000
#
# Coordination Sequence:
#
# PCOD8112594 Si02
#       7
#     4   8   8   4   8   4   8
#     4  12  22  44  68  98 137 173 234 292 344 411
#     4  11  24  45  68 100 138 180 228 282 350 421
#     4  11  23  43  67 104 131 178 232 281 349 412
#     4  12  26  48  71 100 137 189 237 276 348 435
#     4  12  28  46  71 100 141 182 230 291 354 412
#     4  12  22  38  70 104 135 170 227 295 345 404
#     4  10  23  39  67  97 134 178 226 284 344 410
#
# _framework density 21.048826999999999
#
# number of rings (size 3 to 8) (size 9 to 14) (size 15 to 20)
#    0.000    0.727    4.545    2.727    8.909    0.727 
#    1.636    0.000    0.000    1.091    0.000    0.000 
#    0.000    0.000    0.000    0.000    0.000    0.000 
#
# Total GULP energy -272628.374193 kJ/mol
# GULP energy per Si atom -12392.198827 kJ/mol
# Density = 2.100092 g / cm^3
# Si number density = 21.048827 Si / 1000 Ang^3
#
#
#
# Elastic Constant Matrix: (Units=GPa)
#
#
# Indices 1 2 3 4 5 6 
#
# 1 111.4334 33.2287 35.7783 0.0000 1.1128 0.0000
# 2 33.2287 108.7787 28.9027 0.0000 3.8219 0.0000
# 3 35.7783 28.9027 134.1364 0.0000 31.9612 0.0000
# 4 0.0000 0.0000 0.0000 21.2551 0.0000 -1.3094
# 5 1.1128 3.8219 31.9612 0.0000 43.7317 0.0000
# 6 0.0000 0.0000 0.0000 -1.3094 0.0000 25.5787
#
#
#
# Elastic Compliance Matrix: (Units=1/GPa)
#
#
# Indices 1 2 3 4 5 6 
#
# 1 0.010603 -0.002580 -0.002739 0.000000 0.001957 0.000000
# 2 -0.002580 0.010404 -0.001638 0.000000 0.000353 0.000000
# 3 -0.002739 -0.001638 0.010277 0.000000 -0.007298 0.000000
# 4 0.000000 0.000000 0.000000 0.047196 0.000000 0.002416
# 5 0.001957 0.000353 -0.007298 0.000000 0.028120 0.000000
# 6 0.000000 0.000000 0.000000 0.002416 0.000000 0.039219
#
#
# Mechanical properties :
#
#
# Convention : Reuss Voigt Hill
#
# Bulk Modulus (GPa) = 57.56514 61.12978 59.34746
# Shear Modulus (GPa) = 30.20729 35.20902 32.70815
#
# Velocity S-wave (km/s) = 3.79239 4.09434 3.94625
# Velocity P-wave (km/s) = 6.82525 7.17331 7.00145
#
# Compressibility (1/GPa) = 0.01737162
#
# Stress axis : x y z
#
# Youngs Moduli (GPa) = 94.31244 96.11833 97.30012
#
# Poissons Ratio (x) = 0.24799 0.26646
# Poissons Ratio (y) = 0.24333 0.15935
# Poissons Ratio (z) = 0.25828 0.15742
#
# Static dielectric constant tensor:
#      x y z
#    x 4.172460 0.000000 0.618700 
#    y 0.000000 3.384010 0.000000 
#    z 0.618700 0.000000 5.194110 
# 
# 
# High freq. dielectric constant tensor:
#      x y z
#    x 1.825180 0.000000 0.010400 
#    y 0.000000 1.816130 0.000000 
#    z 0.010400 0.000000 1.848220 
# 
# From -- ./inp_files/154143.got.cif
#   From: 2010.06.25/outbox.cif.g09.slc.cpg/sg12_78_cif.got.tgz:154143.got - 2010.06.28 00:19:55.
