data_PCOD8112560
_publ_section_title
;
Structure prediction by ZEFSAII (Michael W. Deem and Ramdas Pophale) SiO2 
 PCOD8112560
Probable space group: C 2/M
;
_chemical_formula_sum "Si O2"
_cell_formula_units_Z 56
_cell_length_a 18.074231
_cell_length_b 17.668982
_cell_length_c 11.056493
_cell_angle_alpha 90.000000
_cell_angle_beta 53.271593
_cell_angle_gamma 90.000000
_cell_volume 2829.964795
_symmetry_space_group_name_H-M "C 2/M"
_symmetry_group_IT_number 12
_symmetry_cell_setting 'monoclinic'
loop_
_space_group_symop_operation_xyz
x,y,z
-x,y,-z
-x,-y,-z
x,-y,z
1/2+x,1/2+y,z
1/2-x,1/2+y,-z
1/2-x,1/2-y,-z
1/2+x,1/2-y,z
loop_
_atom_site_type_symbol
_atom_site_label
_atom_site_fract_x
_atom_site_fract_y
_atom_site_fract_z
Si Si1 0.083656 0.141518 0.493541
Si Si2 0.157842 0.338315 0.150734
Si Si3 0.124184 0.915901 0.712144
Si Si4 0.257440 0.305422 0.826475
Si Si5 0.090368 0.758667 0.842475
Si Si6 0.450994 0.197606 0.366171
Si Si7 0.821670 0.415264 0.627899
O O1 0.106387 0.090520 0.586850
O O2 0.178636 0.145091 0.324091
O O3 0.043819 0.223327 0.569209
O O4 0.000000 0.102653 0.500000
O O5 0.177596 0.251338 0.163831
O O6 0.197761 0.395306 0.212581
O O7 0.048027 0.342447 0.245047
O O8 0.205484 0.358978 0.975210
O O9 0.073593 0.848198 0.833057
O O10 0.232121 0.906582 0.632850
O O11 0.090563 0.000000 0.787365
O O12 0.183074 0.255390 0.826273
O O13 0.101852 0.711114 0.708199
O O14 0.000000 0.729079 0.000000
O O15 0.397450 0.141456 0.505222
O O16 0.860598 0.500000 0.582663
#
# Coordination Sequence:
#
# PCOD8112560 Si02
#       7
#     8   8   8   8   8   8   8
#     4  11  20  37  63  87 116 153 200 246 291 336
#     4  11  21  34  57  86 122 148 190 241 292 340
#     4  10  23  39  57  84 119 156 199 242 289 350
#     4  11  21  36  58  90 117 151 188 253 285 346
#     4  11  21  37  63  88 114 155 195 242 298 345
#     4  11  20  36  59  91 114 148 200 245 282 349
#     4  11  22  39  60  85 121 159 193 239 295 349
#
# _framework density 19.788233000000002
#
# number of rings (size 3 to 8) (size 9 to 14) (size 15 to 20)
#    0.000    1.143    5.714    1.286    0.000    4.000 
#    0.000    0.714    0.000    1.286    0.000    0.000 
#    0.000    0.000    0.000    0.000    0.000    0.000 
#
# Total GULP energy -347186.751094 kJ/mol
# GULP energy per Si atom -12399.526825 kJ/mol
# Density = 1.974319 g / cm^3
# Si number density = 19.788233 Si / 1000 Ang^3
#
#
#
# Elastic Constant Matrix: (Units=GPa)
#
#
# Indices 1 2 3 4 5 6 
#
# 1 113.2090 22.9928 32.5315 0.0000 11.2665 0.0000
# 2 22.9928 59.7426 9.2666 0.0000 8.2624 0.0000
# 3 32.5315 9.2666 94.3943 0.0000 7.8803 0.0000
# 4 0.0000 0.0000 0.0000 15.7293 0.0000 2.4860
# 5 11.2665 8.2624 7.8803 0.0000 30.5336 0.0000
# 6 0.0000 0.0000 0.0000 2.4860 0.0000 8.8111
#
#
#
# Elastic Compliance Matrix: (Units=1/GPa)
#
#
# Indices 1 2 3 4 5 6 
#
# 1 0.010630 -0.003295 -0.003155 0.000000 -0.002216 0.000000
# 2 -0.003295 0.018579 -0.000378 0.000000 -0.003714 0.000000
# 3 -0.003155 -0.000378 0.011868 0.000000 -0.001797 0.000000
# 4 0.000000 0.000000 0.000000 0.066543 0.000000 -0.018774
# 5 -0.002216 -0.003714 -0.001797 0.000000 0.035037 0.000000
# 6 0.000000 0.000000 0.000000 -0.018774 0.000000 0.118790
#
#
# Mechanical properties :
#
#
# Convention : Reuss Voigt Hill
#
# Bulk Modulus (GPa) = 36.46903 44.10305 40.28604
# Shear Modulus (GPa) = 17.59057 24.51847 21.05452
#
# Velocity S-wave (km/s) = 2.98475 3.52382 3.26543
# Velocity P-wave (km/s) = 5.50890 6.23637 5.88389
#
# Compressibility (1/GPa) = 0.02742053
#
# Stress axis : x y z
#
# Youngs Moduli (GPa) = 94.07707 53.82435 84.25851
#
# Poissons Ratio (x) = 0.17736 0.26582
# Poissons Ratio (y) = 0.30999 0.03187
# Poissons Ratio (z) = 0.29680 0.02036
#
# Static dielectric constant tensor:
#      x y z
#    x 3.714910 0.000000 0.172980 
#    y 0.000000 3.334090 0.000000 
#    z 0.172980 0.000000 3.716830 
# 
# 
# High freq. dielectric constant tensor:
#      x y z
#    x 1.789910 0.000000 0.007780 
#    y 0.000000 1.735180 0.000000 
#    z 0.007780 0.000000 1.772310 
# 
# From -- ./inp_files/158185.got.cif
#   From: 2010.06.25/outbox.cif.g09.slc.cpg/sg12_80_cif.got.tgz:158185.got - 2010.06.28 00:19:55.
