data_PCOD8112630
_publ_section_title
;
Structure prediction by ZEFSAII (Michael W. Deem and Ramdas Pophale) SiO2 
 PCOD8112630
Probable space group: C 2/M
;
_chemical_formula_sum "Si O2"
_cell_formula_units_Z 64
_cell_length_a 11.385399
_cell_length_b 28.926424
_cell_length_c 9.468974
_cell_angle_alpha 90.000000
_cell_angle_beta 90.274783
_cell_angle_gamma 90.000000
_cell_volume 3118.465418
_symmetry_space_group_name_H-M "C 2/M"
_symmetry_group_IT_number 12
_symmetry_cell_setting 'monoclinic'
loop_
_space_group_symop_operation_xyz
x,y,z
-x,y,-z
-x,-y,-z
x,-y,z
1/2+x,1/2+y,z
1/2-x,1/2+y,-z
1/2-x,1/2-y,-z
1/2+x,1/2-y,z
loop_
_atom_site_type_symbol
_atom_site_label
_atom_site_fract_x
_atom_site_fract_y
_atom_site_fract_z
Si Si1 0.373243 0.552472 0.448870
Si Si2 0.370461 0.624577 0.949043
Si Si3 0.266102 0.109197 0.773052
Si Si4 0.374479 0.801595 0.668564
Si Si5 0.364744 0.816756 0.359217
Si Si6 0.269381 0.914016 0.300763
Si Si7 0.507741 0.053728 0.161702
Si Si8 0.797356 0.224131 0.864522
O O1 0.500000 0.570917 0.500000
O O2 0.382490 0.500000 0.393897
O O3 0.332897 0.584423 0.320024
O O4 0.281750 0.553494 0.577924
O O5 0.332433 0.593617 0.815802
O O6 0.369766 0.678849 0.909257
O O7 0.500000 0.610430 0.000000
O O8 0.275764 0.612123 0.066820
O O9 0.278815 0.161815 0.721194
O O10 0.388531 0.081724 0.761246
O O11 0.347484 0.788305 0.505142
O O12 0.500236 0.826353 0.675964
O O13 0.379364 0.756678 0.768470
O O14 0.300862 0.865653 0.374567
O O15 0.315625 0.787776 0.229099
O O16 0.383953 0.937620 0.236096
O O17 0.540555 0.000000 0.171615
O O18 0.500000 0.070351 0.000000
O O19 0.750000 0.250000 0.000000
#
# Coordination Sequence:
#
# PCOD8112630 Si02
#       8
#     8   8   8   8   8   8   8   8
#     4  11  25  44  67  98 134 172 216 268 324 390
#     4  11  25  42  63  93 127 173 224 266 321 394
#     4  12  22  42  68  93 132 171 214 267 328 387
#     4  11  22  40  64  89 128 167 209 264 322 391
#     4  10  23  40  62  92 127 167 210 259 328 385
#     4  11  21  43  67  94 131 173 216 266 327 385
#     4  11  23  39  65 101 134 167 214 275 330 385
#     4  11  24  39  62  91 124 164 214 271 317 380
#
# _framework density 20.522912999999999
#
# number of rings (size 3 to 8) (size 9 to 14) (size 15 to 20)
#    0.000    1.000    5.000    1.875    1.750    0.500 
#    0.000    1.250    0.000    3.000    0.000    0.000 
#    0.000    0.000    0.000    0.000    0.000    0.000 
#
# Total GULP energy -396928.099094 kJ/mol
# GULP energy per Si atom -12404.003097 kJ/mol
# Density = 2.047620 g / cm^3
# Si number density = 20.522913 Si / 1000 Ang^3
#
#
#
# Elastic Constant Matrix: (Units=GPa)
#
#
# Indices 1 2 3 4 5 6 
#
# 1 91.9786 20.1974 21.3392 0.0000 11.0245 0.0000
# 2 20.1974 76.1206 24.1954 0.0000 7.6411 0.0000
# 3 21.3392 24.1954 97.3677 0.0000 1.2886 0.0000
# 4 0.0000 0.0000 0.0000 35.5571 0.0000 -0.7795
# 5 11.0245 7.6411 1.2886 0.0000 38.0523 0.0000
# 6 0.0000 0.0000 0.0000 -0.7795 0.0000 28.1898
#
#
#
# Elastic Compliance Matrix: (Units=1/GPa)
#
#
# Indices 1 2 3 4 5 6 
#
# 1 0.012214 -0.002281 -0.002070 0.000000 -0.003011 0.000000
# 2 -0.002281 0.014982 -0.003194 0.000000 -0.002240 0.000000
# 3 -0.002070 -0.003194 0.011506 0.000000 0.000851 0.000000
# 4 0.000000 0.000000 0.000000 0.028141 0.000000 0.000778
# 5 -0.003011 -0.002240 0.000851 0.000000 0.027573 0.000000
# 6 0.000000 0.000000 0.000000 0.000778 0.000000 0.035495
#
#
# Mechanical properties :
#
#
# Convention : Reuss Voigt Hill
#
# Bulk Modulus (GPa) = 42.34819 44.10342 43.22580
# Shear Modulus (GPa) = 32.70724 33.67549 33.19136
#
# Velocity S-wave (km/s) = 3.99644 4.05516 4.02591
# Velocity P-wave (km/s) = 6.47879 6.59259 6.53594
#
# Compressibility (1/GPa) = 0.02361376
#
# Stress axis : x y z
#
# Youngs Moduli (GPa) = 81.87310 66.74657 86.90833
#
# Poissons Ratio (x) = 0.15222 0.17993
# Poissons Ratio (y) = 0.18671 0.27754
# Poissons Ratio (z) = 0.16950 0.21316
#
# Static dielectric constant tensor:
#      x y z
#    x 3.606080 0.000000 0.086070 
#    y 0.000000 3.632590 0.000000 
#    z 0.086070 0.000000 3.829790 
# 
# 
# High freq. dielectric constant tensor:
#      x y z
#    x 1.802820 0.000000 0.003820 
#    y 0.000000 1.797620 0.000000 
#    z 0.003820 0.000000 1.817190 
# 
# From -- ./inp_files/54745.got.cif
#   From: 2010.06.25/outbox.cif.g09.slc.cpg/sg12_28_cif.got.tgz:54745.got - 2010.06.28 00:19:55.
