data_PCOD8112983
_publ_section_title
;
Structure prediction by ZEFSAII (Michael W. Deem and Ramdas Pophale) SiO2 
 PCOD8112983
Probable space group: C 2/M
;
_chemical_formula_sum "Si O2"
_cell_formula_units_Z 48
_cell_length_a 9.565391
_cell_length_b 23.463429
_cell_length_c 11.249336
_cell_angle_alpha 90.000000
_cell_angle_beta 97.489644
_cell_angle_gamma 90.000000
_cell_volume 2503.225593
_symmetry_space_group_name_H-M "C 2/M"
_symmetry_group_IT_number 12
_symmetry_cell_setting 'monoclinic'
loop_
_space_group_symop_operation_xyz
x,y,z
-x,y,-z
-x,-y,-z
x,-y,z
1/2+x,1/2+y,z
1/2-x,1/2+y,-z
1/2-x,1/2-y,-z
1/2+x,1/2-y,z
loop_
_atom_site_type_symbol
_atom_site_label
_atom_site_fract_x
_atom_site_fract_y
_atom_site_fract_z
Si Si1 0.966481 0.110878 0.124507
Si Si2 0.422837 0.771473 0.713710
Si Si3 0.361765 0.564106 0.334566
Si Si4 0.894231 0.145445 0.643756
Si Si5 0.177808 0.229648 0.873182
Si Si6 0.134456 0.378252 0.451263
O O1 0.132760 0.068190 0.809428
O O2 0.113232 0.169788 0.903224
O O3 0.890681 0.124797 0.782731
O O4 0.000000 0.083272 0.000000
O O5 0.428918 0.712388 0.640888
O O6 0.283145 0.777897 0.775665
O O7 0.558064 0.774189 0.816211
O O8 0.423937 0.821299 0.617088
O O9 0.399604 0.500000 0.379047
O O10 0.475273 0.609562 0.401172
O O11 0.205122 0.579713 0.362973
O O12 0.746718 0.133948 0.566789
O O13 0.250000 0.250000 0.000000
O O14 0.000000 0.407921 0.500000
#
# Coordination Sequence:
#
# PCOD8112983 Si02
#       6
#     8   8   8   8   8   8
#     4   9  19  38  62  88 115 151 208 254 296 350
#     4  11  20  37  54  89 127 158 198 242 308 366
#     4  10  23  43  64  85 116 163 215 257 298 353
#     4   9  21  37  60  88 120 158 206 248 298 360
#     4  11  20  33  59  90 124 163 194 242 299 367
#     4  12  23  36  58  91 125 161 195 249 317 369
#
# _framework density 19.175259
#
# number of rings (size 3 to 8) (size 9 to 14) (size 15 to 20)
#    1.000    0.667    1.667    4.500    0.000    3.333 
#    0.000    0.000    0.000    0.000    0.000    4.667 
#    0.000    0.000    0.000    0.000    0.000    0.000 
#
# Total GULP energy -297361.426369 kJ/mol
# GULP energy per Si atom -12390.059432 kJ/mol
# Density = 1.913161 g / cm^3
# Si number density = 19.175259 Si / 1000 Ang^3
#
#
#
# Elastic Constant Matrix: (Units=GPa)
#
#
# Indices 1 2 3 4 5 6 
#
# 1 125.0980 31.0617 54.6020 0.0000 -5.0248 0.0000
# 2 31.0617 84.9153 35.4917 0.0000 -4.9647 0.0000
# 3 54.6020 35.4917 100.2533 0.0000 -3.0536 0.0000
# 4 0.0000 0.0000 0.0000 1.8080 0.0000 0.6480
# 5 -5.0248 -4.9647 -3.0536 0.0000 36.7655 0.0000
# 6 0.0000 0.0000 0.0000 0.6480 0.0000 17.2246
#
#
#
# Elastic Compliance Matrix: (Units=1/GPa)
#
#
# Indices 1 2 3 4 5 6 
#
# 1 0.010724 -0.001696 -0.005216 0.000000 0.000803 0.000000
# 2 -0.001696 0.014169 -0.004052 0.000000 0.001345 0.000000
# 3 -0.005216 -0.004052 0.014247 0.000000 -0.000077 0.000000
# 4 0.000000 0.000000 0.000000 0.560653 0.000000 -0.021092
# 5 0.000803 0.001345 -0.000077 0.000000 0.027484 0.000000
# 6 0.000000 0.000000 0.000000 -0.021092 0.000000 0.058850
#
#
# Mechanical properties :
#
#
# Convention : Reuss Voigt Hill
#
# Bulk Modulus (GPa) = 58.09257 61.39748 59.74502
# Shear Modulus (GPa) = 7.00485 23.76704 15.38594
#
# Velocity S-wave (km/s) = 1.91337 3.52442 2.83571
# Velocity P-wave (km/s) = 5.93656 6.97500 6.47663
#
# Compressibility (1/GPa) = 0.01721391
#
# Stress axis : x y z
#
# Youngs Moduli (GPa) = 93.25262 70.57789 70.18820
#
# Poissons Ratio (x) = 0.11968 0.36608
# Poissons Ratio (y) = 0.15813 0.28437
# Poissons Ratio (z) = 0.48638 0.28595
#
# Static dielectric constant tensor:
#      x y z
#    x 3.565610 0.000000 -0.077080 
#    y 0.000000 3.252570 0.000000 
#    z -0.077080 0.000000 3.605870 
# 
# 
# High freq. dielectric constant tensor:
#      x y z
#    x 1.738560 0.000000 -0.008340 
#    y 0.000000 1.716960 0.000000 
#    z -0.008340 0.000000 1.757060 
# 
# From -- ./inp_files/122585.got.cif
#   From: 2010.06.25/outbox.cif.g09.slc.cpg/sg12_62_cif.got.tgz:122585.got - 2010.06.28 00:19:55.
