data_PCOD8112734
_publ_section_title
;
Structure prediction by ZEFSAII (Michael W. Deem and Ramdas Pophale) SiO2 
 PCOD8112734
Probable space group: C 2/M
;
_chemical_formula_sum "Si O2"
_cell_formula_units_Z 48
_cell_length_a 28.806880
_cell_length_b 14.595673
_cell_length_c 12.847748
_cell_angle_alpha 90.000000
_cell_angle_beta 27.688068
_cell_angle_gamma 90.000000
_cell_volume 2510.038886
_symmetry_space_group_name_H-M "C 2/M"
_symmetry_group_IT_number 12
_symmetry_cell_setting 'monoclinic'
loop_
_space_group_symop_operation_xyz
x,y,z
-x,y,-z
-x,-y,-z
x,-y,z
1/2+x,1/2+y,z
1/2-x,1/2+y,-z
1/2-x,1/2-y,-z
1/2+x,1/2-y,z
loop_
_atom_site_type_symbol
_atom_site_label
_atom_site_fract_x
_atom_site_fract_y
_atom_site_fract_z
Si Si1 0.295299 0.820969 0.833983
Si Si2 0.401046 0.771099 0.261842
Si Si3 0.582809 0.902364 0.249404
Si Si4 0.022275 0.742054 0.661932
Si Si5 0.709865 0.391646 0.617483
Si Si6 0.630546 0.394505 0.006402
O O1 0.319898 0.899019 0.870464
O O2 0.390200 0.769135 0.595261
O O3 0.250000 0.750000 0.000000
O O4 0.222881 0.860298 0.891099
O O5 0.429945 0.782798 0.323510
O O6 0.357178 0.668605 0.328918
O O7 0.321587 0.850795 0.392186
O O8 0.500000 0.789320 0.000000
O O9 0.500000 0.889772 0.500000
O O10 0.569341 0.826727 0.185637
O O11 0.578261 0.000000 0.200381
O O12 0.972563 0.842558 0.761935
O O13 0.710778 0.500000 0.584436
O O14 0.660372 0.377521 0.828143
O O15 0.609411 0.500000 0.071708
#
# Coordination Sequence:
#
# PCOD8112734 Si02
#       6
#     8   8   8   8   8   8
#     4  11  21  38  63  85 122 163 201 245 302 355
#     4  11  22  39  65  90 124 157 198 253 307 356
#     4   9  19  35  58  85 112 150 199 243 291 353
#     4  11  22  38  61  92 121 156 202 254 300 354
#     4  10  23  41  63  90 121 162 206 245 300 370
#     4  11  22  39  64  91 120 164 208 244 298 367
#
# _framework density 19.12321
#
# number of rings (size 3 to 8) (size 9 to 14) (size 15 to 20)
#    0.000    1.500    5.000    0.500    0.000    2.667 
#    0.000    2.500    0.000    0.000    0.000    0.000 
#    0.000    0.000    0.000    0.000    0.000    0.000 
#
# Total GULP energy -297322.403927 kJ/mol
# GULP energy per Si atom -12388.433497 kJ/mol
# Density = 1.907968 g / cm^3
# Si number density = 19.123210 Si / 1000 Ang^3
#
#
#
# Elastic Constant Matrix: (Units=GPa)
#
#
# Indices 1 2 3 4 5 6 
#
# 1 81.8918 27.6931 30.6466 0.0000 -2.7027 0.0000
# 2 27.6931 121.2138 48.6371 0.0000 9.1803 0.0000
# 3 30.6466 48.6371 94.3354 0.0000 -1.4316 0.0000
# 4 0.0000 0.0000 0.0000 17.7638 0.0000 2.6236
# 5 -2.7027 9.1803 -1.4316 0.0000 19.1641 0.0000
# 6 0.0000 0.0000 0.0000 2.6236 0.0000 26.0712
#
#
#
# Elastic Compliance Matrix: (Units=1/GPa)
#
#
# Indices 1 2 3 4 5 6 
#
# 1 0.014326 -0.002055 -0.003553 0.000000 0.002739 0.000000
# 2 -0.002055 0.011284 -0.005243 0.000000 -0.006087 0.000000
# 3 -0.003553 -0.005243 0.014505 0.000000 0.003094 0.000000
# 4 0.000000 0.000000 0.000000 0.057144 0.000000 -0.005750
# 5 0.002739 -0.006087 0.003094 0.000000 0.055714 0.000000
# 6 0.000000 0.000000 0.000000 -0.005750 0.000000 0.038935
#
#
# Mechanical properties :
#
#
# Convention : Reuss Voigt Hill
#
# Bulk Modulus (GPa) = 54.30716 56.82163 55.56439
# Shear Modulus (GPa) = 22.75345 25.29741 24.02543
#
# Velocity S-wave (km/s) = 3.45314 3.64107 3.54835
# Velocity P-wave (km/s) = 6.66026 6.88872 6.77545
#
# Compressibility (1/GPa) = 0.01841378
#
# Stress axis : x y z
#
# Youngs Moduli (GPa) = 69.80207 88.62182 68.94328
#
# Poissons Ratio (x) = 0.18210 0.24497
# Poissons Ratio (y) = 0.14343 0.36144
# Poissons Ratio (z) = 0.24802 0.46460
#
# Static dielectric constant tensor:
#      x y z
#    x 3.637680 0.000000 -0.074530 
#    y 0.000000 3.605130 0.000000 
#    z -0.074530 0.000000 3.485920 
# 
# 
# High freq. dielectric constant tensor:
#      x y z
#    x 1.760390 0.000000 -0.010870 
#    y 0.000000 1.744800 0.000000 
#    z -0.010870 0.000000 1.733860 
# 
# From -- ./inp_files/142997.got.cif
#   From: 2010.06.25/outbox.cif.g09.slc.cpg/sg12_72_cif.got.tgz:142997.got - 2010.06.28 00:19:55.
