data_PCOD8112335
_publ_section_title
;
Structure prediction by ZEFSAII (Michael W. Deem and Ramdas Pophale) SiO2 
 PCOD8112335
Probable space group: C 2/M
;
_chemical_formula_sum "Si O2"
_cell_formula_units_Z 64
_cell_length_a 14.565444
_cell_length_b 27.645371
_cell_length_c 9.061064
_cell_angle_alpha 90.000000
_cell_angle_beta 123.140446
_cell_angle_gamma 90.000000
_cell_volume 3055.086835
_symmetry_space_group_name_H-M "C 2/M"
_symmetry_group_IT_number 12
_symmetry_cell_setting 'monoclinic'
loop_
_space_group_symop_operation_xyz
x,y,z
-x,y,-z
-x,-y,-z
x,-y,z
1/2+x,1/2+y,z
1/2-x,1/2+y,-z
1/2-x,1/2-y,-z
1/2+x,1/2-y,z
loop_
_atom_site_type_symbol
_atom_site_label
_atom_site_fract_x
_atom_site_fract_y
_atom_site_fract_z
Si Si1 0.140493 0.608203 0.989077
Si Si2 0.351101 0.226315 0.673303
Si Si3 0.826583 0.943732 0.999620
Si Si4 0.756106 0.704559 0.904847
Si Si5 0.269851 0.555868 0.621267
Si Si6 0.606544 0.882864 0.297000
Si Si7 0.493068 0.298010 0.332815
Si Si8 0.026402 0.905284 0.357233
O O1 0.018391 0.599566 0.824710
O O2 0.215141 0.565521 0.991592
O O3 0.176592 0.660990 0.961553
O O4 0.158639 0.608702 0.181566
O O5 0.250000 0.250000 0.500000
O O6 0.317390 0.222517 0.812581
O O7 0.381770 0.172934 0.642490
O O8 0.458740 0.260458 0.745395
O O9 0.926549 0.914426 0.157826
O O10 0.856342 0.000000 0.031046
O O11 0.807632 0.925808 0.815574
O O12 0.632559 0.685743 0.787354
O O13 0.750000 0.750000 0.000000
O O14 0.235748 0.500000 0.596613
O O15 0.164458 0.585310 0.472784
O O16 0.369605 0.563353 0.597382
O O17 0.500000 0.273111 0.500000
O O18 0.560253 0.348461 0.382204
O O19 0.000000 0.921767 0.500000
#
# Coordination Sequence:
#
# PCOD8112335 Si02
#       8
#     8   8   8   8   8   8   8   8
#     4  10  22  43  64  91 124 169 217 272 319 382
#     4  11  22  40  62  91 129 172 215 268 325 384
#     4  11  24  43  65  95 132 167 211 270 331 390
#     4  11  23  40  62  91 130 168 215 274 328 382
#     4  11  25  43  64  95 132 167 211 273 335 391
#     4  10  23  42  66  90 127 170 221 268 321 384
#     4  11  22  40  63  94 129 168 219 267 321 387
#     4  11  23  41  68  95 130 170 214 264 320 385
#
# _framework density 20.948668000000001
#
# number of rings (size 3 to 8) (size 9 to 14) (size 15 to 20)
#    0.000    1.250    2.500    3.000    3.500    8.000 
#    4.500    2.500    0.000    0.000    0.000    0.000 
#    0.000    0.000    0.000    0.000    0.000    0.000 
#
# Total GULP energy -396808.503791 kJ/mol
# GULP energy per Si atom -12400.265743 kJ/mol
# Density = 2.090099 g / cm^3
# Si number density = 20.948668 Si / 1000 Ang^3
#
#
#
# Elastic Constant Matrix: (Units=GPa)
#
#
# Indices 1 2 3 4 5 6 
#
# 1 94.0267 27.8483 26.1114 0.0000 3.1507 0.0000
# 2 27.8483 83.5111 42.2178 0.0000 -6.9653 0.0000
# 3 26.1114 42.2178 116.4557 0.0000 1.2560 0.0000
# 4 0.0000 0.0000 0.0000 35.5780 0.0000 0.1920
# 5 3.1507 -6.9653 1.2560 0.0000 26.0243 0.0000
# 6 0.0000 0.0000 0.0000 0.1920 0.0000 37.1774
#
#
#
# Elastic Compliance Matrix: (Units=1/GPa)
#
#
# Indices 1 2 3 4 5 6 
#
# 1 0.012154 -0.003531 -0.001420 0.000000 -0.002348 0.000000
# 2 -0.003531 0.016157 -0.005119 0.000000 0.004999 0.000000
# 3 -0.001420 -0.005119 0.010780 0.000000 -0.001719 0.000000
# 4 0.000000 0.000000 0.000000 0.028108 0.000000 -0.000145
# 5 -0.002348 0.004999 -0.001719 0.000000 0.040131 0.000000
# 6 0.000000 0.000000 0.000000 -0.000145 0.000000 0.026899
#
#
# Mechanical properties :
#
#
# Convention : Reuss Voigt Hill
#
# Bulk Modulus (GPa) = 52.76990 54.03873 53.40432
# Shear Modulus (GPa) = 31.11664 32.94366 32.03015
#
# Velocity S-wave (km/s) = 3.85824 3.96989 3.91446
# Velocity P-wave (km/s) = 6.71512 6.84581 6.78078
#
# Compressibility (1/GPa) = 0.01895020
#
# Stress axis : x y z
#
# Youngs Moduli (GPa) = 82.27720 61.89278 92.76670
#
# Poissons Ratio (x) = 0.21855 0.13170
# Poissons Ratio (y) = 0.29053 0.47491
# Poissons Ratio (z) = 0.11681 0.31686
#
# Static dielectric constant tensor:
#      x y z
#    x 3.812210 0.000000 -0.051990 
#    y 0.000000 3.727050 0.000000 
#    z -0.051990 0.000000 3.584800 
# 
# 
# High freq. dielectric constant tensor:
#      x y z
#    x 1.827250 0.000000 0.007010 
#    y 0.000000 1.821810 0.000000 
#    z 0.007010 0.000000 1.820670 
# 
# From -- ./inp_files/68629.got.cif
#   From: 2010.06.25/outbox.cif.g09.slc.cpg/sg12_35_cif.got.tgz:68629.got - 2010.06.28 00:19:55.
