data_PCOD8112602
_publ_section_title
;
Structure prediction by ZEFSAII (Michael W. Deem and Ramdas Pophale) SiO2 
 PCOD8112602
Probable space group: C 2/M
;
_chemical_formula_sum "Si O2"
_cell_formula_units_Z 48
_cell_length_a 22.548366
_cell_length_b 9.216825
_cell_length_c 22.528536
_cell_angle_alpha 90.000000
_cell_angle_beta 148.575722
_cell_angle_gamma 90.000000
_cell_volume 2441.048880
_symmetry_space_group_name_H-M "C 2/M"
_symmetry_group_IT_number 12
_symmetry_cell_setting 'monoclinic'
loop_
_space_group_symop_operation_xyz
x,y,z
-x,y,-z
-x,-y,-z
x,-y,z
1/2+x,1/2+y,z
1/2-x,1/2+y,-z
1/2-x,1/2-y,-z
1/2+x,1/2-y,z
loop_
_atom_site_type_symbol
_atom_site_label
_atom_site_fract_x
_atom_site_fract_y
_atom_site_fract_z
Si Si1 0.668335 0.168975 0.033894
Si Si2 0.579620 0.667373 0.616558
Si Si3 0.047243 0.830251 0.172376
Si Si4 0.354768 0.329948 0.620743
Si Si5 0.662479 0.836115 0.167684
Si Si6 0.579769 0.672735 0.746822
O O1 0.646760 0.200023 0.085215
O O2 0.795246 0.223353 0.123396
O O3 0.653154 0.000000 0.006797
O O4 0.574967 0.258296 0.916960
O O5 0.500000 0.746403 0.500000
O O6 0.543999 0.500000 0.591817
O O7 0.707322 0.683221 0.702765
O O8 0.561315 0.739809 0.665310
O O9 0.137553 0.795605 0.302337
O O10 0.090966 0.772299 0.146940
O O11 0.026497 0.000000 0.149931
O O12 0.339148 0.500000 0.594987
O O13 0.250000 0.250000 0.500000
O O14 0.475478 0.273672 0.697877
O O15 0.620905 0.000000 0.145382
O O16 0.585146 0.500000 0.747170
#
# Coordination Sequence:
#
# PCOD8112602 Si02
#       6
#     8   8   8   8   8   8
#     4   9  18  35  58  83 106 133 179 229 268 309
#     4   8  14  25  48  81 103 124 170 225 267 302
#     4  11  23  35  50  78 114 147 177 211 261 324
#     4  10  23  40  56  77 107 143 181 219 262 315
#     4   9  18  32  53  82 109 135 176 224 264 311
#     4   8  16  33  54  76 105 135 170 225 271 302
#
# _framework density 19.663678999999998
#
# number of rings (size 3 to 8) (size 9 to 14) (size 15 to 20)
#    0.000    2.833    0.000    3.000    2.333    4.667 
#    0.000    0.833    0.000    1.500    0.000    0.000 
#    0.000    0.000    0.000    0.000    0.000    0.000 
#
# Total GULP energy -297443.195913 kJ/mol
# GULP energy per Si atom -12393.466496 kJ/mol
# Density = 1.961892 g / cm^3
# Si number density = 19.663679 Si / 1000 Ang^3
#
#
#
# Elastic Constant Matrix: (Units=GPa)
#
#
# Indices 1 2 3 4 5 6 
#
# 1 70.2021 29.6260 25.6830 0.0000 18.1278 0.0000
# 2 29.6260 58.9873 48.6637 0.0000 4.5787 0.0000
# 3 25.6830 48.6637 130.6743 0.0000 7.3243 0.0000
# 4 0.0000 0.0000 0.0000 28.7575 0.0000 0.8069
# 5 18.1278 4.5787 7.3243 0.0000 16.0815 0.0000
# 6 0.0000 0.0000 0.0000 0.8069 0.0000 16.2160
#
#
#
# Elastic Compliance Matrix: (Units=1/GPa)
#
#
# Indices 1 2 3 4 5 6 
#
# 1 0.025425 -0.011316 0.000660 0.000000 -0.025739 0.000000
# 2 -0.011316 0.029639 -0.009293 0.000000 0.008549 0.000000
# 3 0.000660 -0.009293 0.011162 0.000000 -0.003181 0.000000
# 4 0.000000 0.000000 0.000000 0.034822 0.000000 -0.001733
# 5 -0.025739 0.008549 -0.003181 0.000000 0.090212 0.000000
# 6 0.000000 0.000000 0.000000 -0.001733 0.000000 0.061754
#
#
# Mechanical properties :
#
#
# Convention : Reuss Voigt Hill
#
# Bulk Modulus (GPa) = 37.98254 51.97880 44.98067
# Shear Modulus (GPa) = 16.57342 22.60373 19.58858
#
# Velocity S-wave (km/s) = 2.90633 3.39413 3.15966
# Velocity P-wave (km/s) = 5.53357 6.46927 6.01963
#
# Compressibility (1/GPa) = 0.02632789
#
# Stress axis : x y z
#
# Youngs Moduli (GPa) = 39.33138 33.73946 89.58992
#
# Poissons Ratio (x) = 0.38179 -0.05910
# Poissons Ratio (y) = 0.44507 0.83254
# Poissons Ratio (z) = -0.02594 0.31353
#
# Static dielectric constant tensor:
#      x y z
#    x 3.632310 0.000000 -0.002430 
#    y 0.000000 3.096460 0.000000 
#    z -0.002430 0.000000 3.901800 
# 
# 
# High freq. dielectric constant tensor:
#      x y z
#    x 1.762620 0.000000 0.004000 
#    y 0.000000 1.715580 0.000000 
#    z 0.004000 0.000000 1.783490 
# 
# From -- ./inp_files/172855.got.cif
#   From: 2010.06.25/outbox.cif.g09.slc.cpg/sg12_87_cif.got.tgz:172855.got - 2010.06.28 00:19:55.
