data_PCOD8112191
_publ_section_title
;
Structure prediction by ZEFSAII (Michael W. Deem and Ramdas Pophale) SiO2 
 PCOD8112191
Probable space group: C 2/M
;
_chemical_formula_sum "Si O2"
_cell_formula_units_Z 40
_cell_length_a 8.648309
_cell_length_b 29.289093
_cell_length_c 14.957000
_cell_angle_alpha 90.000000
_cell_angle_beta 152.380920
_cell_angle_gamma 90.000000
_cell_volume 1756.372896
_symmetry_space_group_name_H-M "C 2/M"
_symmetry_group_IT_number 12
_symmetry_cell_setting 'monoclinic'
loop_
_space_group_symop_operation_xyz
x,y,z
-x,y,-z
-x,-y,-z
x,-y,z
1/2+x,1/2+y,z
1/2-x,1/2+y,-z
1/2-x,1/2-y,-z
1/2+x,1/2-y,z
loop_
_atom_site_type_symbol
_atom_site_label
_atom_site_fract_x
_atom_site_fract_y
_atom_site_fract_z
Si Si1 0.776199 0.316938 0.462738
Si Si2 0.329511 0.932628 0.006687
Si Si3 0.384250 0.000000 0.710368
Si Si4 0.246726 0.500000 0.708497
Si Si5 0.074763 0.334945 0.135783
Si Si6 0.392526 0.773429 0.205601
O O1 0.469717 0.349116 0.338974
O O2 0.610031 0.271603 0.334675
O O3 0.000000 0.340624 0.500000
O O4 0.021621 0.308637 0.671415
O O5 0.500000 0.944049 0.000000
O O6 0.524416 0.955004 0.188132
O O7 0.336012 0.878451 0.029934
O O8 0.960106 0.953384 0.813360
O O9 0.000000 0.000000 0.500000
O O10 0.561728 0.000000 0.706912
O O11 0.000000 0.500000 0.500000
O O12 0.011787 0.294325 0.172602
O O13 0.000000 0.314038 0.000000
O O14 0.000000 0.764911 0.000000
#
# Coordination Sequence:
#
# PCOD8112191 Si02
#       6
#     8   8   4   4   8   8
#     4  11  23  41  64  91 123 171 228 276 333 395
#     4  10  22  42  65  97 136 171 215 269 328 392
#     4  11  22  39  68 100 130 171 214 257 318 396
#     4  11  22  43  74 104 136 175 216 259 322 398
#     4  11  24  42  64  95 132 172 219 280 337 390
#     4  11  23  40  65  92 125 170 223 282 337 392
#
# _framework density 22.774206
#
# number of rings (size 3 to 8) (size 9 to 14) (size 15 to 20)
#    0.000    1.200    0.000    8.400    0.000    5.600 
#    0.000   12.000    0.000    0.000    0.000    0.000 
#    0.000    0.000    0.000    0.000    0.000    0.000 
#
# Total GULP energy -247955.151454 kJ/mol
# GULP energy per Si atom -12397.757573 kJ/mol
# Density = 2.272237 g / cm^3
# Si number density = 22.774206 Si / 1000 Ang^3
#
#
#
# Elastic Constant Matrix: (Units=GPa)
#
#
# Indices 1 2 3 4 5 6 
#
# 1 158.2866 35.3431 54.6961 0.0000 -5.9224 0.0000
# 2 35.3431 89.8817 40.4488 0.0000 -2.5865 0.0000
# 3 54.6961 40.4488 168.8561 0.0000 -4.7758 0.0000
# 4 0.0000 0.0000 0.0000 18.0170 0.0000 6.3192
# 5 -5.9224 -2.5865 -4.7758 0.0000 53.5223 0.0000
# 6 0.0000 0.0000 0.0000 6.3192 0.0000 27.4266
#
#
#
# Elastic Compliance Matrix: (Units=1/GPa)
#
#
# Indices 1 2 3 4 5 6 
#
# 1 0.007457 -0.002058 -0.001907 0.000000 0.000556 0.000000
# 2 -0.002058 0.013044 -0.002453 0.000000 0.000184 0.000000
# 3 -0.001907 -0.002453 0.007136 0.000000 0.000307 0.000000
# 4 0.000000 0.000000 0.000000 0.060383 0.000000 -0.013912
# 5 0.000556 0.000184 0.000307 0.000000 0.018782 0.000000
# 6 0.000000 0.000000 0.000000 -0.013912 0.000000 0.039666
#
#
# Mechanical properties :
#
#
# Convention : Reuss Voigt Hill
#
# Bulk Modulus (GPa) = 67.55935 75.33337 71.44636
# Shear Modulus (GPa) = 30.44380 38.89558 34.66969
#
# Velocity S-wave (km/s) = 3.66015 4.13713 3.90593
# Velocity P-wave (km/s) = 6.89866 7.48140 7.19593
#
# Compressibility (1/GPa) = 0.01480180
#
# Stress axis : x y z
#
# Youngs Moduli (GPa) = 134.10479 76.66279 140.13308
#
# Poissons Ratio (x) = 0.15778 0.26719
# Poissons Ratio (y) = 0.27600 0.34372
# Poissons Ratio (z) = 0.25570 0.18804
#
# Static dielectric constant tensor:
#      x y z
#    x 4.398410 0.000000 -0.025690 
#    y 0.000000 3.842260 0.000000 
#    z -0.025690 0.000000 4.528110 
# 
# 
# High freq. dielectric constant tensor:
#      x y z
#    x 1.915860 0.000000 -0.005650 
#    y 0.000000 1.870260 0.000000 
#    z -0.005650 0.000000 1.920330 
# 
# From -- ./inp_files/201435.got.cif
#   From: 2010.06.25/outbox.cif.g09.slc.cpg/sg12_101_cif.got.tgz:201435.got - 2010.06.28 00:19:55.
