data_PCOD8112941
_publ_section_title
;
Structure prediction by ZEFSAII (Michael W. Deem and Ramdas Pophale) SiO2 
 PCOD8112941
Probable space group: C 2/M
;
_chemical_formula_sum "Si O2"
_cell_formula_units_Z 40
_cell_length_a 11.119560
_cell_length_b 23.380920
_cell_length_c 13.399484
_cell_angle_alpha 90.000000
_cell_angle_beta 31.269720
_cell_angle_gamma 90.000000
_cell_volume 1808.260874
_symmetry_space_group_name_H-M "C 2/M"
_symmetry_group_IT_number 12
_symmetry_cell_setting 'monoclinic'
loop_
_space_group_symop_operation_xyz
x,y,z
-x,y,-z
-x,-y,-z
x,-y,z
1/2+x,1/2+y,z
1/2-x,1/2+y,-z
1/2-x,1/2-y,-z
1/2+x,1/2-y,z
loop_
_atom_site_type_symbol
_atom_site_label
_atom_site_fract_x
_atom_site_fract_y
_atom_site_fract_z
Si Si1 0.869820 0.065515 0.878031
Si Si2 0.538733 0.369504 0.589515
Si Si3 0.545230 0.270847 0.715818
Si Si4 0.072194 0.352582 0.204330
Si Si5 0.240030 0.862240 0.719343
O O1 0.930450 0.073777 0.716970
O O2 0.090451 0.084052 0.787686
O O3 0.807750 0.000000 0.942575
O O4 0.647397 0.104410 0.063421
O O5 0.500000 0.366715 0.500000
O O6 0.413141 0.316743 0.737711
O O7 0.811566 0.367570 0.421646
O O8 0.750000 0.250000 0.500000
O O9 0.401295 0.214002 0.850083
O O10 0.635604 0.302698 0.750977
O O11 0.256264 0.360608 0.163303
O O12 0.500000 0.870872 0.500000
#
# Coordination Sequence:
#
# PCOD8112941 Si02
#       5
#     8   8   8   8   8
#     4  11  26  46  66  95 133 178 232 275 318 383
#     4  10  23  42  68 100 131 174 222 268 337 397
#     4   9  19  34  66  94 135 167 204 268 330 399
#     4  11  23  40  68 100 138 172 218 271 335 394
#     4  11  20  40  65 103 131 170 217 272 336 394
#
# _framework density 22.120702000000001
#
# number of rings (size 3 to 8) (size 9 to 14) (size 15 to 20)
#    0.000    1.600    6.000    0.600    5.600    7.200 
#    0.000    1.000    0.000    0.000    0.000    0.000 
#    0.000    0.000    0.000    0.000    0.000    0.000 
#
# Total GULP energy -247862.790912 kJ/mol
# GULP energy per Si atom -12393.139546 kJ/mol
# Density = 2.207035 g / cm^3
# Si number density = 22.120702 Si / 1000 Ang^3
#
#
#
# Elastic Constant Matrix: (Units=GPa)
#
#
# Indices 1 2 3 4 5 6 
#
# 1 109.8689 36.8570 19.6251 0.0014 19.4817 -0.0032
# 2 36.8570 170.7145 66.1704 0.0004 9.6723 0.0005
# 3 19.6251 66.1704 58.7857 -0.0017 8.4555 -0.0029
# 4 0.0014 0.0004 -0.0017 35.7973 -0.0003 2.1186
# 5 19.4817 9.6723 8.4555 -0.0003 27.7369 0.0038
# 6 -0.0032 0.0005 -0.0029 2.1186 0.0038 20.9193
#
#
#
# Elastic Compliance Matrix: (Units=1/GPa)
#
#
# Indices 1 2 3 4 5 6 
#
# 1 0.011035 -0.001682 -0.000795 -0.000001 -0.006922 0.000003
# 2 -0.001682 0.010648 -0.011567 0.000000 0.000995 -0.000002
# 3 -0.000795 -0.011567 0.030995 0.000001 -0.004857 0.000005
# 4 -0.000001 0.000000 0.000001 0.028103 0.000001 -0.002846
# 5 -0.006922 0.000995 -0.004857 0.000001 0.042049 -0.000009
# 6 0.000003 -0.000002 0.000005 -0.002846 -0.000009 0.048091
#
#
# Mechanical properties :
#
#
# Convention : Reuss Voigt Hill
#
# Bulk Modulus (GPa) = 40.66680 64.96381 52.81531
# Shear Modulus (GPa) = 24.13042 31.33847 27.73445
#
# Velocity S-wave (km/s) = 3.30639 3.76800 3.54471
# Velocity P-wave (km/s) = 5.74458 6.95428 6.37818
#
# Compressibility (1/GPa) = 0.02459008
#
# Stress axis : x y z
#
# Youngs Moduli (GPa) = 90.61673 93.91320 32.26309
#
# Poissons Ratio (x) = 0.15799 0.02565
# Poissons Ratio (y) = 0.15244 0.37319
# Poissons Ratio (z) = 0.07203 1.08631
#
# Static dielectric constant tensor:
#      x y z
#    x 3.331500 0.000040 0.200060 
#    y 0.000040 4.102310 0.000020 
#    z 0.200060 0.000020 4.035780 
# 
# 
# High freq. dielectric constant tensor:
#      x y z
#    x 1.856690 0.000000 0.015620 
#    y 0.000000 1.853830 0.000000 
#    z 0.015620 0.000000 1.884470 
# 
# From -- ./inp_files/208529.got.cif
#   From: 2010.06.25/outbox.cif.g09.slc.cpg/sg12_105_cif.got.tgz:208529.got - 2010.06.28 00:19:55.
