data_PCOD8112365
_publ_section_title
;
Structure prediction by ZEFSAII (Michael W. Deem and Ramdas Pophale) SiO2 
 PCOD8112365
Probable space group: C 2/M
;
_chemical_formula_sum "Si O2"
_cell_formula_units_Z 60
_cell_length_a 16.525719
_cell_length_b 24.079452
_cell_length_c 11.297042
_cell_angle_alpha 90.000000
_cell_angle_beta 43.759089
_cell_angle_gamma 90.000000
_cell_volume 3109.166973
_symmetry_space_group_name_H-M "C 2/M"
_symmetry_group_IT_number 12
_symmetry_cell_setting 'monoclinic'
loop_
_space_group_symop_operation_xyz
x,y,z
-x,y,-z
-x,-y,-z
x,-y,z
1/2+x,1/2+y,z
1/2-x,1/2+y,-z
1/2-x,1/2-y,-z
1/2+x,1/2-y,z
loop_
_atom_site_type_symbol
_atom_site_label
_atom_site_fract_x
_atom_site_fract_y
_atom_site_fract_z
Si Si1 0.500000 0.680178 0.000000
Si Si2 0.748576 0.660133 0.801484
Si Si3 0.369048 0.873196 0.891902
Si Si4 0.280483 0.654225 0.595200
Si Si5 0.777055 0.785608 0.837811
Si Si6 0.633679 0.935633 0.878361
Si Si7 0.009804 0.207030 0.727268
Si Si8 0.396468 0.823417 0.416242
O O1 0.617188 0.643862 0.898993
O O2 0.515857 0.716525 0.863598
O O3 0.792861 0.616743 0.853656
O O4 0.754310 0.720108 0.860380
O O5 0.833261 0.656201 0.600866
O O6 0.505294 0.869606 0.714256
O O7 0.339749 0.815328 0.990423
O O8 0.340178 0.923887 0.011055
O O9 0.301568 0.696006 0.679718
O O10 0.228722 0.595275 0.694041
O O11 0.407236 0.653940 0.395704
O O12 0.190799 0.682315 0.600482
O O13 0.880610 0.805658 0.815923
O O14 0.647991 0.000000 0.833833
O O15 0.500000 0.915013 0.000000
O O16 0.050671 0.262705 0.617513
#
# Coordination Sequence:
#
# PCOD8112365 Si02
#       8
#     4   8   8   8   8   8   8   8
#     4  12  24  34  54  76 113 170 209 236 274 348
#     4  12  22  38  51  83 123 168 199 236 290 357
#     4  11  22  36  59  86 116 154 201 245 299 359
#     4  11  22  36  58  88 116 157 198 247 296 351
#     4  11  22  35  54  79 121 166 199 236 287 346
#     4  10  22  43  67  89 116 151 199 262 317 352
#     4  12  22  38  51  82 126 168 202 234 282 359
#     4  12  22  35  54  83 126 164 197 235 290 358
#
# _framework density 19.297774
#
# number of rings (size 3 to 8) (size 9 to 14) (size 15 to 20)
#    0.000    0.667    6.667    3.200    0.000    1.067 
#    0.000    0.000    0.000    8.800    0.000    0.933 
#    0.000    0.000    0.000    0.000    0.000    0.000 
#
# Total GULP energy -371873.796462 kJ/mol
# GULP energy per Si atom -12395.793215 kJ/mol
# Density = 1.925385 g / cm^3
# Si number density = 19.297774 Si / 1000 Ang^3
#
#
#
# Elastic Constant Matrix: (Units=GPa)
#
#
# Indices 1 2 3 4 5 6 
#
# 1 122.8590 2.1019 28.6068 0.0000 3.6810 0.0000
# 2 2.1019 42.2638 18.2265 0.0000 -1.7213 0.0000
# 3 28.6068 18.2265 117.0227 0.0000 -2.1459 0.0000
# 4 0.0000 0.0000 0.0000 12.4262 0.0000 -1.5103
# 5 3.6810 -1.7213 -2.1459 0.0000 37.3486 0.0000
# 6 0.0000 0.0000 0.0000 -1.5103 0.0000 14.7693
#
#
#
# Elastic Compliance Matrix: (Units=1/GPa)
#
#
# Indices 1 2 3 4 5 6 
#
# 1 0.008675 0.000484 -0.002214 0.000000 -0.000960 0.000000
# 2 0.000484 0.025425 -0.004062 0.000000 0.000891 0.000000
# 3 -0.002214 -0.004062 0.009730 0.000000 0.000590 0.000000
# 4 0.000000 0.000000 0.000000 0.081488 0.000000 0.008333
# 5 -0.000960 0.000891 0.000590 0.000000 0.026944 0.000000
# 6 0.000000 0.000000 0.000000 0.008333 0.000000 0.068560
#
#
# Mechanical properties :
#
#
# Convention : Reuss Voigt Hill
#
# Bulk Modulus (GPa) = 31.01062 42.22398 36.61730
# Shear Modulus (GPa) = 20.56306 28.45618 24.50962
#
# Velocity S-wave (km/s) = 3.26784 3.84420 3.56768
# Velocity P-wave (km/s) = 5.50843 6.45225 5.99893
#
# Compressibility (1/GPa) = 0.03224702
#
# Stress axis : x y z
#
# Youngs Moduli (GPa) = 115.26928 39.33162 102.77504
#
# Poissons Ratio (x) = -0.01904 0.22752
# Poissons Ratio (y) = -0.05581 0.41747
# Poissons Ratio (z) = 0.25518 0.15976
#
# Static dielectric constant tensor:
#      x y z
#    x 3.861560 0.000000 0.025310 
#    y 0.000000 2.857610 0.000000 
#    z 0.025310 0.000000 3.911090 
# 
# 
# High freq. dielectric constant tensor:
#      x y z
#    x 1.775300 0.000000 0.006750 
#    y 0.000000 1.664050 0.000000 
#    z 0.006750 0.000000 1.779520 
# 
# From -- ./inp_files/160723.got.cif
#   From: 2010.06.25/outbox.cif.g09.slc.cpg/sg12_81_cif.got.tgz:160723.got - 2010.06.28 00:19:55.
