data_PCOD8112995
_publ_section_title
;
Structure prediction by ZEFSAII (Michael W. Deem and Ramdas Pophale) SiO2 
 PCOD8112995
Probable space group: C 2/M
;
_chemical_formula_sum "Si O2"
_cell_formula_units_Z 56
_cell_length_a 14.374830
_cell_length_b 31.649880
_cell_length_c 11.659590
_cell_angle_alpha 90.000000
_cell_angle_beta 30.172168
_cell_angle_gamma 90.000000
_cell_volume 2666.125556
_symmetry_space_group_name_H-M "C 2/M"
_symmetry_group_IT_number 12
_symmetry_cell_setting 'monoclinic'
loop_
_space_group_symop_operation_xyz
x,y,z
-x,y,-z
-x,-y,-z
x,-y,z
1/2+x,1/2+y,z
1/2-x,1/2+y,-z
1/2-x,1/2-y,-z
1/2+x,1/2-y,z
loop_
_atom_site_type_symbol
_atom_site_label
_atom_site_fract_x
_atom_site_fract_y
_atom_site_fract_z
Si Si1 0.830413 0.812800 0.899401
Si Si2 0.000755 0.734591 0.371822
Si Si3 0.713054 0.603031 0.764547
Si Si4 0.365504 0.307133 0.238483
Si Si5 0.127125 0.450599 0.611071
Si Si6 0.538478 0.548730 0.586421
Si Si7 0.731526 0.096583 0.031821
O O1 0.934257 0.783774 0.693999
O O2 0.758884 0.858587 0.936493
O O3 0.992191 0.821641 0.817128
O O4 0.647115 0.789635 0.138624
O O5 0.000000 0.716185 0.500000
O O6 0.789591 0.726378 0.552235
O O7 0.739781 0.651067 0.693078
O O8 0.800971 0.570010 0.583143
O O9 0.500000 0.590892 0.000000
O O10 0.806393 0.600812 0.791188
O O11 0.500000 0.285620 0.000000
O O12 0.096148 0.500000 0.619137
O O13 0.253970 0.443994 0.588600
O O14 0.936997 0.427822 0.848156
O O15 0.500000 0.568041 0.500000
O O16 0.484643 0.500000 0.640465
O O17 0.414844 0.569996 0.815429
#
# Coordination Sequence:
#
# PCOD8112995 Si02
#       7
#     8   8   8   8   8   8   8
#     4  11  23  37  59  88 117 160 202 246 305 360
#     4  11  22  37  58  86 120 154 201 253 302 360
#     4  11  20  37  62  91 124 163 200 246 311 376
#     4  11  19  38  62  85 116 163 201 244 299 368
#     4  11  24  39  62  95 125 159 202 251 311 368
#     4  10  23  43  65  87 118 163 210 253 299 357
#     4  12  22  39  62  90 124 160 204 254 306 365
#
# _framework density 21.004263000000002
#
# number of rings (size 3 to 8) (size 9 to 14) (size 15 to 20)
#    0.000    1.000    5.714    2.143    0.000    3.143 
#    0.000    2.143    0.000    1.714    0.000    0.000 
#    0.000    0.000    0.000    0.000    0.000    0.000 
#
# Total GULP energy -347009.885365 kJ/mol
# GULP energy per Si atom -12393.210192 kJ/mol
# Density = 2.095646 g / cm^3
# Si number density = 21.004263 Si / 1000 Ang^3
#
#
#
# Elastic Constant Matrix: (Units=GPa)
#
#
# Indices 1 2 3 4 5 6 
#
# 1 68.8188 36.5265 25.8380 0.0000 -8.5039 0.0000
# 2 36.5265 107.4672 67.5200 0.0000 -19.0622 0.0000
# 3 25.8380 67.5200 101.6260 0.0000 -19.3841 0.0000
# 4 0.0000 0.0000 0.0000 43.5201 0.0000 -7.3105
# 5 -8.5039 -19.0622 -19.3841 0.0000 29.1791 0.0000
# 6 0.0000 0.0000 0.0000 -7.3105 0.0000 18.0472
#
#
#
# Elastic Compliance Matrix: (Units=1/GPa)
#
#
# Indices 1 2 3 4 5 6 
#
# 1 0.017809 -0.005389 -0.000720 0.000000 0.001191 0.000000
# 2 -0.005389 0.017996 -0.009897 0.000000 0.003611 0.000000
# 3 -0.000720 -0.009897 0.017549 0.000000 0.004983 0.000000
# 4 0.000000 0.000000 0.000000 0.024656 0.000000 0.009987
# 5 0.001191 0.003611 0.004983 0.000000 0.040287 0.000000
# 6 0.000000 0.000000 0.000000 0.009987 0.000000 0.059456
#
#
# Mechanical properties :
#
#
# Convention : Reuss Voigt Hill
#
# Bulk Modulus (GPa) = 46.85948 59.74235 53.30092
# Shear Modulus (GPa) = 23.05429 28.01779 25.53604
#
# Velocity S-wave (km/s) = 3.31660 3.65623 3.49055
# Velocity P-wave (km/s) = 6.08477 6.80653 6.45574
#
# Compressibility (1/GPa) = 0.02134040
#
# Stress axis : x y z
#
# Youngs Moduli (GPa) = 56.15171 55.56863 56.98255
#
# Poissons Ratio (x) = 0.29948 0.04103
# Poissons Ratio (y) = 0.30262 0.56398
# Poissons Ratio (z) = 0.04043 0.54999
#
# Static dielectric constant tensor:
#      x y z
#    x 3.818330 0.000000 -0.119450 
#    y 0.000000 3.928510 0.000000 
#    z -0.119450 0.000000 3.950660 
# 
# 
# High freq. dielectric constant tensor:
#      x y z
#    x 1.812750 0.000000 -0.019480 
#    y 0.000000 1.821930 0.000000 
#    z -0.019480 0.000000 1.826940 
# 
# From -- ./inp_files/150443.got.cif
#   From: 2010.06.25/outbox.cif.g09.slc.cpg/sg12_76_cif.got.tgz:150443.got - 2010.06.28 00:19:55.
