data_PCOD8112512
_publ_section_title
;
Structure prediction by ZEFSAII (Michael W. Deem and Ramdas Pophale) SiO2 
 PCOD8112512
Probable space group: C 2/M
;
_chemical_formula_sum "Si O2"
_cell_formula_units_Z 56
_cell_length_a 29.325854
_cell_length_b 17.559911
_cell_length_c 5.294842
_cell_angle_alpha 90.000000
_cell_angle_beta 58.808684
_cell_angle_gamma 90.000000
_cell_volume 2332.474697
_symmetry_space_group_name_H-M "C 2/M"
_symmetry_group_IT_number 12
_symmetry_cell_setting 'monoclinic'
loop_
_space_group_symop_operation_xyz
x,y,z
-x,y,-z
-x,-y,-z
x,-y,z
1/2+x,1/2+y,z
1/2-x,1/2+y,-z
1/2-x,1/2-y,-z
1/2+x,1/2-y,z
loop_
_atom_site_type_symbol
_atom_site_label
_atom_site_fract_x
_atom_site_fract_y
_atom_site_fract_z
Si Si1 0.208599 0.684122 0.187290
Si Si2 0.063319 0.415597 0.801287
Si Si3 0.841573 0.917186 0.137941
Si Si4 0.623966 0.295106 0.298102
Si Si5 0.230522 0.411167 0.636401
Si Si6 0.062070 0.915496 0.783098
Si Si7 0.436848 0.834192 0.700833
O O1 0.154067 0.732638 0.383024
O O2 0.216646 0.634848 0.417991
O O3 0.250000 0.750000 0.000000
O O4 0.204167 0.627673 0.957237
O O5 0.086425 0.500000 0.716168
O O6 0.084858 0.372180 0.494498
O O7 0.085496 0.379994 0.995669
O O8 0.000000 0.415335 0.000000
O O9 0.795344 0.906927 0.481905
O O10 0.901792 0.912630 0.069428
O O11 0.833327 0.000000 0.030646
O O12 0.833043 0.850100 0.960100
O O13 0.581747 0.347313 0.557956
O O14 0.587710 0.249700 0.199900
O O15 0.212259 0.500000 0.667796
O O16 0.069084 0.000000 0.639522
O O17 0.000000 0.899700 0.000000
O O18 0.500000 0.830424 0.500000
#
# Coordination Sequence:
#
# PCOD8112512 Si02
#       7
#     8   8   8   8   8   8   8
#     4  12  25  45  73 107 146 185 241 305 368 430
#     4   9  18  38  62  84 115 160 216 267 320 389
#     4  10  23  42  70 100 134 185 238 286 352 435
#     4  12  26  39  67  97 141 179 234 290 357 416
#     4  11  25  48  75 107 146 194 241 297 369 446
#     4  10  24  44  68 100 142 191 241 292 353 426
#     4  10  23  37  59  94 126 168 215 270 334 397
#
# _framework density 24.008835999999999
#
# number of rings (size 3 to 8) (size 9 to 14) (size 15 to 20)
#    0.000    1.429    1.429    2.571    6.000    2.286 
#    0.000    6.429    0.000    0.000    0.000    0.000 
#    0.000    0.000    0.000    0.000    0.000    0.000 
#
# Total GULP energy -346938.694734 kJ/mol
# GULP energy per Si atom -12390.667669 kJ/mol
# Density = 2.395419 g / cm^3
# Si number density = 24.008836 Si / 1000 Ang^3
#
#
#
# Elastic Constant Matrix: (Units=GPa)
#
#
# Indices 1 2 3 4 5 6 
#
# 1 75.7817 52.7156 38.2573 0.0000 9.3682 0.0000
# 2 52.7156 196.3341 72.0272 0.0000 8.7840 0.0000
# 3 38.2573 72.0272 106.8695 0.0000 21.8417 0.0000
# 4 0.0000 0.0000 0.0000 60.3924 0.0000 -24.4304
# 5 9.3682 8.7840 21.8417 0.0000 38.7573 0.0000
# 6 0.0000 0.0000 0.0000 -24.4304 0.0000 71.2461
#
#
#
# Elastic Compliance Matrix: (Units=1/GPa)
#
#
# Indices 1 2 3 4 5 6 
#
# 1 0.017551 -0.003253 -0.003814 0.000000 -0.001356 0.000000
# 2 -0.003253 0.007417 -0.004127 0.000000 0.001431 0.000000
# 3 -0.003814 -0.004127 0.014832 0.000000 -0.006502 0.000000
# 4 0.000000 0.000000 0.000000 0.019225 0.000000 0.006592
# 5 -0.001356 0.001431 -0.006502 0.000000 0.029469 0.000000
# 6 0.000000 0.000000 0.000000 0.006592 0.000000 0.016296
#
#
# Mechanical properties :
#
#
# Convention : Reuss Voigt Hill
#
# Bulk Modulus (GPa) = 57.42374 78.33174 67.87774
# Shear Modulus (GPa) = 37.59909 48.47816 43.03863
#
# Velocity S-wave (km/s) = 3.96163 4.49840 4.23852
# Velocity P-wave (km/s) = 6.70043 7.72515 7.23096
#
# Compressibility (1/GPa) = 0.01741440
#
# Stress axis : x y z
#
# Youngs Moduli (GPa) = 56.97541 134.83264 67.41984
#
# Poissons Ratio (x) = 0.43858 0.25711
# Poissons Ratio (y) = 0.18533 0.27821
# Poissons Ratio (z) = 0.21728 0.55640
#
# Static dielectric constant tensor:
#      x y z
#    x 4.373160 0.000000 -0.110790 
#    y 0.000000 4.758770 0.000000 
#    z -0.110790 0.000000 4.168160 
# 
# 
# High freq. dielectric constant tensor:
#      x y z
#    x 1.950100 0.000000 -0.012560 
#    y 0.000000 1.980790 0.000000 
#    z -0.012560 0.000000 1.937350 
# 
# From -- ./inp_files/31983.got.cif
#   From: 2010.06.25/outbox.cif.g09.slc.cpg/sg12_16_cif.got.tgz:31983.got - 2010.06.28 00:19:55.
