data_PCOD8112760
_publ_section_title
;
Structure prediction by ZEFSAII (Michael W. Deem and Ramdas Pophale) SiO2 
 PCOD8112760
Probable space group: C 2/M
;
_chemical_formula_sum "Si O2"
_cell_formula_units_Z 32
_cell_length_a 11.080708
_cell_length_b 12.608294
_cell_length_c 10.770971
_cell_angle_alpha 90.000000
_cell_angle_beta 102.573082
_cell_angle_gamma 90.000000
_cell_volume 1468.713302
_symmetry_space_group_name_H-M "C 2/M"
_symmetry_group_IT_number 12
_symmetry_cell_setting 'monoclinic'
loop_
_space_group_symop_operation_xyz
x,y,z
-x,y,-z
-x,-y,-z
x,-y,z
1/2+x,1/2+y,z
1/2-x,1/2+y,-z
1/2-x,1/2-y,-z
1/2+x,1/2-y,z
loop_
_atom_site_type_symbol
_atom_site_label
_atom_site_fract_x
_atom_site_fract_y
_atom_site_fract_z
Si Si1 0.140766 0.881984 0.044560
Si Si2 0.642925 0.773920 0.574247
Si Si3 0.400800 0.000000 0.367404
Si Si4 0.256745 0.175637 0.818873
Si Si5 0.449913 0.000000 0.847252
O O1 0.205653 0.796116 0.144165
O O2 0.156306 0.000000 0.106225
O O3 0.197982 0.884632 0.920712
O O4 0.000000 0.848223 0.000000
O O5 0.500000 0.764047 0.500000
O O6 0.750000 0.750000 0.500000
O O7 0.675489 0.891965 0.630901
O O8 0.658118 0.686037 0.685948
O O9 0.500000 0.000000 0.500000
O O10 0.445000 0.000000 0.233497
O O11 0.373809 0.106800 0.802582
O O12 0.500000 0.000000 0.000000
#
# Coordination Sequence:
#
# PCOD8112760 Si02
#       5
#     8   8   4   8   4
#     4  10  23  41  64  97 138 177 225 285 362 429
#     4  11  26  47  72 102 140 186 245 298 355 427
#     4  10  24  46  74  98 137 194 243 287 350 437
#     4  11  24  41  68  98 138 181 237 288 360 417
#     4  12  26  44  73 108 145 192 248 293 355 441
#
# _framework density 21.787777999999999
#
# number of rings (size 3 to 8) (size 9 to 14) (size 15 to 20)
#    0.000    1.250    1.250    3.750   15.750    0.000 
#    0.000    2.500    0.000    0.000    0.000    0.000 
#    0.000    0.000    0.000    0.000    0.000    0.000 
#
# Total GULP energy -198323.438184 kJ/mol
# GULP energy per Si atom -12395.214887 kJ/mol
# Density = 2.173819 g / cm^3
# Si number density = 21.787778 Si / 1000 Ang^3
#
#
#
# Elastic Constant Matrix: (Units=GPa)
#
#
# Indices 1 2 3 4 5 6 
#
# 1 125.5444 43.0289 33.7149 0.0000 -7.6175 0.0000
# 2 43.0289 105.8388 58.4707 0.0000 -2.8820 0.0000
# 3 33.7149 58.4707 108.2825 0.0000 2.4721 0.0000
# 4 0.0000 0.0000 0.0000 52.8768 0.0000 4.1005
# 5 -7.6175 -2.8820 2.4721 0.0000 35.4112 0.0000
# 6 0.0000 0.0000 0.0000 4.1005 0.0000 44.3824
#
#
#
# Elastic Compliance Matrix: (Units=1/GPa)
#
#
# Indices 1 2 3 4 5 6 
#
# 1 0.009491 -0.003065 -0.001343 0.000000 0.001886 0.000000
# 2 -0.003065 0.014547 -0.006924 0.000000 0.001008 0.000000
# 3 -0.001343 -0.006924 0.013433 0.000000 -0.001790 0.000000
# 4 0.000000 0.000000 0.000000 0.019048 0.000000 -0.001760
# 5 0.001886 0.001008 -0.001790 0.000000 0.028852 0.000000
# 6 0.000000 0.000000 0.000000 -0.001760 0.000000 0.022694
#
#
# Mechanical properties :
#
#
# Convention : Reuss Voigt Hill
#
# Bulk Modulus (GPa) = 67.53646 67.78829 67.66238
# Shear Modulus (GPa) = 36.85545 40.16416 38.50981
#
# Velocity S-wave (km/s) = 4.11733 4.29817 4.20872
# Velocity P-wave (km/s) = 7.32584 7.47080 7.39867
#
# Compressibility (1/GPa) = 0.01480682
#
# Stress axis : x y z
#
# Youngs Moduli (GPa) = 105.36305 68.74274 74.44455
#
# Poissons Ratio (x) = 0.21072 0.09998
# Poissons Ratio (y) = 0.32297 0.51543
# Poissons Ratio (z) = 0.14150 0.47596
#
# Static dielectric constant tensor:
#      x y z
#    x 3.913930 0.000000 -0.030340 
#    y 0.000000 4.230290 0.000000 
#    z -0.030340 0.000000 4.030570 
# 
# 
# High freq. dielectric constant tensor:
#      x y z
#    x 1.850680 0.000000 -0.002660 
#    y 0.000000 1.874390 0.000000 
#    z -0.002660 0.000000 1.861970 
# 
# From -- ./inp_files/127332.got.cif
#   From: 2010.06.25/outbox.cif.g09.slc.cpg/sg12_64_cif.got.tgz:127332.got - 2010.06.28 00:19:55.
