data_PCOD8112793
_publ_section_title
;
Structure prediction by ZEFSAII (Michael W. Deem and Ramdas Pophale) SiO2 
 PCOD8112793
Probable space group: C 2/M
;
_chemical_formula_sum "Si O2"
_cell_formula_units_Z 36
_cell_length_a 14.543104
_cell_length_b 12.088548
_cell_length_c 11.860281
_cell_angle_alpha 90.000000
_cell_angle_beta 67.077435
_cell_angle_gamma 90.000000
_cell_volume 1920.441078
_symmetry_space_group_name_H-M "C 2/M"
_symmetry_group_IT_number 12
_symmetry_cell_setting 'monoclinic'
loop_
_space_group_symop_operation_xyz
x,y,z
-x,y,-z
-x,-y,-z
x,-y,z
1/2+x,1/2+y,z
1/2-x,1/2+y,-z
1/2-x,1/2-y,-z
1/2+x,1/2-y,z
loop_
_atom_site_type_symbol
_atom_site_label
_atom_site_fract_x
_atom_site_fract_y
_atom_site_fract_z
Si Si1 0.405672 0.500000 0.462905
Si Si2 0.512634 0.000000 0.859706
Si Si3 0.416784 0.376675 0.241892
Si Si4 0.739451 0.000000 0.722773
Si Si5 0.719464 0.228940 0.837313
Si Si6 0.593590 0.217740 0.111335
O O1 0.500000 0.500000 0.500000
O O2 0.408734 0.390550 0.381764
O O3 0.301738 0.500000 0.578493
O O4 0.465144 0.891900 0.828254
O O5 0.622572 0.000000 0.756279
O O6 0.500000 0.000000 0.000000
O O7 0.412496 0.500000 0.187559
O O8 0.323330 0.302296 0.245108
O O9 0.524355 0.324276 0.162762
O O10 0.764674 0.110811 0.779859
O O11 0.809599 0.289215 0.856135
O O12 0.625470 0.213407 0.965308
#
# Coordination Sequence:
#
# PCOD8112793 Si02
#       6
#     4   4   8   4   8   8
#     4  10  24  43  65  89 121 172 224 259 303 369
#     4  12  20  39  61  90 128 160 204 260 322 378
#     4  10  23  42  60  89 126 161 210 263 303 366
#     4  12  22  42  65  86 123 167 215 250 311 374
#     4  11  23  37  65  94 124 166 206 257 321 375
#     4  11  22  38  62  95 129 163 201 257 322 385
#
# _framework density 18.745692999999999
#
# number of rings (size 3 to 8) (size 9 to 14) (size 15 to 20)
#    0.667    0.444    4.444    2.000    3.111    2.667 
#    0.000    0.000    0.000    1.333    0.000    0.000 
#    0.000    0.000    0.000    0.000    0.000    0.000 
#
# Total GULP energy -223152.959744 kJ/mol
# GULP energy per Si atom -12397.386652 kJ/mol
# Density = 1.870303 g / cm^3
# Si number density = 18.745693 Si / 1000 Ang^3
#
#
#
# Elastic Constant Matrix: (Units=GPa)
#
#
# Indices 1 2 3 4 5 6 
#
# 1 83.3109 30.8142 32.4134 0.0000 4.6502 0.0000
# 2 30.8142 114.0452 37.3161 0.0000 3.3571 0.0000
# 3 32.4134 37.3161 114.7952 0.0000 -5.8096 0.0000
# 4 0.0000 0.0000 0.0000 32.2759 0.0000 -7.3211
# 5 4.6502 3.3571 -5.8096 0.0000 35.4058 0.0000
# 6 0.0000 0.0000 0.0000 -7.3211 0.0000 -21.9272
#
#
#
# Elastic Compliance Matrix: (Units=1/GPa)
#
#
# Indices 1 2 3 4 5 6 
#
# 1 0.014423 -0.002758 -0.003286 0.000000 -0.002172 0.000000
# 2 -0.002758 0.010415 -0.002661 0.000000 -0.001062 0.000000
# 3 -0.003286 -0.002661 0.010627 0.000000 0.002428 0.000000
# 4 0.000000 0.000000 0.000000 0.028802 0.000000 -0.009616
# 5 -0.002172 -0.001062 0.002428 0.000000 0.029028 0.000000
# 6 0.000000 0.000000 0.000000 -0.009616 0.000000 -0.042395
#
#
# Mechanical properties :
#
#
# Convention : Reuss Voigt Hill
#
# Bulk Modulus (GPa) = 55.38281 57.02652 56.20466
# Shear Modulus (GPa) = 67.26942 23.25808 45.26375
#
# Velocity S-wave (km/s) = 5.99693 3.52620 4.91921
# Velocity P-wave (km/s) = 8.80678 6.86046 7.89384
#
# Compressibility (1/GPa) = 0.01805615
#
# Stress axis : x y z
#
# Youngs Moduli (GPa) = 69.33403 96.01091 94.10232
#
# Poissons Ratio (x) = 0.26479 0.30921
# Poissons Ratio (y) = 0.19122 0.25038
# Poissons Ratio (z) = 0.22782 0.25546
#
# Static dielectric constant tensor:
#      x y z
#    x 3.398380 0.000000 -0.056650 
#    y 0.000000 3.244530 0.000000 
#    z -0.056650 0.000000 3.273180 
# 
# 
# High freq. dielectric constant tensor:
#      x y z
#    x 1.740790 0.000000 -0.006760 
#    y 0.000000 1.736200 0.000000 
#    z -0.006760 0.000000 1.704220 
# 
# From -- ./inp_files/140197.got.cif
#   From: 2010.06.25/outbox.cif.g09.slc.cpg/sg12_71_cif.got.tgz:140197.got - 2010.06.28 00:19:55.
