data_PCOD8112359
_publ_section_title
;
Structure prediction by ZEFSAII (Michael W. Deem and Ramdas Pophale) SiO2 
 PCOD8112359
Probable space group: C 2/M
;
_chemical_formula_sum "Si O2"
_cell_formula_units_Z 40
_cell_length_a 8.411910
_cell_length_b 13.648749
_cell_length_c 21.162806
_cell_angle_alpha 90.000000
_cell_angle_beta 132.779682
_cell_angle_gamma 90.000000
_cell_volume 1783.361857
_symmetry_space_group_name_H-M "C 2/M"
_symmetry_group_IT_number 12
_symmetry_cell_setting 'monoclinic'
loop_
_space_group_symop_operation_xyz
x,y,z
-x,y,-z
-x,-y,-z
x,-y,z
1/2+x,1/2+y,z
1/2-x,1/2+y,-z
1/2-x,1/2-y,-z
1/2+x,1/2-y,z
loop_
_atom_site_type_symbol
_atom_site_label
_atom_site_fract_x
_atom_site_fract_y
_atom_site_fract_z
Si Si1 0.202466 0.000000 0.363182
Si Si2 0.798097 0.819467 0.413517
Si Si3 0.319122 0.383149 0.049811
Si Si4 0.916366 0.174835 0.305476
Si Si5 0.327273 0.000000 0.541739
Si Si6 0.904959 0.295170 0.889991
O O1 0.056109 0.093169 0.307391
O O2 0.275922 0.000000 0.454708
O O3 0.413640 0.000000 0.375778
O O4 0.568622 0.767845 0.353878
O O5 0.785261 0.908081 0.457980
O O6 0.000000 0.757028 0.500000
O O7 0.839813 0.857478 0.354046
O O8 0.372591 0.500000 0.068958
O O9 0.259991 0.333551 0.101248
O O10 0.523740 0.319301 0.079465
O O11 0.115505 0.366271 0.948072
O O12 0.704363 0.198410 0.207806
#
# Coordination Sequence:
#
# PCOD8112359 Si02
#       6
#     4   8   8   8   4   8
#     4  11  25  40  67  91 122 173 223 276 326 400
#     4  12  24  43  62  91 132 175 215 273 326 388
#     4  10  22  44  73  97 137 180 219 273 345 407
#     4  12  25  40  67  96 130 170 221 273 329 390
#     4  11  24  45  62  89 125 174 229 265 336 391
#     4  10  22  43  67 101 133 172 223 278 330 408
#
# _framework density 22.429546999999999
#
# number of rings (size 3 to 8) (size 9 to 14) (size 15 to 20)
#    0.000    1.000    2.000    5.100    5.600    0.000 
#    1.800    9.000    0.000    0.000    0.000    0.000 
#    0.000    0.000    0.000    0.000    0.000    0.000 
#
# Total GULP energy -247926.527451 kJ/mol
# GULP energy per Si atom -12396.326373 kJ/mol
# Density = 2.237850 g / cm^3
# Si number density = 22.429547 Si / 1000 Ang^3
#
#
#
# Elastic Constant Matrix: (Units=GPa)
#
#
# Indices 1 2 3 4 5 6 
#
# 1 80.3996 25.1815 29.7550 0.0000 1.3575 0.0000
# 2 25.1815 131.5679 23.3285 0.0000 3.3731 0.0000
# 3 29.7550 23.3285 161.4674 0.0000 4.8910 0.0000
# 4 0.0000 0.0000 0.0000 23.4849 0.0000 -3.7039
# 5 1.3575 3.3731 4.8910 0.0000 21.6122 0.0000
# 6 0.0000 0.0000 0.0000 -3.7039 0.0000 5.9489
#
#
#
# Elastic Compliance Matrix: (Units=1/GPa)
#
#
# Indices 1 2 3 4 5 6 
#
# 1 0.013983 -0.002277 -0.002247 0.000000 -0.000014 0.000000
# 2 -0.002277 0.008192 -0.000734 0.000000 -0.000969 0.000000
# 3 -0.002247 -0.000734 0.006752 0.000000 -0.001272 0.000000
# 4 0.000000 0.000000 0.000000 0.047217 0.000000 0.029398
# 5 -0.000014 -0.000969 -0.001272 0.000000 0.046710 0.000000
# 6 0.000000 0.000000 0.000000 0.029398 0.000000 0.186402
#
#
# Mechanical properties :
#
#
# Convention : Reuss Voigt Hill
#
# Bulk Modulus (GPa) = 54.32351 58.88500 56.60426
# Shear Modulus (GPa) = 15.34162 29.88719 22.61441
#
# Velocity S-wave (km/s) = 2.61816 3.65429 3.17873
# Velocity P-wave (km/s) = 5.78030 6.64195 6.22605
#
# Compressibility (1/GPa) = 0.01840823
#
# Stress axis : x y z
#
# Youngs Moduli (GPa) = 71.51471 122.07605 148.10464
#
# Poissons Ratio (x) = 0.27802 0.33284
# Poissons Ratio (y) = 0.16287 0.10878
# Poissons Ratio (z) = 0.16072 0.08966
#
# Static dielectric constant tensor:
#      x y z
#    x 4.292870 0.000000 0.155390 
#    y 0.000000 8.650080 0.000000 
#    z 0.155390 0.000000 4.078520 
# 
# 
# High freq. dielectric constant tensor:
#      x y z
#    x 1.889630 0.000000 0.007400 
#    y 0.000000 1.873340 0.000000 
#    z 0.007400 0.000000 1.887400 
# 
# From -- ./inp_files/299978.got.cif
#   From: 2010.06.25/outbox.cif.g09.slc.cpg/sg12_150_cif.got.tgz:299978.got - 2010.06.28 00:19:55.
