data_PCOD8112988
_publ_section_title
;
Structure prediction by ZEFSAII (Michael W. Deem and Ramdas Pophale) SiO2 
 PCOD8112988
Probable space group: C 2/M
;
_chemical_formula_sum "Si O2"
_cell_formula_units_Z 36
_cell_length_a 8.034343
_cell_length_b 20.175297
_cell_length_c 14.519094
_cell_angle_alpha 90.000000
_cell_angle_beta 43.439968
_cell_angle_gamma 90.000000
_cell_volume 1618.236587
_symmetry_space_group_name_H-M "C 2/M"
_symmetry_group_IT_number 12
_symmetry_cell_setting 'monoclinic'
loop_
_space_group_symop_operation_xyz
x,y,z
-x,y,-z
-x,-y,-z
x,-y,z
1/2+x,1/2+y,z
1/2-x,1/2+y,-z
1/2-x,1/2-y,-z
1/2+x,1/2-y,z
loop_
_atom_site_type_symbol
_atom_site_label
_atom_site_fract_x
_atom_site_fract_y
_atom_site_fract_z
Si Si1 0.978715 0.425751 0.116626
Si Si2 0.978356 0.119597 0.399576
Si Si3 0.000000 0.633283 0.500000
Si Si4 0.831260 0.703298 0.886787
Si Si5 0.178763 0.256446 0.298611
O O1 0.058719 0.500000 0.111957
O O2 0.701822 0.414561 0.257840
O O3 0.166728 0.374389 0.088006
O O4 0.000000 0.413952 0.000000
O O5 0.726329 0.091809 0.453829
O O6 0.000000 0.103782 0.500000
O O7 0.973206 0.198943 0.380227
O O8 0.910439 0.677108 0.620378
O O9 0.686146 0.720958 0.852233
O O10 0.099425 0.720883 0.738693
O O11 0.750000 0.750000 0.000000
#
# Coordination Sequence:
#
# PCOD8112988 Si02
#       5
#     8   8   4   8   8
#     4  10  23  43  64  86 125 175 216 262 328 393
#     4  11  22  38  62  97 131 169 214 265 324 394
#     4  12  20  34  59  94 133 162 206 266 336 378
#     4  11  21  36  61  96 122 158 213 267 323 383
#     4  11  20  34  56  90 132 157 197 268 329 378
#
# _framework density 22.246437
#
# number of rings (size 3 to 8) (size 9 to 14) (size 15 to 20)
#    0.000    1.111    3.333    6.667    0.000    0.444 
#    0.000    0.556    0.000    4.000    0.000    0.000 
#    0.000    0.000    0.000    0.000    0.000    0.000 
#
# Total GULP energy -222989.687334 kJ/mol
# GULP energy per Si atom -12388.315963 kJ/mol
# Density = 2.219580 g / cm^3
# Si number density = 22.246437 Si / 1000 Ang^3
#
#
#
# Elastic Constant Matrix: (Units=GPa)
#
#
# Indices 1 2 3 4 5 6 
#
# 1 104.4447 23.2019 38.5116 0.0000 1.7595 0.0000
# 2 23.2019 94.2804 31.0343 0.0000 0.9847 0.0000
# 3 38.5116 31.0343 118.8239 0.0000 29.9225 0.0000
# 4 0.0000 0.0000 0.0000 -6.8968 0.0000 -12.7893
# 5 1.7595 0.9847 29.9225 0.0000 41.7961 0.0000
# 6 0.0000 0.0000 0.0000 -12.7893 0.0000 10.4951
#
#
#
# Elastic Compliance Matrix: (Units=1/GPa)
#
#
# Indices 1 2 3 4 5 6 
#
# 1 0.011293 -0.001539 -0.003840 0.000000 0.002310 0.000000
# 2 -0.001539 0.012000 -0.003148 0.000000 0.002036 0.000000
# 3 -0.003840 -0.003148 0.012716 0.000000 -0.008867 0.000000
# 4 0.000000 0.000000 0.000000 -0.044480 0.000000 -0.054204
# 5 0.002310 0.002036 -0.008867 0.000000 0.030129 0.000000
# 6 0.000000 0.000000 0.000000 -0.054204 0.000000 0.029230
#
#
# Mechanical properties :
#
#
# Convention : Reuss Voigt Hill
#
# Bulk Modulus (GPa) = 52.75692 55.89384 54.32538
# Shear Modulus (GPa) = 67.33062 24.06565 45.69813
#
# Velocity S-wave (km/s) = 5.50740 3.29260 4.53722
# Velocity P-wave (km/s) = 8.01301 6.29558 7.20564
#
# Compressibility (1/GPa) = 0.01895486
#
# Stress axis : x y z
#
# Youngs Moduli (GPa) = 88.54762 83.33016 78.64390
#
# Poissons Ratio (x) = 0.12828 0.30198
# Poissons Ratio (y) = 0.13631 0.24757
# Poissons Ratio (z) = 0.34001 0.26232
#
# Static dielectric constant tensor:
#      x y z
#    x 4.405550 0.000000 -0.211830 
#    y 0.000000 3.780330 0.000000 
#    z -0.211830 0.000000 4.198900 
# 
# 
# High freq. dielectric constant tensor:
#      x y z
#    x 1.879180 0.000000 0.001720 
#    y 0.000000 1.834090 0.000000 
#    z 0.001720 0.000000 1.902460 
# 
# From -- ./inp_files/119972.got.cif
#   From: 2010.06.25/outbox.cif.g09.slc.cpg/sg12_60_cif.got.tgz:119972.got - 2010.06.28 00:19:55.
