data_PCOD8112514
_publ_section_title
;
Structure prediction by ZEFSAII (Michael W. Deem and Ramdas Pophale) SiO2 
 PCOD8112514
Probable space group: C 2/M
;
_chemical_formula_sum "Si O2"
_cell_formula_units_Z 36
_cell_length_a 14.100777
_cell_length_b 23.109668
_cell_length_c 5.249077
_cell_angle_alpha 90.000000
_cell_angle_beta 69.151609
_cell_angle_gamma 90.000000
_cell_volume 1598.493285
_symmetry_space_group_name_H-M "C 2/M"
_symmetry_group_IT_number 12
_symmetry_cell_setting 'monoclinic'
loop_
_space_group_symop_operation_xyz
x,y,z
-x,y,-z
-x,-y,-z
x,-y,z
1/2+x,1/2+y,z
1/2-x,1/2+y,-z
1/2-x,1/2-y,-z
1/2+x,1/2-y,z
loop_
_atom_site_type_symbol
_atom_site_label
_atom_site_fract_x
_atom_site_fract_y
_atom_site_fract_z
Si Si1 0.000000 0.339471 0.000000
Si Si2 0.732842 0.375719 0.763235
Si Si3 0.112042 0.149048 0.367802
Si Si4 0.408503 0.936268 0.779062
Si Si5 0.646512 0.227217 0.479488
O O1 0.058219 0.296951 0.749675
O O2 0.914593 0.383754 0.974889
O O3 0.682164 0.373059 0.533252
O O4 0.800997 0.433169 0.729900
O O5 0.816204 0.324712 0.735670
O O6 0.649166 0.373761 0.061512
O O7 0.102376 0.218901 0.364158
O O8 0.000000 0.122477 0.500000
O O9 0.500000 0.927389 0.500000
O O10 0.413992 0.000000 0.903444
O O11 0.750000 0.250000 0.500000
#
# Coordination Sequence:
#
# PCOD8112514 Si02
#       5
#     4   8   8   8   8
#     4  12  23  42  64  98 140 178 223 272 326 400
#     4  11  23  45  62  97 132 174 225 276 328 389
#     4  11  25  41  68  95 133 178 222 269 326 400
#     4  11  24  42  67  96 130 176 226 280 339 391
#     4  10  23  37  61  93 134 179 216 260 321 399
#
# _framework density 22.521207
#
# number of rings (size 3 to 8) (size 9 to 14) (size 15 to 20)
#    0.000    1.111    2.222    4.333    9.333    0.000 
#    0.000    0.000    0.000    4.000    0.000    0.000 
#    0.000    0.000    0.000    0.000    0.000    0.000 
#
# Total GULP energy -223022.839109 kJ/mol
# GULP energy per Si atom -12390.157728 kJ/mol
# Density = 2.246995 g / cm^3
# Si number density = 22.521207 Si / 1000 Ang^3
#
#
#
# Elastic Constant Matrix: (Units=GPa)
#
#
# Indices 1 2 3 4 5 6 
#
# 1 82.1414 17.8728 9.4638 0.0000 -10.3757 0.0000
# 2 17.8728 63.1393 5.7713 0.0000 -3.7459 0.0000
# 3 9.4638 5.7713 98.5067 0.0000 -20.2172 0.0000
# 4 0.0000 0.0000 0.0000 -68.1838 0.0000 13.3456
# 5 -10.3757 -3.7459 -20.2172 0.0000 47.2427 0.0000
# 6 0.0000 0.0000 0.0000 13.3456 0.0000 18.0419
#
#
#
# Elastic Compliance Matrix: (Units=1/GPa)
#
#
# Indices 1 2 3 4 5 6 
#
# 1 0.013321 -0.003576 -0.000579 0.000000 0.002394 0.000000
# 2 -0.003576 0.016922 -0.000585 0.000000 0.000306 0.000000
# 3 -0.000579 -0.000585 0.011189 0.000000 0.004615 0.000000
# 4 0.000000 0.000000 0.000000 -0.012811 0.000000 0.009477
# 5 0.002394 0.000306 0.004615 0.000000 0.023692 0.000000
# 6 0.000000 0.000000 0.000000 0.009477 0.000000 0.048417
#
#
# Mechanical properties :
#
#
# Convention : Reuss Voigt Hill
#
# Bulk Modulus (GPa) = 31.29688 34.44480 32.87084
# Shear Modulus (GPa) = 41.37027 13.46546 27.41786
#
# Velocity S-wave (km/s) = 4.29061 2.44785 3.49295
# Velocity P-wave (km/s) = 6.20263 4.82876 5.55830
#
# Compressibility (1/GPa) = 0.03195207
#
# Stress axis : x y z
#
# Youngs Moduli (GPa) = 75.06753 59.09516 89.37704
#
# Poissons Ratio (x) = 0.21132 0.05174
# Poissons Ratio (y) = 0.26843 0.05229
# Poissons Ratio (z) = 0.04346 0.03457
#
# Static dielectric constant tensor:
#      x y z
#    x 4.598400 0.000000 0.374840 
#    y 0.000000 4.464580 0.000000 
#    z 0.374840 0.000000 4.443020 
# 
# 
# High freq. dielectric constant tensor:
#      x y z
#    x 1.903960 0.000000 -0.012750 
#    y 0.000000 1.866820 0.000000 
#    z -0.012750 0.000000 1.880340 
# 
# From -- ./inp_files/11236.got.cif
#   From: 2010.06.25/outbox.cif.g09.slc.cpg/sg12_6_cif.got.tgz:11236.got - 2010.06.28 00:19:55.
