data_PCOD8112910
_publ_section_title
;
Structure prediction by ZEFSAII (Michael W. Deem and Ramdas Pophale) SiO2 
 PCOD8112910
Probable space group: C 2/M
;
_chemical_formula_sum "Si O2"
_cell_formula_units_Z 40
_cell_length_a 19.264270
_cell_length_b 8.384203
_cell_length_c 11.976708
_cell_angle_alpha 90.000000
_cell_angle_beta 103.237432
_cell_angle_gamma 90.000000
_cell_volume 1883.025976
_symmetry_space_group_name_H-M "C 2/M"
_symmetry_group_IT_number 12
_symmetry_cell_setting 'monoclinic'
loop_
_space_group_symop_operation_xyz
x,y,z
-x,y,-z
-x,-y,-z
x,-y,z
1/2+x,1/2+y,z
1/2-x,1/2+y,-z
1/2-x,1/2-y,-z
1/2+x,1/2-y,z
loop_
_atom_site_type_symbol
_atom_site_label
_atom_site_fract_x
_atom_site_fract_y
_atom_site_fract_z
Si Si1 0.817112 0.814978 0.088949
Si Si2 0.856643 0.309893 0.706484
Si Si3 0.078179 0.812855 0.484737
Si Si4 0.203898 0.314356 0.677734
Si Si5 0.077882 0.686701 0.038663
O O1 0.811246 0.786111 0.217373
O O2 0.824994 0.000000 0.067896
O O3 0.750000 0.750000 0.000000
O O4 0.885092 0.725434 0.064537
O O5 0.857394 0.500000 0.696579
O O6 0.913906 0.234235 0.642165
O O7 0.777520 0.245853 0.649695
O O8 0.878798 0.247841 0.838097
O O9 0.138645 0.713763 0.570661
O O10 0.000000 0.762209 0.500000
O O11 0.090651 0.000000 0.507645
O O12 0.209893 0.500000 0.708885
O O13 0.070855 0.500000 0.052441
O O14 0.000000 0.765691 0.000000
#
# Coordination Sequence:
#
# PCOD8112910 Si02
#       5
#     8   8   8   8   8
#     4  12  24  41  66  98 133 170 215 263 319 381
#     4  11  23  42  68  96 131 171 217 267 319 384
#     4  11  26  46  67  95 131 168 214 269 325 384
#     4  12  25  43  69  96 129 171 217 267 321 383
#     4  10  23  42  65  97 134 173 215 263 318 380
#
# _framework density 21.242404000000001
#
# number of rings (size 3 to 8) (size 9 to 14) (size 15 to 20)
#    0.000    0.800    2.000    5.400    2.800    2.800 
#    0.000    0.000    0.000    0.000    0.000    0.000 
#    0.000    0.000    0.000    0.000    0.000    0.000 
#
# Total GULP energy -248102.046319 kJ/mol
# GULP energy per Si atom -12405.102316 kJ/mol
# Density = 2.119406 g / cm^3
# Si number density = 21.242404 Si / 1000 Ang^3
#
#
#
# Elastic Constant Matrix: (Units=GPa)
#
#
# Indices 1 2 3 4 5 6 
#
# 1 165.1271 27.8026 35.6994 0.0000 -9.7628 0.0000
# 2 27.8026 43.0681 14.9459 0.0000 12.2513 0.0000
# 3 35.6994 14.9459 80.6416 0.0000 -10.9902 0.0000
# 4 0.0000 0.0000 0.0000 33.2462 0.0000 -7.8055
# 5 -9.7628 12.2513 -10.9902 0.0000 39.0831 0.0000
# 6 0.0000 0.0000 0.0000 -7.8055 0.0000 27.1782
#
#
#
# Elastic Compliance Matrix: (Units=1/GPa)
#
#
# Indices 1 2 3 4 5 6 
#
# 1 0.007493 -0.004953 -0.002010 0.000000 0.002860 0.000000
# 2 -0.004953 0.031955 -0.005473 0.000000 -0.012793 0.000000
# 3 -0.002010 -0.005473 0.015047 0.000000 0.005445 0.000000
# 4 0.000000 0.000000 0.000000 0.032253 0.000000 0.009263
# 5 0.002860 -0.012793 0.005445 0.000000 0.031842 0.000000
# 6 0.000000 0.000000 0.000000 0.009263 0.000000 0.039455
#
#
# Mechanical properties :
#
#
# Convention : Reuss Voigt Hill
#
# Bulk Modulus (GPa) = 33.75751 49.52581 41.64166
# Shear Modulus (GPa) = 25.93466 33.92742 29.93104
#
# Velocity S-wave (km/s) = 3.49792 4.00078 3.75777
# Velocity P-wave (km/s) = 5.67802 6.68632 6.20269
#
# Compressibility (1/GPa) = 0.02962304
#
# Stress axis : x y z
#
# Youngs Moduli (GPa) = 133.44950 31.29369 66.46029
#
# Poissons Ratio (x) = 0.15501 0.13355
# Poissons Ratio (y) = 0.66104 0.36375
# Poissons Ratio (z) = 0.26817 0.17128
#
# Static dielectric constant tensor:
#      x y z
#    x 3.583600 0.000000 0.928090 
#    y 0.000000 3.707350 0.000000 
#    z 0.928090 0.000000 2.108520 
# 
# 
# High freq. dielectric constant tensor:
#      x y z
#    x 1.846220 0.000000 -0.006110 
#    y 0.000000 1.835250 0.000000 
#    z -0.006110 0.000000 1.840170 
# 
# From -- ./inp_files/151657.got.cif
#   From: 2010.06.25/outbox.cif.g09.slc.cpg/sg12_76_cif.got.tgz:151657.got - 2010.06.28 00:19:55.
