data_PCOD8112502
_publ_section_title
;
Structure prediction by ZEFSAII (Michael W. Deem and Ramdas Pophale) SiO2 
 PCOD8112502
Probable space group: C 2/M
;
_chemical_formula_sum "Si O2"
_cell_formula_units_Z 56
_cell_length_a 14.460245
_cell_length_b 28.082688
_cell_length_c 9.238728
_cell_angle_alpha 90.000000
_cell_angle_beta 56.965631
_cell_angle_gamma 90.000000
_cell_volume 3145.202554
_symmetry_space_group_name_H-M "C 2/M"
_symmetry_group_IT_number 12
_symmetry_cell_setting 'monoclinic'
loop_
_space_group_symop_operation_xyz
x,y,z
-x,y,-z
-x,-y,-z
x,-y,z
1/2+x,1/2+y,z
1/2-x,1/2+y,-z
1/2-x,1/2-y,-z
1/2+x,1/2-y,z
loop_
_atom_site_type_symbol
_atom_site_label
_atom_site_fract_x
_atom_site_fract_y
_atom_site_fract_z
Si Si1 0.577216 0.145983 0.563788
Si Si2 0.279613 0.305363 0.485035
Si Si3 0.533759 0.052461 0.736110
Si Si4 0.477597 0.292962 0.685564
Si Si5 0.731899 0.347395 0.187907
Si Si6 0.325877 0.053182 0.095263
Si Si7 0.055054 0.702544 0.102501
O O1 0.500000 0.164022 0.500000
O O2 0.702215 0.165905 0.436857
O O3 0.574386 0.088803 0.577752
O O4 0.530975 0.165842 0.754333
O O5 0.250000 0.250000 0.500000
O O6 0.408945 0.311185 0.336621
O O7 0.255485 0.327364 0.661904
O O8 0.605983 0.058469 0.816868
O O9 0.549426 0.000000 0.656007
O O10 0.406252 0.060605 0.889157
O O11 0.500000 0.278219 0.500000
O O12 0.387628 0.334557 0.774465
O O13 0.427986 0.247716 0.809543
O O14 0.735517 0.404881 0.174414
O O15 0.828119 0.323525 0.011749
O O16 0.271742 0.000000 0.133464
O O17 0.000000 0.719227 0.000000
#
# Coordination Sequence:
#
# PCOD8112502 Si02
#       7
#     8   8   8   8   8   8   8
#     4  12  23  34  56  80 111 143 178 218 272 329
#     4  11  21  37  53  72 111 149 176 215 272 324
#     4   9  17  32  53  81 110 137 173 222 276 323
#     4  10  23  37  52  76 108 150 181 216 265 320
#     4  11  20  34  59  79 107 139 185 227 261 319
#     4   9  16  30  56  83 107 135 173 226 279 315
#     4  12  20  36  54  79 109 141 183 224 266 311
#
# _framework density 17.804894999999998
#
# number of rings (size 3 to 8) (size 9 to 14) (size 15 to 20)
#    0.000    1.429    5.714    1.714    2.000    0.286 
#    2.571    0.000    0.000    4.714    0.000    0.000 
#    0.000    2.857    0.000    0.000    0.000    0.000 
#
# Total GULP energy -347118.511964 kJ/mol
# GULP energy per Si atom -12397.089713 kJ/mol
# Density = 1.776437 g / cm^3
# Si number density = 17.804895 Si / 1000 Ang^3
#
#
#
# Elastic Constant Matrix: (Units=GPa)
#
#
# Indices 1 2 3 4 5 6 
#
# 1 120.8443 57.5975 25.7091 0.0000 -17.9716 0.0000
# 2 57.5975 159.6877 36.8943 0.0000 -12.9333 0.0000
# 3 25.7091 36.8943 42.8314 0.0000 -6.6117 0.0000
# 4 0.0000 0.0000 0.0000 26.9549 0.0000 -1.8541
# 5 -17.9716 -12.9333 -6.6117 0.0000 23.4677 0.0000
# 6 0.0000 0.0000 0.0000 -1.8541 0.0000 24.5844
#
#
#
# Elastic Compliance Matrix: (Units=1/GPa)
#
#
# Indices 1 2 3 4 5 6 
#
# 1 0.011229 -0.002766 -0.003414 0.000000 0.006113 0.000000
# 2 -0.002766 0.008645 -0.005622 0.000000 0.001062 0.000000
# 3 -0.003414 -0.005622 0.030692 0.000000 0.002935 0.000000
# 4 0.000000 0.000000 0.000000 0.037292 0.000000 0.002812
# 5 0.006113 0.001062 0.002935 0.000000 0.048705 0.000000
# 6 0.000000 0.000000 0.000000 0.002812 0.000000 0.040888
#
#
# Mechanical properties :
#
#
# Convention : Reuss Voigt Hill
#
# Bulk Modulus (GPa) = 37.08954 62.64059 49.86506
# Shear Modulus (GPa) = 23.80460 28.54556 26.17508
#
# Velocity S-wave (km/s) = 3.66043 4.00839 3.83836
# Velocity P-wave (km/s) = 6.22425 7.52868 6.90733
#
# Compressibility (1/GPa) = 0.02696178
#
# Stress axis : x y z
#
# Youngs Moduli (GPa) = 89.05542 115.67384 32.58163
#
# Poissons Ratio (x) = 0.32000 0.11122
# Poissons Ratio (y) = 0.24636 0.18318
# Poissons Ratio (z) = 0.30399 0.65035
#
# Static dielectric constant tensor:
#      x y z
#    x 3.337240 0.000000 -0.144040 
#    y 0.000000 3.541660 0.000000 
#    z -0.144040 0.000000 3.190080 
# 
# 
# High freq. dielectric constant tensor:
#      x y z
#    x 1.674890 0.000000 -0.000950 
#    y 0.000000 1.691070 0.000000 
#    z -0.000950 0.000000 1.666370 
# 
# From -- ./inp_files/66859.got.cif
#   From: 2010.06.25/outbox.cif.g09.slc.cpg/sg12_34_cif.got.tgz:66859.got - 2010.06.28 00:19:55.
