data_PCOD8112161
_publ_section_title
;
Structure prediction by ZEFSAII (Michael W. Deem and Ramdas Pophale) SiO2 
 PCOD8112161
Probable space group: C 2/M
;
_chemical_formula_sum "Si O2"
_cell_formula_units_Z 48
_cell_length_a 15.439796
_cell_length_b 10.796147
_cell_length_c 25.786423
_cell_angle_alpha 90.000000
_cell_angle_beta 149.416286
_cell_angle_gamma 90.000000
_cell_volume 2186.984800
_symmetry_space_group_name_H-M "C 2/M"
_symmetry_group_IT_number 12
_symmetry_cell_setting 'monoclinic'
loop_
_space_group_symop_operation_xyz
x,y,z
-x,y,-z
-x,-y,-z
x,-y,z
1/2+x,1/2+y,z
1/2-x,1/2+y,-z
1/2-x,1/2-y,-z
1/2+x,1/2-y,z
loop_
_atom_site_type_symbol
_atom_site_label
_atom_site_fract_x
_atom_site_fract_y
_atom_site_fract_z
Si Si1 0.611093 0.500000 0.891054
Si Si2 0.525655 0.747906 0.168522
Si Si3 0.145200 0.000000 0.328476
Si Si4 0.529361 0.858043 0.282503
Si Si5 0.150890 0.000000 0.744504
Si Si6 0.020055 0.500000 0.916867
Si Si7 0.887598 0.737460 0.312953
Si Si8 0.139255 0.734572 0.530535
O O1 0.597576 0.633570 0.913964
O O2 0.433365 0.500000 0.768679
O O3 0.797970 0.500000 0.959394
O O4 0.503632 0.769291 0.219294
O O5 0.714633 0.698733 0.252208
O O6 0.481368 0.876381 0.118484
O O7 0.262353 0.116212 0.398154
O O8 0.970614 0.000000 0.269870
O O9 0.397977 0.819336 0.260361
O O10 0.721310 0.843175 0.403723
O O11 0.496707 0.000000 0.250120
O O12 0.110616 0.885264 0.687223
O O13 0.351625 0.000000 0.866225
O O14 0.051382 0.697610 0.430994
O O15 0.000000 0.779853 0.500000
#
# Coordination Sequence:
#
# PCOD8112161 Si02
#       8
#     4   8   4   8   4   4   8   8
#     4  12  22  42  71  94 128 176 225 278 349 395
#     4  11  23  45  67 101 136 171 220 282 339 407
#     4  12  23  39  59  91 129 168 225 284 318 389
#     4  12  25  41  65  94 136 179 222 272 328 395
#     4  10  22  42  64  92 129 170 229 280 323 397
#     4  10  24  43  69  98 125 175 224 283 342 407
#     4  11  24  40  65  96 138 180 221 264 335 401
#     4  12  24  39  60  95 132 181 222 267 321 398
#
# _framework density 21.948025999999999
#
# number of rings (size 3 to 8) (size 9 to 14) (size 15 to 20)
#    0.000    0.667    5.833    1.250    3.500    0.667 
#    0.000    0.000    0.000    4.000    0.000    0.000 
#    0.000    0.000    0.000    0.000    0.000    0.000 
#
# Total GULP energy -297380.145336 kJ/mol
# GULP energy per Si atom -12390.839389 kJ/mol
# Density = 2.189807 g / cm^3
# Si number density = 21.948026 Si / 1000 Ang^3
#
#
#
# Elastic Constant Matrix: (Units=GPa)
#
#
# Indices 1 2 3 4 5 6 
#
# 1 111.0062 17.5387 12.0046 0.0001 8.0574 0.0001
# 2 17.5387 104.7078 35.4979 0.0000 -0.0700 0.0000
# 3 12.0046 35.4979 74.4480 -0.0001 26.4032 -0.0002
# 4 0.0001 0.0000 -0.0001 15.1138 0.0001 3.1138
# 5 8.0574 -0.0700 26.4032 0.0001 19.8154 0.0000
# 6 0.0001 0.0000 -0.0002 3.1138 0.0000 25.8372
#
#
#
# Elastic Compliance Matrix: (Units=1/GPa)
#
#
# Indices 1 2 3 4 5 6 
#
# 1 0.009618 -0.002180 0.001665 0.000000 -0.006137 0.000000
# 2 -0.002180 0.014297 -0.012888 0.000000 0.018110 0.000000
# 3 0.001665 -0.012888 0.037095 0.000000 -0.050150 0.000000
# 4 0.000000 0.000000 0.000000 0.067849 -0.000001 -0.008177
# 5 -0.006137 0.018110 -0.050150 -0.000001 0.119848 0.000000
# 6 0.000000 0.000000 0.000000 -0.008177 0.000000 0.039689
#
#
# Mechanical properties :
#
#
# Convention : Reuss Voigt Hill
#
# Bulk Modulus (GPa) = 29.23620 46.69380 37.96500
# Shear Modulus (GPa) = 15.30906 27.16135 21.23521
#
# Velocity S-wave (km/s) = 2.64392 3.52167 3.11388
# Velocity P-wave (km/s) = 4.76130 6.15281 5.50123
#
# Compressibility (1/GPa) = 0.03420417
#
# Stress axis : x y z
#
# Youngs Moduli (GPa) = 103.96856 69.94512 26.95791
#
# Poissons Ratio (x) = 0.15245 -0.04488
# Poissons Ratio (y) = 0.22661 0.34744
# Poissons Ratio (z) = -0.17309 0.90147
#
# Static dielectric constant tensor:
#      x y z
#    x 3.906010 0.000000 0.303170 
#    y 0.000000 4.260560 0.000000 
#    z 0.303170 0.000000 4.002420 
# 
# 
# High freq. dielectric constant tensor:
#      x y z
#    x 1.855260 0.000000 0.023800 
#    y 0.000000 1.879390 0.000000 
#    z 0.023800 0.000000 1.853180 
# 
# From -- ./inp_files/245894.got.cif
#   From: 2010.06.25/outbox.cif.g09.slc.cpg/sg12_123_cif.got.tgz:245894.got - 2010.06.28 00:19:55.
