data_PCOD8112377
_publ_section_title
;
Structure prediction by ZEFSAII (Michael W. Deem and Ramdas Pophale) SiO2 
 PCOD8112377
Probable space group: C 2/M
;
_chemical_formula_sum "Si O2"
_cell_formula_units_Z 56
_cell_length_a 8.905814
_cell_length_b 13.515414
_cell_length_c 22.205501
_cell_angle_alpha 90.000000
_cell_angle_beta 112.243291
_cell_angle_gamma 90.000000
_cell_volume 2473.886557
_symmetry_space_group_name_H-M "C 2/M"
_symmetry_group_IT_number 12
_symmetry_cell_setting 'monoclinic'
loop_
_space_group_symop_operation_xyz
x,y,z
-x,y,-z
-x,-y,-z
x,-y,z
1/2+x,1/2+y,z
1/2-x,1/2+y,-z
1/2-x,1/2-y,-z
1/2+x,1/2-y,z
loop_
_atom_site_type_symbol
_atom_site_label
_atom_site_fract_x
_atom_site_fract_y
_atom_site_fract_z
Si Si1 0.881312 0.390910 0.294219
Si Si2 0.767052 0.386495 0.679521
Si Si3 0.668016 0.885634 0.580807
Si Si4 0.155965 0.783810 0.893680
Si Si5 0.655100 0.886424 0.983768
Si Si6 0.178247 0.262127 0.197843
Si Si7 0.023848 0.796716 0.438322
O O1 0.867216 0.500000 0.263810
O O2 0.778896 0.385376 0.340874
O O3 0.816424 0.316391 0.235025
O O4 0.072431 0.369284 0.336784
O O5 0.711930 0.500000 0.673589
O O6 0.814023 0.351626 0.753727
O O7 0.618000 0.325436 0.629629
O O8 0.498448 0.822627 0.553272
O O9 0.802064 0.826519 0.562000
O O10 0.644226 0.000000 0.555217
O O11 0.163556 0.673745 0.922952
O O12 0.295700 0.802156 0.865592
O O13 0.991097 0.796866 0.830671
O O14 0.184410 0.862802 0.951531
O O15 0.651965 0.000000 0.964767
O O16 0.500000 0.855005 0.000000
O O17 0.000000 0.850037 0.500000
#
# Coordination Sequence:
#
# PCOD8112377 Si02
#       7
#     8   8   8   8   8   8   8
#     4  10  23  43  67  96 133 176 221 281 351 415
#     4  11  25  44  69  97 133 182 231 286 355 420
#     4  11  25  45  71 103 138 181 234 290 355 426
#     4  11  24  40  66 100 130 173 218 274 331 393
#     4  10  22  43  67  94 133 175 220 265 320 398
#     4  12  23  41  66  97 135 169 222 280 339 404
#     4  12  26  47  73 102 141 187 236 296 358 426
#
# _framework density 22.636444999999998
#
# number of rings (size 3 to 8) (size 9 to 14) (size 15 to 20)
#    0.000    1.000    4.286    1.714    2.000    3.714 
#    0.000    2.857    0.000    0.000    0.000    0.000 
#    0.000    0.000    0.000    0.000    0.000    0.000 
#
# Total GULP energy -347087.014525 kJ/mol
# GULP energy per Si atom -12395.964804 kJ/mol
# Density = 2.258492 g / cm^3
# Si number density = 22.636445 Si / 1000 Ang^3
#
#
#
# Elastic Constant Matrix: (Units=GPa)
#
#
# Indices 1 2 3 4 5 6 
#
# 1 100.2861 42.3440 23.7626 0.0000 -12.4326 0.0000
# 2 42.3440 109.9614 8.5315 0.0000 -0.2270 0.0000
# 3 23.7626 8.5315 84.1180 0.0000 -4.6891 0.0000
# 4 0.0000 0.0000 0.0000 13.0346 0.0000 -4.8422
# 5 -12.4326 -0.2270 -4.6891 0.0000 41.7944 0.0000
# 6 0.0000 0.0000 0.0000 -4.8422 0.0000 31.5730
#
#
#
# Elastic Compliance Matrix: (Units=1/GPa)
#
#
# Indices 1 2 3 4 5 6 
#
# 1 0.013169 -0.004829 -0.003032 0.000000 0.003551 0.000000
# 2 -0.004829 0.010937 0.000179 0.000000 -0.001357 0.000000
# 3 -0.003032 0.000179 0.012756 0.000000 0.000530 0.000000
# 4 0.000000 0.000000 0.000000 0.081354 0.000000 0.012477
# 5 0.003551 -0.001357 0.000530 0.000000 0.025035 0.000000
# 6 0.000000 0.000000 0.000000 0.012477 0.000000 0.033586
#
#
# Mechanical properties :
#
#
# Convention : Reuss Voigt Hill
#
# Bulk Modulus (GPa) = 46.51558 49.29352 47.90455
# Shear Modulus (GPa) = 25.07947 31.92891 28.50419
#
# Velocity S-wave (km/s) = 3.33216 3.75975 3.55239
# Velocity P-wave (km/s) = 5.94962 6.37739 6.16721
#
# Compressibility (1/GPa) = 0.02149817
#
# Stress axis : x y z
#
# Youngs Moduli (GPa) = 75.93612 91.43471 78.39394
#
# Poissons Ratio (x) = 0.44149 0.23773
# Poissons Ratio (y) = 0.36666 -0.01404
# Poissons Ratio (z) = 0.23027 -0.01638
#
# Static dielectric constant tensor:
#      x y z
#    x 4.055700 0.000000 -0.081160 
#    y 0.000000 4.003860 0.000000 
#    z -0.081160 0.000000 4.042000 
# 
# 
# High freq. dielectric constant tensor:
#      x y z
#    x 1.891460 0.000000 -0.005970 
#    y 0.000000 1.882560 0.000000 
#    z -0.005970 0.000000 1.906050 
# 
# From -- ./inp_files/333003.got.cif
#   From: 2010.06.25/outbox.cif.g09.slc.cpg/sg12_167_cif.got.tgz:333003.got - 2010.06.28 00:19:55.
