data_PCOD8112106
_publ_section_title
;
Structure prediction by ZEFSAII (Michael W. Deem and Ramdas Pophale) SiO2 
 PCOD8112106
Probable space group: C 2/M
;
_chemical_formula_sum "Si O2"
_cell_formula_units_Z 24
_cell_length_a 8.184902
_cell_length_b 17.078093
_cell_length_c 7.058098
_cell_angle_alpha 90.000000
_cell_angle_beta 100.748019
_cell_angle_gamma 90.000000
_cell_volume 969.290655
_symmetry_space_group_name_H-M "C 2/M"
_symmetry_group_IT_number 12
_symmetry_cell_setting 'monoclinic'
loop_
_space_group_symop_operation_xyz
x,y,z
-x,y,-z
-x,-y,-z
x,-y,z
1/2+x,1/2+y,z
1/2-x,1/2+y,-z
1/2-x,1/2-y,-z
1/2+x,1/2-y,z
loop_
_atom_site_type_symbol
_atom_site_label
_atom_site_fract_x
_atom_site_fract_y
_atom_site_fract_z
Si Si1 0.399476 0.411349 0.237641
Si Si2 0.632353 0.090227 0.881251
Si Si3 0.228964 0.839022 0.439306
O O1 0.465182 0.500000 0.277677
O O2 0.550208 0.351333 0.299501
O O3 0.260490 0.393009 0.370219
O O4 0.316230 0.401783 0.013853
O O5 0.628857 0.137078 0.682060
O O6 0.588411 0.000000 0.831802
O O7 0.500000 0.126767 0.000000
O O8 0.250000 0.750000 0.500000
#
# Coordination Sequence:
#
# PCOD8112106 Si02
#       3
#     8   8   8
#     4  10  22  43  70  94 126 178 229 270 320 394
#     4  10  22  41  68  99 130 170 222 278 330 388
#     4  11  23  39  63  97 134 171 215 271 332 393
#
# _framework density 24.760375
#
# number of rings (size 3 to 8) (size 9 to 14) (size 15 to 20)
#    0.000    1.667    0.000    5.000    0.000   10.667 
#    0.000    5.000    0.000    0.000    0.000    0.000 
#    0.000    0.000    0.000    0.000    0.000    0.000 
#
# Total GULP energy -148815.033063 kJ/mol
# GULP energy per Si atom -12401.252755 kJ/mol
# Density = 2.470402 g / cm^3
# Si number density = 24.760375 Si / 1000 Ang^3
#
#
#
# Elastic Constant Matrix: (Units=GPa)
#
#
# Indices 1 2 3 4 5 6 
#
# 1 62.6838 49.6950 11.2131 0.0000 -31.7220 0.0000
# 2 49.6950 152.1504 64.1041 0.0000 -8.6869 0.0000
# 3 11.2131 64.1041 119.9113 0.0000 -35.2089 0.0000
# 4 0.0000 0.0000 0.0000 33.8258 0.0000 -1.8288
# 5 -31.7220 -8.6869 -35.2089 0.0000 52.7069 0.0000
# 6 0.0000 0.0000 0.0000 -1.8288 0.0000 32.1734
#
#
#
# Elastic Compliance Matrix: (Units=1/GPa)
#
#
# Indices 1 2 3 4 5 6 
#
# 1 0.048854 -0.021369 0.017982 0.000000 0.037893 0.000000
# 2 -0.021369 0.018008 -0.013104 0.000000 -0.018647 0.000000
# 3 0.017982 -0.013104 0.020162 0.000000 0.022131 0.000000
# 4 0.000000 0.000000 0.000000 0.029654 0.000000 0.001686
# 5 0.037893 -0.018647 0.022131 0.000000 0.053490 0.000000
# 6 0.000000 0.000000 0.000000 0.001686 0.000000 0.031177
#
#
# Mechanical properties :
#
#
# Convention : Reuss Voigt Hill
#
# Bulk Modulus (GPa) = 18.50437 64.97443 41.73940
# Shear Modulus (GPa) = 19.81432 37.72345 28.76889
#
# Velocity S-wave (km/s) = 2.83193 3.90749 3.41235
# Velocity P-wave (km/s) = 4.26411 6.83054 5.69381
#
# Compressibility (1/GPa) = 0.05404130
#
# Stress axis : x y z
#
# Youngs Moduli (GPa) = 20.46904 55.52946 49.59914
#
# Poissons Ratio (x) = 1.18663 -0.89189
# Poissons Ratio (y) = 0.43741 0.64996
# Poissons Ratio (z) = -0.36807 0.72767
#
# Static dielectric constant tensor:
#      x y z
#    x 4.562840 0.000000 -0.351840 
#    y 0.000000 3.983880 0.000000 
#    z -0.351840 0.000000 4.769540 
# 
# 
# High freq. dielectric constant tensor:
#      x y z
#    x 1.989300 0.000000 -0.013870 
#    y 0.000000 1.953610 0.000000 
#    z -0.013870 0.000000 2.005440 
# 
# From -- ./inp_files/35887.got.cif
#   From: 2010.06.25/outbox.cif.g09.slc.cpg/sg12_18_cif.got.tgz:35887.got - 2010.06.28 00:19:55.
