data_PCOD8112010
_publ_section_title
;
Structure prediction by ZEFSAII (Michael W. Deem and Ramdas Pophale) SiO2 
 PCOD8112010
Probable space group: C 2/M
;
_chemical_formula_sum "Si O2"
_cell_formula_units_Z 64
_cell_length_a 19.499780
_cell_length_b 13.701421
_cell_length_c 14.825982
_cell_angle_alpha 90.000000
_cell_angle_beta 132.237401
_cell_angle_gamma 90.000000
_cell_volume 2932.683754
_symmetry_space_group_name_H-M "C 2/M"
_symmetry_group_IT_number 12
_symmetry_cell_setting 'monoclinic'
loop_
_space_group_symop_operation_xyz
x,y,z
-x,y,-z
-x,-y,-z
x,-y,z
1/2+x,1/2+y,z
1/2-x,1/2+y,-z
1/2-x,1/2-y,-z
1/2+x,1/2-y,z
loop_
_atom_site_type_symbol
_atom_site_label
_atom_site_fract_x
_atom_site_fract_y
_atom_site_fract_z
Si Si1 0.386450 0.717355 0.542935
Si Si2 0.721405 0.607677 0.855214
Si Si3 0.274978 0.890320 0.702421
Si Si4 0.589619 0.222726 0.689401
Si Si5 0.536033 0.786991 0.128627
Si Si6 0.115800 0.109628 0.268103
Si Si7 0.894401 0.389825 0.124734
Si Si8 0.323419 0.889636 0.402929
O O1 0.320196 0.658436 0.415467
O O2 0.488539 0.728273 0.589150
O O3 0.381697 0.665178 0.634347
O O4 0.349349 0.830251 0.517683
O O5 0.674860 0.500000 0.824898
O O6 0.779293 0.609709 0.814152
O O7 0.646221 0.691576 0.787456
O O8 0.789580 0.627455 0.999207
O O9 0.366192 0.832275 0.753120
O O10 0.279288 0.000000 0.667114
O O11 0.594689 0.129688 0.759670
O O12 0.632212 0.179231 0.635281
O O13 0.546624 0.669254 0.141821
O O14 0.461005 0.814473 0.135282
O O15 0.500000 0.822282 0.000000
O O16 0.213018 0.106199 0.301169
O O17 0.078644 0.000000 0.250413
O O18 0.925589 0.500000 0.130876
O O19 0.364537 0.000000 0.438683
#
# Coordination Sequence:
#
# PCOD8112010 Si02
#       8
#     8   8   8   8   8   8   8   8
#     4  12  24  44  68  99 140 181 226 279 343 411
#     4  10  22  41  65  95 133 178 228 280 337 405
#     4  11  23  40  67 100 137 175 221 277 341 409
#     4  12  24  44  68  97 142 183 229 288 346 416
#     4  12  23  43  73 101 134 175 223 288 351 408
#     4  11  25  47  71 101 139 179 229 283 344 417
#     4  11  24  42  67 101 134 177 234 288 346 407
#     4  11  25  44  69  98 137 184 231 283 342 409
#
# _framework density 21.823014000000001
#
# number of rings (size 3 to 8) (size 9 to 14) (size 15 to 20)
#    0.000    0.750    5.000    2.250    0.000    3.250 
#    0.000    1.250    0.000    0.000    0.000    0.000 
#    0.000    0.000    0.000    0.000    0.000    0.000 
#
# Total GULP energy -396634.105429 kJ/mol
# GULP energy per Si atom -12394.815795 kJ/mol
# Density = 2.177334 g / cm^3
# Si number density = 21.823014 Si / 1000 Ang^3
#
#
#
# Elastic Constant Matrix: (Units=GPa)
#
#
# Indices 1 2 3 4 5 6 
#
# 1 68.7119 44.8885 19.4024 0.0000 5.6857 0.0000
# 2 44.8885 171.8278 54.9985 0.0000 19.4662 0.0000
# 3 19.4024 54.9985 78.8663 0.0000 10.2084 0.0000
# 4 0.0000 0.0000 0.0000 33.9361 0.0000 -0.9384
# 5 5.6857 19.4662 10.2084 0.0000 29.5229 0.0000
# 6 0.0000 0.0000 0.0000 -0.9384 0.0000 24.8232
#
#
#
# Elastic Compliance Matrix: (Units=1/GPa)
#
#
# Indices 1 2 3 4 5 6 
#
# 1 0.017678 -0.004137 -0.001441 0.000000 -0.000179 0.000000
# 2 -0.004137 0.008776 -0.004666 0.000000 -0.003377 0.000000
# 3 -0.001441 -0.004666 0.016596 0.000000 -0.002385 0.000000
# 4 0.000000 0.000000 0.000000 0.029498 0.000000 0.001115
# 5 -0.000179 -0.003377 -0.002385 0.000000 0.036958 0.000000
# 6 0.000000 0.000000 0.000000 0.001115 0.000000 0.040327
#
#
# Mechanical properties :
#
#
# Convention : Reuss Voigt Hill
#
# Bulk Modulus (GPa) = 44.31854 61.99831 53.15843
# Shear Modulus (GPa) = 28.11502 30.99755 29.55629
#
# Velocity S-wave (km/s) = 3.59321 3.77292 3.68416
# Velocity P-wave (km/s) = 6.12920 6.88848 6.51990
#
# Compressibility (1/GPa) = 0.02256392
#
# Stress axis : x y z
#
# Youngs Moduli (GPa) = 56.56866 113.94292 60.25372
#
# Poissons Ratio (x) = 0.47134 0.08683
# Poissons Ratio (y) = 0.23400 0.28111
# Poissons Ratio (z) = 0.08152 0.53160
#
# Static dielectric constant tensor:
#      x y z
#    x 3.785820 0.000000 -0.066560 
#    y 0.000000 4.373670 0.000000 
#    z -0.066560 0.000000 4.113250 
# 
# 
# High freq. dielectric constant tensor:
#      x y z
#    x 1.850740 0.000000 -0.000040 
#    y 0.000000 1.874760 0.000000 
#    z -0.000040 0.000000 1.857150 
# 
# From -- ./inp_files/225774.got.cif
#   From: 2010.06.25/outbox.cif.g09.slc.cpg/sg12_113_cif.got.tgz:225774.got - 2010.06.28 00:19:55.
