data_PCOD8112152
_publ_section_title
;
Structure prediction by ZEFSAII (Michael W. Deem and Ramdas Pophale) SiO2 
 PCOD8112152
Probable space group: C 2/M
;
_chemical_formula_sum "Si O2"
_cell_formula_units_Z 40
_cell_length_a 15.193904
_cell_length_b 8.820729
_cell_length_c 15.092402
_cell_angle_alpha 90.000000
_cell_angle_beta 76.228219
_cell_angle_gamma 90.000000
_cell_volume 1964.554080
_symmetry_space_group_name_H-M "C 2/M"
_symmetry_group_IT_number 12
_symmetry_cell_setting 'monoclinic'
loop_
_space_group_symop_operation_xyz
x,y,z
-x,y,-z
-x,-y,-z
x,-y,z
1/2+x,1/2+y,z
1/2-x,1/2+y,-z
1/2-x,1/2-y,-z
1/2+x,1/2-y,z
loop_
_atom_site_type_symbol
_atom_site_label
_atom_site_fract_x
_atom_site_fract_y
_atom_site_fract_z
Si Si1 0.289910 0.182142 0.212180
Si Si2 0.529040 0.326223 0.892217
Si Si3 0.452942 0.332592 0.597468
Si Si4 0.402616 0.179232 0.780634
Si Si5 0.249076 0.336814 0.590980
O O1 0.371770 0.252268 0.137523
O O2 0.195861 0.243351 0.194864
O O3 0.304253 0.235453 0.312276
O O4 0.289549 0.000000 0.206108
O O5 0.531735 0.500000 0.858410
O O6 0.456210 0.231660 0.854165
O O7 0.500000 0.316251 0.000000
O O8 0.500000 0.256396 0.500000
O O9 0.496543 0.500000 0.604826
O O10 0.463551 0.226347 0.680670
O O11 0.348824 0.355111 0.603428
O O12 0.390080 0.000000 0.784074
O O13 0.206481 0.500000 0.578977
O O14 0.250000 0.250000 0.500000
#
# Coordination Sequence:
#
# PCOD8112152 Si02
#       5
#     8   8   8   8   8
#     4  10  22  42  64  90 125 164 207 256 310 369
#     4  11  25  44  67  94 122 160 209 259 316 375
#     4   9  19  36  56  82 117 161 205 248 301 359
#     4  11  23  40  63  92 126 165 206 254 311 370
#     4   9  19  33  52  82 117 155 196 241 296 356
#
# _framework density 20.360855999999998
#
# number of rings (size 3 to 8) (size 9 to 14) (size 15 to 20)
#    0.000    2.000    0.000    4.200    2.800    6.800 
#    0.000    0.000    0.000    0.000    0.000    0.000 
#    0.000    0.000    0.000    0.000    0.000    0.000 
#
# Total GULP energy -247886.136096 kJ/mol
# GULP energy per Si atom -12394.306805 kJ/mol
# Density = 2.031451 g / cm^3
# Si number density = 20.360856 Si / 1000 Ang^3
#
#
#
# Elastic Constant Matrix: (Units=GPa)
#
#
# Indices 1 2 3 4 5 6 
#
# 1 76.0661 33.2609 42.5175 0.0000 -4.6079 0.0000
# 2 33.2609 108.5440 49.2107 0.0000 -2.9118 0.0000
# 3 42.5175 49.2107 115.3654 0.0000 -8.4744 0.0000
# 4 0.0000 0.0000 0.0000 1.3251 0.0000 -8.9204
# 5 -4.6079 -2.9118 -8.4744 0.0000 34.7896 0.0000
# 6 0.0000 0.0000 0.0000 -8.9204 0.0000 24.0586
#
#
#
# Elastic Compliance Matrix: (Units=1/GPa)
#
#
# Indices 1 2 3 4 5 6 
#
# 1 0.017329 -0.003000 -0.005047 0.000000 0.000815 0.000000
# 2 -0.003000 0.011943 -0.004016 0.000000 -0.000376 0.000000
# 3 -0.005047 -0.004016 0.012389 0.000000 0.002013 0.000000
# 4 0.000000 0.000000 0.000000 -0.504442 0.000000 -0.187036
# 5 0.000815 -0.000376 0.002013 0.000000 0.029311 0.000000
# 6 0.000000 0.000000 0.000000 -0.187036 0.000000 -0.027784
#
#
# Mechanical properties :
#
#
# Convention : Reuss Voigt Hill
#
# Bulk Modulus (GPa) = 57.03123 61.10596 59.06859
# Shear Modulus (GPa) = -11.59333 23.70043 6.05355
#
# Velocity S-wave (km/s) = -2.38878 3.41547 1.72615
# Velocity P-wave (km/s) = 4.52357 6.75504 5.74862
#
# Compressibility (1/GPa) = 0.01753425
#
# Stress axis : x y z
#
# Youngs Moduli (GPa) = 57.70821 83.73124 80.71512
#
# Poissons Ratio (x) = 0.25119 0.40736
# Poissons Ratio (y) = 0.17312 0.32419
# Poissons Ratio (z) = 0.29124 0.33630
#
# Static dielectric constant tensor:
#      x y z
#    x 3.508590 0.000000 -0.270340 
#    y 0.000000 3.715480 0.000000 
#    z -0.270340 0.000000 4.193860 
# 
# 
# High freq. dielectric constant tensor:
#      x y z
#    x 1.789030 0.000000 -0.005640 
#    y 0.000000 1.796660 0.000000 
#    z -0.005640 0.000000 1.804560 
# 
# From -- ./inp_files/211225.got.cif
#   From: 2010.06.25/outbox.cif.g09.slc.cpg/sg12_106_cif.got.tgz:211225.got - 2010.06.28 00:19:55.
