data_PCOD8112137
_publ_section_title
;
Structure prediction by ZEFSAII (Michael W. Deem and Ramdas Pophale) SiO2 
 PCOD8112137
Probable space group: C 2/M
;
_chemical_formula_sum "Si O2"
_cell_formula_units_Z 48
_cell_length_a 20.395265
_cell_length_b 8.430738
_cell_length_c 15.034623
_cell_angle_alpha 90.000000
_cell_angle_beta 111.256364
_cell_angle_gamma 90.000000
_cell_volume 2409.285714
_symmetry_space_group_name_H-M "C 2/M"
_symmetry_group_IT_number 12
_symmetry_cell_setting 'monoclinic'
loop_
_space_group_symop_operation_xyz
x,y,z
-x,y,-z
-x,-y,-z
x,-y,z
1/2+x,1/2+y,z
1/2-x,1/2+y,-z
1/2-x,1/2-y,-z
1/2+x,1/2-y,z
loop_
_atom_site_type_symbol
_atom_site_label
_atom_site_fract_x
_atom_site_fract_y
_atom_site_fract_z
Si Si1 0.932464 0.815791 0.192240
Si Si2 0.075615 0.812699 0.010194
Si Si3 0.578624 0.316139 0.514938
Si Si4 0.078385 0.317019 0.324919
Si Si5 0.667103 0.816351 0.711989
Si Si6 0.328569 0.312523 0.784294
O O1 0.870364 0.786531 0.230838
O O2 0.000792 0.715698 0.250256
O O3 0.954142 0.000000 0.204025
O O4 0.905718 0.762629 0.081427
O O5 0.135143 0.749984 0.106947
O O6 0.071813 0.000000 0.016898
O O7 0.000000 0.739467 0.000000
O O8 0.500000 0.259674 0.500000
O O9 0.588746 0.500000 0.543388
O O10 0.594197 0.287266 0.419476
O O11 0.632758 0.214356 0.599444
O O12 0.084128 0.500000 0.354192
O O13 0.136627 0.275351 0.281237
O O14 0.747664 0.762083 0.748310
O O15 0.660207 0.000000 0.733836
O O16 0.338310 0.500000 0.776354
#
# Coordination Sequence:
#
# PCOD8112137 Si02
#       6
#     8   8   8   8   8   8
#     4  11  21  37  63  90 120 162 207 246 294 358
#     4   9  17  34  63  90 116 158 209 247 286 352
#     4  11  23  40  65  90 116 159 206 245 294 364
#     4  12  24  38  62  93 123 155 199 254 305 353
#     4  11  24  40  61  91 127 159 195 252 307 353
#     4  10  22  42  63  88 124 164 202 244 300 359
#
# _framework density 19.922917999999999
#
# number of rings (size 3 to 8) (size 9 to 14) (size 15 to 20)
#    0.000    1.333    3.333    3.000    0.000    3.333 
#    0.000    2.500    0.000    0.000    0.000    0.000 
#    0.000    0.000    0.000    0.000    0.000    0.000 
#
# Total GULP energy -297719.879682 kJ/mol
# GULP energy per Si atom -12404.994987 kJ/mol
# Density = 1.987757 g / cm^3
# Si number density = 19.922918 Si / 1000 Ang^3
#
#
#
# Elastic Constant Matrix: (Units=GPa)
#
#
# Indices 1 2 3 4 5 6 
#
# 1 129.1156 20.2887 57.6591 0.0000 9.5135 0.0000
# 2 20.2887 42.2021 8.2463 0.0000 2.2072 0.0000
# 3 57.6591 8.2463 139.6596 0.0000 1.0223 0.0000
# 4 0.0000 0.0000 0.0000 18.0963 0.0000 1.7647
# 5 9.5135 2.2072 1.0223 0.0000 39.7523 0.0000
# 6 0.0000 0.0000 0.0000 1.7647 0.0000 25.1630
#
#
#
# Elastic Compliance Matrix: (Units=1/GPa)
#
#
# Indices 1 2 3 4 5 6 
#
# 1 0.010334 -0.004072 -0.004010 0.000000 -0.002144 0.000000
# 2 -0.004072 0.025644 0.000170 0.000000 -0.000454 0.000000
# 3 -0.004010 0.000170 0.008801 0.000000 0.000724 0.000000
# 4 0.000000 0.000000 0.000000 0.055641 0.000000 -0.003902
# 5 -0.002144 -0.000454 0.000724 0.000000 0.025675 0.000000
# 6 0.000000 0.000000 0.000000 -0.003902 0.000000 0.040015
#
#
# Mechanical properties :
#
#
# Convention : Reuss Voigt Hill
#
# Bulk Modulus (GPa) = 34.53768 53.70726 44.12247
# Shear Modulus (GPa) = 26.09827 31.58786 28.84307
#
# Velocity S-wave (km/s) = 3.62327 3.98616 3.80904
# Velocity P-wave (km/s) = 5.90571 6.94277 6.44513
#
# Compressibility (1/GPa) = 0.02895389
#
# Stress axis : x y z
#
# Youngs Moduli (GPa) = 96.77111 38.99606 113.62971
#
# Poissons Ratio (x) = 0.15880 0.45567
# Poissons Ratio (y) = 0.39407 -0.01936
# Poissons Ratio (z) = 0.38807 -0.00665
#
# Static dielectric constant tensor:
#      x y z
#    x 3.731330 0.000000 0.019480 
#    y 0.000000 3.426590 0.000000 
#    z 0.019480 0.000000 3.841750 
# 
# 
# High freq. dielectric constant tensor:
#      x y z
#    x 1.774500 0.000000 -0.005420 
#    y 0.000000 1.763750 0.000000 
#    z -0.005420 0.000000 1.792760 
# 
# From -- ./inp_files/230424.got.cif
#   From: 2010.06.25/outbox.cif.g09.slc.cpg/sg12_116_cif.got.tgz:230424.got - 2010.06.28 00:19:55.
