data_PCOD8112613
_publ_section_title
;
Structure prediction by ZEFSAII (Michael W. Deem and Ramdas Pophale) SiO2 
 PCOD8112613
Probable space group: C 2/M
;
_chemical_formula_sum "Si O2"
_cell_formula_units_Z 40
_cell_length_a 20.024005
_cell_length_b 17.738816
_cell_length_c 5.108408
_cell_angle_alpha 90.000000
_cell_angle_beta 93.643095
_cell_angle_gamma 90.000000
_cell_volume 1810.850711
_symmetry_space_group_name_H-M "C 2/M"
_symmetry_group_IT_number 12
_symmetry_cell_setting 'monoclinic'
loop_
_space_group_symop_operation_xyz
x,y,z
-x,y,-z
-x,-y,-z
x,-y,z
1/2+x,1/2+y,z
1/2-x,1/2+y,-z
1/2-x,1/2-y,-z
1/2+x,1/2-y,z
loop_
_atom_site_type_symbol
_atom_site_label
_atom_site_fract_x
_atom_site_fract_y
_atom_site_fract_z
Si Si1 0.352330 0.197995 0.007650
Si Si2 0.144478 0.086096 0.357200
Si Si3 0.708958 0.650029 0.866858
Si Si4 0.544834 0.913872 0.757486
Si Si5 0.544258 0.713190 0.267648
O O1 0.288571 0.158406 0.859418
O O2 0.398926 0.225031 0.779077
O O3 0.328389 0.269348 0.176141
O O4 0.390660 0.139997 0.207629
O O5 0.183899 0.093899 0.638380
O O6 0.075761 0.132713 0.348541
O O7 0.124510 0.000000 0.306597
O O8 0.193387 0.115112 0.144024
O O9 0.500000 0.890869 0.500000
O O10 0.570067 0.000000 0.740574
O O11 0.500000 0.901270 0.000000
O O12 0.500000 0.742482 0.500000
O O13 0.500000 0.702176 0.000000
#
# Coordination Sequence:
#
# PCOD8112613 Si02
#       5
#     8   8   8   8   8
#     4  10  23  42  66  92 128 162 210 268 308 371
#     4  11  24  43  64  93 132 166 209 263 310 374
#     4  10  24  41  65  95 122 167 213 255 320 370
#     4  10  23  40  59  87 121 158 199 248 308 366
#     4  11  24  40  64  96 126 168 214 253 316 376
#
# _framework density 22.089062999999999
#
# number of rings (size 3 to 8) (size 9 to 14) (size 15 to 20)
#    0.000    1.600    0.000    3.600    0.000   20.800 
#    0.000    2.000    0.000    0.000    0.000    0.000 
#    0.000    0.000    0.000    0.000    0.000    0.000 
#
# Total GULP energy -248106.106322 kJ/mol
# GULP energy per Si atom -12405.305316 kJ/mol
# Density = 2.203879 g / cm^3
# Si number density = 22.089063 Si / 1000 Ang^3
#
#
#
# Elastic Constant Matrix: (Units=GPa)
#
#
# Indices 1 2 3 4 5 6 
#
# 1 150.6850 56.2848 60.8307 0.0000 -1.7243 0.0000
# 2 56.2848 111.2844 23.3462 0.0000 5.0238 0.0000
# 3 60.8307 23.3462 128.8591 0.0000 2.2860 0.0000
# 4 0.0000 0.0000 0.0000 30.4390 0.0000 16.0180
# 5 -1.7243 5.0238 2.2860 0.0000 26.9791 0.0000
# 6 0.0000 0.0000 0.0000 16.0180 0.0000 30.1885
#
#
#
# Elastic Compliance Matrix: (Units=1/GPa)
#
#
# Indices 1 2 3 4 5 6 
#
# 1 0.009805 -0.004221 -0.003895 0.000000 0.001743 0.000000
# 2 -0.004221 0.011227 0.000000 0.000000 -0.002360 0.000000
# 3 -0.003895 0.000000 0.009618 0.000000 -0.001064 0.000000
# 4 0.000000 0.000000 0.000000 0.045579 0.000000 -0.024184
# 5 0.001743 -0.002360 -0.001064 0.000000 0.037707 0.000000
# 6 0.000000 0.000000 0.000000 -0.024184 0.000000 0.045957
#
#
# Mechanical properties :
#
#
# Convention : Reuss Voigt Hill
#
# Bulk Modulus (GPa) = 69.35075 74.63910 71.99493
# Shear Modulus (GPa) = 27.63480 34.21244 30.92362
#
# Velocity S-wave (km/s) = 3.54087 3.93980 3.74565
# Velocity P-wave (km/s) = 6.94127 7.38644 7.16731
#
# Compressibility (1/GPa) = 0.01441946
#
# Stress axis : x y z
#
# Youngs Moduli (GPa) = 101.98599 89.06895 103.97215
#
# Poissons Ratio (x) = 0.37594 0.40497
# Poissons Ratio (y) = 0.43046 -0.00003
# Poissons Ratio (z) = 0.39724 -0.00002
#
# Static dielectric constant tensor:
#      x y z
#    x 4.242000 0.000000 -0.264250 
#    y 0.000000 4.137540 0.000000 
#    z -0.264250 0.000000 4.266510 
# 
# 
# High freq. dielectric constant tensor:
#      x y z
#    x 1.871510 0.000000 0.005190 
#    y 0.000000 1.872980 0.000000 
#    z 0.005190 0.000000 1.873900 
# 
# From -- ./inp_files/15215.got.cif
#   From: 2010.06.25/outbox.cif.g09.slc.cpg/sg12_8_cif.got.tgz:15215.got - 2010.06.28 00:19:55.
