data_PCOD8112531
_publ_section_title
;
Structure prediction by ZEFSAII (Michael W. Deem and Ramdas Pophale) SiO2 
 PCOD8112531
Probable space group: C 2/M
;
_chemical_formula_sum "Si O2"
_cell_formula_units_Z 56
_cell_length_a 28.330790
_cell_length_b 25.036157
_cell_length_c 12.434762
_cell_angle_alpha 90.000000
_cell_angle_beta 160.839284
_cell_angle_gamma 90.000000
_cell_volume 2894.860508
_symmetry_space_group_name_H-M "C 2/M"
_symmetry_group_IT_number 12
_symmetry_cell_setting 'monoclinic'
loop_
_space_group_symop_operation_xyz
x,y,z
-x,y,-z
-x,-y,-z
x,-y,z
1/2+x,1/2+y,z
1/2-x,1/2+y,-z
1/2-x,1/2-y,-z
1/2+x,1/2-y,z
loop_
_atom_site_type_symbol
_atom_site_label
_atom_site_fract_x
_atom_site_fract_y
_atom_site_fract_z
Si Si1 0.350496 0.639823 0.338492
Si Si2 0.947639 0.305688 0.767397
Si Si3 0.791221 0.270267 0.820777
Si Si4 0.794487 0.202080 0.023206
Si Si5 0.865126 0.614192 0.430452
Si Si6 0.932275 0.059774 0.235225
Si Si7 0.397990 0.941280 0.180306
O O1 0.294885 0.681203 0.307594
O O2 0.394169 0.666996 0.317471
O O3 0.492171 0.605651 0.676709
O O4 0.231257 0.595272 0.059597
O O5 0.827701 0.259425 0.507210
O O6 0.878138 0.361977 0.579171
O O7 0.000000 0.313560 0.000000
O O8 0.081644 0.291583 0.978901
O O9 0.862552 0.228357 0.061293
O O10 0.750000 0.250000 0.000000
O O11 0.656849 0.166247 0.693553
O O12 0.015536 0.585509 0.731104
O O13 0.736617 0.572490 0.134959
O O14 0.000000 0.062329 0.500000
O O15 0.954526 0.000000 0.236648
O O16 0.500000 0.947929 0.500000
O O17 0.341396 0.000000 0.022965
#
# Coordination Sequence:
#
# PCOD8112531 Si02
#       7
#     8   8   8   8   8   8   8
#     4  11  20  36  55  85 125 160 191 229 286 361
#     4  11  24  43  64  88 113 151 206 258 301 350
#     4  10  23  38  60  88 120 153 192 244 301 354
#     4   9  19  34  50  81 121 159 184 219 282 359
#     4  11  21  38  56  83 120 155 195 246 298 345
#     4  11  22  36  56  86 123 162 199 233 283 355
#     4  11  20  33  56  84 116 156 197 238 285 351
#
# _framework density 19.344628
#
# number of rings (size 3 to 8) (size 9 to 14) (size 15 to 20)
#    0.000    1.429    4.286    1.286    4.000    2.286 
#    2.571    0.000    0.000    1.714    0.000    1.000 
#    0.000    0.000    0.000    0.000    0.000    0.000 
#
# Total GULP energy -346887.291458 kJ/mol
# GULP energy per Si atom -12388.831838 kJ/mol
# Density = 1.930060 g / cm^3
# Si number density = 19.344628 Si / 1000 Ang^3
#
#
#
# Elastic Constant Matrix: (Units=GPa)
#
#
# Indices 1 2 3 4 5 6 
#
# 1 77.8590 31.8048 29.1391 0.0000 -6.0061 0.0000
# 2 31.8048 124.6041 24.4049 0.0000 -6.6814 0.0000
# 3 29.1391 24.4049 57.0409 0.0000 -1.3928 0.0000
# 4 0.0000 0.0000 0.0000 20.1767 0.0000 12.8490
# 5 -6.0061 -6.6814 -1.3928 0.0000 34.0378 0.0000
# 6 0.0000 0.0000 0.0000 12.8490 0.0000 51.6226
#
#
#
# Elastic Compliance Matrix: (Units=1/GPa)
#
#
# Indices 1 2 3 4 5 6 
#
# 1 0.016904 -0.002749 -0.007407 0.000000 0.002140 0.000000
# 2 -0.002749 0.009291 -0.002541 0.000000 0.001235 0.000000
# 3 -0.007407 -0.002541 0.022380 0.000000 -0.000890 0.000000
# 4 0.000000 0.000000 0.000000 0.058898 0.000000 -0.014660
# 5 0.002140 0.001235 -0.000890 0.000000 0.029963 0.000000
# 6 0.000000 0.000000 0.000000 -0.014660 0.000000 0.023020
#
#
# Mechanical properties :
#
#
# Convention : Reuss Voigt Hill
#
# Bulk Modulus (GPa) = 43.13697 47.80020 45.46858
# Shear Modulus (GPa) = 25.82964 32.77777 29.30370
#
# Velocity S-wave (km/s) = 3.65805 4.12079 3.89630
# Velocity P-wave (km/s) = 6.33951 6.88510 6.61793
#
# Compressibility (1/GPa) = 0.02318197
#
# Stress axis : x y z
#
# Youngs Moduli (GPa) = 59.15802 107.63169 44.68231
#
# Poissons Ratio (x) = 0.29590 0.33095
# Poissons Ratio (y) = 0.16264 0.11352
# Poissons Ratio (z) = 0.43817 0.27344
#
# Static dielectric constant tensor:
#      x y z
#    x 3.452170 0.000000 0.192200 
#    y 0.000000 4.774100 0.000000 
#    z 0.192200 0.000000 3.709010 
# 
# 
# High freq. dielectric constant tensor:
#      x y z
#    x 1.709930 0.000000 0.027290 
#    y 0.000000 1.776600 0.000000 
#    z 0.027290 0.000000 1.744370 
# 
# From -- ./inp_files/185152.got.cif
#   From: 2010.06.25/outbox.cif.g09.slc.cpg/sg12_93_cif.got.tgz:185152.got - 2010.06.28 00:19:55.
