data_PCOD8112070
_publ_section_title
;
Structure prediction by ZEFSAII (Michael W. Deem and Ramdas Pophale) SiO2 
 PCOD8112070
Probable space group: C 2/M
;
_chemical_formula_sum "Si O2"
_cell_formula_units_Z 56
_cell_length_a 18.021119
_cell_length_b 13.435480
_cell_length_c 12.606109
_cell_angle_alpha 90.000000
_cell_angle_beta 56.646125
_cell_angle_gamma 90.000000
_cell_volume 2549.492098
_symmetry_space_group_name_H-M "C 2/M"
_symmetry_group_IT_number 12
_symmetry_cell_setting 'monoclinic'
loop_
_space_group_symop_operation_xyz
x,y,z
-x,y,-z
-x,-y,-z
x,-y,z
1/2+x,1/2+y,z
1/2-x,1/2+y,-z
1/2-x,1/2-y,-z
1/2+x,1/2-y,z
loop_
_atom_site_type_symbol
_atom_site_label
_atom_site_fract_x
_atom_site_fract_y
_atom_site_fract_z
Si Si1 0.350746 0.612909 0.870873
Si Si2 0.496841 0.297659 0.384646
Si Si3 0.597196 0.298584 0.955657
Si Si4 0.251818 0.204239 0.668742
Si Si5 0.904923 0.386830 0.691848
Si Si6 0.649550 0.110798 0.023936
Si Si7 0.811837 0.882894 0.492201
O O1 0.370470 0.500000 0.827093
O O2 0.414629 0.678328 0.749498
O O3 0.365218 0.628497 0.984331
O O4 0.250667 0.642931 0.919380
O O5 0.500000 0.344595 0.500000
O O6 0.502226 0.176241 0.385671
O O7 0.410985 0.339968 0.392693
O O8 0.660854 0.302803 0.804650
O O9 0.500000 0.336394 0.000000
O O10 0.587206 0.186860 0.009966
O O11 0.335754 0.163842 0.666167
O O12 0.243305 0.135166 0.571375
O O13 0.269011 0.319716 0.622444
O O14 0.925766 0.500000 0.641923
O O15 0.863426 0.383156 0.840860
O O16 0.628928 0.000000 0.998465
O O17 0.812824 0.000000 0.520611
#
# Coordination Sequence:
#
# PCOD8112070 Si02
#       7
#     8   8   8   8   8   8   8
#     4  11  23  40  65  95 128 167 215 269 326 387
#     4  12  24  42  63  99 133 171 217 269 326 392
#     4  12  24  40  67  95 133 165 210 273 330 386
#     4  11  24  45  69  97 129 177 225 268 327 391
#     4  11  22  43  72  97 127 170 221 275 328 390
#     4  10  22  41  67  95 126 166 212 266 327 394
#     4  11  26  46  66  95 137 177 219 270 325 392
#
# _framework density 21.965160000000001
#
# number of rings (size 3 to 8) (size 9 to 14) (size 15 to 20)
#    0.000    0.857    4.286    3.000    0.000    3.143 
#    0.000    0.714    0.000    0.000    0.000    0.000 
#    0.000    0.000    0.000    0.000    0.000    0.000 
#
# Total GULP energy -347253.793573 kJ/mol
# GULP energy per Si atom -12401.921199 kJ/mol
# Density = 2.191517 g / cm^3
# Si number density = 21.965160 Si / 1000 Ang^3
#
#
#
# Elastic Constant Matrix: (Units=GPa)
#
#
# Indices 1 2 3 4 5 6 
#
# 1 50.9151 19.7456 2.6164 0.0000 -5.3291 0.0000
# 2 19.7456 122.5461 13.6052 0.0000 -3.5039 0.0000
# 3 2.6164 13.6052 90.0497 0.0000 -3.5534 0.0000
# 4 0.0000 0.0000 0.0000 21.9181 0.0000 -0.6384
# 5 -5.3291 -3.5039 -3.5534 0.0000 30.6937 0.0000
# 6 0.0000 0.0000 0.0000 -0.6384 0.0000 25.0222
#
#
#
# Elastic Compliance Matrix: (Units=1/GPa)
#
#
# Indices 1 2 3 4 5 6 
#
# 1 0.021280 -0.003336 0.000017 0.000000 0.003316 0.000000
# 2 -0.003336 0.008842 -0.001228 0.000000 0.000288 0.000000
# 3 0.000017 -0.001228 0.011336 0.000000 0.001175 0.000000
# 4 0.000000 0.000000 0.000000 0.045658 0.000000 0.001165
# 5 0.003316 0.000288 0.001175 0.000000 0.033325 0.000000
# 6 0.000000 0.000000 0.000000 0.001165 0.000000 0.039994
#
#
# Mechanical properties :
#
#
# Convention : Reuss Voigt Hill
#
# Bulk Modulus (GPa) = 30.89754 37.27170 34.08462
# Shear Modulus (GPa) = 27.72870 30.69638 29.21254
#
# Velocity S-wave (km/s) = 3.55687 3.74237 3.65080
# Velocity P-wave (km/s) = 5.56468 5.97321 5.77256
#
# Compressibility (1/GPa) = 0.03236504
#
# Stress axis : x y z
#
# Youngs Moduli (GPa) = 46.99149 113.09357 88.21186
#
# Poissons Ratio (x) = 0.37727 -0.00146
# Poissons Ratio (y) = 0.15676 0.10829
# Poissons Ratio (z) = -0.00078 0.13884
#
# Static dielectric constant tensor:
#      x y z
#    x 3.815600 0.000000 0.017190 
#    y 0.000000 4.143030 0.000000 
#    z 0.017190 0.000000 4.025960 
# 
# 
# High freq. dielectric constant tensor:
#      x y z
#    x 1.854650 0.000000 0.002190 
#    y 0.000000 1.870510 0.000000 
#    z 0.002190 0.000000 1.876470 
# 
# From -- ./inp_files/156536.got.cif
#   From: 2010.06.25/outbox.cif.g09.slc.cpg/sg12_79_cif.got.tgz:156536.got - 2010.06.28 00:19:55.
