data_PCOD8112163
_publ_section_title
;
Structure prediction by ZEFSAII (Michael W. Deem and Ramdas Pophale) SiO2 
 PCOD8112163
Probable space group: C 2/M
;
_chemical_formula_sum "Si O2"
_cell_formula_units_Z 64
_cell_length_a 16.044536
_cell_length_b 8.905047
_cell_length_c 21.489327
_cell_angle_alpha 90.000000
_cell_angle_beta 89.155899
_cell_angle_gamma 90.000000
_cell_volume 3070.004844
_symmetry_space_group_name_H-M "C 2/M"
_symmetry_group_IT_number 12
_symmetry_cell_setting 'monoclinic'
loop_
_space_group_symop_operation_xyz
x,y,z
-x,y,-z
-x,-y,-z
x,-y,z
1/2+x,1/2+y,z
1/2-x,1/2+y,-z
1/2-x,1/2-y,-z
1/2+x,1/2-y,z
loop_
_atom_site_type_symbol
_atom_site_label
_atom_site_fract_x
_atom_site_fract_y
_atom_site_fract_z
Si Si1 0.338590 0.175133 0.501953
Si Si2 0.580098 0.175407 0.628860
Si Si3 0.330774 0.673373 0.749220
Si Si4 0.912354 0.828490 0.619304
Si Si5 0.250693 0.677692 0.067032
Si Si6 0.082449 0.172402 0.865296
Si Si7 0.913931 0.322464 0.855810
Si Si8 0.664909 0.327937 0.737496
O O1 0.250000 0.250000 0.500000
O O2 0.389396 0.218519 0.440091
O O3 0.389127 0.226741 0.561298
O O4 0.323929 0.000000 0.506435
O O5 0.500120 0.274657 0.645126
O O6 0.648531 0.220927 0.678866
O O7 0.559849 0.000000 0.634628
O O8 0.316896 0.500000 0.767172
O O9 0.346879 0.690222 0.675519
O O10 0.406468 0.740814 0.788906
O O11 0.250784 0.772963 0.767284
O O12 0.917441 0.000000 0.596938
O O13 0.252092 0.500000 0.061223
O O14 0.334327 0.733864 0.101440
O O15 0.165814 0.728484 0.102580
O O16 0.250000 0.750000 0.000000
O O17 0.094372 0.187749 0.790800
O O18 0.000828 0.267669 0.886107
O O19 0.066767 0.000000 0.884155
O O20 0.917469 0.500000 0.846606
O O21 0.673458 0.500000 0.715294
#
# Coordination Sequence:
#
# PCOD8112163 Si02
#       8
#     8   8   8   8   8   8   8   8
#     4  11  24  41  60  83 114 153 198 251 308 371
#     4  11  24  40  58  86 120 154 200 254 308 371
#     4  11  23  39  61  91 125 161 205 256 312 371
#     4  11  24  40  59  86 118 155 201 253 308 371
#     4  10  23  44  66  93 132 170 211 260 310 368
#     4  10  22  42  64  92 131 169 209 261 315 372
#     4  11  23  41  65  96 130 167 214 264 311 372
#     4  11  22  39  63  90 124 163 206 256 311 369
#
# _framework density 20.846872999999999
#
# number of rings (size 3 to 8) (size 9 to 14) (size 15 to 20)
#    0.000    1.250    1.250    4.125    0.000   14.500 
#    0.000    2.500    0.000    0.000    0.000    0.000 
#    0.000    0.000    0.000    0.000    0.000    0.000 
#
# Total GULP energy -396943.776821 kJ/mol
# GULP energy per Si atom -12404.493026 kJ/mol
# Density = 2.079942 g / cm^3
# Si number density = 20.846873 Si / 1000 Ang^3
#
#
#
# Elastic Constant Matrix: (Units=GPa)
#
#
# Indices 1 2 3 4 5 6 
#
# 1 137.3429 43.2037 36.0248 0.0000 2.4088 0.0000
# 2 43.2037 60.3929 42.1435 0.0000 -11.0471 0.0000
# 3 36.0248 42.1435 103.1603 0.0000 7.6605 0.0000
# 4 0.0000 0.0000 0.0000 35.9577 0.0000 4.4669
# 5 2.4088 -11.0471 7.6605 0.0000 24.6455 0.0000
# 6 0.0000 0.0000 0.0000 4.4669 0.0000 41.4000
#
#
#
# Elastic Compliance Matrix: (Units=1/GPa)
#
#
# Indices 1 2 3 4 5 6 
#
# 1 0.009831 -0.007997 0.000175 0.000000 -0.004600 0.000000
# 2 -0.007997 0.035216 -0.013127 0.000000 0.020647 0.000000
# 3 0.000175 -0.013127 0.015798 0.000000 -0.010812 0.000000
# 4 0.000000 0.000000 0.000000 0.028188 0.000000 -0.003041
# 5 -0.004600 0.020647 -0.010812 0.000000 0.053641 0.000000
# 6 0.000000 0.000000 0.000000 -0.003041 0.000000 0.024483
#
#
# Mechanical properties :
#
#
# Convention : Reuss Voigt Hill
#
# Bulk Modulus (GPa) = 52.77609 60.40447 56.59028
# Shear Modulus (GPa) = 23.21572 32.36892 27.79232
#
# Velocity S-wave (km/s) = 3.34073 3.94471 3.65521
# Velocity P-wave (km/s) = 6.34442 7.05591 6.70960
#
# Compressibility (1/GPa) = 0.01894797
#
# Stress axis : x y z
#
# Youngs Moduli (GPa) = 101.71610 28.39584 63.29836
#
# Poissons Ratio (x) = 0.22708 -0.01109
# Poissons Ratio (y) = 0.81340 0.83095
# Poissons Ratio (z) = -0.01783 0.37276
#
# Static dielectric constant tensor:
#      x y z
#    x 4.127380 0.000000 0.306440 
#    y 0.000000 3.692650 0.000000 
#    z 0.306440 0.000000 3.962830 
# 
# 
# High freq. dielectric constant tensor:
#      x y z
#    x 1.828430 0.000000 0.003990 
#    y 0.000000 1.820210 0.000000 
#    z 0.003990 0.000000 1.814890 
# 
# From -- ./inp_files/338838.got.cif
#   From: 2010.06.25/outbox.cif.g09.slc.cpg/sg12_170_cif.got.tgz:338838.got - 2010.06.28 00:19:55.
