data_PCOD8112273
_publ_section_title
;
Structure prediction by ZEFSAII (Michael W. Deem and Ramdas Pophale) SiO2 
 PCOD8112273
Probable space group: C 2/M
;
_chemical_formula_sum "Si O2"
_cell_formula_units_Z 64
_cell_length_a 15.784621
_cell_length_b 28.995678
_cell_length_c 8.816695
_cell_angle_alpha 90.000000
_cell_angle_beta 44.437373
_cell_angle_gamma 90.000000
_cell_volume 2825.214674
_symmetry_space_group_name_H-M "C 2/M"
_symmetry_group_IT_number 12
_symmetry_cell_setting 'monoclinic'
loop_
_space_group_symop_operation_xyz
x,y,z
-x,y,-z
-x,-y,-z
x,-y,z
1/2+x,1/2+y,z
1/2-x,1/2+y,-z
1/2-x,1/2-y,-z
1/2+x,1/2-y,z
loop_
_atom_site_type_symbol
_atom_site_label
_atom_site_fract_x
_atom_site_fract_y
_atom_site_fract_z
Si Si1 0.282737 0.858740 0.948514
Si Si2 0.641854 0.870695 0.811830
Si Si3 0.260833 0.552651 0.493705
Si Si4 0.502352 0.446553 0.329435
Si Si5 0.394709 0.688073 0.011233
Si Si6 0.295062 0.201308 0.497438
Si Si7 0.955055 0.273308 0.718300
Si Si8 0.243775 0.448021 0.159460
O O1 0.142381 0.851097 0.066752
O O2 0.350964 0.810887 0.823242
O O3 0.338175 0.905459 0.798621
O O4 0.290290 0.869271 0.115338
O O5 0.654162 0.920553 0.717663
O O6 0.724351 0.835624 0.609460
O O7 0.500000 0.857551 0.000000
O O8 0.244288 0.500000 0.563427
O O9 0.391056 0.573930 0.374196
O O10 0.251265 0.558702 0.327557
O O11 0.500000 0.423451 0.500000
O O12 0.473537 0.500000 0.384916
O O13 0.627072 0.439739 0.082884
O O14 0.272366 0.689767 0.262818
O O15 0.500000 0.676450 0.000000
O O16 0.418292 0.734681 0.887435
O O17 0.250000 0.250000 0.500000
O O18 0.436880 0.198834 0.345437
O O19 0.000000 0.251365 0.500000
O O20 0.194609 0.500000 0.182995
#
# Coordination Sequence:
#
# PCOD8112273 Si02
#       8
#     8   8   8   8   8   8   8   8
#     4  12  26  43  70 106 144 186 246 295 354 429
#     4  12  27  46  72 100 139 189 245 300 361 425
#     4  10  22  42  69 100 139 190 244 297 361 428
#     4   9  17  34  63  97 134 177 224 284 356 419
#     4  12  27  46  73 110 146 187 235 292 357 433
#     4  12  25  46  73  99 142 187 228 292 359 431
#     4  12  26  46  75 104 145 189 235 293 362 430
#     4  10  22  42  68 101 147 193 238 295 359 425
#
# _framework density 22.653146
#
# number of rings (size 3 to 8) (size 9 to 14) (size 15 to 20)
#    0.000    0.875    3.750    3.000    1.750    5.250 
#    0.000    1.875    0.000    1.875    0.000    0.000 
#    0.000    0.000    0.000    0.000    0.000    0.000 
#
# Total GULP energy -396491.211393 kJ/mol
# GULP energy per Si atom -12390.350356 kJ/mol
# Density = 2.260159 g / cm^3
# Si number density = 22.653146 Si / 1000 Ang^3
#
#
#
# Elastic Constant Matrix: (Units=GPa)
#
#
# Indices 1 2 3 4 5 6 
#
# 1 132.2726 62.5398 40.5673 0.0000 22.8999 0.0000
# 2 62.5398 101.4071 45.0372 0.0000 22.7099 0.0000
# 3 40.5673 45.0372 119.7775 0.0000 25.5488 0.0000
# 4 0.0000 0.0000 0.0000 20.1125 0.0000 -2.4989
# 5 22.8999 22.7099 25.5488 0.0000 33.7284 0.0000
# 6 0.0000 0.0000 0.0000 -2.4989 0.0000 24.8251
#
#
#
# Elastic Compliance Matrix: (Units=1/GPa)
#
#
# Indices 1 2 3 4 5 6 
#
# 1 0.011081 -0.005750 -0.000968 0.000000 -0.002918 0.000000
# 2 -0.005750 0.015739 -0.003033 0.000000 -0.004396 0.000000
# 3 -0.000968 -0.003033 0.011022 0.000000 -0.005650 0.000000
# 4 0.000000 0.000000 0.000000 0.050350 0.000000 0.005068
# 5 -0.002918 -0.004396 -0.005650 0.000000 0.038869 0.000000
# 6 0.000000 0.000000 0.000000 0.005068 0.000000 0.040792
#
#
# Mechanical properties :
#
#
# Convention : Reuss Voigt Hill
#
# Bulk Modulus (GPa) = 54.52775 72.19397 63.36086
# Shear Modulus (GPa) = 25.84383 29.42074 27.63228
#
# Velocity S-wave (km/s) = 3.38131 3.60772 3.49635
# Velocity P-wave (km/s) = 6.27434 7.02088 6.65808
#
# Compressibility (1/GPa) = 0.01833929
#
# Stress axis : x y z
#
# Youngs Moduli (GPa) = 90.24287 63.53668 90.72580
#
# Poissons Ratio (x) = 0.36536 0.08786
# Poissons Ratio (y) = 0.51893 0.27515
# Poissons Ratio (z) = 0.08740 0.19269
#
# Static dielectric constant tensor:
#      x y z
#    x 3.520530 0.000000 -0.127730 
#    y 0.000000 4.004980 0.000000 
#    z -0.127730 0.000000 3.838880 
# 
# 
# High freq. dielectric constant tensor:
#      x y z
#    x 1.903370 0.000000 0.023000 
#    y 0.000000 1.896650 0.000000 
#    z 0.023000 0.000000 1.889600 
# 
# From -- ./inp_files/68597.got.cif
#   From: 2010.06.25/outbox.cif.g09.slc.cpg/sg12_35_cif.got.tgz:68597.got - 2010.06.28 00:19:55.
