data_PCOD8112759
_publ_section_title
;
Structure prediction by ZEFSAII (Michael W. Deem and Ramdas Pophale) SiO2 
 PCOD8112759
Probable space group: C 2/M
;
_chemical_formula_sum "Si O2"
_cell_formula_units_Z 40
_cell_length_a 12.736374
_cell_length_b 19.368041
_cell_length_c 12.999541
_cell_angle_alpha 90.000000
_cell_angle_beta 143.364358
_cell_angle_gamma 90.000000
_cell_volume 1913.520615
_symmetry_space_group_name_H-M "C 2/M"
_symmetry_group_IT_number 12
_symmetry_cell_setting 'monoclinic'
loop_
_space_group_symop_operation_xyz
x,y,z
-x,y,-z
-x,-y,-z
x,-y,z
1/2+x,1/2+y,z
1/2-x,1/2+y,-z
1/2-x,1/2-y,-z
1/2+x,1/2-y,z
loop_
_atom_site_type_symbol
_atom_site_label
_atom_site_fract_x
_atom_site_fract_y
_atom_site_fract_z
Si Si1 0.707317 0.826222 0.683794
Si Si2 0.446516 0.417975 0.742682
Si Si3 0.724398 0.173250 0.939657
Si Si4 0.328469 0.426543 0.426162
Si Si5 0.596083 0.811027 0.182348
O O1 0.500000 0.824527 0.500000
O O2 0.799988 0.893961 0.709940
O O3 0.737978 0.828302 0.828762
O O4 0.804965 0.760020 0.709524
O O5 0.476734 0.500000 0.777388
O O6 0.370671 0.396707 0.572152
O O7 0.632836 0.379723 0.903534
O O8 0.528976 0.157186 0.826680
O O9 0.750000 0.250000 0.000000
O O10 0.500000 0.445016 0.500000
O O11 0.223849 0.500000 0.354633
O O12 0.235548 0.371453 0.279810
O O13 0.500000 0.797891 0.000000
#
# Coordination Sequence:
#
# PCOD8112759 Si02
#       5
#     8   8   8   8   8
#     4  12  26  42  67 101 132 177 222 275 331 392
#     4  11  25  47  70  96 135 179 220 274 334 394
#     4  12  24  42  66  99 133 168 223 271 325 396
#     4  10  23  41  64  97 134 176 223 269 329 393
#     4  12  23  39  67  94 135 172 221 278 330 389
#
# _framework density 20.903877999999999
#
# number of rings (size 3 to 8) (size 9 to 14) (size 15 to 20)
#    0.000    0.600    4.000    3.600    2.800    4.800 
#    0.000    0.000    0.000    0.000    0.000    0.000 
#    0.000    0.000    0.000    0.000    0.000    0.000 
#
# Total GULP energy -247920.829820 kJ/mol
# GULP energy per Si atom -12396.041491 kJ/mol
# Density = 2.085630 g / cm^3
# Si number density = 20.903878 Si / 1000 Ang^3
#
#
#
# Elastic Constant Matrix: (Units=GPa)
#
#
# Indices 1 2 3 4 5 6 
#
# 1 118.3095 30.5795 22.2622 0.0000 1.8892 0.0000
# 2 30.5795 134.8179 56.8547 0.0000 13.7222 0.0000
# 3 22.2622 56.8547 79.2328 0.0000 12.7622 0.0000
# 4 0.0000 0.0000 0.0000 53.4741 0.0000 -7.4550
# 5 1.8892 13.7222 12.7622 0.0000 41.6972 0.0000
# 6 0.0000 0.0000 0.0000 -7.4550 0.0000 44.1497
#
#
#
# Elastic Compliance Matrix: (Units=1/GPa)
#
#
# Indices 1 2 3 4 5 6 
#
# 1 0.009121 -0.001444 -0.001616 0.000000 0.000557 0.000000
# 2 -0.001444 0.010924 -0.007221 0.000000 -0.001320 0.000000
# 3 -0.001616 -0.007221 0.018788 0.000000 -0.003301 0.000000
# 4 0.000000 0.000000 0.000000 0.019151 0.000000 0.003234
# 5 0.000557 -0.001320 -0.003301 0.000000 0.025402 0.000000
# 6 0.000000 0.000000 0.000000 0.003234 0.000000 0.023196
#
#
# Mechanical properties :
#
#
# Convention : Reuss Voigt Hill
#
# Bulk Modulus (GPa) = 54.72944 61.30588 58.01766
# Shear Modulus (GPa) = 37.52770 42.70847 40.11809
#
# Velocity S-wave (km/s) = 4.24164 4.52496 4.38559
# Velocity P-wave (km/s) = 7.08710 7.52938 7.31158
#
# Compressibility (1/GPa) = 0.01827170
#
# Stress axis : x y z
#
# Youngs Moduli (GPa) = 109.63903 91.53934 53.22510
#
# Poissons Ratio (x) = 0.13217 0.08603
# Poissons Ratio (y) = 0.15830 0.38432
# Poissons Ratio (z) = 0.17721 0.66097
#
# Static dielectric constant tensor:
#      x y z
#    x 4.124730 0.000000 0.490940 
#    y 0.000000 4.305640 0.000000 
#    z 0.490940 0.000000 4.019630 
# 
# 
# High freq. dielectric constant tensor:
#      x y z
#    x 1.834300 0.000000 0.000580 
#    y 0.000000 1.827100 0.000000 
#    z 0.000580 0.000000 1.819850 
# 
# From -- ./inp_files/46917.got.cif
#   From: 2010.06.25/outbox.cif.g09.slc.cpg/sg12_24_cif.got.tgz:46917.got - 2010.06.28 00:19:55.
