data_PCOD8112550
_publ_section_title
;
Structure prediction by ZEFSAII (Michael W. Deem and Ramdas Pophale) SiO2 
 PCOD8112550
Probable space group: C 2/M
;
_chemical_formula_sum "Si O2"
_cell_formula_units_Z 64
_cell_length_a 14.914002
_cell_length_b 28.370943
_cell_length_c 9.254673
_cell_angle_alpha 90.000000
_cell_angle_beta 52.784272
_cell_angle_gamma 90.000000
_cell_volume 3118.463199
_symmetry_space_group_name_H-M "C 2/M"
_symmetry_group_IT_number 12
_symmetry_cell_setting 'monoclinic'
loop_
_space_group_symop_operation_xyz
x,y,z
-x,y,-z
-x,-y,-z
x,-y,z
1/2+x,1/2+y,z
1/2-x,1/2+y,-z
1/2-x,1/2-y,-z
1/2+x,1/2-y,z
loop_
_atom_site_type_symbol
_atom_site_label
_atom_site_fract_x
_atom_site_fract_y
_atom_site_fract_z
Si Si1 0.017780 0.900524 0.650474
Si Si2 0.928353 0.192575 0.807140
Si Si3 0.440986 0.200566 0.784635
Si Si4 0.608906 0.448013 0.993844
Si Si5 0.732940 0.698643 0.779228
Si Si6 0.230506 0.944824 0.596503
Si Si7 0.780457 0.305449 0.196173
Si Si8 0.332702 0.854232 0.432216
O O1 0.123594 0.929995 0.603302
O O2 0.000000 0.911671 0.500000
O O3 0.028214 0.844347 0.673483
O O4 0.905368 0.914883 0.852078
O O5 0.980606 0.244807 0.744451
O O6 0.832213 0.184633 0.781916
O O7 0.874562 0.184372 0.018511
O O8 0.348455 0.192227 0.753473
O O9 0.546085 0.167158 0.650229
O O10 0.389777 0.187945 0.989497
O O11 0.628325 0.500000 0.037929
O O12 0.711179 0.434531 0.786552
O O13 0.500000 0.446782 0.000000
O O14 0.719618 0.752561 0.741433
O O15 0.738017 0.665877 0.633988
O O16 0.334537 0.911281 0.447627
O O17 0.257418 0.000000 0.542730
O O18 0.790433 0.343042 0.313229
#
# Coordination Sequence:
#
# PCOD8112550 Si02
#       8
#     8   8   8   8   8   8   8   8
#     4  11  20  31  53  83 110 140 177 212 254 317
#     4   9  19  36  51  74 115 150 169 200 257 311
#     4   9  20  36  54  76 112 148 171 205 257 312
#     4   8  16  33  51  67  96 135 172 213 262 308
#     4   9  19  35  55  79 109 142 176 210 249 306
#     4  10  23  39  52  73 105 138 175 225 278 318
#     4   9  19  35  52  79 114 142 168 210 259 305
#     4  12  20  32  57  82 101 134 184 222 253 306
#
# _framework density 20.522931
#
# number of rings (size 3 to 8) (size 9 to 14) (size 15 to 20)
#    0.000    2.375    0.000    5.250    0.000    5.000 
#    0.000    3.750    0.000    3.000    0.000    3.500 
#    0.000    0.000    0.000    0.000    0.000    0.000 
#
# Total GULP energy -396661.591664 kJ/mol
# GULP energy per Si atom -12395.674740 kJ/mol
# Density = 2.047622 g / cm^3
# Si number density = 20.522931 Si / 1000 Ang^3
#
#
#
# Elastic Constant Matrix: (Units=GPa)
#
#
# Indices 1 2 3 4 5 6 
#
# 1 44.2130 29.9061 32.0125 0.0000 -1.7786 0.0000
# 2 29.9061 135.5858 66.4763 0.0000 -0.5255 0.0000
# 3 32.0125 66.4763 99.6393 0.0000 20.7204 0.0000
# 4 0.0000 0.0000 0.0000 33.1206 0.0000 -9.0353
# 5 -1.7786 -0.5255 20.7204 0.0000 26.2811 0.0000
# 6 0.0000 0.0000 0.0000 -9.0353 0.0000 19.6618
#
#
#
# Elastic Compliance Matrix: (Units=1/GPa)
#
#
# Indices 1 2 3 4 5 6 
#
# 1 0.032705 -0.001214 -0.012144 0.000000 0.011763 0.000000
# 2 -0.001214 0.012261 -0.009358 0.000000 0.007541 0.000000
# 3 -0.012144 -0.009358 0.024390 0.000000 -0.020238 0.000000
# 4 0.000000 0.000000 0.000000 0.034520 0.000000 0.015863
# 5 0.011763 0.007541 -0.020238 0.000000 0.054953 0.000000
# 6 0.000000 0.000000 0.000000 0.015863 0.000000 0.058150
#
#
# Mechanical properties :
#
#
# Convention : Reuss Voigt Hill
#
# Bulk Modulus (GPa) = 41.79983 59.58087 50.69035
# Shear Modulus (GPa) = 18.49219 25.88225 22.18722
#
# Velocity S-wave (km/s) = 3.00501 3.55510 3.29157
# Velocity P-wave (km/s) = 5.69664 6.77835 6.26090
#
# Compressibility (1/GPa) = 0.02392354
#
# Stress axis : x y z
#
# Youngs Moduli (GPa) = 30.57634 81.56253 41.00090
#
# Poissons Ratio (x) = 0.09903 0.49791
# Poissons Ratio (y) = 0.03712 0.38368
# Poissons Ratio (z) = 0.37131 0.76326
#
# Static dielectric constant tensor:
#      x y z
#    x 3.278570 0.000000 0.077220 
#    y 0.000000 3.766880 0.000000 
#    z 0.077220 0.000000 4.010940 
# 
# 
# High freq. dielectric constant tensor:
#      x y z
#    x 1.769420 0.000000 0.014550 
#    y 0.000000 1.793430 0.000000 
#    z 0.014550 0.000000 1.811020 
# 
# From -- ./inp_files/68242.got.cif
#   From: 2010.06.25/outbox.cif.g09.slc.cpg/sg12_35_cif.got.tgz:68242.got - 2010.06.28 00:19:55.
