data_PCOD8112898
_publ_section_title
;
Structure prediction by ZEFSAII (Michael W. Deem and Ramdas Pophale) SiO2 
 PCOD8112898
Probable space group: C 2/M
;
_chemical_formula_sum "Si O2"
_cell_formula_units_Z 40
_cell_length_a 9.494213
_cell_length_b 9.644536
_cell_length_c 21.868685
_cell_angle_alpha 90.000000
_cell_angle_beta 76.936232
_cell_angle_gamma 90.000000
_cell_volume 1950.630618
_symmetry_space_group_name_H-M "C 2/M"
_symmetry_group_IT_number 12
_symmetry_cell_setting 'monoclinic'
loop_
_space_group_symop_operation_xyz
x,y,z
-x,y,-z
-x,-y,-z
x,-y,z
1/2+x,1/2+y,z
1/2-x,1/2+y,-z
1/2-x,1/2-y,-z
1/2+x,1/2-y,z
loop_
_atom_site_type_symbol
_atom_site_label
_atom_site_fract_x
_atom_site_fract_y
_atom_site_fract_z
Si Si1 0.984750 0.655994 0.132055
Si Si2 0.387715 0.500000 0.566122
Si Si3 0.897670 0.746091 0.649766
Si Si4 0.394445 0.163753 0.275146
Si Si5 0.954385 0.500000 0.434579
Si Si6 0.232853 0.839318 0.062415
O O1 0.051813 0.500000 0.127036
O O2 0.893510 0.682380 0.202425
O O3 0.882091 0.670040 0.083909
O O4 0.108264 0.771445 0.115851
O O5 0.500000 0.500000 0.500000
O O6 0.432060 0.376553 0.605525
O O7 0.220337 0.500000 0.558493
O O8 0.727959 0.744753 0.680117
O O9 0.963233 0.735588 0.711545
O O10 0.966136 0.626961 0.603396
O O11 0.379015 0.000000 0.294454
O O12 0.000000 0.500000 0.500000
O O13 0.194877 0.000000 0.051228
O O14 0.250000 0.750000 0.000000
#
# Coordination Sequence:
#
# PCOD8112898 Si02
#       6
#     8   4   8   8   4   8
#     4  10  23  42  65  93 131 173 217 270 325 381
#     4  12  28  46  68  98 130 170 217 269 322 392
#     4  12  22  46  67  93 131 169 214 268 328 382
#     4  11  23  44  66  96 131 167 219 272 321 390
#     4  12  28  46  66  98 132 164 219 267 320 392
#     4  11  23  41  65  97 133 175 220 267 324 384
#
# _framework density 20.50619
#
# number of rings (size 3 to 8) (size 9 to 14) (size 15 to 20)
#    0.000    0.800    4.000    3.000    2.800    5.600 
#    3.600    0.000    0.000    0.000    0.000    0.000 
#    0.000    0.000    0.000    0.000    0.000    0.000 
#
# Total GULP energy -247852.475997 kJ/mol
# GULP energy per Si atom -12392.623800 kJ/mol
# Density = 2.045952 g / cm^3
# Si number density = 20.506190 Si / 1000 Ang^3
#
#
#
# Elastic Constant Matrix: (Units=GPa)
#
#
# Indices 1 2 3 4 5 6 
#
# 1 79.1799 54.3369 30.0390 0.0000 -4.4944 0.0000
# 2 54.3369 140.7644 54.3660 0.0000 -6.8666 0.0000
# 3 30.0390 54.3660 116.9904 0.0000 4.9815 0.0000
# 4 0.0000 0.0000 0.0000 34.8355 0.0000 -4.6010
# 5 -4.4944 -6.8666 4.9815 0.0000 43.7381 0.0000
# 6 0.0000 0.0000 0.0000 -4.6010 0.0000 37.8908
#
#
#
# Elastic Compliance Matrix: (Units=1/GPa)
#
#
# Indices 1 2 3 4 5 6 
#
# 1 0.017483 -0.006029 -0.001732 0.000000 0.001047 0.000000
# 2 -0.006029 0.010885 -0.003574 0.000000 0.001496 0.000000
# 3 -0.001732 -0.003574 0.010737 0.000000 -0.001962 0.000000
# 4 0.000000 0.000000 0.000000 0.029174 0.000000 0.003543
# 5 0.001047 0.001496 -0.001962 0.000000 0.023429 0.000000
# 6 0.000000 0.000000 0.000000 0.003543 0.000000 0.026822
#
#
# Mechanical properties :
#
#
# Convention : Reuss Voigt Hill
#
# Bulk Modulus (GPa) = 60.84497 68.26873 64.55685
# Shear Modulus (GPa) = 34.08837 36.50572 35.29705
#
# Velocity S-wave (km/s) = 4.08161 4.22385 4.15334
# Velocity P-wave (km/s) = 7.20754 7.55989 7.38582
#
# Compressibility (1/GPa) = 0.01643521
#
# Stress axis : x y z
#
# Youngs Moduli (GPa) = 57.19779 91.87375 93.13777
#
# Poissons Ratio (x) = 0.55388 0.16133
# Poissons Ratio (y) = 0.34483 0.33286
# Poissons Ratio (z) = 0.09907 0.32834
#
# Static dielectric constant tensor:
#      x y z
#    x 3.945810 0.000000 0.168580 
#    y 0.000000 3.873650 0.000000 
#    z 0.168580 0.000000 4.012910 
# 
# 
# High freq. dielectric constant tensor:
#      x y z
#    x 1.802130 0.000000 0.002210 
#    y 0.000000 1.807510 0.000000 
#    z 0.002210 0.000000 1.827130 
# 
# From -- ./inp_files/331779.got.cif
#   From: 2010.06.25/outbox.cif.g09.slc.cpg/sg12_166_cif.got.tgz:331779.got - 2010.06.28 00:19:55.
