data_PCOD8112215
_publ_section_title
;
Structure prediction by ZEFSAII (Michael W. Deem and Ramdas Pophale) SiO2 
 PCOD8112215
Probable space group: C 2/M
;
_chemical_formula_sum "Si O2"
_cell_formula_units_Z 64
_cell_length_a 18.934083
_cell_length_b 8.824039
_cell_length_c 30.266351
_cell_angle_alpha 90.000000
_cell_angle_beta 38.806140
_cell_angle_gamma 90.000000
_cell_volume 3169.003145
_symmetry_space_group_name_H-M "C 2/M"
_symmetry_group_IT_number 12
_symmetry_cell_setting 'monoclinic'
loop_
_space_group_symop_operation_xyz
x,y,z
-x,y,-z
-x,-y,-z
x,-y,z
1/2+x,1/2+y,z
1/2-x,1/2+y,-z
1/2-x,1/2-y,-z
1/2+x,1/2-y,z
loop_
_atom_site_type_symbol
_atom_site_label
_atom_site_fract_x
_atom_site_fract_y
_atom_site_fract_z
Si Si1 0.779586 0.320562 0.939062
Si Si2 0.371382 0.678169 0.568715
Si Si3 0.751817 0.177422 0.287790
Si Si4 0.285764 0.179236 0.436877
Si Si5 0.474104 0.673283 0.295658
Si Si6 0.714257 0.328401 0.217889
Si Si7 0.528625 0.177969 0.793692
Si Si8 0.630264 0.822625 0.936714
O O1 0.776500 0.500000 0.944051
O O2 0.904653 0.262389 0.866110
O O3 0.691481 0.269307 0.945239
O O4 0.750000 0.250000 0.000000
O O5 0.500000 0.733914 0.500000
O O6 0.366661 0.500000 0.579311
O O7 0.318209 0.754431 0.637671
O O8 0.302827 0.724057 0.558249
O O9 0.695209 0.218642 0.268655
O O10 0.878407 0.242338 0.221174
O O11 0.755481 0.000000 0.292681
O O12 0.250000 0.250000 0.500000
O O13 0.405873 0.257425 0.369654
O O14 0.299096 0.000000 0.434720
O O15 0.437887 0.500000 0.304274
O O16 0.606035 0.685261 0.239638
O O17 0.440516 0.777498 0.271014
O O18 0.729465 0.500000 0.227933
O O19 0.819364 0.279809 0.135854
O O20 0.539347 0.000000 0.794846
O O21 0.647014 0.000000 0.938392
O O22 0.500000 0.775650 0.000000
#
# Coordination Sequence:
#
# PCOD8112215 Si02
#       8
#     8   8   8   8   8   8   8   8
#     4  11  25  42  65  94 127 166 211 262 314 373
#     4  10  23  44  66  89 124 169 211 253 311 374
#     4  12  26  41  64  96 128 164 210 262 310 368
#     4  11  24  41  64  93 127 167 208 259 313 371
#     4  11  22  40  67  94 123 162 209 262 315 371
#     4  10  23  42  64  91 128 169 208 255 314 376
#     4  11  23  42  66  91 124 166 209 259 317 374
#     4  10  22  42  66  93 127 168 211 256 313 376
#
# _framework density 20.195625
#
# number of rings (size 3 to 8) (size 9 to 14) (size 15 to 20)
#    0.000    1.250    2.500    2.625    3.500    4.000 
#    0.000    0.000    0.000    0.000    0.000    0.000 
#    0.000    0.000    0.000    0.000    0.000    0.000 
#
# Total GULP energy -396940.187037 kJ/mol
# GULP energy per Si atom -12404.380845 kJ/mol
# Density = 2.014966 g / cm^3
# Si number density = 20.195625 Si / 1000 Ang^3
#
#
#
# Elastic Constant Matrix: (Units=GPa)
#
#
# Indices 1 2 3 4 5 6 
#
# 1 82.0663 38.4160 38.9609 -0.0015 5.2265 -0.0182
# 2 38.4160 72.0819 44.6702 0.0021 0.1372 -0.0093
# 3 38.9609 44.6702 132.3039 0.0007 -1.3734 0.0007
# 4 -0.0015 0.0021 0.0007 29.2444 0.0027 3.0103
# 5 5.2265 0.1372 -1.3734 0.0027 38.1294 0.0024
# 6 -0.0182 -0.0093 0.0007 3.0103 0.0024 37.3483
#
#
#
# Elastic Compliance Matrix: (Units=1/GPa)
#
#
# Indices 1 2 3 4 5 6 
#
# 1 0.017053 -0.007532 -0.002503 0.000001 -0.002401 0.000007
# 2 -0.007532 0.020874 -0.004821 -0.000002 0.000784 0.000002
# 3 -0.002503 -0.004821 0.009931 0.000000 0.000718 -0.000003
# 4 0.000001 -0.000002 0.000000 0.034481 -0.000002 -0.002779
# 5 -0.002401 0.000784 0.000718 -0.000002 0.026579 -0.000002
# 6 0.000007 0.000002 -0.000003 -0.002779 -0.000002 0.026999
#
#
# Mechanical properties :
#
#
# Convention : Reuss Voigt Hill
#
# Bulk Modulus (GPa) = 55.11737 58.94960 57.03348
# Shear Modulus (GPa) = 29.12440 31.90474 30.51457
#
# Velocity S-wave (km/s) = 3.80164 3.97896 3.89131
# Velocity P-wave (km/s) = 6.82795 7.09663 6.96359
#
# Compressibility (1/GPa) = 0.01814310
#
# Stress axis : x y z
#
# Youngs Moduli (GPa) = 58.64233 47.90698 100.69548
#
# Poissons Ratio (x) = 0.36084 0.25209
# Poissons Ratio (y) = 0.44170 0.48550
# Poissons Ratio (z) = 0.14681 0.23098
#
# Static dielectric constant tensor:
#      x y z
#    x 3.520100 0.000000 -0.110350 
#    y 0.000000 3.649440 0.000010 
#    z -0.110350 0.000010 3.879050 
# 
# 
# High freq. dielectric constant tensor:
#      x y z
#    x 1.794040 0.000000 -0.002670 
#    y 0.000000 1.788240 0.000000 
#    z -0.002670 0.000000 1.804440 
# 
# From -- ./inp_files/378007.got.cif
#   From: 2010.06.25/outbox.cif.g09.slc.cpg/sg12_190_cif.got.tgz:378007.got - 2010.06.28 00:19:55.
