data_PCOD8112147
_publ_section_title
;
Structure prediction by ZEFSAII (Michael W. Deem and Ramdas Pophale) SiO2 
 PCOD8112147
Probable space group: C 2/M
;
_chemical_formula_sum "Si O2"
_cell_formula_units_Z 56
_cell_length_a 9.348129
_cell_length_b 14.415423
_cell_length_c 19.955203
_cell_angle_alpha 90.000000
_cell_angle_beta 90.603712
_cell_angle_gamma 90.000000
_cell_volume 2688.958681
_symmetry_space_group_name_H-M "C 2/M"
_symmetry_group_IT_number 12
_symmetry_cell_setting 'monoclinic'
loop_
_space_group_symop_operation_xyz
x,y,z
-x,y,-z
-x,-y,-z
x,-y,z
1/2+x,1/2+y,z
1/2-x,1/2+y,-z
1/2-x,1/2-y,-z
1/2+x,1/2-y,z
loop_
_atom_site_type_symbol
_atom_site_label
_atom_site_fract_x
_atom_site_fract_y
_atom_site_fract_z
Si Si1 0.086823 0.891741 0.563900
Si Si2 0.839157 0.110182 0.007743
Si Si3 0.330546 0.108778 0.863256
Si Si4 0.773390 0.741360 0.234797
Si Si5 0.026898 0.759474 0.327592
Si Si6 0.582694 0.107471 0.433205
Si Si7 0.161233 0.391433 0.879994
O O1 0.252225 0.868165 0.553609
O O2 0.000000 0.851838 0.500000
O O3 0.028258 0.846224 0.630745
O O4 0.059055 0.000000 0.571974
O O5 0.772219 0.144042 0.077457
O O6 0.841502 0.000000 0.006606
O O7 0.737202 0.146115 0.947629
O O8 0.000000 0.149942 0.000000
O O9 0.282422 0.161918 0.796275
O O10 0.493513 0.131958 0.883957
O O11 0.311841 0.000000 0.848701
O O12 0.685750 0.718732 0.302044
O O13 0.761608 0.658858 0.181401
O O14 0.936369 0.749222 0.259195
O O15 0.020712 0.665875 0.371271
O O16 0.500000 0.135171 0.500000
O O17 0.559775 0.000000 0.414820
O O18 0.187856 0.500000 0.869988
#
# Coordination Sequence:
#
# PCOD8112147 Si02
#       7
#     8   8   8   8   8   8   8
#     4  10  23  43  67  95 124 158 204 255 305 355
#     4   9  19  36  63  94 119 153 205 263 313 354
#     4  10  22  42  65  87 121 165 206 253 308 367
#     4  12  26  41  60  93 126 164 210 247 301 370
#     4  12  25  42  63  90 128 167 202 249 303 365
#     4  10  23  43  68  94 122 161 206 251 302 361
#     4  10  22  42  64  88 122 162 207 255 306 367
#
# _framework density 20.825906
#
# number of rings (size 3 to 8) (size 9 to 14) (size 15 to 20)
#    0.000    1.571    2.857    0.857    4.000    5.714 
#    0.000    0.000    0.000    0.000    0.000    0.000 
#    0.000    0.000    0.000    0.000    0.000    0.000 
#
# Total GULP energy -347352.113456 kJ/mol
# GULP energy per Si atom -12405.432623 kJ/mol
# Density = 2.077851 g / cm^3
# Si number density = 20.825906 Si / 1000 Ang^3
#
#
#
# Elastic Constant Matrix: (Units=GPa)
#
#
# Indices 1 2 3 4 5 6 
#
# 1 114.4697 44.9897 55.1353 0.0000 -2.4891 0.0000
# 2 44.9897 60.0553 41.9927 0.0000 -1.1794 0.0000
# 3 55.1353 41.9927 120.0091 0.0000 -5.3312 0.0000
# 4 0.0000 0.0000 0.0000 37.8800 0.0000 -1.4003
# 5 -2.4891 -1.1794 -5.3312 0.0000 53.8993 0.0000
# 6 0.0000 0.0000 0.0000 -1.4003 0.0000 25.4928
#
#
#
# Elastic Compliance Matrix: (Units=1/GPa)
#
#
# Indices 1 2 3 4 5 6 
#
# 1 0.013409 -0.007598 -0.003497 0.000000 0.000107 0.000000
# 2 -0.007598 0.026354 -0.005746 0.000000 -0.000343 0.000000
# 3 -0.003497 -0.005746 0.011990 0.000000 0.000899 0.000000
# 4 0.000000 0.000000 0.000000 0.026453 0.000000 0.001453
# 5 0.000107 -0.000343 0.000899 0.000000 0.018639 0.000000
# 6 0.000000 0.000000 0.000000 0.001453 0.000000 0.039307
#
#
# Mechanical properties :
#
#
# Convention : Reuss Voigt Hill
#
# Bulk Modulus (GPa) = 55.33752 64.30770 59.82261
# Shear Modulus (GPa) = 28.43210 33.61551 31.02381
#
# Velocity S-wave (km/s) = 3.69891 4.02197 3.86382
# Velocity P-wave (km/s) = 6.69864 7.24666 6.97803
#
# Compressibility (1/GPa) = 0.01807092
#
# Stress axis : x y z
#
# Youngs Moduli (GPa) = 74.57837 37.94452 83.40291
#
# Poissons Ratio (x) = 0.28829 0.29167
# Poissons Ratio (y) = 0.56662 0.47926
# Poissons Ratio (z) = 0.26081 0.21804
#
# Static dielectric constant tensor:
#      x y z
#    x 3.956480 0.000000 0.051970 
#    y 0.000000 3.602110 0.000000 
#    z 0.051970 0.000000 3.777130 
# 
# 
# High freq. dielectric constant tensor:
#      x y z
#    x 1.827590 0.000000 -0.001970 
#    y 0.000000 1.812280 0.000000 
#    z -0.001970 0.000000 1.819670 
# 
# From -- ./inp_files/300162.got.cif
#   From: 2010.06.25/outbox.cif.g09.slc.cpg/sg12_151_cif.got.tgz:300162.got - 2010.06.28 00:19:55.
