data_PCOD8112375
_publ_section_title
;
Structure prediction by ZEFSAII (Michael W. Deem and Ramdas Pophale) SiO2 
 PCOD8112375
Probable space group: C 2/M
;
_chemical_formula_sum "Si O2"
_cell_formula_units_Z 36
_cell_length_a 9.498136
_cell_length_b 14.196823
_cell_length_c 20.882744
_cell_angle_alpha 90.000000
_cell_angle_beta 37.636358
_cell_angle_gamma 90.000000
_cell_volume 1719.522703
_symmetry_space_group_name_H-M "C 2/M"
_symmetry_group_IT_number 12
_symmetry_cell_setting 'monoclinic'
loop_
_space_group_symop_operation_xyz
x,y,z
-x,y,-z
-x,-y,-z
x,-y,z
1/2+x,1/2+y,z
1/2-x,1/2+y,-z
1/2-x,1/2-y,-z
1/2+x,1/2-y,z
loop_
_atom_site_type_symbol
_atom_site_label
_atom_site_fract_x
_atom_site_fract_y
_atom_site_fract_z
Si Si1 0.195120 0.500000 0.485236
Si Si2 0.675424 0.299958 0.724775
Si Si3 0.740623 0.201204 0.070654
Si Si4 0.817906 0.500000 0.722036
Si Si5 0.885571 0.195992 0.396830
Si Si6 0.269385 0.000000 0.891353
O O1 0.371571 0.586168 0.417703
O O2 0.000000 0.500000 0.500000
O O3 0.072217 0.500000 0.598990
O O4 0.415127 0.265168 0.827509
O O5 0.684248 0.407313 0.746122
O O6 0.736300 0.290510 0.628001
O O7 0.852718 0.233853 0.699892
O O8 0.633505 0.094883 0.109770
O O9 0.750000 0.250000 0.000000
O O10 0.000000 0.197115 0.000000
O O11 0.835595 0.500000 0.792317
O O12 0.750000 0.250000 0.500000
O O13 0.000000 0.000000 0.000000
#
# Coordination Sequence:
#
# PCOD8112375 Si02
#       6
#     4   8   8   4   8   4
#     4  12  22  43  64  97 139 180 226 269 337 394
#     4  12  24  41  69  96 132 180 228 272 340 394
#     4  11  24  45  69 101 134 173 222 279 335 401
#     4  12  22  42  68  96 132 187 216 270 342 398
#     4  12  23  41  63  95 132 179 223 275 322 399
#     4  10  22  43  67  93 132 172 215 269 340 397
#
# _framework density 20.936043000000002
#
# number of rings (size 3 to 8) (size 9 to 14) (size 15 to 20)
#    0.000    0.444    4.444    6.000    0.000    0.889 
#    0.000    7.778    0.000    0.000    0.000    0.000 
#    0.000    0.000    0.000    0.000    0.000    0.000 
#
# Total GULP energy -223158.569310 kJ/mol
# GULP energy per Si atom -12397.698295 kJ/mol
# Density = 2.088839 g / cm^3
# Si number density = 20.936043 Si / 1000 Ang^3
#
#
#
# Elastic Constant Matrix: (Units=GPa)
#
#
# Indices 1 2 3 4 5 6 
#
# 1 87.6093 66.7508 29.3744 0.0032 25.0741 -0.0013
# 2 66.7508 218.1509 61.4088 0.0040 3.7177 -0.0024
# 3 29.3744 61.4088 101.8333 0.0084 15.3279 -0.0031
# 4 0.0032 0.0040 0.0084 35.3195 -0.0031 3.4384
# 5 25.0741 3.7177 15.3279 -0.0031 50.6994 0.0015
# 6 -0.0013 -0.0024 -0.0031 3.4384 0.0015 31.9586
#
#
#
# Elastic Compliance Matrix: (Units=1/GPa)
#
#
# Indices 1 2 3 4 5 6 
#
# 1 0.017958 -0.005114 -0.000855 -0.000002 -0.008248 0.000001
# 2 -0.005114 0.006997 -0.003193 0.000001 0.002981 0.000000
# 3 -0.000855 -0.003193 0.012460 -0.000003 -0.003110 0.000001
# 4 -0.000002 0.000001 -0.000003 0.028613 0.000004 -0.003078
# 5 -0.008248 0.002981 -0.003110 0.000004 0.024525 -0.000002
# 6 0.000001 0.000000 0.000001 -0.003078 -0.000002 0.031622
#
#
# Mechanical properties :
#
#
# Convention : Reuss Voigt Hill
#
# Bulk Modulus (GPa) = 52.37887 80.29573 66.33730
# Shear Modulus (GPa) = 34.04603 40.26613 37.15608
#
# Velocity S-wave (km/s) = 4.03698 4.39029 4.21734
# Velocity P-wave (km/s) = 6.84123 8.00848 7.44776
#
# Compressibility (1/GPa) = 0.01909167
#
# Stress axis : x y z
#
# Youngs Moduli (GPa) = 55.68690 142.92602 80.25598
#
# Poissons Ratio (x) = 0.73085 0.06861
# Poissons Ratio (y) = 0.28476 0.25625
# Poissons Ratio (z) = 0.04761 0.45635
#
# Static dielectric constant tensor:
#      x y z
#    x 3.684250 0.000000 0.120240 
#    y 0.000000 4.567880 -0.000040 
#    z 0.120240 -0.000040 4.210770 
# 
# 
# High freq. dielectric constant tensor:
#      x y z
#    x 1.797420 0.000000 0.018230 
#    y 0.000000 1.843070 0.000000 
#    z 0.018230 0.000000 1.835060 
# 
# From -- ./inp_files/300111.got.cif
#   From: 2010.06.25/outbox.cif.g09.slc.cpg/sg12_151_cif.got.tgz:300111.got - 2010.06.28 00:19:55.
