data_PCOD8112517
_publ_section_title
;
Structure prediction by ZEFSAII (Michael W. Deem and Ramdas Pophale) SiO2 
 PCOD8112517
Probable space group: C 2/M
;
_chemical_formula_sum "Si O2"
_cell_formula_units_Z 56
_cell_length_a 20.672761
_cell_length_b 25.428502
_cell_length_c 10.035196
_cell_angle_alpha 90.000000
_cell_angle_beta 33.082503
_cell_angle_gamma 90.000000
_cell_volume 2879.488453
_symmetry_space_group_name_H-M "C 2/M"
_symmetry_group_IT_number 12
_symmetry_cell_setting 'monoclinic'
loop_
_space_group_symop_operation_xyz
x,y,z
-x,y,-z
-x,-y,-z
x,-y,z
1/2+x,1/2+y,z
1/2-x,1/2+y,-z
1/2-x,1/2-y,-z
1/2+x,1/2-y,z
loop_
_atom_site_type_symbol
_atom_site_label
_atom_site_fract_x
_atom_site_fract_y
_atom_site_fract_z
Si Si1 0.766800 0.438287 0.553958
Si Si2 0.869683 0.942603 0.753922
Si Si3 0.765169 0.094052 0.686318
Si Si4 0.044993 0.820173 0.572070
Si Si5 0.498687 0.123942 0.854330
Si Si6 0.686715 0.634377 0.925338
Si Si7 0.079947 0.699705 0.490572
O O1 0.752271 0.500000 0.612898
O O2 0.713950 0.426293 0.499239
O O3 0.693437 0.401887 0.782497
O O4 0.905282 0.422988 0.323998
O O5 0.806587 0.949475 0.720361
O O6 0.000000 0.919142 0.500000
O O7 0.878354 0.000000 0.806784
O O8 0.798814 0.903778 0.972676
O O9 0.838610 0.146924 0.590843
O O10 0.628379 0.100571 0.956794
O O11 0.085535 0.760401 0.520032
O O12 0.000000 0.829543 0.500000
O O13 0.939045 0.835600 0.856282
O O14 0.522712 0.171008 0.713807
O O15 0.500000 0.148362 0.000000
O O16 0.787969 0.678324 0.761679
O O17 0.000000 0.688910 0.500000
#
# Coordination Sequence:
#
# PCOD8112517 Si02
#       7
#     8   8   8   8   8   8   8
#     4  10  23  41  62  88 120 159 198 248 303 346
#     4  11  21  36  59  86 120 158 195 240 294 352
#     4  11  20  39  61  87 120 157 203 241 290 367
#     4  11  23  39  61  90 122 159 198 248 300 352
#     4   9  21  40  60  86 122 152 200 249 292 353
#     4  11  21  42  58  89 126 152 195 256 294 350
#     4  10  23  37  63  90 115 162 201 246 302 350
#
# _framework density 19.447899
#
# number of rings (size 3 to 8) (size 9 to 14) (size 15 to 20)
#    0.000    1.571    2.857    1.714    2.000    4.857 
#    2.571    2.857    0.000    4.714    0.000    0.000 
#    0.000    0.000    0.000    0.000    0.000    0.000 
#
# Total GULP energy -347149.708350 kJ/mol
# GULP energy per Si atom -12398.203870 kJ/mol
# Density = 1.940364 g / cm^3
# Si number density = 19.447899 Si / 1000 Ang^3
#
#
#
# Elastic Constant Matrix: (Units=GPa)
#
#
# Indices 1 2 3 4 5 6 
#
# 1 95.6815 34.1344 40.0999 0.0001 2.6376 -0.0002
# 2 34.1344 138.5041 49.2291 -0.0001 8.3229 0.0000
# 3 40.0999 49.2291 120.6536 -0.0001 6.2508 -0.0001
# 4 0.0001 -0.0001 -0.0001 25.3564 0.0001 0.9884
# 5 2.6376 8.3229 6.2508 0.0001 27.1982 0.0000
# 6 -0.0002 0.0000 -0.0001 0.9884 0.0000 28.2027
#
#
#
# Elastic Compliance Matrix: (Units=1/GPa)
#
#
# Indices 1 2 3 4 5 6 
#
# 1 0.012550 -0.001891 -0.003407 0.000000 0.000145 0.000000
# 2 -0.001891 0.008819 -0.002874 0.000000 -0.001855 0.000000
# 3 -0.003407 -0.002874 0.010657 0.000000 -0.001239 0.000000
# 4 0.000000 0.000000 0.000000 0.039492 0.000000 -0.001384
# 5 0.000145 -0.001855 -0.001239 0.000000 0.037606 0.000000
# 6 0.000000 0.000000 0.000000 -0.001384 0.000000 0.035506
#
#
# Mechanical properties :
#
#
# Convention : Reuss Voigt Hill
#
# Bulk Modulus (GPa) = 63.76343 66.86288 65.31315
# Shear Modulus (GPa) = 30.08424 31.57650 30.83037
#
# Velocity S-wave (km/s) = 3.93735 4.03382 3.98588
# Velocity P-wave (km/s) = 7.31630 7.49338 7.40537
#
# Compressibility (1/GPa) = 0.01568297
#
# Stress axis : x y z
#
# Youngs Moduli (GPa) = 79.68305 113.39338 93.83211
#
# Poissons Ratio (x) = 0.21438 0.31969
# Poissons Ratio (y) = 0.15065 0.26966
# Poissons Ratio (z) = 0.27148 0.32587
#
# Static dielectric constant tensor:
#      x y z
#    x 3.637370 0.000000 0.049380 
#    y 0.000000 3.574100 0.000000 
#    z 0.049380 0.000000 3.584710 
# 
# 
# High freq. dielectric constant tensor:
#      x y z
#    x 1.757450 0.000000 0.001570 
#    y 0.000000 1.765320 0.000000 
#    z 0.001570 0.000000 1.764760 
# 
# From -- ./inp_files/80004.got.cif
#   From: 2010.06.25/outbox.cif.g09.slc.cpg/sg12_41_cif.got.tgz:80004.got - 2010.06.28 00:19:55.
