data_PCOD8112283
_publ_section_title
;
Structure prediction by ZEFSAII (Michael W. Deem and Ramdas Pophale) SiO2 
 PCOD8112283
Probable space group: C 2/M
;
_chemical_formula_sum "Si O2"
_cell_formula_units_Z 48
_cell_length_a 20.788433
_cell_length_b 13.968740
_cell_length_c 11.661581
_cell_angle_alpha 90.000000
_cell_angle_beta 40.444498
_cell_angle_gamma 90.000000
_cell_volume 2196.786140
_symmetry_space_group_name_H-M "C 2/M"
_symmetry_group_IT_number 12
_symmetry_cell_setting 'monoclinic'
loop_
_space_group_symop_operation_xyz
x,y,z
-x,y,-z
-x,-y,-z
x,-y,z
1/2+x,1/2+y,z
1/2-x,1/2+y,-z
1/2-x,1/2-y,-z
1/2+x,1/2-y,z
loop_
_atom_site_type_symbol
_atom_site_label
_atom_site_fract_x
_atom_site_fract_y
_atom_site_fract_z
Si Si1 0.470636 0.241099 0.911837
Si Si2 0.364528 0.608437 0.920769
Si Si3 0.888527 0.196174 0.652751
Si Si4 0.707624 0.893473 0.784498
Si Si5 0.328598 0.104406 0.664708
Si Si6 0.823656 0.662978 0.419740
O O1 0.452864 0.339080 0.867841
O O2 0.561194 0.191318 0.723893
O O3 0.500000 0.269393 0.000000
O O4 0.374398 0.172086 0.041314
O O5 0.396779 0.500000 0.846832
O O6 0.339541 0.668607 0.840316
O O7 0.270648 0.610771 0.128730
O O8 0.817314 0.151033 0.652368
O O9 0.898135 0.309966 0.615275
O O10 0.000000 0.153194 0.500000
O O11 0.686960 0.904373 0.676977
O O12 0.702454 0.000000 0.845351
O O13 0.296477 0.111282 0.574915
O O14 0.379416 0.000000 0.615446
O O15 0.750000 0.750000 0.500000
#
# Coordination Sequence:
#
# PCOD8112283 Si02
#       6
#     8   8   8   8   8   8
#     4  10  22  42  68  96 134 170 216 271 324 384
#     4  11  24  43  67  95 129 173 218 263 323 396
#     4  12  25  46  67  92 133 170 223 277 321 388
#     4  11  24  42  69  97 129 176 222 270 327 383
#     4  11  23  42  68  97 132 171 216 267 327 393
#     4  11  21  42  68 100 137 169 211 269 327 387
#
# _framework density 21.850102
#
# number of rings (size 3 to 8) (size 9 to 14) (size 15 to 20)
#    0.000    1.000    3.333    3.500    0.000    5.667 
#    0.000    0.833    0.000    0.000    0.000    0.000 
#    0.000    0.000    0.000    0.000    0.000    0.000 
#
# Total GULP energy -297588.553895 kJ/mol
# GULP energy per Si atom -12399.523079 kJ/mol
# Density = 2.180037 g / cm^3
# Si number density = 21.850102 Si / 1000 Ang^3
#
#
#
# Elastic Constant Matrix: (Units=GPa)
#
#
# Indices 1 2 3 4 5 6 
#
# 1 99.2622 54.8514 45.6795 0.0000 -7.0653 0.0000
# 2 54.8514 143.2953 31.0730 0.0000 -0.1084 0.0000
# 3 45.6795 31.0730 103.5229 0.0000 1.8241 0.0000
# 4 0.0000 0.0000 0.0000 63.1562 0.0000 9.3449
# 5 -7.0653 -0.1084 1.8241 0.0000 47.8757 0.0000
# 6 0.0000 0.0000 0.0000 9.3449 0.0000 28.1345
#
#
#
# Elastic Compliance Matrix: (Units=1/GPa)
#
#
# Indices 1 2 3 4 5 6 
#
# 1 0.015327 -0.004695 -0.005397 0.000000 0.002457 0.000000
# 2 -0.004695 0.008903 -0.000589 0.000000 -0.000650 0.000000
# 3 -0.005397 -0.000589 0.012240 0.000000 -0.001264 0.000000
# 4 0.000000 0.000000 0.000000 0.016652 0.000000 -0.005531
# 5 0.002457 -0.000650 -0.001264 0.000000 0.021297 0.000000
# 6 0.000000 0.000000 0.000000 -0.005531 0.000000 0.037381
#
#
# Mechanical properties :
#
#
# Convention : Reuss Voigt Hill
#
# Bulk Modulus (GPa) = 66.19015 67.69867 66.94441
# Shear Modulus (GPa) = 36.17970 42.13170 39.15570
#
# Velocity S-wave (km/s) = 4.07358 4.39591 4.23781
# Velocity P-wave (km/s) = 7.24459 7.53763 7.39256
#
# Compressibility (1/GPa) = 0.01510799
#
# Stress axis : x y z
#
# Youngs Moduli (GPa) = 65.24296 112.32179 81.69670
#
# Poissons Ratio (x) = 0.52733 0.44094
# Poissons Ratio (y) = 0.30631 0.04814
# Poissons Ratio (z) = 0.35214 0.06618
#
# Static dielectric constant tensor:
#      x y z
#    x 3.989050 0.000000 0.145900 
#    y 0.000000 4.160120 0.000000 
#    z 0.145900 0.000000 3.978290 
# 
# 
# High freq. dielectric constant tensor:
#      x y z
#    x 1.860450 0.000000 0.009120 
#    y 0.000000 1.858910 0.000000 
#    z 0.009120 0.000000 1.862790 
# 
# From -- ./inp_files/143860.got.cif
#   From: 2010.06.25/outbox.cif.g09.slc.cpg/sg12_72_cif.got.tgz:143860.got - 2010.06.28 00:19:55.
