data_PCOD8112679
_publ_section_title
;
Structure prediction by ZEFSAII (Michael W. Deem and Ramdas Pophale) SiO2 
 PCOD8112679
Probable space group: C 2/M
;
_chemical_formula_sum "Si O2"
_cell_formula_units_Z 40
_cell_length_a 12.625353
_cell_length_b 12.843267
_cell_length_c 22.591168
_cell_angle_alpha 90.000000
_cell_angle_beta 150.691245
_cell_angle_gamma 90.000000
_cell_volume 1793.181925
_symmetry_space_group_name_H-M "C 2/M"
_symmetry_group_IT_number 12
_symmetry_cell_setting 'monoclinic'
loop_
_space_group_symop_operation_xyz
x,y,z
-x,y,-z
-x,-y,-z
x,-y,z
1/2+x,1/2+y,z
1/2-x,1/2+y,-z
1/2-x,1/2-y,-z
1/2+x,1/2-y,z
loop_
_atom_site_type_symbol
_atom_site_label
_atom_site_fract_x
_atom_site_fract_y
_atom_site_fract_z
Si Si1 0.942529 0.261795 0.815089
Si Si2 0.050946 0.821425 0.682247
Si Si3 0.241785 0.884293 0.365203
Si Si4 0.355460 0.623564 0.986253
Si Si5 0.111434 0.615395 0.434860
O O1 0.797130 0.344720 0.782345
O O2 0.761813 0.203854 0.686769
O O3 0.050001 0.174104 0.908360
O O4 0.116045 0.327010 0.861644
O O5 0.996168 0.870506 0.719241
O O6 0.028185 0.694629 0.671950
O O7 0.867446 0.865193 0.547146
O O8 0.422217 0.872416 0.508048
O O9 0.247918 0.000000 0.340585
O O10 0.340349 0.500000 0.987091
O O11 0.500000 0.653985 0.000000
O O12 0.044918 0.500000 0.382079
#
# Coordination Sequence:
#
# PCOD8112679 Si02
#       5
#     8   8   8   8   8
#     4  11  21  35  61  84 104 143 191 228 269 327
#     4   9  18  34  54  81 116 144 177 225 268 317
#     4   9  18  34  55  81 110 142 184 225 264 313
#     4  10  23  41  56  79 113 143 178 231 287 332
#     4   8  17  34  54  79 116 151 177 219 268 318
#
# _framework density 22.306716000000002
#
# number of rings (size 3 to 8) (size 9 to 14) (size 15 to 20)
#    1.200    1.400    0.000    1.800    0.000    4.000 
#    0.000    3.000    0.000    7.800    0.000    0.000 
#    0.000    0.000    0.000    0.000    0.000    0.000 
#
# Total GULP energy -247778.936116 kJ/mol
# GULP energy per Si atom -12388.946806 kJ/mol
# Density = 2.225594 g / cm^3
# Si number density = 22.306716 Si / 1000 Ang^3
#
#
#
# Elastic Constant Matrix: (Units=GPa)
#
#
# Indices 1 2 3 4 5 6 
#
# 1 71.6929 42.8548 32.6380 -0.0004 22.9279 0.0000
# 2 42.8548 101.0742 29.6060 0.0000 15.0673 0.0001
# 3 32.6380 29.6060 82.6641 0.0008 22.3069 -0.0002
# 4 -0.0004 0.0000 0.0008 19.2599 -0.0004 -4.5273
# 5 22.9279 15.0673 22.3069 -0.0004 30.6268 0.0000
# 6 0.0000 0.0001 -0.0002 -4.5273 0.0000 30.7828
#
#
#
# Elastic Compliance Matrix: (Units=1/GPa)
#
#
# Indices 1 2 3 4 5 6 
#
# 1 0.023587 -0.007229 -0.003632 0.000000 -0.011456 0.000000
# 2 -0.007229 0.013523 -0.002059 0.000000 0.000258 0.000000
# 3 -0.003632 -0.002059 0.016506 -0.000001 -0.008290 0.000000
# 4 0.000000 0.000000 -0.000001 0.053781 0.000001 0.007910
# 5 -0.011456 0.000258 -0.008290 0.000001 0.047138 0.000000
# 6 0.000000 0.000000 0.000000 0.007910 0.000000 0.033649
#
#
# Mechanical properties :
#
#
# Convention : Reuss Voigt Hill
#
# Bulk Modulus (GPa) = 36.00318 51.73653 43.86985
# Shear Modulus (GPa) = 22.39323 26.15605 24.27464
#
# Velocity S-wave (km/s) = 3.17184 3.42799 3.30240
# Velocity P-wave (km/s) = 5.43960 6.23793 5.85239
#
# Compressibility (1/GPa) = 0.02777533
#
# Stress axis : x y z
#
# Youngs Moduli (GPa) = 42.39674 73.94639 60.58526
#
# Poissons Ratio (x) = 0.53456 0.22007
# Poissons Ratio (y) = 0.30648 0.12474
# Poissons Ratio (z) = 0.15400 0.15225
#
# Static dielectric constant tensor:
#      x y z
#    x 4.064820 0.000000 0.498740 
#    y 0.000000 3.826600 0.000000 
#    z 0.498740 0.000000 4.061500 
# 
# 
# High freq. dielectric constant tensor:
#      x y z
#    x 1.876950 0.000000 0.037680 
#    y 0.000000 1.865620 0.000000 
#    z 0.037680 0.000000 1.872350 
# 
# From -- ./inp_files/358093.got.cif
#   From: 2010.06.25/outbox.cif.g09.slc.cpg/sg12_180_cif.got.tgz:358093.got - 2010.06.28 00:19:55.
