data_PCOD8112037
_publ_section_title
;
Structure prediction by ZEFSAII (Michael W. Deem and Ramdas Pophale) SiO2 
 PCOD8112037
Probable space group: C 2/M
;
_chemical_formula_sum "Si O2"
_cell_formula_units_Z 48
_cell_length_a 9.097528
_cell_length_b 15.182504
_cell_length_c 26.237472
_cell_angle_alpha 90.000000
_cell_angle_beta 141.609518
_cell_angle_gamma 90.000000
_cell_volume 2250.570856
_symmetry_space_group_name_H-M "C 2/M"
_symmetry_group_IT_number 12
_symmetry_cell_setting 'monoclinic'
loop_
_space_group_symop_operation_xyz
x,y,z
-x,y,-z
-x,-y,-z
x,-y,z
1/2+x,1/2+y,z
1/2-x,1/2+y,-z
1/2-x,1/2-y,-z
1/2+x,1/2-y,z
loop_
_atom_site_type_symbol
_atom_site_label
_atom_site_fract_x
_atom_site_fract_y
_atom_site_fract_z
Si Si1 0.836148 0.102411 0.800574
Si Si2 0.442424 0.102163 0.173465
Si Si3 0.472575 0.602776 0.335776
Si Si4 0.652932 0.342415 0.490264
Si Si5 0.742211 0.263607 0.939109
Si Si6 0.835738 0.599264 0.353818
O O1 0.641637 0.114302 0.791445
O O2 0.721526 0.140502 0.717084
O O3 0.062667 0.161667 0.872813
O O4 0.913527 0.000000 0.817597
O O5 0.299094 0.168549 0.098568
O O6 0.717107 0.130749 0.244988
O O7 0.405075 0.000000 0.145791
O O8 0.503063 0.500000 0.341058
O O9 0.489021 0.626715 0.399554
O O10 0.680507 0.646465 0.356754
O O11 0.500000 0.341581 0.500000
O O12 0.750000 0.250000 0.500000
O O13 0.884616 0.402303 0.559679
O O14 0.750000 0.250000 0.000000
O O15 0.000000 0.302308 0.000000
O O16 0.747022 0.500000 0.327196
#
# Coordination Sequence:
#
# PCOD8112037 Si02
#       6
#     8   8   8   8   8   8
#     4  10  23  44  68  96 132 175 220 269 325 392
#     4  10  23  44  69  95 131 177 221 266 325 395
#     4  10  22  41  66  95 128 169 213 262 318 380
#     4  12  25  40  61  93 129 173 216 263 315 374
#     4  12  26  44  67 100 130 169 213 271 336 394
#     4  10  22  41  66  95 129 168 212 264 318 379
#
# _framework density 21.327922999999998
#
# number of rings (size 3 to 8) (size 9 to 14) (size 15 to 20)
#    0.000    1.333    1.667    3.000    4.667    5.333 
#    0.000    0.000    0.000    0.000    0.000    0.000 
#    0.000    0.000    0.000    0.000    0.000    0.000 
#
# Total GULP energy -297483.898847 kJ/mol
# GULP energy per Si atom -12395.162452 kJ/mol
# Density = 2.127938 g / cm^3
# Si number density = 21.327923 Si / 1000 Ang^3
#
#
#
# Elastic Constant Matrix: (Units=GPa)
#
#
# Indices 1 2 3 4 5 6 
#
# 1 154.5147 30.1334 31.5002 0.0000 -5.2637 0.0000
# 2 30.1334 59.8781 38.8988 0.0000 1.8343 0.0000
# 3 31.5002 38.8988 79.8476 0.0000 -13.6847 0.0000
# 4 0.0000 0.0000 0.0000 37.7386 0.0000 2.1206
# 5 -5.2637 1.8343 -13.6847 0.0000 47.6775 0.0000
# 6 0.0000 0.0000 0.0000 2.1206 0.0000 28.5115
#
#
#
# Elastic Compliance Matrix: (Units=1/GPa)
#
#
# Indices 1 2 3 4 5 6 
#
# 1 0.007323 -0.002749 -0.001466 0.000000 0.000494 0.000000
# 2 -0.002749 0.026455 -0.012652 0.000000 -0.004953 0.000000
# 3 -0.001466 -0.012652 0.020321 0.000000 0.006158 0.000000
# 4 0.000000 0.000000 0.000000 0.026609 0.000000 -0.001979
# 5 0.000494 -0.004953 0.006158 0.000000 0.022987 0.000000
# 6 0.000000 0.000000 0.000000 -0.001979 0.000000 0.035221
#
#
# Mechanical properties :
#
#
# Convention : Reuss Voigt Hill
#
# Bulk Modulus (GPa) = 49.10010 55.03391 52.06700
# Shear Modulus (GPa) = 27.86474 35.69939 31.78207
#
# Velocity S-wave (km/s) = 3.61846 4.09569 3.86445
# Velocity P-wave (km/s) = 6.36625 6.94449 6.66165
#
# Compressibility (1/GPa) = 0.02036656
#
# Stress axis : x y z
#
# Youngs Moduli (GPa) = 136.54693 37.80006 49.20983
#
# Poissons Ratio (x) = 0.10390 0.07212
# Poissons Ratio (y) = 0.37531 0.62262
# Poissons Ratio (z) = 0.20011 0.47826
#
# Static dielectric constant tensor:
#      x y z
#    x 4.354310 0.000000 0.148270 
#    y 0.000000 3.736430 0.000000 
#    z 0.148270 0.000000 4.083770 
# 
# 
# High freq. dielectric constant tensor:
#      x y z
#    x 1.856520 0.000000 -0.001870 
#    y 0.000000 1.830670 0.000000 
#    z -0.001870 0.000000 1.842010 
# 
# From -- ./inp_files/356362.got.cif
#   From: 2010.06.25/outbox.cif.g09.slc.cpg/sg12_179_cif.got.tgz:356362.got - 2010.06.28 00:19:55.
