data_PCOD8112979
_publ_section_title
;
Structure prediction by ZEFSAII (Michael W. Deem and Ramdas Pophale) SiO2 
 PCOD8112979
Probable space group: C 2/M
;
_chemical_formula_sum "Si O2"
_cell_formula_units_Z 64
_cell_length_a 12.705098
_cell_length_b 25.944503
_cell_length_c 15.846207
_cell_angle_alpha 90.000000
_cell_angle_beta 36.700596
_cell_angle_gamma 90.000000
_cell_volume 3121.645801
_symmetry_space_group_name_H-M "C 2/M"
_symmetry_group_IT_number 12
_symmetry_cell_setting 'monoclinic'
loop_
_space_group_symop_operation_xyz
x,y,z
-x,y,-z
-x,-y,-z
x,-y,z
1/2+x,1/2+y,z
1/2-x,1/2+y,-z
1/2-x,1/2-y,-z
1/2+x,1/2-y,z
loop_
_atom_site_type_symbol
_atom_site_label
_atom_site_fract_x
_atom_site_fract_y
_atom_site_fract_z
Si Si1 0.408561 0.885654 0.141721
Si Si2 0.756081 0.149669 0.997620
Si Si3 0.877313 0.808867 0.747137
Si Si4 0.512346 0.558797 0.090016
Si Si5 0.807626 0.941203 0.590013
Si Si6 0.871606 0.691137 0.752849
Si Si7 0.307990 0.114349 0.641730
Si Si8 0.248668 0.850336 0.497631
O O1 0.553461 0.856718 0.103488
O O2 0.259666 0.844108 0.214971
O O3 0.326048 0.932656 0.246618
O O4 0.500000 0.909475 0.000000
O O5 0.755381 0.180455 0.085841
O O6 0.861729 0.180962 0.857891
O O7 0.846141 0.094107 0.953258
O O8 0.837756 0.750001 0.749984
O O9 0.072936 0.819552 0.585828
O O10 0.570700 0.500000 0.067069
O O11 0.319271 0.567344 0.253376
O O12 0.500000 0.572754 0.000000
O O13 0.752648 0.905898 0.546743
O O14 0.000000 0.927239 0.500000
O O15 0.795201 0.000000 0.567045
O O16 0.810386 0.655898 0.714975
O O17 0.077524 0.680959 0.642090
O O18 0.500000 0.090535 0.500000
O O19 0.239501 0.143274 0.603531
#
# Coordination Sequence:
#
# PCOD8112979 Si02
#       8
#     8   8   8   8   8   8   8   8
#     4  10  23  43  63  94 135 166 217 273 320 392
#     4  11  22  43  64  97 134 168 221 271 322 393
#     4  11  23  41  66  96 131 176 218 272 328 386
#     4  11  23  42  69  95 127 174 215 272 339 384
#     4  11  23  42  69  95 127 174 215 272 339 384
#     4  11  23  41  66  96 131 176 218 272 328 386
#     4  10  23  43  63  94 135 166 217 273 320 392
#     4  11  22  43  64  97 134 168 221 271 322 393
#
# _framework density 20.502005
#
# number of rings (size 3 to 8) (size 9 to 14) (size 15 to 20)
#    0.000    1.250    5.000    0.750    0.000    2.500 
#   13.500    3.750    0.000    0.000    0.000    0.000 
#    0.000    0.000    0.000    0.000    0.000    0.000 
#
# Total GULP energy -396859.950669 kJ/mol
# GULP energy per Si atom -12401.873458 kJ/mol
# Density = 2.045534 g / cm^3
# Si number density = 20.502005 Si / 1000 Ang^3
#
#
#
# Elastic Constant Matrix: (Units=GPa)
#
#
# Indices 1 2 3 4 5 6 
#
# 1 79.4744 23.8893 21.2242 0.0004 -0.2843 -0.0051
# 2 23.8893 76.3141 22.7738 0.0032 0.0358 0.0035
# 3 21.2242 22.7738 95.8159 0.0095 -0.1571 0.0035
# 4 0.0004 0.0032 0.0095 26.6227 -0.0031 -0.6059
# 5 -0.2843 0.0358 -0.1571 -0.0031 34.2142 -0.0004
# 6 -0.0051 0.0035 0.0035 -0.6059 -0.0004 4.7415
#
#
#
# Elastic Compliance Matrix: (Units=1/GPa)
#
#
# Indices 1 2 3 4 5 6 
#
# 1 0.014334 -0.003810 -0.002269 0.000002 0.000113 0.000020
# 2 -0.003810 0.015117 -0.002749 -0.000001 -0.000060 -0.000013
# 3 -0.002269 -0.002749 0.011593 -0.000004 0.000037 -0.000010
# 4 0.000002 -0.000001 -0.000004 0.037672 0.000003 0.004814
# 5 0.000113 -0.000060 0.000037 0.000003 0.029229 0.000003
# 6 0.000020 -0.000013 -0.000010 0.004814 0.000003 0.211520
#
#
# Mechanical properties :
#
#
# Convention : Reuss Voigt Hill
#
# Bulk Modulus (GPa) = 42.75905 43.04212 42.90059
# Shear Modulus (GPa) = 14.49621 25.36347 19.92984
#
# Velocity S-wave (km/s) = 2.66195 3.52109 3.12122
# Velocity P-wave (km/s) = 5.50902 6.12947 5.82751
#
# Compressibility (1/GPa) = 0.02338686
#
# Stress axis : x y z
#
# Youngs Moduli (GPa) = 69.76221 66.15127 86.25992
#
# Poissons Ratio (x) = 0.25204 0.19576
# Poissons Ratio (y) = 0.26580 0.23714
# Poissons Ratio (z) = 0.15832 0.18186
#
# Static dielectric constant tensor:
#      x y z
#    x 3.729100 0.000000 -0.008260 
#    y 0.000000 3.390730 0.000000 
#    z -0.008260 0.000000 4.033780 
# 
# 
# High freq. dielectric constant tensor:
#      x y z
#    x 1.806060 0.000000 -0.000470 
#    y 0.000000 1.782620 0.000000 
#    z -0.000470 0.000000 1.823240 
# 
# From -- ./inp_files/209396.got.cif
#   From: 2010.06.25/outbox.cif.g09.slc.cpg/sg12_105_cif.got.tgz:209396.got - 2010.06.28 00:19:55.
