data_PCOD8112381
_publ_section_title
;
Structure prediction by ZEFSAII (Michael W. Deem and Ramdas Pophale) SiO2 
 PCOD8112381
Probable space group: C 2/M
;
_chemical_formula_sum "Si O2"
_cell_formula_units_Z 48
_cell_length_a 9.347884
_cell_length_b 18.615431
_cell_length_c 13.382964
_cell_angle_alpha 90.000000
_cell_angle_beta 93.138375
_cell_angle_gamma 90.000000
_cell_volume 2325.342277
_symmetry_space_group_name_H-M "C 2/M"
_symmetry_group_IT_number 12
_symmetry_cell_setting 'monoclinic'
loop_
_space_group_symop_operation_xyz
x,y,z
-x,y,-z
-x,-y,-z
x,-y,z
1/2+x,1/2+y,z
1/2-x,1/2+y,-z
1/2-x,1/2-y,-z
1/2+x,1/2-y,z
loop_
_atom_site_type_symbol
_atom_site_label
_atom_site_fract_x
_atom_site_fract_y
_atom_site_fract_z
Si Si1 0.521610 0.304186 0.249154
Si Si2 0.135055 0.584260 0.435416
Si Si3 0.346335 0.683807 0.538230
Si Si4 0.345048 0.915024 0.962929
Si Si5 0.895502 0.921146 0.904372
Si Si6 0.694317 0.168198 0.238342
O O1 0.631619 0.320037 0.342920
O O2 0.539221 0.368034 0.172663
O O3 0.578557 0.229452 0.205692
O O4 0.352906 0.300896 0.272867
O O5 0.144137 0.500000 0.414812
O O6 0.277272 0.609098 0.499409
O O7 0.127311 0.624688 0.329039
O O8 0.000000 0.604424 0.500000
O O9 0.500000 0.696968 0.500000
O O10 0.250000 0.750000 0.500000
O O11 0.290090 0.881165 0.857954
O O12 0.336928 0.000000 0.946889
O O13 0.500000 0.887393 0.000000
O O14 0.251072 0.890529 0.054399
O O15 0.872401 0.000000 0.853558
O O16 0.000000 0.930240 0.000000
#
# Coordination Sequence:
#
# PCOD8112381 Si02
#       6
#     8   8   8   8   8   8
#     4  12  26  41  69  99 131 182 222 275 341 399
#     4  11  26  45  69  98 134 177 225 283 341 405
#     4  12  23  44  68  97 136 179 221 278 338 404
#     4  10  23  44  69  95 133 180 220 276 339 397
#     4  10  22  43  67  96 134 175 224 278 335 398
#     4  12  26  44  66  99 134 175 225 277 340 408
#
# _framework density 20.642120999999999
#
# number of rings (size 3 to 8) (size 9 to 14) (size 15 to 20)
#    0.000    0.833    5.000    1.000    4.667    3.000 
#    0.000    3.333    0.000    0.000    0.000    0.000 
#    0.000    0.000    0.000    0.000    0.000    0.000 
#
# Total GULP energy -297581.651674 kJ/mol
# GULP energy per Si atom -12399.235486 kJ/mol
# Density = 2.059514 g / cm^3
# Si number density = 20.642121 Si / 1000 Ang^3
#
#
#
# Elastic Constant Matrix: (Units=GPa)
#
#
# Indices 1 2 3 4 5 6 
#
# 1 142.1564 50.2306 30.6647 0.0000 -10.9457 0.0000
# 2 50.2306 99.3120 47.8709 0.0000 -15.4344 0.0000
# 3 30.6647 47.8709 89.9397 0.0000 -5.6526 0.0000
# 4 0.0000 0.0000 0.0000 42.5304 0.0000 2.1510
# 5 -10.9457 -15.4344 -5.6526 0.0000 38.2759 0.0000
# 6 0.0000 0.0000 0.0000 2.1510 0.0000 32.7576
#
#
#
# Elastic Compliance Matrix: (Units=1/GPa)
#
#
# Indices 1 2 3 4 5 6 
#
# 1 0.008634 -0.003831 -0.000854 0.000000 0.000798 0.000000
# 2 -0.003831 0.016035 -0.006955 0.000000 0.004343 0.000000
# 3 -0.000854 -0.006955 0.015060 0.000000 -0.000825 0.000000
# 4 0.000000 0.000000 0.000000 0.023591 0.000000 -0.001549
# 5 0.000798 0.004343 -0.000825 0.000000 0.027984 0.000000
# 6 0.000000 0.000000 0.000000 -0.001549 0.000000 0.030629
#
#
# Mechanical properties :
#
#
# Convention : Reuss Voigt Hill
#
# Bulk Modulus (GPa) = 60.80183 65.43783 63.11983
# Shear Modulus (GPa) = 33.17931 36.22226 34.70079
#
# Velocity S-wave (km/s) = 4.01354 4.19355 4.10453
# Velocity P-wave (km/s) = 7.14123 7.43086 7.28749
#
# Compressibility (1/GPa) = 0.01644687
#
# Stress axis : x y z
#
# Youngs Moduli (GPa) = 115.82178 62.36517 66.40074
#
# Poissons Ratio (x) = 0.23892 0.05674
# Poissons Ratio (y) = 0.44372 0.46184
# Poissons Ratio (z) = 0.09897 0.43377
#
# Static dielectric constant tensor:
#      x y z
#    x 4.240850 0.000000 0.014470 
#    y 0.000000 3.826080 0.000000 
#    z 0.014470 0.000000 3.070940 
# 
# 
# High freq. dielectric constant tensor:
#      x y z
#    x 1.825760 0.000000 -0.007690 
#    y 0.000000 1.805600 0.000000 
#    z -0.007690 0.000000 1.811650 
# 
# From -- ./inp_files/195931.got.cif
#   From: 2010.06.25/outbox.cif.g09.slc.cpg/sg12_98_cif.got.tgz:195931.got - 2010.06.28 00:19:55.
