data_PCOD8112776
_publ_section_title
;
Structure prediction by ZEFSAII (Michael W. Deem and Ramdas Pophale) SiO2 
 PCOD8112776
Probable space group: C 2/M
;
_chemical_formula_sum "Si O2"
_cell_formula_units_Z 52
_cell_length_a 16.393851
_cell_length_b 15.931762
_cell_length_c 17.256592
_cell_angle_alpha 90.000000
_cell_angle_beta 145.472386
_cell_angle_gamma 90.000000
_cell_volume 2554.654912
_symmetry_space_group_name_H-M "C 2/M"
_symmetry_group_IT_number 12
_symmetry_cell_setting 'monoclinic'
loop_
_space_group_symop_operation_xyz
x,y,z
-x,y,-z
-x,-y,-z
x,-y,z
1/2+x,1/2+y,z
1/2-x,1/2+y,-z
1/2-x,1/2-y,-z
1/2+x,1/2-y,z
loop_
_atom_site_type_symbol
_atom_site_label
_atom_site_fract_x
_atom_site_fract_y
_atom_site_fract_z
Si Si1 0.184599 0.000000 0.208977
Si Si2 0.360070 0.500000 0.004481
Si Si3 0.750220 0.847565 0.644426
Si Si4 0.963773 0.282471 0.758386
Si Si5 0.500000 0.265653 0.500000
Si Si6 0.241386 0.907983 0.516380
Si Si7 0.937327 0.163269 0.294027
Si Si8 0.799725 0.407603 0.997020
O O1 0.258146 0.913207 0.291635
O O2 0.198724 0.000000 0.128189
O O3 0.030905 0.000000 0.131689
O O4 0.303403 0.417283 0.007081
O O5 0.900447 0.794457 0.760310
O O6 0.615772 0.786980 0.544158
O O7 0.726029 0.900358 0.548329
O O8 0.826370 0.339130 0.631430
O O9 0.034598 0.246885 0.735305
O O10 0.080633 0.336411 0.896743
O O11 0.586051 0.317660 0.633191
O O12 0.071521 0.899255 0.395126
O O13 0.290527 0.000000 0.582826
O O14 0.794824 0.117866 0.151020
O O15 0.869963 0.500000 0.035696
#
# Coordination Sequence:
#
# PCOD8112776 Si02
#       8
#     4   4   8   8   4   8   8   8
#     4  11  22  39  62  98 138 173 201 258 337 387
#     4   9  22  40  62  95 133 167 212 258 319 393
#     4  11  23  40  64  91 138 168 211 266 324 382
#     4  11  21  41  64  95 126 175 213 263 313 381
#     4  12  24  41  61  98 130 162 220 268 329 379
#     4  11  20  39  66  91 124 175 217 258 313 380
#     4  11  22  40  65  91 127 170 214 262 314 383
#     4  10  23  41  66  93 123 166 221 260 306 381
#
# _framework density 20.354998999999999
#
# number of rings (size 3 to 8) (size 9 to 14) (size 15 to 20)
#    0.462    0.769    3.846    4.154    2.154    0.308 
#    2.769    1.538    0.000    0.923    0.000    0.000 
#    0.000    0.000    0.000    0.000    0.000    0.000 
#
# Total GULP energy -322299.512424 kJ/mol
# GULP energy per Si atom -12396.135093 kJ/mol
# Density = 2.030867 g / cm^3
# Si number density = 20.354999 Si / 1000 Ang^3
#
#
#
# Elastic Constant Matrix: (Units=GPa)
#
#
# Indices 1 2 3 4 5 6 
#
# 1 45.9449 22.4097 23.1456 -0.0004 -9.2738 0.0001
# 2 22.4097 107.3709 35.4440 -0.0004 -11.0984 -0.0005
# 3 23.1456 35.4440 104.5778 -0.0003 -12.7328 -0.0002
# 4 -0.0004 -0.0004 -0.0003 21.0478 -0.0005 -10.1724
# 5 -9.2738 -11.0984 -12.7328 -0.0005 28.5149 -0.0001
# 6 0.0001 -0.0005 -0.0002 -10.1724 -0.0001 -4.2316
#
#
#
# Elastic Compliance Matrix: (Units=1/GPa)
#
#
# Indices 1 2 3 4 5 6 
#
# 1 0.026675 -0.003686 -0.003990 0.000001 0.005459 0.000000
# 2 -0.003686 0.011187 -0.002741 0.000000 0.001932 -0.000001
# 3 -0.003990 -0.002741 0.011724 0.000000 0.002871 0.000000
# 4 0.000001 0.000000 0.000000 0.021978 0.000000 -0.052832
# 5 0.005459 0.001932 0.002871 0.000000 0.038879 -0.000002
# 6 0.000000 -0.000001 0.000000 -0.052832 -0.000002 -0.109315
#
#
# Mechanical properties :
#
#
# Convention : Reuss Voigt Hill
#
# Bulk Modulus (GPa) = 34.77918 46.65469 40.71694
# Shear Modulus (GPa) = 158.50696 20.85917 89.68307
#
# Velocity S-wave (km/s) = 8.83404 3.20467 6.64493
# Velocity P-wave (km/s) = 11.00805 6.05504 8.88371
#
# Compressibility (1/GPa) = 0.02875283
#
# Stress axis : x y z
#
# Youngs Moduli (GPa) = 37.48841 89.38784 85.29739
#
# Poissons Ratio (x) = 0.32949 0.34032
# Poissons Ratio (y) = 0.13818 0.23377
# Poissons Ratio (z) = 0.14957 0.24498
#
# Static dielectric constant tensor:
#      x y z
#    x 3.467080 0.000000 -0.031820 
#    y 0.000000 3.739880 0.000000 
#    z -0.031820 0.000000 3.639530 
# 
# 
# High freq. dielectric constant tensor:
#      x y z
#    x 1.771750 0.000000 -0.001130 
#    y 0.000000 1.801990 0.000000 
#    z -0.001130 0.000000 1.794120 
# 
# From -- ./inp_files/278754.got.cif
#   From: 2010.06.25/outbox.cif.g09.slc.cpg/sg12_140_cif.got.tgz:278754.got - 2010.06.28 00:19:55.
