data_PCOD8112582
_publ_section_title
;
Structure prediction by ZEFSAII (Michael W. Deem and Ramdas Pophale) SiO2 
 PCOD8112582
Probable space group: C 2/M
;
_chemical_formula_sum "Si O2"
_cell_formula_units_Z 40
_cell_length_a 11.744619
_cell_length_b 18.881701
_cell_length_c 9.576006
_cell_angle_alpha 90.000000
_cell_angle_beta 68.344315
_cell_angle_gamma 90.000000
_cell_volume 1973.675110
_symmetry_space_group_name_H-M "C 2/M"
_symmetry_group_IT_number 12
_symmetry_cell_setting 'monoclinic'
loop_
_space_group_symop_operation_xyz
x,y,z
-x,y,-z
-x,-y,-z
x,-y,z
1/2+x,1/2+y,z
1/2-x,1/2+y,-z
1/2-x,1/2-y,-z
1/2+x,1/2-y,z
loop_
_atom_site_type_symbol
_atom_site_label
_atom_site_fract_x
_atom_site_fract_y
_atom_site_fract_z
Si Si1 0.029311 0.701768 0.267696
Si Si2 0.188625 0.347835 0.438089
Si Si3 0.873071 0.500000 0.479044
Si Si4 0.164513 0.500000 0.821172
Si Si5 0.000000 0.618940 0.000000
Si Si6 0.456059 0.500000 0.677811
Si Si7 0.463956 0.650234 0.355590
O O1 0.904448 0.680252 0.403047
O O2 0.033147 0.668468 0.114132
O O3 0.041548 0.787077 0.247341
O O4 0.145304 0.674316 0.303627
O O5 0.203137 0.432295 0.440095
O O6 0.325104 0.321506 0.405161
O O7 0.897288 0.500000 0.302982
O O8 0.000000 0.500000 0.500000
O O9 0.119037 0.429647 0.920254
O O10 0.309996 0.500000 0.748573
O O11 0.500000 0.500000 0.500000
O O12 0.507108 0.572833 0.726364
O O13 0.500000 0.647028 0.500000
#
# Coordination Sequence:
#
# PCOD8112582 Si02
#       7
#     8   8   4   4   4   4   8
#     4  11  23  38  62  93 126 169 204 264 315 362
#     4  11  21  38  63  95 126 156 215 271 308 358
#     4  12  17  33  62  90 122 156 206 265 314 354
#     4  11  22  40  61  90 134 164 211 258 303 386
#     4  11  24  40  64  93 130 174 206 251 318 374
#     4  10  23  39  63  94 118 166 211 255 320 369
#     4  11  22  38  65  93 125 159 207 267 318 365
#
# _framework density 20.266760000000001
#
# number of rings (size 3 to 8) (size 9 to 14) (size 15 to 20)
#    0.000    1.000    6.000    3.600    0.000    0.800 
#    0.000    4.000    0.000    1.800    0.000    0.000 
#    0.000    0.000    0.000    0.000    0.000    0.000 
#
# Total GULP energy -247956.416296 kJ/mol
# GULP energy per Si atom -12397.820815 kJ/mol
# Density = 2.022063 g / cm^3
# Si number density = 20.266760 Si / 1000 Ang^3
#
#
#
# Elastic Constant Matrix: (Units=GPa)
#
#
# Indices 1 2 3 4 5 6 
#
# 1 117.2059 36.4193 55.3944 0.0000 4.2770 0.0000
# 2 36.4193 182.9316 50.0949 0.0000 9.1470 0.0000
# 3 55.3944 50.0949 103.3394 0.0000 20.2778 0.0000
# 4 0.0000 0.0000 0.0000 1.2324 0.0000 3.6826
# 5 4.2770 9.1470 20.2778 0.0000 29.1096 0.0000
# 6 0.0000 0.0000 0.0000 3.6826 0.0000 29.5105
#
#
#
# Elastic Compliance Matrix: (Units=1/GPa)
#
#
# Indices 1 2 3 4 5 6 
#
# 1 0.011733 -0.000694 -0.006553 0.000000 0.003059 0.000000
# 2 -0.000694 0.006345 -0.002702 0.000000 -0.000010 0.000000
# 3 -0.006553 -0.002702 0.016383 0.000000 -0.009601 0.000000
# 4 0.000000 0.000000 0.000000 1.293864 0.000000 -0.161459
# 5 0.003059 -0.000010 -0.009601 0.000000 0.040594 0.000000
# 6 0.000000 0.000000 0.000000 -0.161459 0.000000 0.054034
#
#
# Mechanical properties :
#
#
# Convention : Reuss Voigt Hill
#
# Bulk Modulus (GPa) = 68.66712 76.36600 72.51656
# Shear Modulus (GPa) = 3.45374 29.40840 16.43107
#
# Velocity S-wave (km/s) = 1.30684 3.81342 2.85044
# Velocity P-wave (km/s) = 6.01933 7.55988 6.83316
#
# Compressibility (1/GPa) = 0.01456301
#
# Stress axis : x y z
#
# Youngs Moduli (GPa) = 85.22706 157.60178 61.03771
#
# Poissons Ratio (x) = 0.10943 0.40000
# Poissons Ratio (y) = 0.05918 0.16491
# Poissons Ratio (z) = 0.55852 0.42580
#
# Static dielectric constant tensor:
#      x y z
#    x 2.917280 0.000000 1.115040 
#    y 0.000000 4.348460 0.000000 
#    z 1.115040 0.000000 2.059520 
# 
# 
# High freq. dielectric constant tensor:
#      x y z
#    x 1.791980 0.000000 0.009100 
#    y 0.000000 1.825540 0.000000 
#    z 0.009100 0.000000 1.745380 
# 
# From -- ./inp_files/48659.got.cif
#   From: 2010.06.25/outbox.cif.g09.slc.cpg/sg12_25_cif.got.tgz:48659.got - 2010.06.28 00:19:55.
