data_PCOD8112264
_publ_section_title
;
Structure prediction by ZEFSAII (Michael W. Deem and Ramdas Pophale) SiO2 
 PCOD8112264
Probable space group: C 2/M
;
_chemical_formula_sum "Si O2"
_cell_formula_units_Z 28
_cell_length_a 14.410071
_cell_length_b 18.534090
_cell_length_c 6.939009
_cell_angle_alpha 90.000000
_cell_angle_beta 135.772752
_cell_angle_gamma 90.000000
_cell_volume 1292.655397
_symmetry_space_group_name_H-M "C 2/M"
_symmetry_group_IT_number 12
_symmetry_cell_setting 'monoclinic'
loop_
_space_group_symop_operation_xyz
x,y,z
-x,y,-z
-x,-y,-z
x,-y,z
1/2+x,1/2+y,z
1/2-x,1/2+y,-z
1/2-x,1/2-y,-z
1/2+x,1/2-y,z
loop_
_atom_site_type_symbol
_atom_site_label
_atom_site_fract_x
_atom_site_fract_y
_atom_site_fract_z
Si Si1 0.596166 0.579691 0.961978
Si Si2 0.902458 0.418645 0.527080
Si Si3 0.500000 0.179965 0.000000
Si Si4 0.400151 0.269972 0.188101
O O1 0.569656 0.500000 0.830459
O O2 0.750098 0.585895 0.243323
O O3 0.500000 0.590042 0.000000
O O4 0.569553 0.644212 0.773334
O O5 0.944534 0.500000 0.643599
O O6 0.911753 0.370174 0.731233
O O7 0.000000 0.391234 0.500000
O O8 0.414725 0.233127 0.003227
O O9 0.500000 0.238459 0.500000
O O10 0.250000 0.250000 0.000000
#
# Coordination Sequence:
#
# PCOD8112264 Si02
#       4
#     8   8   4   8
#     4  10  22  43  67  94 130 172 218 272 330 392
#     4  10  22  42  67  97 131 173 224 272 326 398
#     4  12  23  40  67  94 134 174 216 272 335 386
#     4  12  27  43  66 100 132 175 224 274 333 401
#
# _framework density 21.660837999999998
#
# number of rings (size 3 to 8) (size 9 to 14) (size 15 to 20)
#    0.000    1.143    1.429    4.714    4.000    2.857 
#    0.000    1.429    0.000    0.000    0.000    0.000 
#    0.000    0.000    0.000    0.000    0.000    0.000 
#
# Total GULP energy -173493.603094 kJ/mol
# GULP energy per Si atom -12392.400221 kJ/mol
# Density = 2.161154 g / cm^3
# Si number density = 21.660838 Si / 1000 Ang^3
#
#
#
# Elastic Constant Matrix: (Units=GPa)
#
#
# Indices 1 2 3 4 5 6 
#
# 1 174.9724 46.3246 61.1492 0.0000 9.1869 0.0000
# 2 46.3246 156.0706 42.3825 0.0000 -19.0956 0.0000
# 3 61.1492 42.3825 98.4589 0.0000 -6.4679 0.0000
# 4 0.0000 0.0000 0.0000 32.2130 0.0000 1.5972
# 5 9.1869 -19.0956 -6.4679 0.0000 37.4168 0.0000
# 6 0.0000 0.0000 0.0000 1.5972 0.0000 33.9446
#
#
#
# Elastic Compliance Matrix: (Units=1/GPa)
#
#
# Indices 1 2 3 4 5 6 
#
# 1 0.007863 -0.001554 -0.004444 0.000000 -0.003492 0.000000
# 2 -0.001554 0.007962 -0.002195 0.000000 0.004066 0.000000
# 3 -0.004444 -0.002195 0.014018 0.000000 0.002394 0.000000
# 4 0.000000 0.000000 0.000000 0.031116 0.000000 -0.001464
# 5 -0.003492 0.004066 0.002394 0.000000 0.030072 0.000000
# 6 0.000000 0.000000 0.000000 -0.001464 0.000000 0.029529
#
#
# Mechanical properties :
#
#
# Convention : Reuss Voigt Hill
#
# Bulk Modulus (GPa) = 74.30758 81.02383 77.66570
# Shear Modulus (GPa) = 35.35252 39.35793 37.35522
#
# Velocity S-wave (km/s) = 4.04430 4.26726 4.15728
# Velocity P-wave (km/s) = 7.49587 7.85915 7.67966
#
# Compressibility (1/GPa) = 0.01345758
#
# Stress axis : x y z
#
# Youngs Moduli (GPa) = 127.17676 125.59268 71.33443
#
# Poissons Ratio (x) = 0.19522 0.31699
# Poissons Ratio (y) = 0.19769 0.15657
# Poissons Ratio (z) = 0.56514 0.27567
#
# Static dielectric constant tensor:
#      x y z
#    x 3.726530 0.000000 0.064640 
#    y 0.000000 4.651730 0.000000 
#    z 0.064640 0.000000 3.174860 
# 
# 
# High freq. dielectric constant tensor:
#      x y z
#    x 1.860800 0.000000 0.005770 
#    y 0.000000 1.889490 0.000000 
#    z 0.005770 0.000000 1.826780 
# 
# From -- ./inp_files/5793.got.cif
#   From: 2010.06.25/outbox.cif.g09.slc.cpg/sg12_3_cif.got.tgz:5793.got - 2010.06.28 00:19:55.
