data_PCOD8112902
_publ_section_title
;
Structure prediction by ZEFSAII (Michael W. Deem and Ramdas Pophale) SiO2 
 PCOD8112902
Probable space group: C 2/M
;
_chemical_formula_sum "Si O2"
_cell_formula_units_Z 48
_cell_length_a 22.118901
_cell_length_b 8.516913
_cell_length_c 23.146818
_cell_angle_alpha 90.000000
_cell_angle_beta 148.809289
_cell_angle_gamma 90.000000
_cell_volume 2258.256015
_symmetry_space_group_name_H-M "C 2/M"
_symmetry_group_IT_number 12
_symmetry_cell_setting 'monoclinic'
loop_
_space_group_symop_operation_xyz
x,y,z
-x,y,-z
-x,-y,-z
x,-y,z
1/2+x,1/2+y,z
1/2-x,1/2+y,-z
1/2-x,1/2-y,-z
1/2+x,1/2-y,z
loop_
_atom_site_type_symbol
_atom_site_label
_atom_site_fract_x
_atom_site_fract_y
_atom_site_fract_z
Si Si1 0.108178 0.679901 0.127803
Si Si2 0.751396 0.815411 0.565847
Si Si3 0.538653 0.180920 0.468931
Si Si4 0.293018 0.182349 0.976169
Si Si5 0.040947 0.820658 0.184369
Si Si6 0.198543 0.321095 0.786391
O O1 0.094388 0.500000 0.136081
O O2 0.118783 0.794899 0.191090
O O3 0.226871 0.700059 0.189998
O O4 0.000000 0.733314 0.000000
O O5 0.750000 0.750000 0.500000
O O6 0.652506 0.744301 0.529296
O O7 0.879649 0.775588 0.695800
O O8 0.729685 0.000000 0.544324
O O9 0.500000 0.256973 0.500000
O O10 0.436107 0.203828 0.338836
O O11 0.567140 0.000000 0.505131
O O12 0.431731 0.205807 0.086807
O O13 0.263875 0.000000 0.944976
O O14 0.250000 0.250000 0.000000
O O15 0.219749 0.280443 0.870065
O O16 0.998081 0.000000 0.153836
O O17 0.237512 0.500000 0.806088
#
# Coordination Sequence:
#
# PCOD8112902 Si02
#       6
#     8   8   8   8   8   8
#     4  11  22  37  59  91 127 165 204 251 312 372
#     4  10  23  42  65  95 127 165 211 263 321 384
#     4   9  19  39  65  93 125 164 211 260 313 373
#     4  12  26  43  62  89 126 165 209 259 317 379
#     4  11  23  41  66  94 124 163 211 259 313 377
#     4  11  22  38  65  96 125 162 208 258 314 377
#
# _framework density 21.255341000000001
#
# number of rings (size 3 to 8) (size 9 to 14) (size 15 to 20)
#    0.000    1.333    1.667    4.000    2.333    4.667 
#    0.000    0.833    0.000    3.500    0.000    0.000 
#    0.000    0.000    0.000    0.000    0.000    0.000 
#
# Total GULP energy -297575.902889 kJ/mol
# GULP energy per Si atom -12398.995954 kJ/mol
# Density = 2.120696 g / cm^3
# Si number density = 21.255341 Si / 1000 Ang^3
#
#
#
# Elastic Constant Matrix: (Units=GPa)
#
#
# Indices 1 2 3 4 5 6 
#
# 1 125.9603 11.1371 40.0758 0.0000 -16.9793 0.0000
# 2 11.1371 53.5658 38.7915 0.0000 -2.5250 0.0000
# 3 40.0758 38.7915 118.2564 0.0000 -20.1899 0.0000
# 4 0.0000 0.0000 0.0000 19.0892 0.0000 -5.0624
# 5 -16.9793 -2.5250 -20.1899 0.0000 36.8329 0.0000
# 6 0.0000 0.0000 0.0000 -5.0624 0.0000 35.0725
#
#
#
# Elastic Compliance Matrix: (Units=1/GPa)
#
#
# Indices 1 2 3 4 5 6 
#
# 1 0.009150 0.000173 -0.002687 0.000000 0.002757 0.000000
# 2 0.000173 0.024794 -0.008702 0.000000 -0.002991 0.000000
# 3 -0.002687 -0.008702 0.013138 0.000000 0.005366 0.000000
# 4 0.000000 0.000000 0.000000 0.054471 0.000000 0.007862
# 5 0.002757 -0.002991 0.005366 0.000000 0.031157 0.000000
# 6 0.000000 0.000000 0.000000 0.007862 0.000000 0.029647
#
#
# Mechanical properties :
#
#
# Convention : Reuss Voigt Hill
#
# Bulk Modulus (GPa) = 40.56881 53.08793 46.82837
# Shear Modulus (GPa) = 25.90603 32.05078 28.97841
#
# Velocity S-wave (km/s) = 3.49492 3.88737 3.69636
# Velocity P-wave (km/s) = 5.95095 6.72156 6.34796
#
# Compressibility (1/GPa) = 0.02464948
#
# Stress axis : x y z
#
# Youngs Moduli (GPa) = 109.28654 40.33279 76.11732
#
# Poissons Ratio (x) = -0.00700 0.20454
# Poissons Ratio (y) = -0.01896 0.66240
# Poissons Ratio (z) = 0.29366 0.35099
#
# Static dielectric constant tensor:
#      x y z
#    x 4.255220 0.000000 0.146750 
#    y 0.000000 3.574470 0.000000 
#    z 0.146750 0.000000 4.161720 
# 
# 
# High freq. dielectric constant tensor:
#      x y z
#    x 1.842850 0.000000 -0.005700 
#    y 0.000000 1.811920 0.000000 
#    z -0.005700 0.000000 1.843830 
# 
# From -- ./inp_files/348888.got.cif
#   From: 2010.06.25/outbox.cif.g09.slc.cpg/sg12_175_cif.got.tgz:348888.got - 2010.06.28 00:19:55.
