data_PCOD8112413
_publ_section_title
;
Structure prediction by ZEFSAII (Michael W. Deem and Ramdas Pophale) SiO2 
 PCOD8112413
Probable space group: C 2/M
;
_chemical_formula_sum "Si O2"
_cell_formula_units_Z 64
_cell_length_a 14.890492
_cell_length_b 23.991662
_cell_length_c 12.918404
_cell_angle_alpha 90.000000
_cell_angle_beta 138.087359
_cell_angle_gamma 90.000000
_cell_volume 3082.851438
_symmetry_space_group_name_H-M "C 2/M"
_symmetry_group_IT_number 12
_symmetry_cell_setting 'monoclinic'
loop_
_space_group_symop_operation_xyz
x,y,z
-x,y,-z
-x,-y,-z
x,-y,z
1/2+x,1/2+y,z
1/2-x,1/2+y,-z
1/2-x,1/2-y,-z
1/2+x,1/2-y,z
loop_
_atom_site_type_symbol
_atom_site_label
_atom_site_fract_x
_atom_site_fract_y
_atom_site_fract_z
Si Si1 0.627274 0.363760 0.047209
Si Si2 0.244328 0.375650 0.459526
Si Si3 0.924560 0.777713 0.536258
Si Si4 0.486541 0.862940 0.109610
Si Si5 0.350951 0.841547 0.406288
Si Si6 0.232268 0.933500 0.958108
Si Si7 0.496488 0.564648 0.610736
Si Si8 0.905596 0.242799 0.117099
O O1 0.750088 0.345970 0.224742
O O2 0.500000 0.387307 0.000000
O O3 0.680296 0.415325 0.025623
O O4 0.570637 0.311219 0.933428
O O5 0.311921 0.317797 0.484867
O O6 0.196706 0.378058 0.537416
O O7 0.354091 0.424202 0.542700
O O8 0.119689 0.386791 0.277621
O O9 0.847892 0.722262 0.437944
O O10 0.000000 0.803012 0.500000
O O11 0.032418 0.765096 0.716958
O O12 0.467429 0.797787 0.117813
O O13 0.500000 0.871852 0.000000
O O14 0.367538 0.900956 0.049786
O O15 0.500000 0.860844 0.500000
O O16 0.120337 0.910681 0.781909
O O17 0.254929 0.000000 0.974112
O O18 0.500000 0.592248 0.500000
O O19 0.520792 0.500000 0.623533
O O20 0.750000 0.250000 0.000000
#
# Coordination Sequence:
#
# PCOD8112413 Si02
#       8
#     8   8   8   8   8   8   8   8
#     4  12  25  41  69  97 131 175 219 276 328 389
#     4  12  24  40  65  96 133 168 222 265 323 395
#     4  11  24  38  62  94 130 178 210 263 319 389
#     4  12  27  40  65 102 135 176 214 269 334 401
#     4  11  23  42  60  88 132 177 212 256 322 382
#     4  11  25  48  69  95 132 173 226 282 330 386
#     4  10  22  43  70  95 124 166 216 274 330 383
#     4  12  23  41  65  96 143 173 218 263 328 401
#
# _framework density 20.760003000000001
#
# number of rings (size 3 to 8) (size 9 to 14) (size 15 to 20)
#    0.000    0.625    2.500    6.375    5.250    1.000 
#    0.000    0.625    0.000    1.500    0.000    0.000 
#    0.000    0.000    0.000    0.000    0.000    0.000 
#
# Total GULP energy -396893.256149 kJ/mol
# GULP energy per Si atom -12402.914255 kJ/mol
# Density = 2.071275 g / cm^3
# Si number density = 20.760003 Si / 1000 Ang^3
#
#
#
# Elastic Constant Matrix: (Units=GPa)
#
#
# Indices 1 2 3 4 5 6 
#
# 1 140.9786 27.1518 40.5263 0.0000 -1.1059 0.0000
# 2 27.1518 60.3976 32.7149 0.0000 -4.1781 0.0000
# 3 40.5263 32.7149 156.9292 0.0000 1.0613 0.0000
# 4 0.0000 0.0000 0.0000 -2.4878 0.0000 23.9924
# 5 -1.1059 -4.1781 1.0613 0.0000 44.6994 0.0000
# 6 0.0000 0.0000 0.0000 23.9924 0.0000 -13.7397
#
#
#
# Elastic Compliance Matrix: (Units=1/GPa)
#
#
# Indices 1 2 3 4 5 6 
#
# 1 0.008066 -0.002818 -0.001495 0.000000 -0.000028 0.000000
# 2 -0.002818 0.019801 -0.003413 0.000000 0.001862 0.000000
# 3 -0.001495 -0.003413 0.007474 0.000000 -0.000533 0.000000
# 4 0.000000 0.000000 0.000000 0.025376 0.000000 0.044311
# 5 -0.000028 0.001862 -0.000533 0.000000 0.022558 0.000000
# 6 0.000000 0.000000 0.000000 0.044311 0.000000 0.004595
#
#
# Mechanical properties :
#
#
# Convention : Reuss Voigt Hill
#
# Bulk Modulus (GPa) = 50.28091 62.12128 56.20110
# Shear Modulus (GPa) = 45.47530 22.88851 34.18191
#
# Velocity S-wave (km/s) = 4.68538 3.32404 4.06214
# Velocity P-wave (km/s) = 7.31731 6.68736 7.00942
#
# Compressibility (1/GPa) = 0.01988826
#
# Stress axis : x y z
#
# Youngs Moduli (GPa) = 123.98315 50.50206 133.80579
#
# Poissons Ratio (x) = 0.14231 0.20007
# Poissons Ratio (y) = 0.34938 0.45665
# Poissons Ratio (z) = 0.18539 0.17235
#
# Static dielectric constant tensor:
#      x y z
#    x 4.124380 0.000000 -0.120800 
#    y 0.000000 3.740150 0.000000 
#    z -0.120800 0.000000 3.992330 
# 
# 
# High freq. dielectric constant tensor:
#      x y z
#    x 1.830310 0.000000 -0.000490 
#    y 0.000000 1.795920 0.000000 
#    z -0.000490 0.000000 1.835750 
# 
# From -- ./inp_files/149787.got.cif
#   From: 2010.06.25/outbox.cif.g09.slc.cpg/sg12_75_cif.got.tgz:149787.got - 2010.06.28 00:19:55.
