data_PCOD8112636
_publ_section_title
;
Structure prediction by ZEFSAII (Michael W. Deem and Ramdas Pophale) SiO2 
 PCOD8112636
Probable space group: C 2/M
;
_chemical_formula_sum "Si O2"
_cell_formula_units_Z 40
_cell_length_a 13.596230
_cell_length_b 9.644032
_cell_length_c 21.370094
_cell_angle_alpha 90.000000
_cell_angle_beta 145.052121
_cell_angle_gamma 90.000000
_cell_volume 1605.129637
_symmetry_space_group_name_H-M "C 2/M"
_symmetry_group_IT_number 12
_symmetry_cell_setting 'monoclinic'
loop_
_space_group_symop_operation_xyz
x,y,z
-x,y,-z
-x,-y,-z
x,-y,z
1/2+x,1/2+y,z
1/2-x,1/2+y,-z
1/2-x,1/2-y,-z
1/2+x,1/2-y,z
loop_
_atom_site_type_symbol
_atom_site_label
_atom_site_fract_x
_atom_site_fract_y
_atom_site_fract_z
Si Si1 0.247639 0.843518 0.778126
Si Si2 0.118361 0.762686 0.838746
Si Si3 0.791907 0.347012 0.613217
Si Si4 0.020697 0.657203 0.421597
Si Si5 0.443725 0.648225 0.060712
O O1 0.140627 0.850902 0.786976
O O2 0.432921 0.777419 0.888349
O O3 0.151214 0.749789 0.675814
O O4 0.267423 0.000000 0.762990
O O5 0.118147 0.858990 0.899590
O O6 0.936102 0.682279 0.740985
O O7 0.278548 0.657754 0.929151
O O8 0.712872 0.500000 0.583883
O O9 0.880696 0.346082 0.592125
O O10 0.641873 0.230308 0.537182
O O11 0.974878 0.500000 0.419096
O O12 0.533524 0.500000 0.092719
#
# Coordination Sequence:
#
# PCOD8112636 Si02
#       5
#     8   8   8   8   8
#     4  11  23  40  63  90 122 160 201 248 301 356
#     4  10  23  40  63  89 122 161 201 246 300 357
#     4   9  17  32  57  87 118 155 198 244 297 355
#     4   9  18  33  56  87 120 155 197 244 297 358
#     4  11  24  41  62  90 123 160 204 250 297 355
#
# _framework density 24.920106000000001
#
# number of rings (size 3 to 8) (size 9 to 14) (size 15 to 20)
#    0.000    2.000    0.000    3.000    0.000   14.400 
#    0.000    1.000    0.000    4.800    0.000    0.000 
#    0.000    0.000    0.000    0.000    0.000    0.000 
#
# Total GULP energy -247998.920920 kJ/mol
# GULP energy per Si atom -12399.946046 kJ/mol
# Density = 2.486339 g / cm^3
# Si number density = 24.920106 Si / 1000 Ang^3
#
#
#
# Elastic Constant Matrix: (Units=GPa)
#
#
# Indices 1 2 3 4 5 6 
#
# 1 31.0312 6.9223 13.4316 0.0000 -0.7428 0.0000
# 2 6.9223 239.2518 94.4892 0.0000 21.1446 0.0000
# 3 13.4316 94.4892 195.9068 0.0002 4.1004 0.0001
# 4 0.0000 0.0000 0.0002 30.4670 0.0001 17.1787
# 5 -0.7428 21.1446 4.1004 0.0001 39.7751 0.0000
# 6 0.0000 0.0000 0.0001 17.1787 0.0000 12.0055
#
#
#
# Elastic Compliance Matrix: (Units=1/GPa)
#
#
# Indices 1 2 3 4 5 6 
#
# 1 0.033246 -0.000169 -0.002217 0.000000 0.000939 0.000000
# 2 -0.000169 0.005423 -0.002549 0.000000 -0.002623 0.000000
# 3 -0.002217 -0.002549 0.006472 0.000000 0.000647 0.000000
# 4 0.000000 0.000000 0.000000 0.169899 0.000000 -0.243110
# 5 0.000939 -0.002623 0.000647 0.000000 0.026487 0.000000
# 6 0.000000 0.000000 0.000000 -0.243110 0.000000 0.431163
#
#
# Mechanical properties :
#
#
# Convention : Reuss Voigt Hill
#
# Bulk Modulus (GPa) = 28.35293 77.31955 52.83624
# Shear Modulus (GPa) = 7.20131 39.87264 23.53698
#
# Velocity S-wave (km/s) = 1.70177 4.00436 3.07660
# Velocity P-wave (km/s) = 3.90687 7.24391 5.81970
#
# Compressibility (1/GPa) = 0.03526972
#
# Stress axis : x y z
#
# Youngs Moduli (GPa) = 30.07914 184.39263 154.50014
#
# Poissons Ratio (x) = 0.03120 0.34259
# Poissons Ratio (y) = 0.00509 0.39385
# Poissons Ratio (z) = 0.06670 0.47005
#
# Static dielectric constant tensor:
#      x y z
#    x 4.241250 0.000000 -0.136340 
#    y 0.000000 4.371400 0.000000 
#    z -0.136340 0.000000 4.543090 
# 
# 
# High freq. dielectric constant tensor:
#      x y z
#    x 1.993610 0.000000 -0.010330 
#    y 0.000000 1.982750 0.000000 
#    z -0.010330 0.000000 1.994990 
# 
# From -- ./inp_files/339695.got.cif
#   From: 2010.06.25/outbox.cif.g09.slc.cpg/sg12_170_cif.got.tgz:339695.got - 2010.06.28 00:19:55.
