data_PCOD8112503
_publ_section_title
;
Structure prediction by ZEFSAII (Michael W. Deem and Ramdas Pophale) SiO2 
 PCOD8112503
Probable space group: C 2/M
;
_chemical_formula_sum "Si O2"
_cell_formula_units_Z 56
_cell_length_a 17.387073
_cell_length_b 10.227672
_cell_length_c 21.433904
_cell_angle_alpha 90.000000
_cell_angle_beta 47.275786
_cell_angle_gamma 90.000000
_cell_volume 2800.089972
_symmetry_space_group_name_H-M "C 2/M"
_symmetry_group_IT_number 12
_symmetry_cell_setting 'monoclinic'
loop_
_space_group_symop_operation_xyz
x,y,z
-x,y,-z
-x,-y,-z
x,-y,z
1/2+x,1/2+y,z
1/2-x,1/2+y,-z
1/2-x,1/2-y,-z
1/2+x,1/2-y,z
loop_
_atom_site_type_symbol
_atom_site_label
_atom_site_fract_x
_atom_site_fract_y
_atom_site_fract_z
Si Si1 0.610821 0.147559 0.867631
Si Si2 0.812844 0.360887 0.904754
Si Si3 0.973216 0.150109 0.769222
Si Si4 0.875465 0.297035 0.002841
Si Si5 0.677561 0.650135 0.737902
Si Si6 0.190741 0.355488 0.451551
Si Si7 0.898656 0.854879 0.419080
O O1 0.499243 0.221503 0.925528
O O2 0.689322 0.243131 0.786784
O O3 0.605973 0.000000 0.841492
O O4 0.646482 0.130375 0.919559
O O5 0.844079 0.500000 0.856821
O O6 0.877900 0.243485 0.838978
O O7 0.830132 0.376961 0.969399
O O8 0.688712 0.339335 0.960721
O O9 0.069771 0.179297 0.761492
O O10 0.005996 0.179653 0.679758
O O11 0.936853 0.000000 0.795986
O O12 0.679584 0.500000 0.761510
O O13 0.775371 0.674852 0.638001
O O14 0.139596 0.500000 0.483659
O O15 0.106104 0.249487 0.521888
O O16 0.292811 0.351784 0.438017
O O17 0.914318 0.000000 0.438970
#
# Coordination Sequence:
#
# PCOD8112503 Si02
#       7
#     8   8   8   8   8   8   8
#     4  11  21  37  57  76 100 137 176 215 257 308
#     4  11  22  37  56  78 102 135 177 217 256 310
#     4   9  18  31  48  72 105 139 168 210 262 303
#     4  10  23  37  53  76 105 131 170 220 265 300
#     4   9  18  31  47  73 106 136 168 212 260 304
#     4   8  14  25  41  64  98 134 165 202 251 298
#     4   8  14  25  41  65  97 132 169 204 245 298
#
# _framework density 19.999357
#
# number of rings (size 3 to 8) (size 9 to 14) (size 15 to 20)
#    0.000    2.571    1.429    3.429    0.000    5.714 
#    0.000    4.286    0.000    0.000    0.000    1.000 
#    0.000    6.857    0.000    0.000    0.000    0.000 
#
# Total GULP energy -346929.786699 kJ/mol
# GULP energy per Si atom -12390.349525 kJ/mol
# Density = 1.995384 g / cm^3
# Si number density = 19.999357 Si / 1000 Ang^3
#
#
#
# Elastic Constant Matrix: (Units=GPa)
#
#
# Indices 1 2 3 4 5 6 
#
# 1 43.4754 26.4083 21.8905 0.0000 1.6070 0.0000
# 2 26.4083 160.0375 97.9289 0.0000 8.8043 0.0000
# 3 21.8905 97.9289 118.5265 0.0000 18.5566 0.0000
# 4 0.0000 0.0000 0.0000 28.7564 0.0000 -3.5469
# 5 1.6070 8.8043 18.5566 0.0000 16.7610 0.0000
# 6 0.0000 0.0000 0.0000 -3.5469 0.0000 0.2056
#
#
#
# Elastic Compliance Matrix: (Units=1/GPa)
#
#
# Indices 1 2 3 4 5 6 
#
# 1 0.026001 -0.002552 -0.003040 0.000000 0.002213 0.000000
# 2 -0.002552 0.013399 -0.011535 0.000000 0.005977 0.000001
# 3 -0.003040 -0.011535 0.021212 0.000000 -0.017133 -0.000001
# 4 0.000000 0.000000 0.000000 -0.030823 0.000000 -0.531832
# 5 0.002213 0.005977 -0.017133 0.000000 0.075279 0.000000
# 6 0.000000 0.000001 -0.000001 -0.531832 0.000000 -4.311804
#
#
# Mechanical properties :
#
#
# Convention : Reuss Voigt Hill
#
# Bulk Modulus (GPa) = 37.94095 68.27723 53.10909
# Shear Modulus (GPa) = -1.20086 20.86538 9.83226
#
# Velocity S-wave (km/s) = -0.77573 3.23352 2.21968
# Velocity P-wave (km/s) = 4.26731 6.93936 5.76041
#
# Compressibility (1/GPa) = 0.02635675
#
# Stress axis : x y z
#
# Youngs Moduli (GPa) = 38.46067 74.63000 47.14421
#
# Poissons Ratio (x) = 0.19045 0.14332
# Poissons Ratio (y) = 0.09815 0.54383
# Poissons Ratio (z) = 0.11692 0.86088
#
# Static dielectric constant tensor:
#      x y z
#    x 3.251840 0.000000 0.171850 
#    y 0.000000 3.726590 0.000000 
#    z 0.171850 0.000000 3.743920 
# 
# 
# High freq. dielectric constant tensor:
#      x y z
#    x 1.734760 0.000000 0.009890 
#    y 0.000000 1.781000 0.000000 
#    z 0.009890 0.000000 1.776320 
# 
# From -- ./inp_files/342249.got.cif
#   From: 2010.06.25/outbox.cif.g09.slc.cpg/sg12_172_cif.got.tgz:342249.got - 2010.06.28 00:19:55.
