data_PCOD8112740
_publ_section_title
;
Structure prediction by ZEFSAII (Michael W. Deem and Ramdas Pophale) SiO2 
 PCOD8112740
Probable space group: C 2/M
;
_chemical_formula_sum "Si O2"
_cell_formula_units_Z 64
_cell_length_a 30.927711
_cell_length_b 16.296164
_cell_length_c 8.984957
_cell_angle_alpha 90.000000
_cell_angle_beta 42.230971
_cell_angle_gamma 90.000000
_cell_volume 3043.663161
_symmetry_space_group_name_H-M "C 2/M"
_symmetry_group_IT_number 12
_symmetry_cell_setting 'monoclinic'
loop_
_space_group_symop_operation_xyz
x,y,z
-x,y,-z
-x,-y,-z
x,-y,z
1/2+x,1/2+y,z
1/2-x,1/2+y,-z
1/2-x,1/2-y,-z
1/2+x,1/2-y,z
loop_
_atom_site_type_symbol
_atom_site_label
_atom_site_fract_x
_atom_site_fract_y
_atom_site_fract_z
Si Si1 0.755929 0.907209 0.270828
Si Si2 0.226763 0.595073 0.684119
Si Si3 0.359831 0.162638 0.583684
Si Si4 0.010207 0.410562 0.646612
Si Si5 0.896943 0.707857 0.966497
Si Si6 0.352160 0.405070 0.550175
Si Si7 0.424425 0.715144 0.190014
Si Si8 0.842844 0.204649 0.848219
O O1 0.754275 0.886121 0.449714
O O2 0.684883 0.904437 0.381440
O O3 0.783200 0.000000 0.175871
O O4 0.793795 0.834584 0.091193
O O5 0.205736 0.500000 0.748762
O O6 0.281146 0.615895 0.667989
O O7 0.166150 0.651125 0.876181
O O8 0.416363 0.115001 0.521015
O O9 0.390123 0.219559 0.381746
O O10 0.318992 0.218208 0.806899
O O11 0.998722 0.500000 0.751045
O O12 0.000000 0.418043 0.500000
O O13 0.959965 0.345928 0.841734
O O14 0.901257 0.758211 0.799961
O O15 0.894510 0.774985 0.102768
O O16 0.362247 0.500000 0.546331
O O17 0.405815 0.374988 0.296326
O O18 0.365654 0.365681 0.677252
O O19 0.500000 0.727625 0.000000
#
# Coordination Sequence:
#
# PCOD8112740 Si02
#       8
#     8   8   8   8   8   8   8   8
#     4  11  23  40  61  92 127 163 206 255 311 372
#     4  10  23  41  63  92 129 165 201 253 316 373
#     4  11  22  41  60  93 126 166 210 253 304 367
#     4  11  23  40  62  92 132 174 207 250 308 369
#     4  12  23  40  63  96 129 163 209 256 302 375
#     4  10  24  45  65  91 124 160 208 264 318 372
#     4  11  23  40  67  94 125 164 209 255 311 369
#     4  11  25  38  64  90 122 163 212 258 312 361
#
# _framework density 21.027291999999999
#
# number of rings (size 3 to 8) (size 9 to 14) (size 15 to 20)
#    0.000    1.125    3.750    2.250    5.250    1.250 
#    0.000    1.250    0.000    0.750    0.000    0.000 
#    0.000    0.000    0.000    0.000    0.000    0.000 
#
# Total GULP energy -396690.968740 kJ/mol
# GULP energy per Si atom -12396.592773 kJ/mol
# Density = 2.097943 g / cm^3
# Si number density = 21.027292 Si / 1000 Ang^3
#
#
#
# Elastic Constant Matrix: (Units=GPa)
#
#
# Indices 1 2 3 4 5 6 
#
# 1 103.9885 58.8407 32.2527 0.0000 18.0482 0.0000
# 2 58.8407 106.1542 42.1780 0.0000 7.9072 0.0000
# 3 32.2527 42.1780 81.1689 0.0000 8.5510 0.0000
# 4 0.0000 0.0000 0.0000 26.9682 0.0000 -1.4841
# 5 18.0482 7.9072 8.5510 0.0000 29.8762 0.0000
# 6 0.0000 0.0000 0.0000 -1.4841 0.0000 31.3758
#
#
#
# Elastic Compliance Matrix: (Units=1/GPa)
#
#
# Indices 1 2 3 4 5 6 
#
# 1 0.015537 -0.007475 -0.001556 0.000000 -0.006962 0.000000
# 2 -0.007475 0.015527 -0.005300 0.000000 0.001924 0.000000
# 3 -0.001556 -0.005300 0.015926 0.000000 -0.002215 0.000000
# 4 0.000000 0.000000 0.000000 0.037178 0.000000 0.001758
# 5 -0.006962 0.001924 -0.002215 0.000000 0.037802 0.000000
# 6 0.000000 0.000000 0.000000 0.001758 0.000000 0.031955
#
#
# Mechanical properties :
#
#
# Convention : Reuss Voigt Hill
#
# Bulk Modulus (GPa) = 54.56613 61.98383 58.27498
# Shear Modulus (GPa) = 26.49757 28.18004 27.33881
#
# Velocity S-wave (km/s) = 3.55371 3.66480 3.60968
# Velocity P-wave (km/s) = 6.54561 6.88836 6.71917
#
# Compressibility (1/GPa) = 0.01832639
#
# Stress axis : x y z
#
# Youngs Moduli (GPa) = 64.36141 64.40575 62.79097
#
# Poissons Ratio (x) = 0.48146 0.09769
# Poissons Ratio (y) = 0.48113 0.33282
# Poissons Ratio (z) = 0.10013 0.34137
#
# Static dielectric constant tensor:
#      x y z
#    x 4.061810 0.000000 -0.032230 
#    y 0.000000 4.049060 0.000000 
#    z -0.032230 0.000000 4.169490 
# 
# 
# High freq. dielectric constant tensor:
#      x y z
#    x 1.833780 0.000000 0.016440 
#    y 0.000000 1.830280 0.000000 
#    z 0.016440 0.000000 1.811040 
# 
# From -- ./inp_files/112836.got.cif
#   From: 2010.06.25/outbox.cif.g09.slc.cpg/sg12_57_cif.got.tgz:112836.got - 2010.06.28 00:19:55.
