data_PCOD8112211
_publ_section_title
;
Structure prediction by ZEFSAII (Michael W. Deem and Ramdas Pophale) SiO2 
 PCOD8112211
Probable space group: C 2/M
;
_chemical_formula_sum "Si O2"
_cell_formula_units_Z 40
_cell_length_a 23.914599
_cell_length_b 8.635784
_cell_length_c 9.610890
_cell_angle_alpha 90.000000
_cell_angle_beta 76.953491
_cell_angle_gamma 90.000000
_cell_volume 1933.618865
_symmetry_space_group_name_H-M "C 2/M"
_symmetry_group_IT_number 12
_symmetry_cell_setting 'monoclinic'
loop_
_space_group_symop_operation_xyz
x,y,z
-x,y,-z
-x,-y,-z
x,-y,z
1/2+x,1/2+y,z
1/2-x,1/2+y,-z
1/2-x,1/2-y,-z
1/2+x,1/2-y,z
loop_
_atom_site_type_symbol
_atom_site_label
_atom_site_fract_x
_atom_site_fract_y
_atom_site_fract_z
Si Si1 0.410273 0.319761 0.403942
Si Si2 0.894481 0.679369 0.699865
Si Si3 0.004042 0.321103 0.158265
Si Si4 0.705708 0.818480 0.632158
Si Si5 0.732424 0.817513 0.154772
O O1 0.394931 0.500000 0.403757
O O2 0.423182 0.273906 0.556720
O O3 0.464105 0.284841 0.276038
O O4 0.358219 0.216510 0.379026
O O5 0.892895 0.500000 0.656636
O O6 0.931377 0.701904 0.820152
O O7 0.830363 0.743593 0.763344
O O8 0.984721 0.500000 0.181286
O O9 0.000000 0.266192 0.000000
O O10 0.750000 0.750000 0.500000
O O11 0.717612 0.738864 0.771972
O O12 0.714995 0.000000 0.639423
O O13 0.730976 0.000000 0.147404
O O14 0.750000 0.750000 0.000000
#
# Coordination Sequence:
#
# PCOD8112211 Si02
#       5
#     8   8   8   8   8
#     4  12  25  41  65  96 128 169 213 264 322 381
#     4  10  22  42  66  92 126 171 218 261 315 381
#     4  10  23  43  67  94 125 167 214 265 323 382
#     4  12  24  42  67  96 129 167 213 266 321 386
#     4  11  24  41  64  97 134 174 214 261 317 382
#
# _framework density 20.686599000000001
#
# number of rings (size 3 to 8) (size 9 to 14) (size 15 to 20)
#    0.000    1.000    2.000    4.800    2.800    4.400 
#    0.000    0.000    0.000    0.000    0.000    0.000 
#    0.000    0.000    0.000    0.000    0.000    0.000 
#
# Total GULP energy -248102.476724 kJ/mol
# GULP energy per Si atom -12405.123836 kJ/mol
# Density = 2.063952 g / cm^3
# Si number density = 20.686599 Si / 1000 Ang^3
#
#
#
# Elastic Constant Matrix: (Units=GPa)
#
#
# Indices 1 2 3 4 5 6 
#
# 1 84.8381 17.0244 34.8031 0.0000 9.8686 0.0000
# 2 17.0244 72.7648 41.9989 0.0000 -7.6238 0.0000
# 3 34.8031 41.9989 155.7398 0.0000 12.8453 0.0000
# 4 0.0000 0.0000 0.0000 36.4483 0.0000 -1.4824
# 5 9.8686 -7.6238 12.8453 0.0000 39.6431 0.0000
# 6 0.0000 0.0000 0.0000 -1.4824 0.0000 31.2670
#
#
#
# Elastic Compliance Matrix: (Units=1/GPa)
#
#
# Indices 1 2 3 4 5 6 
#
# 1 0.013478 -0.002233 -0.002155 0.000000 -0.003086 0.000000
# 2 -0.002233 0.017537 -0.004679 0.000000 0.005444 0.000000
# 3 -0.002155 -0.004679 0.008419 0.000000 -0.003091 0.000000
# 4 0.000000 0.000000 0.000000 0.027489 0.000000 0.001303
# 5 -0.003086 0.005444 -0.003091 0.000000 0.028042 0.000000
# 6 0.000000 0.000000 0.000000 0.001303 0.000000 0.032044
#
#
# Mechanical properties :
#
#
# Convention : Reuss Voigt Hill
#
# Bulk Modulus (GPa) = 46.94911 55.66619 51.30765
# Shear Modulus (GPa) = 32.84189 36.10610 34.47399
#
# Velocity S-wave (km/s) = 3.98878 4.18231 4.08669
# Velocity P-wave (km/s) = 6.63012 7.09155 6.86471
#
# Compressibility (1/GPa) = 0.02129966
#
# Stress axis : x y z
#
# Youngs Moduli (GPa) = 74.19283 57.02376 118.77243
#
# Poissons Ratio (x) = 0.12732 0.25599
# Poissons Ratio (y) = 0.16566 0.55576
# Poissons Ratio (z) = 0.15991 0.26683
#
# Static dielectric constant tensor:
#      x y z
#    x 3.174000 0.000000 -0.281080 
#    y 0.000000 3.587280 0.000000 
#    z -0.281080 0.000000 3.832940 
# 
# 
# High freq. dielectric constant tensor:
#      x y z
#    x 1.818270 0.000000 0.009090 
#    y 0.000000 1.807970 0.000000 
#    z 0.009090 0.000000 1.819190 
# 
# From -- ./inp_files/92714.got.cif
#   From: 2010.06.25/outbox.cif.g09.slc.cpg/sg12_47_cif.got.tgz:92714.got - 2010.06.28 00:19:55.
