data_PCOD8112691
_publ_section_title
;
Structure prediction by ZEFSAII (Michael W. Deem and Ramdas Pophale) SiO2 
 PCOD8112691
Probable space group: C 2/M
;
_chemical_formula_sum "Si O2"
_cell_formula_units_Z 56
_cell_length_a 28.459655
_cell_length_b 14.830357
_cell_length_c 9.206607
_cell_angle_alpha 90.000000
_cell_angle_beta 133.154544
_cell_angle_gamma 90.000000
_cell_volume 2834.738336
_symmetry_space_group_name_H-M "C 2/M"
_symmetry_group_IT_number 12
_symmetry_cell_setting 'monoclinic'
loop_
_space_group_symop_operation_xyz
x,y,z
-x,y,-z
-x,-y,-z
x,-y,z
1/2+x,1/2+y,z
1/2-x,1/2+y,-z
1/2-x,1/2-y,-z
1/2+x,1/2-y,z
loop_
_atom_site_type_symbol
_atom_site_label
_atom_site_fract_x
_atom_site_fract_y
_atom_site_fract_z
Si Si1 0.354619 0.099953 0.309898
Si Si2 0.237974 0.152486 0.235677
Si Si3 0.856970 0.902390 0.177514
Si Si4 0.802419 0.898625 0.552317
Si Si5 0.052821 0.105960 0.236537
Si Si6 0.258481 0.851409 0.863299
Si Si7 0.445509 0.736388 0.490659
O O1 0.302510 0.098988 0.330080
O O2 0.406612 0.175876 0.461182
O O3 0.386230 0.000000 0.372981
O O4 0.322655 0.117900 0.083597
O O5 0.227443 0.165030 0.384867
O O6 0.242329 0.244075 0.152177
O O7 0.175066 0.098802 0.048760
O O8 0.803435 0.887058 0.185342
O O9 0.908670 0.825016 0.297338
O O10 0.889382 0.000000 0.271212
O O11 0.874559 0.867099 0.659750
O O12 0.749405 0.893593 0.312893
O O13 0.805695 0.000000 0.619005
O O14 0.034467 0.172776 0.330754
O O15 0.051036 0.000000 0.279891
O O16 0.000000 0.123842 0.000000
O O17 0.500000 0.775107 0.500000
#
# Coordination Sequence:
#
# PCOD8112691 Si02
#       7
#     8   8   8   8   8   8   8
#     4  11  22  41  63  87 121 157 198 249 302 348
#     4  11  20  35  58  90 121 156 191 240 298 356
#     4  11  20  36  58  85 119 150 189 243 299 352
#     4  11  21  34  55  89 124 155 196 238 289 360
#     4  10  23  41  59  85 126 167 196 235 295 359
#     4  11  19  36  60  87 121 160 192 239 301 356
#     4  12  25  41  61  86 115 157 210 251 288 348
#
# _framework density 19.754909000000001
#
# number of rings (size 3 to 8) (size 9 to 14) (size 15 to 20)
#    0.000    1.000    4.286    5.143    2.000    1.429 
#    0.000    0.000    0.000    0.429    0.000    0.000 
#    0.000    0.000    0.000    0.000    0.000    0.000 
#
# Total GULP energy -347012.592959 kJ/mol
# GULP energy per Si atom -12393.306891 kJ/mol
# Density = 1.970995 g / cm^3
# Si number density = 19.754909 Si / 1000 Ang^3
#
#
#
# Elastic Constant Matrix: (Units=GPa)
#
#
# Indices 1 2 3 4 5 6 
#
# 1 55.7871 16.8619 46.0234 0.0000 -15.8858 0.0000
# 2 16.8619 114.7455 24.3692 0.0000 4.3572 0.0000
# 3 46.0234 24.3692 96.3712 0.0000 -13.3953 0.0000
# 4 0.0000 0.0000 0.0000 33.8321 0.0000 -6.8229
# 5 -15.8858 4.3572 -13.3953 0.0000 28.8898 0.0000
# 6 0.0000 0.0000 0.0000 -6.8229 0.0000 8.6572
#
#
#
# Elastic Compliance Matrix: (Units=1/GPa)
#
#
# Indices 1 2 3 4 5 6 
#
# 1 0.033463 -0.002499 -0.013616 0.000000 0.012464 0.000000
# 2 -0.002499 0.009588 -0.001735 0.000000 -0.003625 0.000000
# 3 -0.013616 -0.001735 0.017437 0.000000 0.000860 0.000000
# 4 0.000000 0.000000 0.000000 0.035143 0.000000 0.027697
# 5 0.012464 -0.003625 0.000860 0.000000 0.042413 0.000000
# 6 0.000000 0.000000 0.000000 0.027697 0.000000 0.137338
#
#
# Mechanical properties :
#
#
# Convention : Reuss Voigt Hill
#
# Bulk Modulus (GPa) = 40.34180 49.04585 44.69383
# Shear Modulus (GPa) = 15.65694 26.25243 20.95468
#
# Velocity S-wave (km/s) = 2.81830 3.64937 3.26042
# Velocity P-wave (km/s) = 5.57278 6.52980 6.07018
#
# Compressibility (1/GPa) = 0.02478818
#
# Stress axis : x y z
#
# Youngs Moduli (GPa) = 29.88363 104.29409 57.34784
#
# Poissons Ratio (x) = 0.26062 0.78087
# Poissons Ratio (y) = 0.07468 0.09950
# Poissons Ratio (z) = 0.40691 0.18095
#
# Static dielectric constant tensor:
#      x y z
#    x 3.389190 0.000000 -0.003670 
#    y 0.000000 3.700280 0.000000 
#    z -0.003670 0.000000 3.838710 
# 
# 
# High freq. dielectric constant tensor:
#      x y z
#    x 1.748090 0.000000 -0.014240 
#    y 0.000000 1.777050 0.000000 
#    z -0.014240 0.000000 1.764990 
# 
# From -- ./inp_files/86309.got.cif
#   From: 2010.06.25/outbox.cif.g09.slc.cpg/sg12_44_cif.got.tgz:86309.got - 2010.06.28 00:19:55.
