data_PCOD8112772
_publ_section_title
;
Structure prediction by ZEFSAII (Michael W. Deem and Ramdas Pophale) SiO2 
 PCOD8112772
Probable space group: C 2/M
;
_chemical_formula_sum "Si O2"
_cell_formula_units_Z 64
_cell_length_a 14.283685
_cell_length_b 20.337244
_cell_length_c 12.988570
_cell_angle_alpha 90.000000
_cell_angle_beta 126.113609
_cell_angle_gamma 90.000000
_cell_volume 3048.066134
_symmetry_space_group_name_H-M "C 2/M"
_symmetry_group_IT_number 12
_symmetry_cell_setting 'monoclinic'
loop_
_space_group_symop_operation_xyz
x,y,z
-x,y,-z
-x,-y,-z
x,-y,z
1/2+x,1/2+y,z
1/2-x,1/2+y,-z
1/2-x,1/2-y,-z
1/2+x,1/2-y,z
loop_
_atom_site_type_symbol
_atom_site_label
_atom_site_fract_x
_atom_site_fract_y
_atom_site_fract_z
Si Si1 0.115375 0.170365 0.023366
Si Si2 0.283317 0.926078 0.023881
Si Si3 0.006200 0.762670 0.770915
Si Si4 0.292593 0.923635 0.794850
Si Si5 0.732011 0.693840 0.306695
Si Si6 0.880665 0.574481 0.475750
Si Si7 0.526468 0.110601 0.251460
Si Si8 0.614199 0.313160 0.635619
O O1 0.176409 0.115441 0.995491
O O2 0.201822 0.197570 0.165932
O O3 0.000000 0.139236 0.000000
O O4 0.077459 0.230336 0.924021
O O5 0.397223 0.918522 0.168006
O O6 0.238676 0.000000 0.000138
O O7 0.313514 0.905484 0.927204
O O8 0.882012 0.798362 0.697612
O O9 0.982522 0.687343 0.732913
O O10 0.082527 0.794360 0.731180
O O11 0.412807 0.906875 0.816534
O O12 0.192071 0.878280 0.683167
O O13 0.258714 0.000000 0.757894
O O14 0.783109 0.623417 0.370760
O O15 0.821941 0.753283 0.382895
O O16 0.844146 0.500000 0.422738
O O17 0.896770 0.578782 0.608728
O O18 0.000000 0.595345 0.500000
O O19 0.500000 0.331290 0.500000
#
# Coordination Sequence:
#
# PCOD8112772 Si02
#       8
#     8   8   8   8   8   8   8   8
#     4  10  23  41  65  98 132 172 224 278 335 401
#     4  11  23  41  66  96 134 175 222 279 338 402
#     4  11  24  41  67  98 132 167 226 279 340 396
#     4  11  25  44  65  97 136 178 224 277 339 406
#     4  11  24  42  65  99 133 173 222 277 340 397
#     4  11  24  43  65  97 137 177 223 275 335 405
#     4  12  24  41  71 100 131 176 225 283 336 402
#     4  12  25  42  67  97 131 175 221 276 335 405
#
# _framework density 20.996918999999998
#
# number of rings (size 3 to 8) (size 9 to 14) (size 15 to 20)
#    0.000    0.875    2.500    4.875    3.500    6.000 
#    0.000    2.500    0.000    0.000    0.000    0.000 
#    0.000    0.000    0.000    0.000    0.000    0.000 
#
# Total GULP energy -396989.078491 kJ/mol
# GULP energy per Si atom -12405.908703 kJ/mol
# Density = 2.094913 g / cm^3
# Si number density = 20.996919 Si / 1000 Ang^3
#
#
#
# Elastic Constant Matrix: (Units=GPa)
#
#
# Indices 1 2 3 4 5 6 
#
# 1 100.6153 29.2327 7.4879 0.0000 0.0585 0.0000
# 2 29.2327 108.4328 23.7377 0.0000 14.5020 0.0000
# 3 7.4879 23.7377 90.1750 0.0000 10.1361 0.0000
# 4 0.0000 0.0000 0.0000 22.3784 0.0000 -5.0139
# 5 0.0585 14.5020 10.1361 0.0000 32.3420 0.0000
# 6 0.0000 0.0000 0.0000 -5.0139 0.0000 21.3541
#
#
#
# Elastic Compliance Matrix: (Units=1/GPa)
#
#
# Indices 1 2 3 4 5 6 
#
# 1 0.010846 -0.003059 -0.000256 0.000000 0.001433 0.000000
# 2 -0.003059 0.011099 -0.002186 0.000000 -0.004286 0.000000
# 3 -0.000256 -0.002186 0.011999 0.000000 -0.002780 0.000000
# 4 0.000000 0.000000 0.000000 0.047167 0.000000 0.011075
# 5 0.001433 -0.004286 -0.002780 0.000000 0.033710 0.000000
# 6 0.000000 0.000000 0.000000 0.011075 0.000000 0.049430
#
#
# Mechanical properties :
#
#
# Convention : Reuss Voigt Hill
#
# Bulk Modulus (GPa) = 43.59131 46.68218 45.13675
# Shear Modulus (GPa) = 27.33727 31.13255 29.23491
#
# Velocity S-wave (km/s) = 3.61219 3.85479 3.73546
# Velocity P-wave (km/s) = 6.18087 6.48796 6.33628
#
# Compressibility (1/GPa) = 0.02294035
#
# Stress axis : x y z
#
# Youngs Moduli (GPa) = 92.20003 90.09926 83.34236
#
# Poissons Ratio (x) = 0.27566 0.02136
# Poissons Ratio (y) = 0.28209 0.18217
# Poissons Ratio (z) = 0.02363 0.19694
#
# Static dielectric constant tensor:
#      x y z
#    x 3.974870 0.000000 -0.056550 
#    y 0.000000 3.748480 0.000000 
#    z -0.056550 0.000000 3.790910 
# 
# 
# High freq. dielectric constant tensor:
#      x y z
#    x 1.836300 0.000000 -0.004520 
#    y 0.000000 1.821990 0.000000 
#    z -0.004520 0.000000 1.824690 
# 
# From -- ./inp_files/169663.got.cif
#   From: 2010.06.25/outbox.cif.g09.slc.cpg/sg12_85_cif.got.tgz:169663.got - 2010.06.28 00:19:55.
