data_PCOD8112405
_publ_section_title
;
Structure prediction by ZEFSAII (Michael W. Deem and Ramdas Pophale) SiO2 
 PCOD8112405
Probable space group: C 2/M
;
_chemical_formula_sum "Si O2"
_cell_formula_units_Z 52
_cell_length_a 11.586037
_cell_length_b 13.789792
_cell_length_c 17.077137
_cell_angle_alpha 90.000000
_cell_angle_beta 63.454944
_cell_angle_gamma 90.000000
_cell_volume 2440.778842
_symmetry_space_group_name_H-M "C 2/M"
_symmetry_group_IT_number 12
_symmetry_cell_setting 'monoclinic'
loop_
_space_group_symop_operation_xyz
x,y,z
-x,y,-z
-x,-y,-z
x,-y,z
1/2+x,1/2+y,z
1/2-x,1/2+y,-z
1/2-x,1/2-y,-z
1/2+x,1/2-y,z
loop_
_atom_site_type_symbol
_atom_site_label
_atom_site_fract_x
_atom_site_fract_y
_atom_site_fract_z
Si Si1 0.136675 0.289806 0.938099
Si Si2 0.370437 0.385394 0.943810
Si Si3 0.000000 0.164010 0.500000
Si Si4 0.484930 0.890768 0.306649
Si Si5 0.077057 0.234925 0.791731
Si Si6 0.169741 0.688916 0.372735
Si Si7 0.761365 0.606170 0.485150
O O1 0.239908 0.366181 0.936798
O O2 0.153404 0.284161 0.840093
O O3 0.139129 0.180579 0.975007
O O4 0.000000 0.337840 0.000000
O O5 0.385301 0.500000 0.959903
O O6 0.486855 0.350706 0.852357
O O7 0.925622 0.219263 0.593546
O O8 0.891011 0.103538 0.487130
O O9 0.510463 0.814671 0.228076
O O10 0.593472 0.887557 0.341855
O O11 0.342855 0.864192 0.383415
O O12 0.486747 0.000000 0.271934
O O13 0.186474 0.193829 0.702973
O O14 0.190046 0.672154 0.459070
O O15 0.803696 0.500000 0.499196
#
# Coordination Sequence:
#
# PCOD8112405 Si02
#       7
#     8   8   4   8   8   8   8
#     4   9  21  42  66  96 128 165 202 254 312 379
#     4  10  22  43  69  96 128 165 205 253 312 379
#     4  12  21  38  61  86 118 168 214 270 326 378
#     4  11  23  40  60  87 124 169 216 268 322 376
#     4  11  23  40  61  93 131 163 210 262 319 379
#     4  12  22  39  63  88 122 171 220 270 321 371
#     4  11  23  39  58  86 119 164 220 271 325 379
#
# _framework density 21.304675
#
# number of rings (size 3 to 8) (size 9 to 14) (size 15 to 20)
#    0.000    1.231    3.077    3.000    0.000    6.154 
#    0.000   10.769    0.000    0.000    0.000    0.000 
#    0.000    0.000    0.000    0.000    0.000    0.000 
#
# Total GULP energy -322186.963887 kJ/mol
# GULP energy per Si atom -12391.806303 kJ/mol
# Density = 2.125618 g / cm^3
# Si number density = 21.304675 Si / 1000 Ang^3
#
#
#
# Elastic Constant Matrix: (Units=GPa)
#
#
# Indices 1 2 3 4 5 6 
#
# 1 117.3946 23.1994 17.9219 0.0000 8.4846 0.0000
# 2 23.1994 80.2115 36.2655 0.0000 -2.9330 0.0000
# 3 17.9219 36.2655 73.1040 0.0000 7.1206 0.0000
# 4 0.0000 0.0000 0.0000 20.0077 0.0000 -1.4676
# 5 8.4846 -2.9330 7.1206 0.0000 38.5064 0.0000
# 6 0.0000 0.0000 0.0000 -1.4676 0.0000 44.1750
#
#
#
# Elastic Compliance Matrix: (Units=1/GPa)
#
#
# Indices 1 2 3 4 5 6 
#
# 1 0.009269 -0.002345 -0.000909 0.000000 -0.002053 0.000000
# 2 -0.002345 0.016956 -0.008160 0.000000 0.003317 0.000000
# 3 -0.000909 -0.008160 0.018321 0.000000 -0.003809 0.000000
# 4 0.000000 0.000000 0.000000 0.050103 0.000000 0.001665
# 5 -0.002053 0.003317 -0.003809 0.000000 0.027379 0.000000
# 6 0.000000 0.000000 0.000000 0.001665 0.000000 0.022693
#
#
# Mechanical properties :
#
#
# Convention : Reuss Voigt Hill
#
# Bulk Modulus (GPa) = 46.04435 47.27596 46.66016
# Shear Modulus (GPa) = 28.60635 33.42606 31.01621
#
# Velocity S-wave (km/s) = 3.66830 3.96530 3.81969
# Velocity P-wave (km/s) = 6.29294 6.57293 6.43446
#
# Compressibility (1/GPa) = 0.02171819
#
# Stress axis : x y z
#
# Youngs Moduli (GPa) = 107.88867 58.97726 54.58256
#
# Poissons Ratio (x) = 0.13829 0.04962
# Poissons Ratio (y) = 0.25298 0.44537
# Poissons Ratio (z) = 0.09809 0.48123
#
# Static dielectric constant tensor:
#      x y z
#    x 4.030460 0.000000 0.032320 
#    y 0.000000 3.607290 0.000000 
#    z 0.032320 0.000000 3.807830 
# 
# 
# High freq. dielectric constant tensor:
#      x y z
#    x 1.858650 0.000000 0.000820 
#    y 0.000000 1.814910 0.000000 
#    z 0.000820 0.000000 1.829750 
# 
# From -- ./inp_files/204947.got.cif
#   From: 2010.06.25/outbox.cif.g09.slc.cpg/sg12_103_cif.got.tgz:204947.got - 2010.06.28 00:19:55.
