data_PCOD8112626
_publ_section_title
;
Structure prediction by ZEFSAII (Michael W. Deem and Ramdas Pophale) SiO2 
 PCOD8112626
Probable space group: C 2/M
;
_chemical_formula_sum "Si O2"
_cell_formula_units_Z 52
_cell_length_a 8.540848
_cell_length_b 27.909277
_cell_length_c 12.791179
_cell_angle_alpha 90.000000
_cell_angle_beta 121.835957
_cell_angle_gamma 90.000000
_cell_volume 2590.330294
_symmetry_space_group_name_H-M "C 2/M"
_symmetry_group_IT_number 12
_symmetry_cell_setting 'monoclinic'
loop_
_space_group_symop_operation_xyz
x,y,z
-x,y,-z
-x,-y,-z
x,-y,z
1/2+x,1/2+y,z
1/2-x,1/2+y,-z
1/2-x,1/2-y,-z
1/2+x,1/2-y,z
loop_
_atom_site_type_symbol
_atom_site_label
_atom_site_fract_x
_atom_site_fract_y
_atom_site_fract_z
Si Si1 0.894302 0.394796 0.560470
Si Si2 0.185312 0.554505 0.263867
Si Si3 0.500087 0.631513 0.616305
Si Si4 0.818644 0.853105 0.994562
Si Si5 0.000000 0.591605 0.000000
Si Si6 0.102378 0.689734 0.734502
Si Si7 0.984004 0.209716 0.776760
O O1 0.917218 0.431397 0.664610
O O2 0.696538 0.391886 0.436404
O O3 0.000000 0.416634 0.500000
O O4 0.955928 0.341331 0.617777
O O5 0.253755 0.500000 0.295027
O O6 0.358188 0.589036 0.313913
O O7 0.048492 0.559476 0.117385
O O8 0.500000 0.652994 0.500000
O O9 0.551625 0.674680 0.709932
O O10 0.672060 0.841981 0.854435
O O11 0.692387 0.880844 0.036335
O O12 0.000000 0.878521 0.000000
O O13 0.901724 0.805108 0.078910
O O14 0.266708 0.704210 0.715998
O O15 0.010703 0.735955 0.753467
#
# Coordination Sequence:
#
# PCOD8112626 Si02
#       7
#     8   8   8   8   4   8   8
#     4  11  23  43  64  92 134 176 219 271 324 394
#     4  11  25  45  72 101 126 166 222 279 345 408
#     4  10  23  40  62  88 128 169 215 263 323 388
#     4  10  23  41  64  96 133 181 224 277 338 407
#     4  12  21  42  82  94 138 170 214 286 361 392
#     4  11  24  38  62  95 132 173 230 270 327 392
#     4  11  23  39  61  92 132 176 219 275 326 393
#
# _framework density 20.074660999999999
#
# number of rings (size 3 to 8) (size 9 to 14) (size 15 to 20)
#    0.000    1.231    4.615    0.692    6.462    4.308 
#    0.000    0.000    0.000    0.923    0.000    0.000 
#    0.000    0.000    0.000    0.000    0.000    0.000 
#
# Total GULP energy -322160.082899 kJ/mol
# GULP energy per Si atom -12390.772419 kJ/mol
# Density = 2.002897 g / cm^3
# Si number density = 20.074661 Si / 1000 Ang^3
#
#
#
# Elastic Constant Matrix: (Units=GPa)
#
#
# Indices 1 2 3 4 5 6 
#
# 1 108.5556 18.2211 27.4979 0.0000 -12.4317 0.0000
# 2 18.2211 49.2743 13.9185 0.0000 -2.5512 0.0000
# 3 27.4979 13.9185 104.9961 0.0000 -2.1605 0.0000
# 4 0.0000 0.0000 0.0000 4.5157 0.0000 17.1571
# 5 -12.4317 -2.5512 -2.1605 0.0000 26.3758 0.0000
# 6 0.0000 0.0000 0.0000 17.1571 0.0000 -30.6786
#
#
#
# Elastic Compliance Matrix: (Units=1/GPa)
#
#
# Indices 1 2 3 4 5 6 
#
# 1 0.010856 -0.003115 -0.002335 0.000000 0.004624 0.000000
# 2 -0.003115 0.022065 -0.002099 0.000000 0.000494 0.000000
# 3 -0.002335 -0.002099 0.010405 0.000000 -0.000451 0.000000
# 4 0.000000 0.000000 0.000000 0.070867 0.000000 0.039633
# 5 0.004624 0.000494 -0.000451 0.000000 0.040104 0.000000
# 6 0.000000 0.000000 0.000000 0.039633 0.000000 -0.010431
#
#
# Mechanical properties :
#
#
# Convention : Reuss Voigt Hill
#
# Bulk Modulus (GPa) = 35.42714 42.45568 38.94141
# Shear Modulus (GPa) = 29.69601 13.58849 21.64225
#
# Velocity S-wave (km/s) = 3.85031 2.60455 3.28699
# Velocity P-wave (km/s) = 6.11985 5.49906 5.81774
#
# Compressibility (1/GPa) = 0.02822694
#
# Stress axis : x y z
#
# Youngs Moduli (GPa) = 92.11676 45.32059 96.11117
#
# Poissons Ratio (x) = 0.14119 0.22441
# Poissons Ratio (y) = 0.28698 0.20173
# Poissons Ratio (z) = 0.21509 0.09512
#
# Static dielectric constant tensor:
#      x y z
#    x 4.521600 0.000000 0.681260 
#    y 0.000000 3.299710 0.000000 
#    z 0.681260 0.000000 5.085740 
# 
# 
# High freq. dielectric constant tensor:
#      x y z
#    x 1.799960 0.000000 -0.005470 
#    y 0.000000 1.746830 0.000000 
#    z -0.005470 0.000000 1.804790 
# 
# From -- ./inp_files/125398.got.cif
#   From: 2010.06.25/outbox.cif.g09.slc.cpg/sg12_63_cif.got.tgz:125398.got - 2010.06.28 00:19:55.
