data_PCOD8112276
_publ_section_title
;
Structure prediction by ZEFSAII (Michael W. Deem and Ramdas Pophale) SiO2 
 PCOD8112276
Probable space group: C 2/M
;
_chemical_formula_sum "Si O2"
_cell_formula_units_Z 56
_cell_length_a 9.041881
_cell_length_b 18.150794
_cell_length_c 23.430005
_cell_angle_alpha 90.000000
_cell_angle_beta 45.576512
_cell_angle_gamma 90.000000
_cell_volume 2746.236946
_symmetry_space_group_name_H-M "C 2/M"
_symmetry_group_IT_number 12
_symmetry_cell_setting 'monoclinic'
loop_
_space_group_symop_operation_xyz
x,y,z
-x,y,-z
-x,-y,-z
x,-y,z
1/2+x,1/2+y,z
1/2-x,1/2+y,-z
1/2-x,1/2-y,-z
1/2+x,1/2-y,z
loop_
_atom_site_type_symbol
_atom_site_label
_atom_site_fract_x
_atom_site_fract_y
_atom_site_fract_z
Si Si1 0.833907 0.332703 0.211124
Si Si2 0.318697 0.187376 0.791122
Si Si3 0.597729 0.682013 0.033102
Si Si4 0.540993 0.915317 0.054608
Si Si5 0.431643 0.913514 0.357758
Si Si6 0.669482 0.828656 0.502755
Si Si7 0.926201 0.915816 0.630695
O O1 0.676285 0.264659 0.244391
O O2 0.712580 0.395588 0.277580
O O3 0.037759 0.308306 0.191414
O O4 0.894794 0.364506 0.132987
O O5 0.392235 0.121946 0.729806
O O6 0.079002 0.174505 0.871394
O O7 0.500000 0.698700 0.000000
O O8 0.750000 0.750000 0.000000
O O9 0.720260 0.604849 0.998597
O O10 0.502718 0.000000 0.080713
O O11 0.500000 0.897427 0.000000
O O12 0.434504 0.874094 0.417881
O O13 0.204945 0.900907 0.391458
O O14 0.481337 0.000000 0.351068
O O15 0.500000 0.817913 0.500000
O O16 0.750000 0.750000 0.500000
O O17 0.863993 0.871020 0.424888
O O18 0.990115 0.000000 0.618246
#
# Coordination Sequence:
#
# PCOD8112276 Si02
#       7
#     8   8   8   8   8   8   8
#     4  11  23  41  63  94 126 165 216 262 318 375
#     4  11  23  39  65  93 124 167 213 266 314 380
#     4  12  22  40  64  93 124 168 213 264 321 380
#     4  11  25  42  61  88 125 166 212 264 322 384
#     4  10  23  43  66  96 133 170 211 262 322 383
#     4  12  25  43  67  98 131 168 217 263 314 377
#     4  10  22  42  68  94 130 172 208 257 321 381
#
# _framework density 20.391542000000001
#
# number of rings (size 3 to 8) (size 9 to 14) (size 15 to 20)
#    0.000    1.000    2.857    3.429    2.000    7.143 
#    0.000    0.000    0.000    0.000    0.000    0.000 
#    0.000    0.000    0.000    0.000    0.000    0.000 
#
# Total GULP energy -347284.745522 kJ/mol
# GULP energy per Si atom -12403.026626 kJ/mol
# Density = 2.034513 g / cm^3
# Si number density = 20.391542 Si / 1000 Ang^3
#
#
#
# Elastic Constant Matrix: (Units=GPa)
#
#
# Indices 1 2 3 4 5 6 
#
# 1 133.6362 73.6900 61.9547 0.0030 4.5801 -0.0015
# 2 73.6900 145.3633 58.6909 0.0004 1.6059 -0.0028
# 3 61.9547 58.6909 120.5256 -0.0036 -2.6678 -0.0096
# 4 0.0030 0.0004 -0.0036 40.8907 -0.0012 -1.6406
# 5 4.5801 1.6059 -2.6678 -0.0012 37.3910 0.0029
# 6 -0.0015 -0.0028 -0.0096 -1.6406 0.0029 31.6467
#
#
#
# Elastic Compliance Matrix: (Units=1/GPa)
#
#
# Indices 1 2 3 4 5 6 
#
# 1 0.011774 -0.004349 -0.003968 -0.000001 -0.001539 -0.000001
# 2 -0.004349 0.010186 -0.002727 0.000000 -0.000099 0.000000
# 3 -0.003968 -0.002727 0.011696 0.000002 0.001438 0.000003
# 4 -0.000001 0.000000 0.000002 0.024506 0.000001 0.001270
# 5 -0.001539 -0.000099 0.001438 0.000001 0.027040 -0.000002
# 6 -0.000001 0.000000 0.000003 0.001270 -0.000002 0.031665
#
#
# Mechanical properties :
#
#
# Convention : Reuss Voigt Hill
#
# Bulk Modulus (GPa) = 86.44727 87.57736 87.01231
# Shear Modulus (GPa) = 35.01110 35.66497 35.33803
#
# Velocity S-wave (km/s) = 4.14810 4.18665 4.16742
# Velocity P-wave (km/s) = 8.08876 8.14935 8.11911
#
# Compressibility (1/GPa) = 0.01156775
#
# Stress axis : x y z
#
# Youngs Moduli (GPa) = 84.93441 98.17221 85.49613
#
# Poissons Ratio (x) = 0.42699 0.33927
# Poissons Ratio (y) = 0.36941 0.23312
# Poissons Ratio (z) = 0.33704 0.26769
#
# Static dielectric constant tensor:
#      x y z
#    x 3.772400 0.000000 0.008590 
#    y 0.000000 3.941250 0.000000 
#    z 0.008590 0.000000 3.777020 
# 
# 
# High freq. dielectric constant tensor:
#      x y z
#    x 1.797680 0.000000 0.004230 
#    y 0.000000 1.806310 0.000000 
#    z 0.004230 0.000000 1.809900 
# 
# From -- ./inp_files/333307.got.cif
#   From: 2010.06.25/outbox.cif.g09.slc.cpg/sg12_167_cif.got.tgz:333307.got - 2010.06.28 00:19:55.
