data_PCOD8112921
_publ_section_title
;
Structure prediction by ZEFSAII (Michael W. Deem and Ramdas Pophale) SiO2 
 PCOD8112921
Probable space group: C 2/M
;
_chemical_formula_sum "Si O2"
_cell_formula_units_Z 40
_cell_length_a 29.392556
_cell_length_b 8.794296
_cell_length_c 7.766461
_cell_angle_alpha 90.000000
_cell_angle_beta 105.312392
_cell_angle_gamma 90.000000
_cell_volume 1936.261354
_symmetry_space_group_name_H-M "C 2/M"
_symmetry_group_IT_number 12
_symmetry_cell_setting 'monoclinic'
loop_
_space_group_symop_operation_xyz
x,y,z
-x,y,-z
-x,-y,-z
x,-y,z
1/2+x,1/2+y,z
1/2-x,1/2+y,-z
1/2-x,1/2-y,-z
1/2+x,1/2-y,z
loop_
_atom_site_type_symbol
_atom_site_label
_atom_site_fract_x
_atom_site_fract_y
_atom_site_fract_z
Si Si1 0.603497 0.671396 0.801484
Si Si2 0.701709 0.178954 0.389533
Si Si3 0.054828 0.324180 0.065796
Si Si4 0.704230 0.674239 0.033847
Si Si5 0.388772 0.676812 0.573534
O O1 0.589246 0.500000 0.840719
O O2 0.587406 0.706201 0.589410
O O3 0.578303 0.785628 0.906353
O O4 0.660322 0.687908 0.860539
O O5 0.750000 0.250000 0.500000
O O6 0.688296 0.238713 0.188346
O O7 0.659368 0.227174 0.471706
O O8 0.707394 0.000000 0.392536
O O9 0.064595 0.500000 0.115872
O O10 0.075533 0.226097 0.242016
O O11 0.000000 0.286401 0.000000
O O12 0.716340 0.500000 0.089681
O O13 0.750000 0.750000 0.000000
O O14 0.376303 0.500000 0.586093
#
# Coordination Sequence:
#
# PCOD8112921 Si02
#       5
#     8   8   8   8   8
#     4  10  23  42  66  94 128 170 216 267 323 389
#     4  12  24  39  61  92 130 173 219 266 323 386
#     4  11  25  44  67  96 130 171 219 271 330 393
#     4  11  22  38  61  92 130 172 218 266 321 386
#     4  11  23  42  67  97 131 168 217 270 327 391
#
# _framework density 20.658366999999998
#
# number of rings (size 3 to 8) (size 9 to 14) (size 15 to 20)
#    0.000    1.000    2.000    4.800    0.000    6.400 
#    0.000    4.000    0.000    0.000    0.000    0.000 
#    0.000    0.000    0.000    0.000    0.000    0.000 
#
# Total GULP energy -248105.769416 kJ/mol
# GULP energy per Si atom -12405.288471 kJ/mol
# Density = 2.061135 g / cm^3
# Si number density = 20.658367 Si / 1000 Ang^3
#
#
#
# Elastic Constant Matrix: (Units=GPa)
#
#
# Indices 1 2 3 4 5 6 
#
# 1 98.7514 44.4436 35.3834 0.0000 -1.1619 0.0000
# 2 44.4436 137.2113 48.6086 0.0000 1.5366 0.0000
# 3 35.3834 48.6086 124.2300 0.0000 -7.1348 0.0000
# 4 0.0000 0.0000 0.0000 31.0644 0.0000 -2.0665
# 5 -1.1619 1.5366 -7.1348 0.0000 25.6347 0.0000
# 6 0.0000 0.0000 0.0000 -2.0665 0.0000 35.5304
#
#
#
# Elastic Compliance Matrix: (Units=1/GPa)
#
#
# Indices 1 2 3 4 5 6 
#
# 1 0.012384 -0.003211 -0.002264 0.000000 0.000124 0.000000
# 2 -0.003211 0.009347 -0.002828 0.000000 -0.001493 0.000000
# 3 -0.002264 -0.002828 0.009964 0.000000 0.002840 0.000000
# 4 0.000000 0.000000 0.000000 0.032316 0.000000 0.001880
# 5 0.000124 -0.001493 0.002840 0.000000 0.039895 0.000000
# 6 0.000000 0.000000 0.000000 0.001880 0.000000 0.028254
#
#
# Mechanical properties :
#
#
# Convention : Reuss Voigt Hill
#
# Bulk Modulus (GPa) = 66.27348 68.56267 67.41808
# Shear Modulus (GPa) = 32.51056 33.89638 33.20347
#
# Velocity S-wave (km/s) = 3.97132 4.05508 4.01342
# Velocity P-wave (km/s) = 7.29238 7.42871 7.36086
#
# Compressibility (1/GPa) = 0.01508899
#
# Stress axis : x y z
#
# Youngs Moduli (GPa) = 80.74922 106.98954 100.35909
#
# Poissons Ratio (x) = 0.34350 0.22720
# Poissons Ratio (y) = 0.25926 0.28386
# Poissons Ratio (z) = 0.18281 0.30262
#
# Static dielectric constant tensor:
#      x y z
#    x 3.657110 0.000000 -0.027580 
#    y 0.000000 3.930840 0.000000 
#    z -0.027580 0.000000 3.980040 
# 
# 
# High freq. dielectric constant tensor:
#      x y z
#    x 1.805040 0.000000 -0.000560 
#    y 0.000000 1.819000 0.000000 
#    z -0.000560 0.000000 1.819880 
# 
# From -- ./inp_files/101194.got.cif
#   From: 2010.06.25/outbox.cif.g09.slc.cpg/sg12_51_cif.got.tgz:101194.got - 2010.06.28 00:19:55.
