data_PCOD8112175
_publ_section_title
;
Structure prediction by ZEFSAII (Michael W. Deem and Ramdas Pophale) SiO2 
 PCOD8112175
Probable space group: C 2/M
;
_chemical_formula_sum "Si O2"
_cell_formula_units_Z 56
_cell_length_a 9.783013
_cell_length_b 14.043655
_cell_length_c 25.890375
_cell_angle_alpha 90.000000
_cell_angle_beta 54.039434
_cell_angle_gamma 90.000000
_cell_volume 2879.159852
_symmetry_space_group_name_H-M "C 2/M"
_symmetry_group_IT_number 12
_symmetry_cell_setting 'monoclinic'
loop_
_space_group_symop_operation_xyz
x,y,z
-x,y,-z
-x,-y,-z
x,-y,z
1/2+x,1/2+y,z
1/2-x,1/2+y,-z
1/2-x,1/2-y,-z
1/2+x,1/2-y,z
loop_
_atom_site_type_symbol
_atom_site_label
_atom_site_fract_x
_atom_site_fract_y
_atom_site_fract_z
Si Si1 0.753556 0.259743 0.755508
Si Si2 0.635660 0.500000 0.043167
Si Si3 0.197666 0.311330 0.961777
Si Si4 0.186092 0.610479 0.354001
Si Si5 0.620101 0.196907 0.161706
Si Si6 0.946993 0.760171 0.454544
Si Si7 0.253257 0.500000 0.099072
Si Si8 0.981313 0.890492 0.653295
O O1 0.766553 0.344739 0.711483
O O2 0.562356 0.236930 0.812893
O O3 0.853356 0.295017 0.783293
O O4 0.834909 0.162762 0.716724
O O5 0.699363 0.408926 0.060143
O O6 0.432667 0.500000 0.088552
O O7 0.714495 0.500000 0.968933
O O8 0.241446 0.257186 0.899612
O O9 0.250000 0.250000 0.000000
O O10 0.000000 0.332074 0.000000
O O11 0.140383 0.500000 0.356199
O O12 0.341689 0.624503 0.357769
O O13 0.025893 0.662305 0.415129
O O14 0.638625 0.088489 0.140199
O O15 0.750000 0.750000 0.500000
O O16 0.005276 0.848780 0.406997
O O17 0.000000 0.784814 0.500000
O O18 0.928336 0.000000 0.661490
#
# Coordination Sequence:
#
# PCOD8112175 Si02
#       8
#     8   4   8   8   8   8   4   8
#     4  11  24  44  61  94 125 168 213 267 309 376
#     4  11  23  44  64  94 130 166 208 256 334 404
#     4  12  24  44  67  93 129 167 209 268 333 390
#     4  10  22  42  66  92 127 176 210 252 315 375
#     4  12  25  42  65  93 125 165 215 263 319 380
#     4  11  22  39  65  99 131 163 209 260 307 367
#     4  11  24  40  68  94 126 166 206 267 326 388
#     4  10  22  42  65  89 131 169 207 259 314 363
#
# _framework density 19.450119999999998
#
# number of rings (size 3 to 8) (size 9 to 14) (size 15 to 20)
#    0.000    1.000    4.286    2.786    2.000    1.143 
#    2.571    1.429    0.000    0.000    0.000    0.000 
#    0.000    0.000    0.000    0.000    0.000    0.000 
#
# Total GULP energy -347355.336537 kJ/mol
# GULP energy per Si atom -12405.547733 kJ/mol
# Density = 1.940585 g / cm^3
# Si number density = 19.450120 Si / 1000 Ang^3
#
#
#
# Elastic Constant Matrix: (Units=GPa)
#
#
# Indices 1 2 3 4 5 6 
#
# 1 75.9000 22.0767 15.1321 0.0000 2.0802 0.0000
# 2 22.0767 137.2325 37.8905 0.0000 11.2448 0.0000
# 3 15.1321 37.8905 93.1499 -0.0001 7.7769 0.0000
# 4 0.0000 0.0000 -0.0001 16.2759 0.0001 -0.7571
# 5 2.0802 11.2448 7.7769 0.0001 39.8742 0.0000
# 6 0.0000 0.0000 0.0000 -0.7571 0.0000 31.6548
#
#
#
# Elastic Compliance Matrix: (Units=1/GPa)
#
#
# Indices 1 2 3 4 5 6 
#
# 1 0.014014 -0.001837 -0.001536 0.000000 0.000087 0.000000
# 2 -0.001837 0.008563 -0.003041 0.000000 -0.001726 0.000000
# 3 -0.001536 -0.003041 0.012345 0.000000 -0.001470 0.000000
# 4 0.000000 0.000000 0.000000 0.061509 0.000000 0.001471
# 5 0.000087 -0.001726 -0.001470 0.000000 0.025848 0.000000
# 6 0.000000 0.000000 0.000000 0.001471 0.000000 0.031626
#
#
# Mechanical properties :
#
#
# Convention : Reuss Voigt Hill
#
# Bulk Modulus (GPa) = 45.26374 50.72011 47.99193
# Shear Modulus (GPa) = 28.71956 32.97319 30.84638
#
# Velocity S-wave (km/s) = 3.84679 4.12183 3.98668
# Velocity P-wave (km/s) = 6.56145 6.98472 6.77639
#
# Compressibility (1/GPa) = 0.02209274
#
# Stress axis : x y z
#
# Youngs Moduli (GPa) = 71.35943 116.77505 81.00712
#
# Poissons Ratio (x) = 0.21455 0.12446
# Poissons Ratio (y) = 0.13111 0.24633
# Poissons Ratio (z) = 0.10964 0.35509
#
# Static dielectric constant tensor:
#      x y z
#    x 3.584100 0.000000 0.046260 
#    y 0.000000 3.707550 0.000000 
#    z 0.046260 0.000000 3.469720 
# 
# 
# High freq. dielectric constant tensor:
#      x y z
#    x 1.766950 0.000000 0.000770 
#    y 0.000000 1.764550 0.000000 
#    z 0.000770 0.000000 1.768380 
# 
# From -- ./inp_files/332868.got.cif
#   From: 2010.06.25/outbox.cif.g09.slc.cpg/sg12_167_cif.got.tgz:332868.got - 2010.06.28 00:19:55.
