data_PCOD8112431
_publ_section_title
;
Structure prediction by ZEFSAII (Michael W. Deem and Ramdas Pophale) SiO2 
 PCOD8112431
Probable space group: C 2/M
;
_chemical_formula_sum "Si O2"
_cell_formula_units_Z 28
_cell_length_a 17.437823
_cell_length_b 7.547636
_cell_length_c 15.236392
_cell_angle_alpha 90.000000
_cell_angle_beta 133.339780
_cell_angle_gamma 90.000000
_cell_volume 1458.467656
_symmetry_space_group_name_H-M "C 2/M"
_symmetry_group_IT_number 12
_symmetry_cell_setting 'monoclinic'
loop_
_space_group_symop_operation_xyz
x,y,z
-x,y,-z
-x,-y,-z
x,-y,z
1/2+x,1/2+y,z
1/2-x,1/2+y,-z
1/2-x,1/2-y,-z
1/2+x,1/2-y,z
loop_
_atom_site_type_symbol
_atom_site_label
_atom_site_fract_x
_atom_site_fract_y
_atom_site_fract_z
Si Si1 0.875937 0.000000 0.906077
Si Si2 0.522110 0.304553 0.288182
Si Si3 0.448724 0.000000 0.555816
Si Si4 0.347595 0.798594 0.017262
Si Si5 0.300659 0.500000 0.651472
O O1 0.820942 0.000000 0.770055
O O2 0.838855 0.822992 0.925356
O O3 0.000000 0.000000 0.000000
O O4 0.478601 0.500000 0.281915
O O5 0.512095 0.174869 0.362983
O O6 0.455505 0.231494 0.154566
O O7 0.643305 0.326310 0.348565
O O8 0.500000 0.000000 0.500000
O O9 0.323172 0.000000 0.458948
O O10 0.341840 0.000000 0.980360
O O11 0.250000 0.750000 0.000000
#
# Coordination Sequence:
#
# PCOD8112431 Si02
#       5
#     4   8   4   8   4
#     4  12  22  44  64 103 133 165 224 267 321 401
#     4  10  22  44  67  89 131 172 214 258 333 382
#     4  12  26  42  70  97 124 170 228 272 314 383
#     4  12  23  40  69  97 135 175 211 273 338 389
#     4  10  24  46  65  91 139 173 209 273 316 398
#
# _framework density 19.198232000000001
#
# number of rings (size 3 to 8) (size 9 to 14) (size 15 to 20)
#    0.857    0.000    7.143    0.857    4.000    1.143 
#    2.571    0.000    0.000    0.000    0.000    0.000 
#    0.000    0.000    0.000    0.000    0.000    0.000 
#
# Total GULP energy -173549.584945 kJ/mol
# GULP energy per Si atom -12396.398925 kJ/mol
# Density = 1.915454 g / cm^3
# Si number density = 19.198232 Si / 1000 Ang^3
#
#
#
# Elastic Constant Matrix: (Units=GPa)
#
#
# Indices 1 2 3 4 5 6 
#
# 1 91.6868 41.1890 4.9090 0.0000 -14.5704 0.0000
# 2 41.1890 171.4314 22.7618 0.0000 -26.7021 0.0000
# 3 4.9090 22.7618 53.9025 0.0000 -16.8982 0.0000
# 4 0.0000 0.0000 0.0000 23.2721 0.0000 -1.8918
# 5 -14.5704 -26.7021 -16.8982 0.0000 44.9500 0.0000
# 6 0.0000 0.0000 0.0000 -1.8918 0.0000 35.7278
#
#
#
# Elastic Compliance Matrix: (Units=1/GPa)
#
#
# Indices 1 2 3 4 5 6 
#
# 1 0.012510 -0.002687 0.000869 0.000000 0.002785 0.000000
# 2 -0.002687 0.007149 -0.001945 0.000000 0.002645 0.000000
# 3 0.000869 -0.001945 0.021561 0.000000 0.007232 0.000000
# 4 0.000000 0.000000 0.000000 0.043156 0.000000 0.002285
# 5 0.002785 0.002645 0.007232 0.000000 0.027439 0.000000
# 6 0.000000 0.000000 0.000000 0.002285 0.000000 0.028110
#
#
# Mechanical properties :
#
#
# Convention : Reuss Voigt Hill
#
# Bulk Modulus (GPa) = 29.67969 50.52669 40.10319
# Shear Modulus (GPa) = 31.50910 37.33404 34.42157
#
# Velocity S-wave (km/s) = 4.05563 4.41461 4.23892
# Velocity P-wave (km/s) = 6.11752 7.23606 6.70017
#
# Compressibility (1/GPa) = 0.03369307
#
# Stress axis : x y z
#
# Youngs Moduli (GPa) = 79.93600 139.87859 46.37921
#
# Poissons Ratio (x) = 0.37588 -0.04029
# Poissons Ratio (y) = 0.21480 0.09021
# Poissons Ratio (z) = -0.06943 0.27208
#
# Static dielectric constant tensor:
#      x y z
#    x 3.388990 0.000000 0.000940 
#    y 0.000000 4.170140 0.000000 
#    z 0.000940 0.000000 2.797200 
# 
# 
# High freq. dielectric constant tensor:
#      x y z
#    x 1.744720 0.000000 0.005660 
#    y 0.000000 1.753950 0.000000 
#    z 0.005660 0.000000 1.748100 
# 
# From -- ./inp_files/138578.got.cif
#   From: 2010.06.25/outbox.cif.g09.slc.cpg/sg12_70_cif.got.tgz:138578.got - 2010.06.28 00:19:55.
