data_PCOD8112527
_publ_section_title
;
Structure prediction by ZEFSAII (Michael W. Deem and Ramdas Pophale) SiO2 
 PCOD8112527
Probable space group: C 2/M
;
_chemical_formula_sum "Si O2"
_cell_formula_units_Z 56
_cell_length_a 14.607546
_cell_length_b 28.952413
_cell_length_c 14.015184
_cell_angle_alpha 90.000000
_cell_angle_beta 150.775980
_cell_angle_gamma 90.000000
_cell_volume 2893.885559
_symmetry_space_group_name_H-M "C 2/M"
_symmetry_group_IT_number 12
_symmetry_cell_setting 'monoclinic'
loop_
_space_group_symop_operation_xyz
x,y,z
-x,y,-z
-x,-y,-z
x,-y,z
1/2+x,1/2+y,z
1/2-x,1/2+y,-z
1/2-x,1/2-y,-z
1/2+x,1/2-y,z
loop_
_atom_site_type_symbol
_atom_site_label
_atom_site_fract_x
_atom_site_fract_y
_atom_site_fract_z
Si Si1 0.754308 0.620758 0.055085
Si Si2 0.281832 0.299851 0.487585
Si Si3 0.486285 0.052365 0.600671
Si Si4 0.033937 0.660534 0.930296
Si Si5 0.628724 0.717492 0.697462
Si Si6 0.179890 0.876709 0.331025
Si Si7 0.788613 0.813382 0.818237
O O1 0.840661 0.577667 0.190516
O O2 0.865226 0.628121 0.056155
O O3 0.765420 0.667496 0.126636
O O4 0.534365 0.610264 0.841543
O O5 0.250000 0.250000 0.500000
O O6 0.504725 0.295114 0.676332
O O7 0.236566 0.339013 0.521919
O O8 0.153302 0.312991 0.278416
O O9 0.500000 0.054097 0.500000
O O10 0.291438 0.076366 0.451865
O O11 0.483190 0.000000 0.635459
O O12 0.167131 0.700742 0.090204
O O13 0.000000 0.632091 0.000000
O O14 0.500000 0.692457 0.500000
O O15 0.648280 0.770531 0.678484
O O16 0.230571 0.856031 0.273182
O O17 0.000000 0.795012 0.000000
#
# Coordination Sequence:
#
# PCOD8112527 Si02
#       7
#     8   8   8   8   8   8   8
#     4  11  23  41  64  89 125 166 214 261 324 385
#     4  12  25  37  59  89 124 173 223 260 313 375
#     4  11  24  42  69 101 130 165 209 263 329 395
#     4  12  25  41  59  88 126 167 219 272 310 366
#     4  12  24  37  55  85 126 172 219 265 305 361
#     4  11  23  42  63  95 129 175 211 260 324 388
#     4  10  23  38  57  87 129 173 213 257 314 378
#
# _framework density 19.351146
#
# number of rings (size 3 to 8) (size 9 to 14) (size 15 to 20)
#    0.000    0.714    5.714    2.143    6.000    1.714 
#    0.000    1.429    0.000    0.429    0.000    1.000 
#    0.000    0.000    0.000    0.000    0.000    0.000 
#
# Total GULP energy -346867.278505 kJ/mol
# GULP energy per Si atom -12388.117089 kJ/mol
# Density = 1.930710 g / cm^3
# Si number density = 19.351146 Si / 1000 Ang^3
#
#
#
# Elastic Constant Matrix: (Units=GPa)
#
#
# Indices 1 2 3 4 5 6 
#
# 1 113.8545 36.8113 26.7969 0.0000 -2.5731 0.0000
# 2 36.8113 101.7223 44.6028 0.0000 4.4269 0.0000
# 3 26.7969 44.6028 119.6363 0.0000 2.3353 0.0001
# 4 0.0000 0.0000 0.0000 18.6740 0.0000 -0.1511
# 5 -2.5731 4.4269 2.3353 0.0000 33.3683 0.0000
# 6 0.0000 0.0000 0.0001 -0.1511 0.0000 19.6226
#
#
#
# Elastic Compliance Matrix: (Units=1/GPa)
#
#
# Indices 1 2 3 4 5 6 
#
# 1 0.010115 -0.003242 -0.001082 0.000000 0.001286 0.000000
# 2 -0.003242 0.012843 -0.004030 0.000000 -0.001672 0.000000
# 3 -0.001082 -0.004030 0.010108 0.000000 -0.000256 0.000000
# 4 0.000000 0.000000 0.000000 0.053554 0.000000 0.000412
# 5 0.001286 -0.001672 -0.000256 0.000000 0.030307 0.000000
# 6 0.000000 0.000000 0.000000 0.000412 0.000000 0.050965
#
#
# Mechanical properties :
#
#
# Convention : Reuss Voigt Hill
#
# Bulk Modulus (GPa) = 61.12543 61.29279 61.20911
# Shear Modulus (GPa) = 26.30840 29.46644 27.88742
#
# Velocity S-wave (km/s) = 3.69118 3.90644 3.80033
# Velocity P-wave (km/s) = 7.05850 7.21733 7.13836
#
# Compressibility (1/GPa) = 0.01635980
#
# Stress axis : x y z
#
# Youngs Moduli (GPa) = 98.86249 77.86040 98.92827
#
# Poissons Ratio (x) = 0.25242 0.10705
# Poissons Ratio (y) = 0.32051 0.39863
# Poissons Ratio (z) = 0.10698 0.31374
#
# Static dielectric constant tensor:
#      x y z
#    x 3.273760 0.000000 -0.274290 
#    y 0.000000 3.180990 0.000000 
#    z -0.274290 0.000000 3.621160 
# 
# 
# High freq. dielectric constant tensor:
#      x y z
#    x 1.765330 0.000000 0.008410 
#    y 0.000000 1.704660 0.000000 
#    z 0.008410 0.000000 1.777180 
# 
# From -- ./inp_files/219376.got.cif
#   From: 2010.06.25/outbox.cif.g09.slc.cpg/sg12_110_cif.got.tgz:219376.got - 2010.06.28 00:19:55.
