data_PCOD8112448
_publ_section_title
;
Structure prediction by ZEFSAII (Michael W. Deem and Ramdas Pophale) SiO2 
 PCOD8112448
Probable space group: C 2/M
;
_chemical_formula_sum "Si O2"
_cell_formula_units_Z 64
_cell_length_a 19.386015
_cell_length_b 8.687838
_cell_length_c 30.029693
_cell_angle_alpha 90.000000
_cell_angle_beta 38.146027
_cell_angle_gamma 90.000000
_cell_volume 3123.964857
_symmetry_space_group_name_H-M "C 2/M"
_symmetry_group_IT_number 12
_symmetry_cell_setting 'monoclinic'
loop_
_space_group_symop_operation_xyz
x,y,z
-x,y,-z
-x,-y,-z
x,-y,z
1/2+x,1/2+y,z
1/2-x,1/2+y,-z
1/2-x,1/2-y,-z
1/2+x,1/2-y,z
loop_
_atom_site_type_symbol
_atom_site_label
_atom_site_fract_x
_atom_site_fract_y
_atom_site_fract_z
Si Si1 0.672132 0.820281 0.001816
Si Si2 0.273934 0.676505 0.280308
Si Si3 0.857894 0.678028 0.324681
Si Si4 0.027133 0.679045 0.375129
Si Si5 0.690486 0.681553 0.487334
Si Si6 0.782294 0.820434 0.115712
Si Si7 0.564560 0.677808 0.882143
Si Si8 0.937885 0.820739 0.735912
O O1 0.712630 0.770689 0.932667
O O2 0.685117 0.000000 0.999274
O O3 0.750000 0.750000 0.000000
O O4 0.543718 0.776109 0.074760
O O5 0.293585 0.500000 0.284776
O O6 0.316101 0.791678 0.296331
O O7 0.144127 0.710834 0.339193
O O8 0.338666 0.715065 0.202134
O O9 0.890373 0.500000 0.313801
O O10 0.760930 0.725713 0.408079
O O11 0.967382 0.781149 0.276262
O O12 0.010384 0.500000 0.372238
O O13 0.015306 0.775000 0.335902
O O14 0.930458 0.739154 0.457107
O O15 0.676765 0.500000 0.499779
O O16 0.750000 0.750000 0.500000
O O17 0.888885 0.779676 0.092508
O O18 0.671733 0.777534 0.198617
O O19 0.780589 0.000000 0.105524
O O20 0.529301 0.500000 0.898487
O O21 0.908514 0.000000 0.753083
#
# Coordination Sequence:
#
# PCOD8112448 Si02
#       8
#     8   8   8   8   8   8   8   8
#     4  12  27  45  66  98 135 172 216 263 315 375
#     4  10  23  43  66  94 129 169 214 263 320 383
#     4  11  25  42  62  91 130 170 214 267 325 384
#     4  11  22  41  66  94 128 167 214 267 320 381
#     4  11  23  39  62  91 125 169 216 269 324 383
#     4  11  23  44  71  97 130 171 213 261 320 379
#     4  10  22  44  70  95 129 171 213 260 317 381
#     4  12  24  39  65  97 129 167 215 267 318 381
#
# _framework density 20.486785999999999
#
# number of rings (size 3 to 8) (size 9 to 14) (size 15 to 20)
#    0.000    1.000    2.500    4.125    1.750    6.000 
#    0.000    2.500    0.000    0.000    0.000    0.000 
#    0.000    0.000    0.000    0.000    0.000    0.000 
#
# Total GULP energy -397020.995402 kJ/mol
# GULP energy per Si atom -12406.906106 kJ/mol
# Density = 2.044016 g / cm^3
# Si number density = 20.486786 Si / 1000 Ang^3
#
#
#
# Elastic Constant Matrix: (Units=GPa)
#
#
# Indices 1 2 3 4 5 6 
#
# 1 127.3865 58.7328 38.7484 -0.0011 -4.0510 0.0140
# 2 58.7328 94.9808 40.4941 0.0001 -6.6569 0.0133
# 3 38.7484 40.4941 85.8046 0.0017 -14.6954 0.0009
# 4 -0.0011 0.0001 0.0017 39.5730 -0.0009 -1.3349
# 5 -4.0510 -6.6569 -14.6954 -0.0009 37.7067 -0.0018
# 6 0.0140 0.0133 0.0009 -1.3349 -0.0018 35.1795
#
#
#
# Elastic Compliance Matrix: (Units=1/GPa)
#
#
# Indices 1 2 3 4 5 6 
#
# 1 0.011343 -0.006044 -0.002405 0.000000 -0.000786 -0.000002
# 2 -0.006044 0.016401 -0.004957 0.000000 0.000314 -0.000004
# 3 -0.002405 -0.004957 0.015950 -0.000001 0.005083 0.000003
# 4 0.000000 0.000000 -0.000001 0.025302 0.000000 0.000960
# 5 -0.000786 0.000314 0.005083 0.000000 0.028473 0.000002
# 6 -0.000002 -0.000004 0.000003 0.000960 0.000002 0.028462
#
#
# Mechanical properties :
#
#
# Convention : Reuss Voigt Hill
#
# Bulk Modulus (GPa) = 59.23045 64.90250 62.06648
# Shear Modulus (GPa) = 31.57143 33.83826 32.70485
#
# Velocity S-wave (km/s) = 3.92990 4.06853 3.99982
# Velocity P-wave (km/s) = 7.04034 7.33618 7.18978
#
# Compressibility (1/GPa) = 0.01688321
#
# Stress axis : x y z
#
# Youngs Moduli (GPa) = 88.15768 60.97048 62.69514
#
# Poissons Ratio (x) = 0.36852 0.15076
# Poissons Ratio (y) = 0.53284 0.31078
# Poissons Ratio (z) = 0.21198 0.30223
#
# Static dielectric constant tensor:
#      x y z
#    x 3.704820 -0.000010 -0.072350 
#    y -0.000010 3.723300 0.000020 
#    z -0.072350 0.000020 3.945590 
# 
# 
# High freq. dielectric constant tensor:
#      x y z
#    x 1.805620 0.000000 -0.007150 
#    y 0.000000 1.805590 0.000000 
#    z -0.007150 0.000000 1.813740 
# 
# From -- ./inp_files/378086.got.cif
#   From: 2010.06.25/outbox.cif.g09.slc.cpg/sg12_190_cif.got.tgz:378086.got - 2010.06.28 00:19:55.
