data_PCOD8112755
_publ_section_title
;
Structure prediction by ZEFSAII (Michael W. Deem and Ramdas Pophale) SiO2 
 PCOD8112755
Probable space group: C 2/M
;
_chemical_formula_sum "Si O2"
_cell_formula_units_Z 32
_cell_length_a 10.886412
_cell_length_b 27.584452
_cell_length_c 9.103244
_cell_angle_alpha 90.000000
_cell_angle_beta 28.554492
_cell_angle_gamma 90.000000
_cell_volume 1306.676497
_symmetry_space_group_name_H-M "C 2/M"
_symmetry_group_IT_number 12
_symmetry_cell_setting 'monoclinic'
loop_
_space_group_symop_operation_xyz
x,y,z
-x,y,-z
-x,-y,-z
x,-y,z
1/2+x,1/2+y,z
1/2-x,1/2+y,-z
1/2-x,1/2-y,-z
1/2+x,1/2-y,z
loop_
_atom_site_type_symbol
_atom_site_label
_atom_site_fract_x
_atom_site_fract_y
_atom_site_fract_z
Si Si1 0.229586 0.814642 0.668563
Si Si2 0.018572 0.056759 0.653281
Si Si3 0.495498 0.091489 0.665971
Si Si4 0.230616 0.792565 0.338302
O O1 0.471397 0.850840 0.399746
O O2 0.152316 0.799602 0.587165
O O3 0.283372 0.764143 0.695899
O O4 0.000000 0.841536 0.000000
O O5 0.284177 0.073786 0.451388
O O6 0.000000 0.068534 0.500000
O O7 0.988561 0.000000 0.712548
O O8 0.782978 0.084306 0.974308
O O9 0.500000 0.065169 0.500000
O O10 0.000000 0.820769 0.500000
O O11 0.500000 0.815428 0.000000
#
# Coordination Sequence:
#
# PCOD8112755 Si02
#       4
#     8   8   8   8
#     4  10  23  42  64  93 134 173 214 268 326 378
#     4  11  26  48  71  97 132 172 215 270 333 395
#     4  12  25  42  69 102 135 172 217 270 329 394
#     4  10  23  41  64  92 127 174 223 267 315 378
#
# _framework density 24.489612999999999
#
# number of rings (size 3 to 8) (size 9 to 14) (size 15 to 20)
#    0.000    1.250    0.000    4.500    0.000   23.000 
#    0.000    0.000    0.000    0.000    0.000    0.000 
#    0.000    0.000    0.000    0.000    0.000    0.000 
#
# Total GULP energy -198252.169965 kJ/mol
# GULP energy per Si atom -12390.760623 kJ/mol
# Density = 2.443387 g / cm^3
# Si number density = 24.489613 Si / 1000 Ang^3
#
#
#
# Elastic Constant Matrix: (Units=GPa)
#
#
# Indices 1 2 3 4 5 6 
#
# 1 163.0606 -4.1814 46.6206 0.0000 -7.6624 0.0000
# 2 -4.1814 71.0359 22.3853 0.0000 3.0709 0.0000
# 3 46.6206 22.3853 166.8439 0.0000 1.6482 0.0000
# 4 0.0000 0.0000 0.0000 71.7780 0.0000 84.5314
# 5 -7.6624 3.0709 1.6482 0.0000 45.5546 0.0000
# 6 0.0000 0.0000 0.0000 84.5314 0.0000 131.0441
#
#
#
# Elastic Compliance Matrix: (Units=1/GPa)
#
#
# Indices 1 2 3 4 5 6 
#
# 1 0.006797 0.000994 -0.002044 0.000000 0.001150 0.000000
# 2 0.000994 0.014883 -0.002267 0.000000 -0.000754 0.000000
# 3 -0.002044 -0.002267 0.006873 0.000000 -0.000440 0.000000
# 4 0.000000 0.000000 0.000000 0.057971 0.000000 -0.037395
# 5 0.001150 -0.000754 -0.000440 0.000000 0.022212 0.000000
# 6 0.000000 0.000000 0.000000 -0.037395 0.000000 0.031753
#
#
# Mechanical properties :
#
#
# Convention : Reuss Voigt Hill
#
# Bulk Modulus (GPa) = 45.62168 58.95438 52.28803
# Shear Modulus (GPa) = 32.37750 72.08306 52.23028
#
# Velocity S-wave (km/s) = 3.64000 5.43121 4.62318
# Velocity P-wave (km/s) = 6.02790 7.96594 7.06370
#
# Compressibility (1/GPa) = 0.02191940
#
# Stress axis : x y z
#
# Youngs Moduli (GPa) = 147.13200 67.19074 145.49059
#
# Poissons Ratio (x) = -0.06682 0.29737
# Poissons Ratio (y) = -0.14632 0.32987
# Poissons Ratio (z) = 0.30073 0.15234
#
# Static dielectric constant tensor:
#      x y z
#    x 4.930470 0.000000 0.500630 
#    y 0.000000 4.477120 0.000000 
#    z 0.500630 0.000000 6.181080 
# 
# 
# High freq. dielectric constant tensor:
#      x y z
#    x 2.002040 0.000000 0.005000 
#    y 0.000000 1.956170 0.000000 
#    z 0.005000 0.000000 1.982390 
# 
# From -- ./inp_files/54526.got.cif
#   From: 2010.06.25/outbox.cif.g09.slc.cpg/sg12_28_cif.got.tgz:54526.got - 2010.06.28 00:19:55.
