data_PCOD8112504
_publ_section_title
;
Structure prediction by ZEFSAII (Michael W. Deem and Ramdas Pophale) SiO2 
 PCOD8112504
Probable space group: C 2/M
;
_chemical_formula_sum "Si O2"
_cell_formula_units_Z 52
_cell_length_a 8.902418
_cell_length_b 25.611539
_cell_length_c 23.041847
_cell_angle_alpha 90.000000
_cell_angle_beta 31.466408
_cell_angle_gamma 90.000000
_cell_volume 2742.396639
_symmetry_space_group_name_H-M "C 2/M"
_symmetry_group_IT_number 12
_symmetry_cell_setting 'monoclinic'
loop_
_space_group_symop_operation_xyz
x,y,z
-x,y,-z
-x,-y,-z
x,-y,z
1/2+x,1/2+y,z
1/2-x,1/2+y,-z
1/2-x,1/2-y,-z
1/2+x,1/2-y,z
loop_
_atom_site_type_symbol
_atom_site_label
_atom_site_fract_x
_atom_site_fract_y
_atom_site_fract_z
Si Si1 0.564596 0.180738 0.590470
Si Si2 0.646024 0.560742 0.012807
Si Si3 0.500000 0.245242 0.500000
Si Si4 0.923620 0.500000 0.328406
Si Si5 0.327543 0.406440 0.222909
Si Si6 0.864121 0.000000 0.458573
Si Si7 0.820682 0.940372 0.782610
Si Si8 0.712405 0.393639 0.565140
O O1 0.424072 0.212256 0.582896
O O2 0.712738 0.220313 0.586101
O O3 0.324556 0.146402 0.703731
O O4 0.825561 0.144509 0.477781
O O5 0.575728 0.500000 0.051977
O O6 0.534619 0.601325 0.098778
O O7 0.500000 0.575438 0.000000
O O8 0.985408 0.569658 0.898442
O O9 0.717530 0.500000 0.338435
O O10 0.706158 0.500000 0.451877
O O11 0.100407 0.446900 0.271542
O O12 0.517750 0.432494 0.210197
O O13 0.709289 0.048985 0.481426
O O14 0.938955 0.897346 0.697747
O O15 0.885507 0.000000 0.740240
O O16 0.000000 0.371267 0.500000
#
# Coordination Sequence:
#
# PCOD8112504 Si02
#       8
#     8   8   4   4   8   4   8   8
#     4  11  23  39  64  86 115 154 193 251 311 357
#     4  10  23  37  53  80 125 169 204 235 272 330
#     4  10  24  44  56  88 120 142 196 258 320 362
#     4  11  22  32  49  85 128 158 197 235 277 342
#     4  12  21  37  59  83 116 162 203 235 284 356
#     4  11  23  30  47  86 134 159 192 230 286 339
#     4  11  21  33  54  83 126 171 196 232 275 333
#     4  12  21  34  57  89 124 162 198 228 288 361
#
# _framework density 18.961517000000001
#
# number of rings (size 3 to 8) (size 9 to 14) (size 15 to 20)
#    0.000    0.923    6.154    0.692    4.308    1.231 
#    0.000    0.000    0.000    0.000    0.000   26.923 
#    0.000    0.000    0.000    0.000    0.000    0.000 
#
# Total GULP energy -322155.828289 kJ/mol
# GULP energy per Si atom -12390.608780 kJ/mol
# Density = 1.891836 g / cm^3
# Si number density = 18.961517 Si / 1000 Ang^3
#
#
#
# Elastic Constant Matrix: (Units=GPa)
#
#
# Indices 1 2 3 4 5 6 
#
# 1 68.9014 35.4042 39.5572 0.0015 5.3094 0.0006
# 2 35.4042 93.8531 47.0735 0.0000 4.8681 0.0000
# 3 39.5572 47.0735 120.8397 -0.0082 13.5842 0.0047
# 4 0.0015 0.0000 -0.0082 23.7050 -0.0003 4.1773
# 5 5.3094 4.8681 13.5842 -0.0003 32.7102 -0.0011
# 6 0.0006 0.0000 0.0047 4.1773 -0.0011 18.4940
#
#
#
# Elastic Compliance Matrix: (Units=1/GPa)
#
#
# Indices 1 2 3 4 5 6 
#
# 1 0.019752 -0.005233 -0.004358 -0.000003 -0.000617 0.000001
# 2 -0.005233 0.014630 -0.004025 -0.000001 0.000344 0.000001
# 3 -0.004358 -0.004025 0.011668 0.000005 -0.003539 -0.000004
# 4 -0.000003 -0.000001 0.000005 0.043934 -0.000001 -0.009923
# 5 -0.000617 0.000344 -0.003539 -0.000001 0.032090 0.000003
# 6 0.000001 0.000001 -0.000004 -0.009923 0.000003 0.056313
#
#
# Mechanical properties :
#
#
# Convention : Reuss Voigt Hill
#
# Bulk Modulus (GPa) = 53.14032 58.62932 55.88482
# Shear Modulus (GPa) = 23.59705 25.75246 24.67475
#
# Velocity S-wave (km/s) = 3.53153 3.68930 3.61128
# Velocity P-wave (km/s) = 6.68694 7.00965 6.85019
#
# Compressibility (1/GPa) = 0.01881810
#
# Stress axis : x y z
#
# Youngs Moduli (GPa) = 50.62774 68.35321 85.70726
#
# Poissons Ratio (x) = 0.35771 0.37350
# Poissons Ratio (y) = 0.26495 0.34494
# Poissons Ratio (z) = 0.22063 0.27509
#
# Static dielectric constant tensor:
#      x y z
#    x 3.664070 0.000000 0.115410 
#    y 0.000000 3.372950 0.000010 
#    z 0.115410 0.000010 3.579560 
# 
# 
# High freq. dielectric constant tensor:
#      x y z
#    x 1.758310 0.000000 0.005200 
#    y 0.000000 1.706870 0.000000 
#    z 0.005200 0.000000 1.727450 
# 
# From -- ./inp_files/334204.got.cif
#   From: 2010.06.25/outbox.cif.g09.slc.cpg/sg12_168_cif.got.tgz:334204.got - 2010.06.28 00:19:55.
