data_PCOD8112981
_publ_section_title
;
Structure prediction by ZEFSAII (Michael W. Deem and Ramdas Pophale) SiO2 
 PCOD8112981
Probable space group: C 2/M
;
_chemical_formula_sum "Si O2"
_cell_formula_units_Z 56
_cell_length_a 14.415566
_cell_length_b 13.195007
_cell_length_c 15.932871
_cell_angle_alpha 90.000000
_cell_angle_beta 68.656374
_cell_angle_gamma 90.000000
_cell_volume 2822.788234
_symmetry_space_group_name_H-M "C 2/M"
_symmetry_group_IT_number 12
_symmetry_cell_setting 'monoclinic'
loop_
_space_group_symop_operation_xyz
x,y,z
-x,y,-z
-x,-y,-z
x,-y,z
1/2+x,1/2+y,z
1/2-x,1/2+y,-z
1/2-x,1/2-y,-z
1/2+x,1/2-y,z
loop_
_atom_site_type_symbol
_atom_site_label
_atom_site_fract_x
_atom_site_fract_y
_atom_site_fract_z
Si Si1 0.747476 0.248897 0.696496
Si Si2 0.547276 0.387015 0.903208
Si Si3 0.603176 0.120297 0.054587
Si Si4 0.879878 0.381542 0.135156
Si Si5 0.929269 0.117676 0.600708
Si Si6 0.218799 0.613737 0.173238
Si Si7 0.430990 0.620478 0.289114
O O1 0.688713 0.173003 0.775933
O O2 0.829324 0.183923 0.618978
O O3 0.810911 0.325782 0.733472
O O4 0.670561 0.312810 0.662753
O O5 0.503200 0.500000 0.919791
O O6 0.664077 0.383336 0.877896
O O7 0.523863 0.346052 0.816775
O O8 0.500000 0.327910 0.000000
O O9 0.491789 0.162548 0.105329
O O10 0.670815 0.164203 0.106629
O O11 0.593906 0.000000 0.059874
O O12 0.653506 0.147986 0.948578
O O13 0.872402 0.500000 0.156024
O O14 0.000000 0.142744 0.500000
O O15 0.987615 0.146122 0.667104
O O16 0.898197 0.000000 0.611978
O O17 0.178710 0.500000 0.198079
O O18 0.402992 0.500000 0.298964
#
# Coordination Sequence:
#
# PCOD8112981 Si02
#       7
#     8   8   8   8   8   8   8
#     4  11  21  33  58  86 109 140 188 234 280 346
#     4   8  14  27  47  74 108 146 184 217 258 316
#     4   8  16  32  49  66 106 154 188 226 274 316
#     4   9  18  32  48  73 108 149 188 231 274 320
#     4  10  23  43  64  85 111 145 187 238 296 350
#     4   9  18  32  50  75 107 148 187 226 278 330
#     4   9  20  39  59  82 118 156 183 229 293 338
#
# _framework density 19.838542
#
# number of rings (size 3 to 8) (size 9 to 14) (size 15 to 20)
#    0.000    2.857    0.000    2.571    2.000    2.286 
#   10.286    4.286    0.000    1.714    0.000    0.000 
#    0.000    0.000    0.000    0.000    0.000    0.000 
#
# Total GULP energy -346887.127889 kJ/mol
# GULP energy per Si atom -12388.825996 kJ/mol
# Density = 1.979339 g / cm^3
# Si number density = 19.838542 Si / 1000 Ang^3
#
#
#
# Elastic Constant Matrix: (Units=GPa)
#
#
# Indices 1 2 3 4 5 6 
#
# 1 51.1175 14.1804 25.6389 0.0000 6.1524 0.0000
# 2 14.1804 70.4317 26.7647 0.0000 -12.0155 0.0000
# 3 25.6389 26.7647 88.9936 0.0000 -8.7104 0.0000
# 4 0.0000 0.0000 0.0000 23.2940 0.0000 -10.3402
# 5 6.1524 -12.0155 -8.7104 0.0000 25.9854 0.0000
# 6 0.0000 0.0000 0.0000 -10.3402 0.0000 14.1810
#
#
#
# Elastic Compliance Matrix: (Units=1/GPa)
#
#
# Indices 1 2 3 4 5 6 
#
# 1 0.025546 -0.004213 -0.007109 0.000000 -0.010379 0.000000
# 2 -0.004213 0.017681 -0.003315 0.000000 0.008062 0.000000
# 3 -0.007109 -0.003315 0.014781 0.000000 0.005105 0.000000
# 4 0.000000 0.000000 0.000000 0.063475 0.000000 0.046283
# 5 -0.010379 0.008062 0.005105 0.000000 0.046380 0.000000
# 6 0.000000 0.000000 0.000000 0.046283 0.000000 0.104265
#
#
# Mechanical properties :
#
#
# Convention : Reuss Voigt Hill
#
# Bulk Modulus (GPa) = 34.79915 38.19011 36.49463
# Shear Modulus (GPa) = 16.07826 22.28933 19.18380
#
# Velocity S-wave (km/s) = 2.84994 3.35556 3.11303
# Velocity P-wave (km/s) = 5.32999 5.85707 5.59974
#
# Compressibility (1/GPa) = 0.02873633
#
# Stress axis : x y z
#
# Youngs Moduli (GPa) = 39.14489 56.55675 67.65264
#
# Poissons Ratio (x) = 0.23825 0.48092
# Poissons Ratio (y) = 0.16490 0.22426
# Poissons Ratio (z) = 0.27827 0.18748
#
# Static dielectric constant tensor:
#      x y z
#    x 3.722250 0.000000 0.184020 
#    y 0.000000 3.932480 0.000000 
#    z 0.184020 0.000000 3.421640 
# 
# 
# High freq. dielectric constant tensor:
#      x y z
#    x 1.764880 0.000000 0.009270 
#    y 0.000000 1.784030 0.000000 
#    z 0.009270 0.000000 1.742850 
# 
# From -- ./inp_files/269795.got.cif
#   From: 2010.06.25/outbox.cif.g09.slc.cpg/sg12_135_cif.got.tgz:269795.got - 2010.06.28 00:19:55.
