data_PCOD8112282
_publ_section_title
;
Structure prediction by ZEFSAII (Michael W. Deem and Ramdas Pophale) SiO2 
 PCOD8112282
Probable space group: C 2/M
;
_chemical_formula_sum "Si O2"
_cell_formula_units_Z 56
_cell_length_a 12.967249
_cell_length_b 14.914887
_cell_length_c 14.483945
_cell_angle_alpha 90.000000
_cell_angle_beta 115.229494
_cell_angle_gamma 90.000000
_cell_volume 2534.048900
_symmetry_space_group_name_H-M "C 2/M"
_symmetry_group_IT_number 12
_symmetry_cell_setting 'monoclinic'
loop_
_space_group_symop_operation_xyz
x,y,z
-x,y,-z
-x,-y,-z
x,-y,z
1/2+x,1/2+y,z
1/2-x,1/2+y,-z
1/2-x,1/2-y,-z
1/2+x,1/2-y,z
loop_
_atom_site_type_symbol
_atom_site_label
_atom_site_fract_x
_atom_site_fract_y
_atom_site_fract_z
Si Si1 0.693020 0.392446 0.727317
Si Si2 0.696508 0.822615 0.413167
Si Si3 0.122829 0.599586 0.557113
Si Si4 0.877171 0.400414 0.942887
Si Si5 0.303492 0.177385 0.086832
Si Si6 0.500000 0.713588 0.750000
Si Si7 0.193020 0.892446 0.227317
O O1 0.684450 0.500000 0.726275
O O2 0.722149 0.356653 0.637021
O O3 0.790268 0.354824 0.835798
O O4 0.571997 0.350922 0.709760
O O5 0.750000 0.750000 0.500000
O O6 0.675301 0.905830 0.474237
O O7 0.578631 0.781869 0.334703
O O8 0.101209 0.500000 0.587088
O O9 0.209732 0.645176 0.664202
O O10 0.000000 0.650114 0.500000
O O11 0.898792 0.500000 0.912912
O O12 0.824699 0.405830 0.025763
O O13 0.000000 0.349886 0.000000
O O14 0.421370 0.218131 0.165296
O O15 0.222150 0.143347 0.137021
O O16 0.250000 0.250000 0.000000
O O17 0.428003 0.649078 0.790240
O O18 0.184451 0.000000 0.226275
#
# Coordination Sequence:
#
# PCOD8112282 Si02
#       7
#     8   8   8   8   8   8   8
#     4  11  25  47  68  99 138 179 225 276 336 404
#     4  12  25  41  68  98 138 173 224 271 340 393
#     4  10  22  42  68  96 133 179 224 271 332 404
#     4  10  22  42  68  96 133 179 224 271 332 404
#     4  12  25  41  68  98 138 173 224 271 340 393
#     4  12  25  44  71 104 138 172 226 284 335 392
#     4  11  25  47  68  99 138 179 225 276 336 404
#
# _framework density 22.099021
#
# number of rings (size 3 to 8) (size 9 to 14) (size 15 to 20)
#    0.000    0.857    2.857    3.857    4.000    0.000 
#    0.000    7.143    0.000    0.000    0.000    0.000 
#    0.000    0.000    0.000    0.000    0.000    0.000 
#
# Total GULP energy -346988.236705 kJ/mol
# GULP energy per Si atom -12392.437025 kJ/mol
# Density = 2.204872 g / cm^3
# Si number density = 22.099021 Si / 1000 Ang^3
#
#
#
# Elastic Constant Matrix: (Units=GPa)
#
#
# Indices 1 2 3 4 5 6 
#
# 1 120.2822 -2.9115 30.5772 0.0000 -26.6934 0.0000
# 2 -2.9115 42.9226 2.0678 0.0000 -5.7840 0.0000
# 3 30.5772 2.0678 91.6695 0.0000 -20.6824 0.0000
# 4 0.0000 0.0000 0.0000 31.1070 0.0000 -11.3943
# 5 -26.6934 -5.7840 -20.6824 0.0000 49.8641 0.0000
# 6 0.0000 0.0000 0.0000 -11.3943 0.0000 35.3566
#
#
#
# Elastic Compliance Matrix: (Units=1/GPa)
#
#
# Indices 1 2 3 4 5 6 
#
# 1 0.009942 0.001395 -0.002328 0.000000 0.004518 0.000000
# 2 0.001395 0.023864 -0.000232 0.000000 0.003419 0.000000
# 3 -0.002328 -0.000232 0.012581 0.000000 0.003945 0.000000
# 4 0.000000 0.000000 0.000000 0.036450 0.000000 0.011747
# 5 0.004518 0.003419 0.003945 0.000000 0.024506 0.000000
# 6 0.000000 0.000000 0.000000 0.011747 0.000000 0.032069
#
#
# Mechanical properties :
#
#
# Convention : Reuss Voigt Hill
#
# Bulk Modulus (GPa) = 22.69813 34.92681 28.81247
# Shear Modulus (GPa) = 31.96361 38.27494 35.11928
#
# Velocity S-wave (km/s) = 3.80726 4.16621 3.99077
# Velocity P-wave (km/s) = 5.44246 6.24357 5.85673
#
# Compressibility (1/GPa) = 0.04405648
#
# Stress axis : x y z
#
# Youngs Moduli (GPa) = 100.58144 41.90357 79.48712
#
# Poissons Ratio (x) = -0.05847 0.18507
# Poissons Ratio (y) = -0.14036 0.01848
# Poissons Ratio (z) = 0.23419 0.00974
#
# Static dielectric constant tensor:
#      x y z
#    x 4.414270 0.000000 -0.200370 
#    y 0.000000 4.187220 0.000000 
#    z -0.200370 0.000000 4.310390 
# 
# 
# High freq. dielectric constant tensor:
#      x y z
#    x 1.878120 0.000000 -0.002110 
#    y 0.000000 1.868010 0.000000 
#    z -0.002110 0.000000 1.881660 
# 
# From -- ./inp_files/206748.got.cif
#   From: 2010.06.25/outbox.cif.g09.slc.cpg/sg12_104_cif.got.tgz:206748.got - 2010.06.28 00:19:55.
