data_PCOD8112330
_publ_section_title
;
Structure prediction by ZEFSAII (Michael W. Deem and Ramdas Pophale) SiO2 
 PCOD8112330
Probable space group: C 2/M
;
_chemical_formula_sum "Si O2"
_cell_formula_units_Z 48
_cell_length_a 20.173559
_cell_length_b 24.210569
_cell_length_c 5.370351
_cell_angle_alpha 90.000000
_cell_angle_beta 128.933388
_cell_angle_gamma 90.000000
_cell_volume 2040.333536
_symmetry_space_group_name_H-M "C 2/M"
_symmetry_group_IT_number 12
_symmetry_cell_setting 'monoclinic'
loop_
_space_group_symop_operation_xyz
x,y,z
-x,y,-z
-x,-y,-z
x,-y,z
1/2+x,1/2+y,z
1/2-x,1/2+y,-z
1/2-x,1/2-y,-z
1/2+x,1/2-y,z
loop_
_atom_site_type_symbol
_atom_site_label
_atom_site_fract_x
_atom_site_fract_y
_atom_site_fract_z
Si Si1 0.122806 0.811673 0.348773
Si Si2 0.410056 0.374714 0.215738
Si Si3 0.698287 0.840004 0.145384
Si Si4 0.577019 0.210830 0.517546
Si Si5 0.253282 0.937594 0.089060
Si Si6 0.588143 0.896217 0.272481
O O1 0.113824 0.836605 0.606062
O O2 0.222843 0.814988 0.512065
O O3 0.091323 0.748456 0.304309
O O4 0.072814 0.839968 0.000205
O O5 0.500000 0.404083 0.500000
O O6 0.335305 0.419239 0.985845
O O7 0.619163 0.856059 0.128244
O O8 0.665994 0.792061 0.882147
O O9 0.730007 0.897204 0.098249
O O10 0.500000 0.235717 0.500000
O O11 0.558181 0.146797 0.412686
O O12 0.334551 0.936317 0.467568
O O13 0.242678 0.000000 0.966578
O O14 0.500000 0.929557 0.000000
#
# Coordination Sequence:
#
# PCOD8112330 Si02
#       6
#     8   8   8   8   8   8
#     4  11  24  42  67 101 141 185 227 273 337 409
#     4  11  24  44  68 101 141 178 227 287 339 404
#     4  10  22  43  62  97 137 178 226 288 337 406
#     4  11  23  37  64  99 137 187 224 270 330 413
#     4  10  24  45  68  96 130 176 230 290 354 410
#     4  11  22  40  67  95 137 172 228 281 344 405
#
# _framework density 23.525563999999999
#
# number of rings (size 3 to 8) (size 9 to 14) (size 15 to 20)
#    0.000    1.333    3.333    1.500    2.333    3.333 
#    0.000    0.833    0.000    3.000    0.000    0.000 
#    0.000    0.000    0.000    0.000    0.000    0.000 
#
# Total GULP energy -297415.409470 kJ/mol
# GULP energy per Si atom -12392.308728 kJ/mol
# Density = 2.347202 g / cm^3
# Si number density = 23.525564 Si / 1000 Ang^3
#
#
#
# Elastic Constant Matrix: (Units=GPa)
#
#
# Indices 1 2 3 4 5 6 
#
# 1 99.1052 30.8198 43.0857 0.0000 12.6850 0.0000
# 2 30.8198 93.6180 33.3761 0.0000 14.5790 0.0000
# 3 43.0857 33.3761 133.5187 0.0000 24.7434 0.0000
# 4 0.0000 0.0000 0.0000 11.2470 0.0000 0.0117
# 5 12.6850 14.5790 24.7434 0.0000 53.6700 0.0000
# 6 0.0000 0.0000 0.0000 0.0117 0.0000 11.4222
#
#
#
# Elastic Compliance Matrix: (Units=1/GPa)
#
#
# Indices 1 2 3 4 5 6 
#
# 1 0.012448 -0.002858 -0.003172 0.000000 -0.000703 0.000000
# 2 -0.002858 0.012584 -0.001875 0.000000 -0.001878 0.000000
# 3 -0.003172 -0.001875 0.009566 0.000000 -0.003151 0.000000
# 4 0.000000 0.000000 0.000000 0.088913 0.000000 -0.000091
# 5 -0.000703 -0.001878 -0.003151 0.000000 0.020762 0.000000
# 6 0.000000 0.000000 0.000000 -0.000091 0.000000 0.087549
#
#
# Mechanical properties :
#
#
# Convention : Reuss Voigt Hill
#
# Bulk Modulus (GPa) = 53.22747 60.08946 56.65847
# Shear Modulus (GPa) = 19.69331 29.86519 24.77925
#
# Velocity S-wave (km/s) = 2.89641 3.56684 3.24896
# Velocity P-wave (km/s) = 5.81894 6.52386 6.18146
#
# Compressibility (1/GPa) = 0.01878729
#
# Stress axis : x y z
#
# Youngs Moduli (GPa) = 80.33355 79.46903 104.53705
#
# Poissons Ratio (x) = 0.22708 0.33162
# Poissons Ratio (y) = 0.22955 0.19604
# Poissons Ratio (z) = 0.25484 0.14903
#
# Static dielectric constant tensor:
#      x y z
#    x 4.342260 0.000000 0.303120 
#    y 0.000000 3.646160 0.000000 
#    z 0.303120 0.000000 4.516930 
# 
# 
# High freq. dielectric constant tensor:
#      x y z
#    x 1.942330 0.000000 0.018250 
#    y 0.000000 1.882840 0.000000 
#    z 0.018250 0.000000 1.946080 
# 
# From -- ./inp_files/17506.got.cif
#   From: 2010.06.25/outbox.cif.g09.slc.cpg/sg12_9_cif.got.tgz:17506.got - 2010.06.28 00:19:55.
