data_PCOD8112601
_publ_section_title
;
Structure prediction by ZEFSAII (Michael W. Deem and Ramdas Pophale) SiO2 
 PCOD8112601
Probable space group: C 2/M
;
_chemical_formula_sum "Si O2"
_cell_formula_units_Z 56
_cell_length_a 19.932757
_cell_length_b 8.901917
_cell_length_c 28.252880
_cell_angle_alpha 90.000000
_cell_angle_beta 40.139824
_cell_angle_gamma 90.000000
_cell_volume 3231.774783
_symmetry_space_group_name_H-M "C 2/M"
_symmetry_group_IT_number 12
_symmetry_cell_setting 'monoclinic'
loop_
_space_group_symop_operation_xyz
x,y,z
-x,y,-z
-x,-y,-z
x,-y,z
1/2+x,1/2+y,z
1/2-x,1/2+y,-z
1/2-x,1/2-y,-z
1/2+x,1/2-y,z
loop_
_atom_site_type_symbol
_atom_site_label
_atom_site_fract_x
_atom_site_fract_y
_atom_site_fract_z
Si Si1 0.695058 0.673435 0.196731
Si Si2 0.791167 0.830169 0.225496
Si Si3 0.393818 0.827443 0.533337
Si Si4 0.392737 0.329848 0.077179
Si Si5 0.860975 0.326464 0.443007
Si Si6 0.464714 0.674635 0.300810
Si Si7 0.692718 0.177357 0.684247
O O1 0.713435 0.500000 0.197980
O O2 0.693923 0.760668 0.248172
O O3 0.792041 0.736042 0.112799
O O4 0.587843 0.699368 0.226490
O O5 0.890971 0.827041 0.135920
O O6 0.815877 0.731365 0.257488
O O7 0.763275 0.000000 0.256045
O O8 0.500000 0.770812 0.500000
O O9 0.407806 0.808007 0.469878
O O10 0.299895 0.727020 0.602552
O O11 0.370289 0.000000 0.559582
O O12 0.382430 0.500000 0.063649
O O13 0.500000 0.257592 0.000000
O O14 0.849751 0.500000 0.434433
O O15 0.750000 0.250000 0.500000
O O16 0.937829 0.243574 0.366007
O O17 0.433741 0.500000 0.317487
O O18 0.404813 0.755619 0.291069
O O19 0.685492 0.000000 0.686403
#
# Coordination Sequence:
#
# PCOD8112601 Si02
#       7
#     8   8   8   8   8   8   8
#     4   9  19  34  54  85 112 140 181 224 266 313
#     4   9  19  35  56  79 111 144 174 215 267 321
#     4  10  23  40  56  76 103 139 180 223 275 330
#     4   8  16  32  56  85 114 146 180 215 262 320
#     4  11  22  37  57  79 105 138 182 228 276 328
#     4  11  23  38  56  77 111 148 184 228 275 327
#     4  12  24  37  55  79 107 140 184 228 272 324
#
# _framework density 17.327940999999999
#
# number of rings (size 3 to 8) (size 9 to 14) (size 15 to 20)
#    0.857    1.143    1.429    2.571    2.000    3.429 
#    0.000    0.000    0.000    0.857    0.000    0.000 
#    0.000    0.000    0.000    0.000    0.000    0.000 
#
# Total GULP energy -347070.022133 kJ/mol
# GULP energy per Si atom -12395.357933 kJ/mol
# Density = 1.728850 g / cm^3
# Si number density = 17.327941 Si / 1000 Ang^3
#
#
#
# Elastic Constant Matrix: (Units=GPa)
#
#
# Indices 1 2 3 4 5 6 
#
# 1 117.0701 56.1300 30.8625 -0.0009 -13.9321 0.0086
# 2 56.1300 125.0185 35.7189 -0.0014 -14.3727 0.0053
# 3 30.8625 35.7189 55.5041 0.0000 -19.5111 -0.0005
# 4 -0.0009 -0.0014 0.0000 27.7735 -0.0005 0.6290
# 5 -13.9321 -14.3727 -19.5111 -0.0005 26.9471 -0.0005
# 6 0.0086 0.0053 -0.0005 0.6290 -0.0005 21.7811
#
#
#
# Elastic Compliance Matrix: (Units=1/GPa)
#
#
# Indices 1 2 3 4 5 6 
#
# 1 0.011531 -0.004074 -0.003297 0.000000 0.001401 -0.000004
# 2 -0.004074 0.011256 -0.004840 0.000000 0.000393 -0.000001
# 3 -0.003297 -0.004840 0.028785 0.000000 0.016555 0.000004
# 4 0.000000 0.000000 0.000000 0.036029 0.000001 -0.001040
# 5 0.001401 0.000393 0.016555 0.000001 0.050031 0.000001
# 6 -0.000004 -0.000001 0.000004 -0.001040 0.000001 0.045941
#
#
# Mechanical properties :
#
#
# Convention : Reuss Voigt Hill
#
# Bulk Modulus (GPa) = 36.83459 60.33507 48.58483
# Shear Modulus (GPa) = 23.03659 26.95908 24.99784
#
# Velocity S-wave (km/s) = 3.65011 3.94866 3.80232
# Velocity P-wave (km/s) = 6.25043 7.46220 6.88303
#
# Compressibility (1/GPa) = 0.02714840
#
# Stress axis : x y z
#
# Youngs Moduli (GPa) = 86.72077 88.84144 34.74066
#
# Poissons Ratio (x) = 0.36194 0.11456
# Poissons Ratio (y) = 0.35330 0.16816
# Poissons Ratio (z) = 0.28596 0.43002
#
# Static dielectric constant tensor:
#      x y z
#    x 3.172120 -0.000010 -0.000810 
#    y -0.000010 3.386070 0.000000 
#    z -0.000810 0.000000 3.135800 
# 
# 
# High freq. dielectric constant tensor:
#      x y z
#    x 1.660960 0.000000 -0.005440 
#    y 0.000000 1.682840 0.000000 
#    z -0.005440 0.000000 1.652200 
# 
# From -- ./inp_files/362499.got.cif
#   From: 2010.06.25/outbox.cif.g09.slc.cpg/sg12_182_cif.got.tgz:362499.got - 2010.06.28 00:19:55.
