data_PCOD8112905
_publ_section_title
;
Structure prediction by ZEFSAII (Michael W. Deem and Ramdas Pophale) SiO2 
 PCOD8112905
Probable space group: C 2/M
;
_chemical_formula_sum "Si O2"
_cell_formula_units_Z 64
_cell_length_a 17.941534
_cell_length_b 17.538394
_cell_length_c 9.510409
_cell_angle_alpha 90.000000
_cell_angle_beta 89.084477
_cell_angle_gamma 90.000000
_cell_volume 2992.217397
_symmetry_space_group_name_H-M "C 2/M"
_symmetry_group_IT_number 12
_symmetry_cell_setting 'monoclinic'
loop_
_space_group_symop_operation_xyz
x,y,z
-x,y,-z
-x,-y,-z
x,-y,z
1/2+x,1/2+y,z
1/2-x,1/2+y,-z
1/2-x,1/2-y,-z
1/2+x,1/2-y,z
loop_
_atom_site_type_symbol
_atom_site_label
_atom_site_fract_x
_atom_site_fract_y
_atom_site_fract_z
Si Si1 0.060810 0.590879 0.238785
Si Si2 0.113764 0.586437 0.748319
Si Si3 0.842158 0.662404 0.522886
Si Si4 0.657960 0.169578 0.011235
Si Si5 0.172461 0.823691 0.597111
Si Si6 0.569311 0.409978 0.409094
Si Si7 0.324040 0.335727 0.083388
Si Si8 0.936182 0.912107 0.904262
O O1 0.078027 0.500000 0.246924
O O2 0.099426 0.638581 0.360586
O O3 0.973420 0.607676 0.252506
O O4 0.090912 0.626292 0.092374
O O5 0.123895 0.500000 0.795817
O O6 0.152076 0.597869 0.596222
O O7 0.160272 0.638334 0.853287
O O8 0.862056 0.743408 0.452110
O O9 0.761321 0.670857 0.593290
O O10 0.647770 0.260219 0.999298
O O11 0.735409 0.153414 0.087592
O O12 0.143609 0.887362 0.490327
O O13 0.146052 0.838595 0.757661
O O14 0.500000 0.377337 0.500000
O O15 0.567173 0.500000 0.399530
O O16 0.567937 0.374381 0.251385
O O17 0.358723 0.403980 0.990750
O O18 0.955543 0.000000 0.882484
O O19 0.000000 0.873076 0.000000
#
# Coordination Sequence:
#
# PCOD8112905 Si02
#       8
#     8   8   8   8   8   8   8   8
#     4  11  24  43  66  98 134 173 216 269 328 388
#     4  11  24  43  66  94 134 173 218 269 320 388
#     4  11  24  43  66  94 130 170 213 268 323 385
#     4  11  24  43  66  94 130 170 213 268 323 385
#     4  11  24  43  66  94 130 172 216 268 324 385
#     4  10  23  42  65  95 130 166 210 265 322 384
#     4  11  24  43  66  94 130 172 216 268 324 385
#     4  10  23  42  65  95 130 166 210 265 322 384
#
# _framework density 21.388819000000002
#
# number of rings (size 3 to 8) (size 9 to 14) (size 15 to 20)
#    0.000    1.250    2.500    2.250    3.500    7.500 
#    0.000    0.000    0.000    0.000    0.000    0.000 
#    0.000    0.000    0.000    0.000    0.000    0.000 
#
# Total GULP energy -396848.927364 kJ/mol
# GULP energy per Si atom -12401.528980 kJ/mol
# Density = 2.134014 g / cm^3
# Si number density = 21.388819 Si / 1000 Ang^3
#
#
#
# Elastic Constant Matrix: (Units=GPa)
#
#
# Indices 1 2 3 4 5 6 
#
# 1 50.3004 35.3255 36.9212 0.0000 6.2507 0.0000
# 2 35.3255 49.5516 22.3882 0.0000 3.3841 0.0000
# 3 36.9212 22.3882 157.9268 0.0000 7.1762 0.0000
# 4 0.0000 0.0000 0.0000 33.6833 0.0000 0.1873
# 5 6.2507 3.3841 7.1762 0.0000 39.6647 0.0000
# 6 0.0000 0.0000 0.0000 0.1873 0.0000 32.0368
#
#
#
# Elastic Compliance Matrix: (Units=1/GPa)
#
#
# Indices 1 2 3 4 5 6 
#
# 1 0.045643 -0.029434 -0.006337 0.000000 -0.003535 0.000000
# 2 -0.029434 0.040610 0.001080 0.000000 0.000978 0.000000
# 3 -0.006337 0.001080 0.007683 0.000000 -0.000483 0.000000
# 4 0.000000 0.000000 0.000000 0.029689 0.000000 -0.000174
# 5 -0.003535 0.000978 -0.000483 0.000000 0.025772 0.000000
# 6 0.000000 0.000000 0.000000 -0.000174 0.000000 0.031215
#
#
# Mechanical properties :
#
#
# Convention : Reuss Voigt Hill
#
# Bulk Modulus (GPa) = 40.72992 49.67206 45.20099
# Shear Modulus (GPa) = 19.36637 31.95324 25.65980
#
# Velocity S-wave (km/s) = 3.01232 3.86932 3.46740
# Velocity P-wave (km/s) = 5.58415 6.57541 6.09995
#
# Compressibility (1/GPa) = 0.02455197
#
# Stress axis : x y z
#
# Youngs Moduli (GPa) = 21.90922 24.62449 130.16561
#
# Poissons Ratio (x) = 0.72480 0.82491
# Poissons Ratio (y) = 0.64488 -0.14056
# Poissons Ratio (z) = 0.13885 -0.02659
#
# Static dielectric constant tensor:
#      x y z
#    x 3.728210 0.000000 0.025310 
#    y 0.000000 3.728400 0.000000 
#    z 0.025310 0.000000 4.113240 
# 
# 
# High freq. dielectric constant tensor:
#      x y z
#    x 1.835120 0.000000 0.003280 
#    y 0.000000 1.829910 0.000000 
#    z 0.003280 0.000000 1.861800 
# 
# From -- ./inp_files/77485.got.cif
#   From: 2010.06.25/outbox.cif.g09.slc.cpg/sg12_39_cif.got.tgz:77485.got - 2010.06.28 00:19:55.
