data_PCOD8112342
_publ_section_title
;
Structure prediction by ZEFSAII (Michael W. Deem and Ramdas Pophale) SiO2 
 PCOD8112342
Probable space group: C 2/M
;
_chemical_formula_sum "Si O2"
_cell_formula_units_Z 48
_cell_length_a 17.110992
_cell_length_b 30.679451
_cell_length_c 8.831022
_cell_angle_alpha 90.000000
_cell_angle_beta 30.671952
_cell_angle_gamma 90.000000
_cell_volume 2364.872525
_symmetry_space_group_name_H-M "C 2/M"
_symmetry_group_IT_number 12
_symmetry_cell_setting 'monoclinic'
loop_
_space_group_symop_operation_xyz
x,y,z
-x,y,-z
-x,-y,-z
x,-y,z
1/2+x,1/2+y,z
1/2-x,1/2+y,-z
1/2-x,1/2-y,-z
1/2+x,1/2-y,z
loop_
_atom_site_type_symbol
_atom_site_label
_atom_site_fract_x
_atom_site_fract_y
_atom_site_fract_z
Si Si1 0.106609 0.500000 0.969780
Si Si2 0.536152 0.077269 0.617392
Si Si3 0.910833 0.250008 0.801162
Si Si4 0.038404 0.330326 0.758929
Si Si5 0.888366 0.074837 0.043022
Si Si6 0.964194 0.000000 0.385823
Si Si7 0.377797 0.327417 0.075741
O O1 0.286973 0.500000 0.630014
O O2 0.000000 0.500000 0.000000
O O3 0.076237 0.542932 0.118189
O O4 0.500000 0.077134 0.500000
O O5 0.493824 0.124610 0.752851
O O6 0.710087 0.063167 0.371621
O O7 0.000000 0.252296 0.500000
O O8 0.934959 0.291542 0.868015
O O9 0.750000 0.250000 0.000000
O O10 0.931058 0.205724 0.859286
O O11 0.213935 0.318229 0.427256
O O12 0.000000 0.334829 0.000000
O O13 0.887174 0.124577 0.986383
O O14 0.953405 0.043434 0.808332
O O15 0.000000 0.069012 0.000000
O O16 0.000000 0.000000 0.500000
O O17 0.500000 0.321990 0.000000
#
# Coordination Sequence:
#
# PCOD8112342 Si02
#       7
#     4   8   8   8   8   4   8
#     4  12  24  40  64 100 132 168 220 264 324 396
#     4  11  23  42  68  93 128 172 219 270 323 384
#     4  12  25  43  66  97 131 169 213 267 327 384
#     4  11  25  43  66  94 130 170 217 270 324 391
#     4  10  22  43  65  88 127 173 211 255 320 387
#     4  12  24  40  62  98 132 162 210 270 320 378
#     4  10  24  43  65  94 127 171 219 261 322 389
#
# _framework density 20.297077000000002
#
# number of rings (size 3 to 8) (size 9 to 14) (size 15 to 20)
#    0.000    1.000    1.667    4.500    4.667    4.667 
#    0.000    0.000    0.000    0.000    0.000    0.000 
#    0.000    0.000    0.000    0.000    0.000    0.000 
#
# Total GULP energy -297493.008070 kJ/mol
# GULP energy per Si atom -12395.542003 kJ/mol
# Density = 2.025088 g / cm^3
# Si number density = 20.297077 Si / 1000 Ang^3
#
#
#
# Elastic Constant Matrix: (Units=GPa)
#
#
# Indices 1 2 3 4 5 6 
#
# 1 89.3076 56.0836 47.6331 0.0000 -0.0037 0.0000
# 2 56.0836 132.4243 25.5414 0.0000 14.2447 0.0000
# 3 47.6331 25.5414 35.0494 0.0000 6.4758 0.0000
# 4 0.0000 0.0000 0.0000 38.6833 0.0000 17.1449
# 5 -0.0037 14.2447 6.4758 0.0000 48.3845 0.0000
# 6 0.0000 0.0000 0.0000 17.1449 0.0000 17.9886
#
#
#
# Elastic Compliance Matrix: (Units=1/GPa)
#
#
# Indices 1 2 3 4 5 6 
#
# 1 0.055125 -0.011405 -0.068930 0.000000 0.012588 0.000000
# 2 -0.011405 0.011297 0.008082 0.000000 -0.004408 0.000000
# 3 -0.068930 0.008082 0.119721 0.000000 -0.018408 0.000000
# 4 0.000000 0.000000 0.000000 0.044758 0.000000 -0.042659
# 5 0.012588 -0.004408 -0.018408 0.000000 0.024430 0.000000
# 6 0.000000 0.000000 0.000000 -0.042659 0.000000 0.096249
#
#
# Mechanical properties :
#
#
# Convention : Reuss Voigt Hill
#
# Bulk Modulus (GPa) = 24.01793 57.25528 40.63660
# Shear Modulus (GPa) = 9.80457 29.51282 19.65869
#
# Velocity S-wave (km/s) = 2.20023 3.81733 3.11553
# Velocity P-wave (km/s) = 4.27944 6.90646 5.74512
#
# Compressibility (1/GPa) = 0.04163557
#
# Stress axis : x y z
#
# Youngs Moduli (GPa) = 18.14068 88.51797 8.35274
#
# Poissons Ratio (x) = 1.00956 0.57576
# Poissons Ratio (y) = 0.20690 -0.06751
# Poissons Ratio (z) = 1.25045 -0.71539
#
# Static dielectric constant tensor:
#      x y z
#    x 3.873160 0.000000 -0.148810 
#    y 0.000000 3.622490 0.000000 
#    z -0.148810 0.000000 3.789660 
# 
# 
# High freq. dielectric constant tensor:
#      x y z
#    x 1.809400 0.000000 -0.007580 
#    y 0.000000 1.812810 0.000000 
#    z -0.007580 0.000000 1.799600 
# 
# From -- ./inp_files/80658.got.cif
#   From: 2010.06.25/outbox.cif.g09.slc.cpg/sg12_41_cif.got.tgz:80658.got - 2010.06.28 00:19:55.
