data_PCOD8112416
_publ_section_title
;
Structure prediction by ZEFSAII (Michael W. Deem and Ramdas Pophale) SiO2 
 PCOD8112416
Probable space group: C 2/M
;
_chemical_formula_sum "Si O2"
_cell_formula_units_Z 64
_cell_length_a 31.061581
_cell_length_b 15.320253
_cell_length_c 9.084619
_cell_angle_alpha 90.000000
_cell_angle_beta 40.528949
_cell_angle_gamma 90.000000
_cell_volume 2809.295453
_symmetry_space_group_name_H-M "C 2/M"
_symmetry_group_IT_number 12
_symmetry_cell_setting 'monoclinic'
loop_
_space_group_symop_operation_xyz
x,y,z
-x,y,-z
-x,-y,-z
x,-y,z
1/2+x,1/2+y,z
1/2-x,1/2+y,-z
1/2-x,1/2-y,-z
1/2+x,1/2-y,z
loop_
_atom_site_type_symbol
_atom_site_label
_atom_site_fract_x
_atom_site_fract_y
_atom_site_fract_z
Si Si1 0.847127 0.335593 0.075758
Si Si2 0.159713 0.194406 0.139751
Si Si3 0.720205 0.104901 0.278991
Si Si4 0.907558 0.717274 0.424166
Si Si5 0.601080 0.694804 0.851724
Si Si6 0.488209 0.097643 0.698014
Si Si7 0.228195 0.098529 0.545560
Si Si8 0.052596 0.101994 0.243872
O O1 0.854100 0.266537 0.186935
O O2 0.779448 0.387084 0.279348
O O3 0.842539 0.290047 0.928751
O O4 0.909516 0.400182 0.926724
O O5 0.122165 0.207458 0.392064
O O6 0.123852 0.122518 0.128805
O O7 0.233792 0.153847 0.964209
O O8 0.645644 0.140081 0.458571
O O9 0.748293 0.142512 0.361594
O O10 0.719587 0.000000 0.259230
O O11 0.929477 0.766474 0.217819
O O12 0.975163 0.671165 0.301506
O O13 0.655327 0.620952 0.675485
O O14 0.544835 0.655511 0.109609
O O15 0.500000 0.122555 0.500000
O O16 0.513611 0.000000 0.670515
O O17 0.226827 0.000000 0.596273
O O18 0.000000 0.136665 0.500000
O O19 0.043903 0.000000 0.233934
#
# Coordination Sequence:
#
# PCOD8112416 Si02
#       8
#     8   8   8   8   8   8   8   8
#     4  11  21  40  66  96 129 177 232 272 332 402
#     4  11  23  39  69  96 135 174 227 274 337 404
#     4  11  22  41  66  97 138 183 225 276 340 403
#     4  12  25  43  65 102 139 172 226 286 343 396
#     4  11  23  40  69  99 134 171 222 280 340 399
#     4  11  25  46  68  95 134 185 233 276 334 409
#     4  11  21  39  66  97 133 175 223 276 340 405
#     4  10  22  43  71  98 129 177 231 274 329 408
#
# _framework density 22.781514000000001
#
# number of rings (size 3 to 8) (size 9 to 14) (size 15 to 20)
#    0.000    1.000    5.000    3.000    3.500    0.500 
#    0.000    4.375    0.000    1.500    0.000    0.000 
#    0.000    0.000    0.000    0.000    0.000    0.000 
#
# Total GULP energy -396743.285983 kJ/mol
# GULP energy per Si atom -12398.227687 kJ/mol
# Density = 2.272966 g / cm^3
# Si number density = 22.781514 Si / 1000 Ang^3
#
#
#
# Elastic Constant Matrix: (Units=GPa)
#
#
# Indices 1 2 3 4 5 6 
#
# 1 62.0421 36.3732 39.8016 0.0000 21.7822 0.0000
# 2 36.3732 89.4374 41.9646 0.0000 16.4861 0.0000
# 3 39.8016 41.9646 149.3707 0.0000 9.9292 0.0000
# 4 0.0000 0.0000 0.0000 47.6827 0.0000 -10.9627
# 5 21.7822 16.4861 9.9292 0.0000 29.7659 0.0000
# 6 0.0000 0.0000 0.0000 -10.9627 0.0000 38.9562
#
#
#
# Elastic Compliance Matrix: (Units=1/GPa)
#
#
# Indices 1 2 3 4 5 6 
#
# 1 0.028429 -0.006463 -0.004719 0.000000 -0.015650 0.000000
# 2 -0.006463 0.015514 -0.002434 0.000000 -0.003051 0.000000
# 3 -0.004719 -0.002434 0.008505 0.000000 0.001964 0.000000
# 4 0.000000 0.000000 0.000000 0.022423 0.000000 0.006310
# 5 -0.015650 -0.003051 0.001964 0.000000 0.046083 0.000000
# 6 0.000000 0.000000 0.000000 0.006310 0.000000 0.027446
#
#
# Mechanical properties :
#
#
# Convention : Reuss Voigt Hill
#
# Bulk Modulus (GPa) = 39.65561 59.68098 49.66830
# Shear Modulus (GPa) = 27.16860 35.46169 31.31515
#
# Velocity S-wave (km/s) = 3.45711 3.94966 3.71156
# Velocity P-wave (km/s) = 5.77756 6.85957 6.34168
#
# Compressibility (1/GPa) = 0.02521711
#
# Stress axis : x y z
#
# Youngs Moduli (GPa) = 35.17522 64.45970 117.57250
#
# Poissons Ratio (x) = 0.41658 0.55486
# Poissons Ratio (y) = 0.22732 0.28612
# Poissons Ratio (z) = 0.16600 0.15687
#
# Static dielectric constant tensor:
#      x y z
#    x 3.981330 0.000000 -0.067800 
#    y 0.000000 3.934570 0.000000 
#    z -0.067800 0.000000 4.312450 
# 
# 
# High freq. dielectric constant tensor:
#      x y z
#    x 1.875900 0.000000 -0.004330 
#    y 0.000000 1.894930 0.000000 
#    z -0.004330 0.000000 1.915420 
# 
# From -- ./inp_files/112794.got.cif
#   From: 2010.06.25/outbox.cif.g09.slc.cpg/sg12_57_cif.got.tgz:112794.got - 2010.06.28 00:19:55.
