data_PCOD8112072
_publ_section_title
;
Structure prediction by ZEFSAII (Michael W. Deem and Ramdas Pophale) SiO2 
 PCOD8112072
Probable space group: C 2/M
;
_chemical_formula_sum "Si O2"
_cell_formula_units_Z 64
_cell_length_a 12.156927
_cell_length_b 16.904718
_cell_length_c 28.799557
_cell_angle_alpha 90.000000
_cell_angle_beta 151.735653
_cell_angle_gamma 90.000000
_cell_volume 2802.685889
_symmetry_space_group_name_H-M "C 2/M"
_symmetry_group_IT_number 12
_symmetry_cell_setting 'monoclinic'
loop_
_space_group_symop_operation_xyz
x,y,z
-x,y,-z
-x,-y,-z
x,-y,z
1/2+x,1/2+y,z
1/2-x,1/2+y,-z
1/2-x,1/2-y,-z
1/2+x,1/2-y,z
loop_
_atom_site_type_symbol
_atom_site_label
_atom_site_fract_x
_atom_site_fract_y
_atom_site_fract_z
Si Si1 0.990155 0.408954 0.047984
Si Si2 0.842625 0.587277 0.666177
Si Si3 0.696997 0.692156 0.303443
Si Si4 0.828975 0.687207 0.151666
Si Si5 0.562697 0.094172 0.399328
Si Si6 0.154959 0.828456 0.986182
Si Si7 0.006051 0.153619 0.601035
Si Si8 0.430837 0.595080 0.274058
O O1 0.016905 0.500000 0.047965
O O2 0.201658 0.381421 0.159405
O O3 0.744545 0.395360 0.983614
O O4 0.000000 0.366394 0.000000
O O5 0.941946 0.500000 0.698279
O O6 0.868545 0.627103 0.625849
O O7 0.579584 0.590993 0.587546
O O8 0.977005 0.629892 0.757166
O O9 0.450310 0.726218 0.192706
O O10 0.894895 0.760846 0.378554
O O11 0.645099 0.646740 0.332844
O O12 0.797060 0.622396 0.308016
O O13 0.753511 0.655151 0.073898
O O14 0.621360 0.682425 0.112115
O O15 0.726720 0.142814 0.496623
O O16 0.583126 0.000000 0.413695
O O17 0.250000 0.750000 0.000000
O O18 0.108261 0.127159 0.688628
O O19 0.479846 0.500000 0.291604
#
# Coordination Sequence:
#
# PCOD8112072 Si02
#       8
#     8   8   8   8   8   8   8   8
#     4  10  23  42  66  98 133 175 222 275 335 396
#     4  10  22  41  67  95 131 172 217 272 337 404
#     4  11  25  42  66  97 136 172 225 280 337 402
#     4  10  25  41  61  96 128 175 221 274 335 395
#     4  11  24  43  69  99 131 175 223 277 339 406
#     4  11  24  40  65  92 129 174 222 272 327 397
#     4  11  24  43  69  95 136 175 225 276 337 405
#     4  11  24  44  69  97 136 182 225 278 340 403
#
# _framework density 22.835238
#
# number of rings (size 3 to 8) (size 9 to 14) (size 15 to 20)
#    0.000    1.375    0.000    4.500    8.750    3.500 
#    4.500    5.000    0.000    0.000    0.000    0.000 
#    0.000    0.000    0.000    0.000    0.000    0.000 
#
# Total GULP energy -396458.014349 kJ/mol
# GULP energy per Si atom -12389.312948 kJ/mol
# Density = 2.278326 g / cm^3
# Si number density = 22.835238 Si / 1000 Ang^3
#
#
#
# Elastic Constant Matrix: (Units=GPa)
#
#
# Indices 1 2 3 4 5 6 
#
# 1 171.8046 41.0599 47.2705 -0.0008 6.0188 0.0001
# 2 41.0599 80.6720 32.6849 -0.0004 8.3333 0.0001
# 3 47.2705 32.6849 83.5446 0.0049 4.6935 -0.0008
# 4 -0.0008 -0.0004 0.0049 22.7202 -0.0007 10.1399
# 5 6.0188 8.3333 4.6935 -0.0007 34.8074 -0.0003
# 6 0.0001 0.0001 -0.0008 10.1399 -0.0003 42.2201
#
#
#
# Elastic Compliance Matrix: (Units=1/GPa)
#
#
# Indices 1 2 3 4 5 6 
#
# 1 0.007272 -0.002393 -0.003164 0.000001 -0.000258 0.000000
# 2 -0.002393 0.015788 -0.004669 0.000001 -0.002737 0.000000
# 3 -0.003164 -0.004669 0.015611 -0.000004 -0.000440 0.000001
# 4 0.000001 0.000001 -0.000004 0.049298 0.000001 -0.011840
# 5 -0.000258 -0.002737 -0.000440 0.000001 0.029489 0.000000
# 6 0.000000 0.000000 0.000001 -0.011840 0.000000 0.026529
#
#
# Mechanical properties :
#
#
# Convention : Reuss Voigt Hill
#
# Bulk Modulus (GPa) = 54.88571 64.22797 59.55684
# Shear Modulus (GPa) = 29.32348 34.28325 31.80336
#
# Velocity S-wave (km/s) = 3.58737 3.87890 3.73598
# Velocity P-wave (km/s) = 6.42236 6.94615 6.68938
#
# Compressibility (1/GPa) = 0.01821968
#
# Stress axis : x y z
#
# Youngs Moduli (GPa) = 137.51412 63.33870 64.05609
#
# Poissons Ratio (x) = 0.15155 0.20267
# Poissons Ratio (y) = 0.32903 0.29909
# Poissons Ratio (z) = 0.43509 0.29574
#
# Static dielectric constant tensor:
#      x y z
#    x 3.570930 0.000000 -0.073630 
#    y 0.000000 3.978250 0.000070 
#    z -0.073630 0.000070 3.210900 
# 
# 
# High freq. dielectric constant tensor:
#      x y z
#    x 1.921050 0.000000 0.010040 
#    y 0.000000 1.897430 0.000000 
#    z 0.010040 0.000000 1.891940 
# 
# From -- ./inp_files/374513.got.cif
#   From: 2010.06.25/outbox.cif.g09.slc.cpg/sg12_188_cif.got.tgz:374513.got - 2010.06.28 00:19:55.
