data_PCOD8112991
_publ_section_title
;
Structure prediction by ZEFSAII (Michael W. Deem and Ramdas Pophale) SiO2 
 PCOD8112991
Probable space group: C 2/M
;
_chemical_formula_sum "Si O2"
_cell_formula_units_Z 56
_cell_length_a 9.832185
_cell_length_b 15.084930
_cell_length_c 22.795079
_cell_angle_alpha 90.000000
_cell_angle_beta 123.302435
_cell_angle_gamma 90.000000
_cell_volume 2825.715994
_symmetry_space_group_name_H-M "C 2/M"
_symmetry_group_IT_number 12
_symmetry_cell_setting 'monoclinic'
loop_
_space_group_symop_operation_xyz
x,y,z
-x,y,-z
-x,-y,-z
x,-y,z
1/2+x,1/2+y,z
1/2-x,1/2+y,-z
1/2-x,1/2-y,-z
1/2+x,1/2-y,z
loop_
_atom_site_type_symbol
_atom_site_label
_atom_site_fract_x
_atom_site_fract_y
_atom_site_fract_z
Si Si1 0.616359 0.900725 0.220214
Si Si2 0.921790 0.102371 0.227016
Si Si3 0.928135 0.395635 0.661547
Si Si4 0.771396 0.394903 0.350663
Si Si5 0.748431 0.829730 0.079067
Si Si6 0.570206 0.837125 0.927292
Si Si7 0.815637 0.759549 0.451094
O O1 0.782452 0.852797 0.235842
O O2 0.548785 0.861890 0.265464
O O3 0.477556 0.902683 0.136874
O O4 0.666186 0.000000 0.246049
O O5 0.874843 0.113246 0.147294
O O6 0.100326 0.140025 0.283223
O O7 0.926930 0.000000 0.242225
O O8 0.887388 0.500000 0.646437
O O9 0.778042 0.339213 0.602398
O O10 0.092755 0.373706 0.665762
O O11 0.770754 0.500000 0.367052
O O12 0.804148 0.335824 0.415829
O O13 0.593630 0.801470 0.081105
O O14 0.837364 0.742071 0.081037
O O15 0.685405 0.881598 0.005101
O O16 0.750000 0.750000 0.500000
O O17 0.000000 0.790787 0.500000
#
# Coordination Sequence:
#
# PCOD8112991 Si02
#       7
#     8   8   8   8   8   8   8
#     4   9  19  35  56  83 112 147 193 239 287 338
#     4   9  19  35  56  83 111 148 194 237 286 341
#     4  10  23  43  64  89 123 159 195 240 294 350
#     4  10  23  43  65  88 122 162 195 237 293 353
#     4   9  18  32  50  76 110 148 191 235 284 333
#     4   9  18  32  50  76 110 149 189 236 285 332
#     4  12  26  44  65  95 121 150 198 239 290 358
#
# _framework density 19.817986999999999
#
# number of rings (size 3 to 8) (size 9 to 14) (size 15 to 20)
#    0.000    2.286    1.429    0.000    4.000    2.857 
#    0.000    2.857    0.000    0.000    0.000    8.000 
#    0.000    0.000    0.000    0.000    0.000    0.000 
#
# Total GULP energy -346880.603395 kJ/mol
# GULP energy per Si atom -12388.592978 kJ/mol
# Density = 1.977288 g / cm^3
# Si number density = 19.817987 Si / 1000 Ang^3
#
#
#
# Elastic Constant Matrix: (Units=GPa)
#
#
# Indices 1 2 3 4 5 6 
#
# 1 125.5865 38.6374 85.6941 0.0000 -10.5488 0.0000
# 2 38.6374 48.5446 39.5510 0.0000 -3.8374 0.0000
# 3 85.6941 39.5510 156.1821 0.0000 -10.4194 0.0000
# 4 0.0000 0.0000 0.0000 34.3374 0.0000 0.3356
# 5 -10.5488 -3.8374 -10.4194 0.0000 35.6376 0.0000
# 6 0.0000 0.0000 0.0000 0.3356 0.0000 21.4550
#
#
#
# Elastic Compliance Matrix: (Units=1/GPa)
#
#
# Indices 1 2 3 4 5 6 
#
# 1 0.014166 -0.006173 -0.006093 0.000000 0.001747 0.000000
# 2 -0.006173 0.028672 -0.003865 0.000000 0.000130 0.000000
# 3 -0.006093 -0.003865 0.010787 0.000000 0.000934 0.000000
# 4 0.000000 0.000000 0.000000 0.029127 0.000000 -0.000456
# 5 0.001747 0.000130 0.000934 0.000000 0.028864 0.000000
# 6 0.000000 0.000000 0.000000 -0.000456 0.000000 0.046616
#
#
# Mechanical properties :
#
#
# Convention : Reuss Voigt Hill
#
# Bulk Modulus (GPa) = 46.80939 73.11978 59.96458
# Shear Modulus (GPa) = 25.30163 29.38138 27.34150
#
# Velocity S-wave (km/s) = 3.57697 3.85458 3.71837
# Velocity P-wave (km/s) = 6.38205 7.53566 6.98272
#
# Compressibility (1/GPa) = 0.02136323
#
# Stress axis : x y z
#
# Youngs Moduli (GPa) = 70.59199 34.87720 92.70449
#
# Poissons Ratio (x) = 0.21529 0.56484
# Poissons Ratio (y) = 0.43574 0.35833
# Poissons Ratio (z) = 0.43011 0.13481
#
# Static dielectric constant tensor:
#      x y z
#    x 3.908830 0.000000 -0.074970 
#    y 0.000000 3.402840 0.000000 
#    z -0.074970 0.000000 3.988930 
# 
# 
# High freq. dielectric constant tensor:
#      x y z
#    x 1.783270 0.000000 -0.003410 
#    y 0.000000 1.744470 0.000000 
#    z -0.003410 0.000000 1.788430 
# 
# From -- ./inp_files/333017.got.cif
#   From: 2010.06.25/outbox.cif.g09.slc.cpg/sg12_167_cif.got.tgz:333017.got - 2010.06.28 00:19:55.
