data_PCOD8112132
_publ_section_title
;
Structure prediction by ZEFSAII (Michael W. Deem and Ramdas Pophale) SiO2 
 PCOD8112132
Probable space group: C 2/M
;
_chemical_formula_sum "Si O2"
_cell_formula_units_Z 52
_cell_length_a 21.265984
_cell_length_b 23.600598
_cell_length_c 5.461988
_cell_angle_alpha 90.000000
_cell_angle_beta 58.973639
_cell_angle_gamma 90.000000
_cell_volume 2349.117308
_symmetry_space_group_name_H-M "C 2/M"
_symmetry_group_IT_number 12
_symmetry_cell_setting 'monoclinic'
loop_
_space_group_symop_operation_xyz
x,y,z
-x,y,-z
-x,-y,-z
x,-y,z
1/2+x,1/2+y,z
1/2-x,1/2+y,-z
1/2-x,1/2-y,-z
1/2+x,1/2-y,z
loop_
_atom_site_type_symbol
_atom_site_label
_atom_site_fract_x
_atom_site_fract_y
_atom_site_fract_z
Si Si1 0.846762 0.395277 0.019799
Si Si2 0.926329 0.229170 0.547027
Si Si3 0.808316 0.935875 0.793093
Si Si4 0.427898 0.620343 0.273761
Si Si5 0.453821 0.000000 0.838990
Si Si6 0.823050 0.830519 0.103482
Si Si7 0.158030 0.672918 0.481324
O O1 0.764460 0.420042 0.212991
O O2 0.863576 0.358212 0.225284
O O3 0.904233 0.445045 0.922439
O O4 0.856328 0.362644 0.741020
O O5 0.956460 0.167440 0.404992
O O6 0.892533 0.271219 0.413077
O O7 0.000000 0.259581 0.500000
O O8 0.860040 0.218675 0.869359
O O9 0.881524 0.931322 0.479341
O O10 0.802947 0.000000 0.904329
O O11 0.816960 0.892844 0.997543
O O12 0.373042 0.660439 0.235860
O O13 0.500000 0.594107 0.000000
O O14 0.500000 0.000000 0.500000
O O15 0.500000 0.000000 0.000000
O O16 0.742641 0.808173 0.331783
#
# Coordination Sequence:
#
# PCOD8112132 Si02
#       7
#     8   8   8   8   4   8   8
#     4  11  24  46  68 102 137 174 229 287 336 411
#     4  11  24  40  64  93 135 185 220 284 350 408
#     4  10  22  42  67  97 132 177 227 281 341 407
#     4  11  22  40  66  95 136 175 228 278 346 409
#     4  12  26  46  72 100 137 185 219 283 360 410
#     4  10  22  42  62  97 131 180 228 283 344 409
#     4  11  25  42  70 103 134 177 236 285 332 408
#
# _framework density 22.135971999999999
#
# number of rings (size 3 to 8) (size 9 to 14) (size 15 to 20)
#    0.000    1.231    3.846    1.385    2.154    3.385 
#    1.385    0.769    0.000    0.000    0.000    0.000 
#    0.000    0.000    0.000    0.000    0.000    0.000 
#
# Total GULP energy -322254.149146 kJ/mol
# GULP energy per Si atom -12394.390352 kJ/mol
# Density = 2.208559 g / cm^3
# Si number density = 22.135972 Si / 1000 Ang^3
#
#
#
# Elastic Constant Matrix: (Units=GPa)
#
#
# Indices 1 2 3 4 5 6 
#
# 1 113.6764 31.9861 28.5983 0.0000 -4.4276 0.0000
# 2 31.9861 88.9581 22.2683 0.0000 -8.7455 0.0000
# 3 28.5983 22.2683 89.7410 0.0000 1.7775 0.0000
# 4 0.0000 0.0000 0.0000 4.1027 0.0000 -15.6327
# 5 -4.4276 -8.7455 1.7775 0.0000 42.1329 0.0000
# 6 0.0000 0.0000 0.0000 -15.6327 0.0000 26.8642
#
#
#
# Elastic Compliance Matrix: (Units=1/GPa)
#
#
# Indices 1 2 3 4 5 6 
#
# 1 0.010308 -0.003013 -0.002548 0.000000 0.000565 0.000000
# 2 -0.003013 0.013161 -0.002356 0.000000 0.002515 0.000000
# 3 -0.002548 -0.002356 0.012565 0.000000 -0.001287 0.000000
# 4 0.000000 0.000000 0.000000 -0.200231 0.000000 -0.116518
# 5 0.000565 0.002515 -0.001287 0.000000 0.024370 0.000000
# 6 0.000000 0.000000 0.000000 -0.116518 0.000000 -0.030580
#
#
# Mechanical properties :
#
#
# Convention : Reuss Voigt Hill
#
# Bulk Modulus (GPa) = 49.50279 50.89788 50.20033
# Shear Modulus (GPa) = -33.82061 28.58815 -2.61623
#
# Velocity S-wave (km/s) = -3.91302 3.59761 -1.08833
# Velocity P-wave (km/s) = 1.41278 6.34825 4.59871
#
# Compressibility (1/GPa) = 0.02020088
#
# Stress axis : x y z
#
# Youngs Moduli (GPa) = 97.01400 75.97969 79.58421
#
# Poissons Ratio (x) = 0.22891 0.20282
# Poissons Ratio (y) = 0.29228 0.18747
# Poissons Ratio (z) = 0.24724 0.17898
#
# Static dielectric constant tensor:
#      x y z
#    x 4.228270 0.000000 -0.089910 
#    y 0.000000 3.809990 0.000000 
#    z -0.089910 0.000000 3.932480 
# 
# 
# High freq. dielectric constant tensor:
#      x y z
#    x 1.892150 0.000000 -0.005050 
#    y 0.000000 1.861950 0.000000 
#    z -0.005050 0.000000 1.868460 
# 
# From -- ./inp_files/21814.got.cif
#   From: 2010.06.25/outbox.cif.g09.slc.cpg/sg12_11_cif.got.tgz:21814.got - 2010.06.28 00:19:55.
