data_PCOD8112426
_publ_section_title
;
Structure prediction by ZEFSAII (Michael W. Deem and Ramdas Pophale) SiO2 
 PCOD8112426
Probable space group: C 2/M
;
_chemical_formula_sum "Si O2"
_cell_formula_units_Z 64
_cell_length_a 13.732541
_cell_length_b 31.035489
_cell_length_c 8.347390
_cell_angle_alpha 90.000000
_cell_angle_beta 124.186114
_cell_angle_gamma 90.000000
_cell_volume 2942.927303
_symmetry_space_group_name_H-M "C 2/M"
_symmetry_group_IT_number 12
_symmetry_cell_setting 'monoclinic'
loop_
_space_group_symop_operation_xyz
x,y,z
-x,y,-z
-x,-y,-z
x,-y,z
1/2+x,1/2+y,z
1/2-x,1/2+y,-z
1/2-x,1/2-y,-z
1/2+x,1/2-y,z
loop_
_atom_site_type_symbol
_atom_site_label
_atom_site_fract_x
_atom_site_fract_y
_atom_site_fract_z
Si Si1 0.626004 0.856210 0.783521
Si Si2 0.346410 0.385613 0.174798
Si Si3 0.710205 0.549881 0.592531
Si Si4 0.502565 0.545280 0.820425
Si Si5 0.710919 0.168163 0.515885
Si Si6 0.929248 0.600445 0.769488
Si Si7 0.486581 0.230488 0.665905
Si Si8 0.517716 0.680520 0.201287
O O1 0.676320 0.855833 0.650828
O O2 0.522045 0.891971 0.709131
O O3 0.574808 0.809195 0.780178
O O4 0.722450 0.867438 0.004251
O O5 0.335571 0.414261 0.324171
O O6 0.397849 0.419073 0.095987
O O7 0.438300 0.345714 0.255982
O O8 0.699979 0.500000 0.641444
O O9 0.626358 0.559573 0.363203
O O10 0.848893 0.557493 0.677784
O O11 0.536597 0.500000 0.762453
O O12 0.500000 0.533910 0.000000
O O13 0.666430 0.139220 0.325972
O O14 0.648187 0.214378 0.442872
O O15 0.848674 0.173568 0.624055
O O16 0.000000 0.600705 0.000000
O O17 0.500000 0.249119 0.500000
O O18 0.514449 0.268866 0.814962
O O19 0.500000 0.666043 0.000000
#
# Coordination Sequence:
#
# PCOD8112426 Si02
#       8
#     8   8   8   8   8   8   8   8
#     4  10  22  44  64  91 132 177 217 269 333 388
#     4  12  23  40  65  97 134 172 224 263 331 397
#     4  11  25  45  69  99 136 172 216 276 333 391
#     4  10  23  43  67  97 135 174 212 265 329 392
#     4  10  22  44  66  90 133 177 221 273 331 394
#     4  11  22  41  67  97 123 169 220 270 331 390
#     4   9  22  42  60  88 134 180 220 273 331 384
#     4  12  24  40  66 100 130 174 227 277 324 393
#
# _framework density 21.747055
#
# number of rings (size 3 to 8) (size 9 to 14) (size 15 to 20)
#    0.000    1.375    2.500    3.375    1.750    5.750 
#    0.000    0.000    0.000    1.500    0.000    0.000 
#    0.000    0.000    0.000    0.000    0.000    0.000 
#
# Total GULP energy -396425.920830 kJ/mol
# GULP energy per Si atom -12388.310026 kJ/mol
# Density = 2.169756 g / cm^3
# Si number density = 21.747055 Si / 1000 Ang^3
#
#
#
# Elastic Constant Matrix: (Units=GPa)
#
#
# Indices 1 2 3 4 5 6 
#
# 1 98.4685 58.1880 41.1168 0.0000 25.7751 0.0000
# 2 58.1880 112.7579 55.4541 0.0000 7.9157 0.0000
# 3 41.1168 55.4541 121.9534 0.0000 19.8706 0.0000
# 4 0.0000 0.0000 0.0000 30.1569 0.0000 14.7016
# 5 25.7751 7.9157 19.8706 0.0000 38.1437 0.0000
# 6 0.0000 0.0000 0.0000 14.7016 0.0000 116.7637
#
#
#
# Elastic Compliance Matrix: (Units=1/GPa)
#
#
# Indices 1 2 3 4 5 6 
#
# 1 0.017920 -0.008213 -0.000669 0.000000 -0.010057 0.000000
# 2 -0.008213 0.015192 -0.004950 0.000000 0.004976 0.000000
# 3 -0.000669 -0.004950 0.011403 0.000000 -0.004461 0.000000
# 4 0.000000 0.000000 0.000000 0.035328 0.000000 -0.004448
# 5 -0.010057 0.004976 -0.004461 0.000000 0.034304 0.000000
# 6 0.000000 0.000000 0.000000 -0.004448 0.000000 0.009124
#
#
# Mechanical properties :
#
#
# Convention : Reuss Voigt Hill
#
# Bulk Modulus (GPa) = 59.33832 71.41084 65.37458
# Shear Modulus (GPa) = 31.93835 48.90760 40.42298
#
# Velocity S-wave (km/s) = 3.83643 4.74743 4.31603
# Velocity P-wave (km/s) = 6.85340 7.93468 7.41378
#
# Compressibility (1/GPa) = 0.01685252
#
# Stress axis : x y z
#
# Youngs Moduli (GPa) = 55.80210 65.82557 87.69712
#
# Poissons Ratio (x) = 0.54062 0.05865
# Poissons Ratio (y) = 0.45829 0.43407
# Poissons Ratio (z) = 0.03732 0.32581
#
# Static dielectric constant tensor:
#      x y z
#    x 4.160720 0.000000 0.173350 
#    y 0.000000 4.039160 0.000000 
#    z 0.173350 0.000000 3.888630 
# 
# 
# High freq. dielectric constant tensor:
#      x y z
#    x 1.855550 0.000000 0.011670 
#    y 0.000000 1.854430 0.000000 
#    z 0.011670 0.000000 1.855690 
# 
# From -- ./inp_files/68634.got.cif
#   From: 2010.06.25/outbox.cif.g09.slc.cpg/sg12_35_cif.got.tgz:68634.got - 2010.06.28 00:19:55.
