data_PCOD8112870
_publ_section_title
;
Structure prediction by ZEFSAII (Michael W. Deem and Ramdas Pophale) SiO2 
 PCOD8112870
Probable space group: C 2/M
;
_chemical_formula_sum "Si O2"
_cell_formula_units_Z 48
_cell_length_a 28.996128
_cell_length_b 8.429177
_cell_length_c 16.036379
_cell_angle_alpha 90.000000
_cell_angle_beta 144.151814
_cell_angle_gamma 90.000000
_cell_volume 2295.418678
_symmetry_space_group_name_H-M "C 2/M"
_symmetry_group_IT_number 12
_symmetry_cell_setting 'monoclinic'
loop_
_space_group_symop_operation_xyz
x,y,z
-x,y,-z
-x,-y,-z
x,-y,z
1/2+x,1/2+y,z
1/2-x,1/2+y,-z
1/2-x,1/2-y,-z
1/2+x,1/2-y,z
loop_
_atom_site_type_symbol
_atom_site_label
_atom_site_fract_x
_atom_site_fract_y
_atom_site_fract_z
Si Si1 0.085741 0.315478 0.628416
Si Si2 0.143337 0.317876 0.039931
Si Si3 0.490920 0.680324 0.888598
Si Si4 0.673630 0.687252 0.435534
Si Si5 0.204013 0.688058 0.659981
Si Si6 0.166434 0.816905 0.897876
O O1 0.079590 0.500000 0.599591
O O2 0.146694 0.244545 0.649376
O O3 0.108960 0.286008 0.757327
O O4 0.000000 0.234429 0.500000
O O5 0.156428 0.500000 0.033952
O O6 0.209772 0.265960 0.203807
O O7 0.148529 0.204630 0.968132
O O8 0.056080 0.297686 0.947625
O O9 0.506810 0.500000 0.882281
O O10 0.404344 0.735025 0.731034
O O11 0.500000 0.693696 0.000000
O O12 0.680797 0.500000 0.455600
O O13 0.750000 0.750000 0.500000
O O14 0.667473 0.765027 0.517692
O O15 0.213948 0.500000 0.680275
O O16 0.159953 0.000000 0.863880
O O17 0.250000 0.750000 0.000000
#
# Coordination Sequence:
#
# PCOD8112870 Si02
#       6
#     8   8   8   8   8   8
#     4  10  23  42  64  93 129 171 216 263 317 377
#     4  12  25  41  66  96 129 168 215 266 316 380
#     4  10  23  44  68  96 130 167 208 260 319 378
#     4  11  24  42  67  97 131 168 212 261 317 383
#     4  11  23  41  65  92 130 172 211 264 323 378
#     4  12  24  41  65  94 129 170 216 264 317 377
#
# _framework density 20.911218000000002
#
# number of rings (size 3 to 8) (size 9 to 14) (size 15 to 20)
#    0.000    1.000    1.667    5.000    2.333    4.000 
#    0.000    0.000    0.000    0.000    0.000    0.000 
#    0.000    0.000    0.000    0.000    0.000    0.000 
#
# Total GULP energy -297648.023457 kJ/mol
# GULP energy per Si atom -12402.000977 kJ/mol
# Density = 2.086362 g / cm^3
# Si number density = 20.911218 Si / 1000 Ang^3
#
#
#
# Elastic Constant Matrix: (Units=GPa)
#
#
# Indices 1 2 3 4 5 6 
#
# 1 96.5525 33.9810 56.7892 0.0000 9.0975 0.0000
# 2 33.9810 61.7876 19.8635 0.0000 10.9613 0.0000
# 3 56.7892 19.8635 171.7965 0.0000 10.1381 0.0000
# 4 0.0000 0.0000 0.0000 28.7121 0.0000 -5.2878
# 5 9.0975 10.9613 10.1381 0.0000 44.4226 0.0000
# 6 0.0000 0.0000 0.0000 -5.2878 0.0000 31.5327
#
#
#
# Elastic Compliance Matrix: (Units=1/GPa)
#
#
# Indices 1 2 3 4 5 6 
#
# 1 0.015358 -0.007004 -0.004241 0.000000 -0.000449 0.000000
# 2 -0.007004 0.020644 0.000146 0.000000 -0.003693 0.000000
# 3 -0.004241 0.000146 0.007254 0.000000 -0.000823 0.000000
# 4 0.000000 0.000000 0.000000 0.035938 0.000000 0.006027
# 5 -0.000449 -0.003693 -0.000823 0.000000 0.023702 0.000000
# 6 0.000000 0.000000 0.000000 0.006027 0.000000 0.032724
#
#
# Mechanical properties :
#
#
# Convention : Reuss Voigt Hill
#
# Bulk Modulus (GPa) = 47.48130 61.26713 54.37422
# Shear Modulus (GPa) = 30.33278 35.56700 32.94989
#
# Velocity S-wave (km/s) = 3.81274 4.12862 3.97382
# Velocity P-wave (km/s) = 6.49139 7.21731 6.86395
#
# Compressibility (1/GPa) = 0.02106092
#
# Stress axis : x y z
#
# Youngs Moduli (GPa) = 65.11056 48.43924 137.84909
#
# Poissons Ratio (x) = 0.33925 0.58457
# Poissons Ratio (y) = 0.45601 -0.02014
# Poissons Ratio (z) = 0.27611 -0.00708
#
# Static dielectric constant tensor:
#      x y z
#    x 3.718300 0.000000 0.121330 
#    y 0.000000 3.731120 0.000000 
#    z 0.121330 0.000000 4.047530 
# 
# 
# High freq. dielectric constant tensor:
#      x y z
#    x 1.825750 0.000000 0.001330 
#    y 0.000000 1.815890 0.000000 
#    z 0.001330 0.000000 1.835600 
# 
# From -- ./inp_files/244844.got.cif
#   From: 2010.06.25/outbox.cif.g09.slc.cpg/sg12_123_cif.got.tgz:244844.got - 2010.06.28 00:19:55.
