data_PCOD8112168
_publ_section_title
;
Structure prediction by ZEFSAII (Michael W. Deem and Ramdas Pophale) SiO2 
 PCOD8112168
Probable space group: C 2/M
;
_chemical_formula_sum "Si O2"
_cell_formula_units_Z 48
_cell_length_a 24.582606
_cell_length_b 11.905617
_cell_length_c 20.910587
_cell_angle_alpha 90.000000
_cell_angle_beta 157.461311
_cell_angle_gamma 90.000000
_cell_volume 2345.811029
_symmetry_space_group_name_H-M "C 2/M"
_symmetry_group_IT_number 12
_symmetry_cell_setting 'monoclinic'
loop_
_space_group_symop_operation_xyz
x,y,z
-x,y,-z
-x,-y,-z
x,-y,z
1/2+x,1/2+y,z
1/2-x,1/2+y,-z
1/2-x,1/2-y,-z
1/2+x,1/2-y,z
loop_
_atom_site_type_symbol
_atom_site_label
_atom_site_fract_x
_atom_site_fract_y
_atom_site_fract_z
Si Si1 0.652648 0.128570 0.443253
Si Si2 0.074542 0.500000 0.514242
Si Si3 0.188427 0.765378 0.101512
Si Si4 0.357437 0.500000 0.884711
Si Si5 0.476239 0.229966 0.348971
Si Si6 0.120743 0.706236 0.271201
Si Si7 0.710820 0.629668 0.665467
O O1 0.527173 0.216362 0.330169
O O2 0.801860 0.173494 0.634665
O O3 0.655988 0.128408 0.370279
O O4 0.631626 0.000000 0.444392
O O5 0.242643 0.500000 0.704204
O O6 0.000000 0.500000 0.500000
O O7 0.029518 0.611451 0.431023
O O8 0.308600 0.755671 0.176768
O O9 0.238770 0.698716 0.218468
O O10 0.159080 0.893458 0.087466
O O11 0.047705 0.715434 0.917929
O O12 0.500000 0.500000 0.000000
O O13 0.556476 0.329382 0.473764
O O14 0.174754 0.645324 0.266157
O O15 0.698473 0.500000 0.671307
#
# Coordination Sequence:
#
# PCOD8112168 Si02
#       7
#     8   4   8   4   8   8   8
#     4  10  22  42  65  84 118 167 209 253 306 366
#     4  12  18  38  60  92 130 162 191 249 309 373
#     4  12  24  38  61  95 127 158 201 257 314 365
#     4  12  24  34  60  96 132 156 198 255 310 361
#     4  11  22  38  63  92 124 164 204 246 308 373
#     4  10  24  41  62  92 119 160 211 259 303 366
#     4  11  23  41  63  89 127 166 204 250 308 375
#
# _framework density 20.462007
#
# number of rings (size 3 to 8) (size 9 to 14) (size 15 to 20)
#    0.000    1.000    4.167    2.500    3.500    4.000 
#    0.000    0.000    0.000    0.000    0.000    0.000 
#    0.000    0.000    0.000    0.000    0.000    0.000 
#
# Total GULP energy -297549.236003 kJ/mol
# GULP energy per Si atom -12397.884833 kJ/mol
# Density = 2.041543 g / cm^3
# Si number density = 20.462007 Si / 1000 Ang^3
#
#
#
# Elastic Constant Matrix: (Units=GPa)
#
#
# Indices 1 2 3 4 5 6 
#
# 1 86.1232 10.4890 28.3120 0.0000 21.0558 0.0002
# 2 10.4890 106.7939 13.0488 -0.0002 4.6297 0.0001
# 3 28.3120 13.0488 113.0654 -0.0002 40.1961 0.0003
# 4 0.0000 -0.0002 -0.0002 20.3356 0.0000 5.2052
# 5 21.0558 4.6297 40.1961 0.0000 35.1020 0.0001
# 6 0.0002 0.0001 0.0003 5.2052 0.0001 26.0472
#
#
#
# Elastic Compliance Matrix: (Units=1/GPa)
#
#
# Indices 1 2 3 4 5 6 
#
# 1 0.013749 -0.000944 -0.000752 0.000000 -0.007261 0.000000
# 2 -0.000944 0.009563 -0.001046 0.000000 0.000503 0.000000
# 3 -0.000752 -0.001046 0.015085 0.000000 -0.016685 0.000000
# 4 0.000000 0.000000 0.000000 0.051826 0.000000 -0.010357
# 5 -0.007261 0.000503 -0.016685 0.000000 0.051884 0.000000
# 6 0.000000 0.000000 0.000000 -0.010357 0.000000 0.040462
#
#
# Mechanical properties :
#
#
# Convention : Reuss Voigt Hill
#
# Bulk Modulus (GPa) = 30.38360 45.52026 37.95193
# Shear Modulus (GPa) = 25.12267 33.23913 29.18090
#
# Velocity S-wave (km/s) = 3.50776 4.03480 3.78047
# Velocity P-wave (km/s) = 5.59346 6.63330 6.13545
#
# Compressibility (1/GPa) = 0.03291249
#
# Stress axis : x y z
#
# Youngs Moduli (GPa) = 72.73377 104.57482 66.28928
#
# Poissons Ratio (x) = 0.09868 0.04988
# Poissons Ratio (y) = 0.06864 0.06934
# Poissons Ratio (z) = 0.05473 0.10939
#
# Static dielectric constant tensor:
#      x y z
#    x 4.000470 -0.000010 0.551790 
#    y -0.000010 3.667230 -0.000010 
#    z 0.551790 -0.000010 3.967500 
# 
# 
# High freq. dielectric constant tensor:
#      x y z
#    x 1.816090 0.000000 0.015510 
#    y 0.000000 1.798690 0.000000 
#    z 0.015510 0.000000 1.789020 
# 
# From -- ./inp_files/351952.got.cif
#   From: 2010.06.25/outbox.cif.g09.slc.cpg/sg12_176_cif.got.tgz:351952.got - 2010.06.28 00:19:55.
