data_PCOD8112894
_publ_section_title
;
Structure prediction by ZEFSAII (Michael W. Deem and Ramdas Pophale) SiO2 
 PCOD8112894
Probable space group: C 2/M
;
_chemical_formula_sum "Si O2"
_cell_formula_units_Z 64
_cell_length_a 15.752563
_cell_length_b 8.971153
_cell_length_c 27.114013
_cell_angle_alpha 90.000000
_cell_angle_beta 54.431012
_cell_angle_gamma 90.000000
_cell_volume 3116.777868
_symmetry_space_group_name_H-M "C 2/M"
_symmetry_group_IT_number 12
_symmetry_cell_setting 'monoclinic'
loop_
_space_group_symop_operation_xyz
x,y,z
-x,y,-z
-x,-y,-z
x,-y,z
1/2+x,1/2+y,z
1/2-x,1/2+y,-z
1/2-x,1/2-y,-z
1/2+x,1/2-y,z
loop_
_atom_site_type_symbol
_atom_site_label
_atom_site_fract_x
_atom_site_fract_y
_atom_site_fract_z
Si Si1 0.810937 0.676333 0.935002
Si Si2 0.552186 0.171507 0.854931
Si Si3 0.601142 0.331000 0.499844
Si Si4 0.216067 0.673470 0.381189
Si Si5 0.584709 0.675776 0.747989
Si Si6 0.910395 0.323598 0.748779
Si Si7 0.479329 0.173759 0.618617
Si Si8 0.264772 0.172763 0.138830
O O1 0.796272 0.500000 0.941503
O O2 0.932044 0.721093 0.900984
O O3 0.761279 0.735418 0.901216
O O4 0.750000 0.750000 0.000000
O O5 0.610134 0.276109 0.795167
O O6 0.613861 0.192160 0.886011
O O7 0.559724 0.000000 0.835077
O O8 0.500000 0.311049 0.500000
O O9 0.630739 0.500000 0.500007
O O10 0.699500 0.256359 0.438963
O O11 0.578349 0.255583 0.560432
O O12 0.213752 0.500000 0.393463
O O13 0.323649 0.723660 0.320088
O O14 0.126255 0.718861 0.373411
O O15 0.563249 0.500000 0.752294
O O16 0.483308 0.771636 0.768771
O O17 0.890464 0.500000 0.757043
O O18 0.965243 0.273417 0.679483
O O19 0.801904 0.237431 0.792739
O O20 0.501836 0.000000 0.607349
O O21 0.237371 0.000000 0.138934
#
# Coordination Sequence:
#
# PCOD8112894 Si02
#       8
#     8   8   8   8   8   8   8   8
#     4  11  24  44  68  96 133 173 209 255 305 358
#     4  10  23  42  65  93 129 168 207 254 312 365
#     4   9  17  29  48  75 105 138 182 240 301 361
#     4   9  18  33  52  76 105 142 190 241 297 362
#     4  11  22  36  58  86 117 155 202 252 304 365
#     4  11  22  37  57  84 119 157 198 249 311 367
#     4   9  18  33  53  75 104 145 190 239 298 364
#     4  11  23  41  66  96 127 166 211 257 308 365
#
# _framework density 20.534026999999998
#
# number of rings (size 3 to 8) (size 9 to 14) (size 15 to 20)
#    0.000    1.875    1.250    2.625    0.000    6.500 
#    0.000    5.625    0.000    0.000    0.000    0.000 
#    0.000    0.000    0.000    0.000    0.000    0.000 
#
# Total GULP energy -396827.808118 kJ/mol
# GULP energy per Si atom -12400.869004 kJ/mol
# Density = 2.048729 g / cm^3
# Si number density = 20.534027 Si / 1000 Ang^3
#
#
#
# Elastic Constant Matrix: (Units=GPa)
#
#
# Indices 1 2 3 4 5 6 
#
# 1 93.1744 37.7426 48.5305 0.0001 0.2463 0.0004
# 2 37.7426 83.3733 58.9199 0.0001 1.1850 0.0007
# 3 48.5305 58.9199 143.1606 0.0000 4.9649 -0.0001
# 4 0.0001 0.0001 0.0000 40.2185 0.0000 3.2982
# 5 0.2463 1.1850 4.9649 0.0000 27.0032 0.0000
# 6 0.0004 0.0007 -0.0001 3.2982 0.0000 26.0000
#
#
#
# Elastic Compliance Matrix: (Units=1/GPa)
#
#
# Indices 1 2 3 4 5 6 
#
# 1 0.014019 -0.004204 -0.003043 0.000000 0.000616 0.000000
# 2 -0.004204 0.018182 -0.006070 0.000000 0.000357 0.000000
# 3 -0.003043 -0.006070 0.010572 0.000000 -0.001650 0.000000
# 4 0.000000 0.000000 0.000000 0.025126 0.000000 -0.003187
# 5 0.000616 0.000357 -0.001650 0.000000 0.037315 0.000000
# 6 0.000000 0.000000 0.000000 -0.003187 0.000000 0.038866
#
#
# Mechanical properties :
#
#
# Convention : Reuss Voigt Hill
#
# Bulk Modulus (GPa) = 61.96661 67.78826 64.87744
# Shear Modulus (GPa) = 28.39365 30.27870 29.33617
#
# Velocity S-wave (km/s) = 3.72258 3.84417 3.78386
# Velocity P-wave (km/s) = 6.97996 7.26552 7.12417
#
# Compressibility (1/GPa) = 0.01613772
#
# Stress axis : x y z
#
# Youngs Moduli (GPa) = 71.33073 54.99818 94.58577
#
# Poissons Ratio (x) = 0.23123 0.28786
# Poissons Ratio (y) = 0.29990 0.57417
# Poissons Ratio (z) = 0.21709 0.33386
#
# Static dielectric constant tensor:
#      x y z
#    x 3.609140 0.000000 -0.023490 
#    y 0.000000 3.667300 0.000000 
#    z -0.023490 0.000000 3.935590 
# 
# 
# High freq. dielectric constant tensor:
#      x y z
#    x 1.793810 0.000000 0.001760 
#    y 0.000000 1.803660 0.000000 
#    z 0.001760 0.000000 1.807960 
# 
# From -- ./inp_files/375421.got.cif
#   From: 2010.06.25/outbox.cif.g09.slc.cpg/sg12_188_cif.got.tgz:375421.got - 2010.06.28 00:19:55.
