data_PCOD8112655
_publ_section_title
;
Structure prediction by ZEFSAII (Michael W. Deem and Ramdas Pophale) SiO2 
 PCOD8112655
Probable space group: C 2/M
;
_chemical_formula_sum "Si O2"
_cell_formula_units_Z 64
_cell_length_a 14.583363
_cell_length_b 27.006407
_cell_length_c 9.251769
_cell_angle_alpha 90.000000
_cell_angle_beta 115.467130
_cell_angle_gamma 90.000000
_cell_volume 3289.699847
_symmetry_space_group_name_H-M "C 2/M"
_symmetry_group_IT_number 12
_symmetry_cell_setting 'monoclinic'
loop_
_space_group_symop_operation_xyz
x,y,z
-x,y,-z
-x,-y,-z
x,-y,z
1/2+x,1/2+y,z
1/2-x,1/2+y,-z
1/2-x,1/2-y,-z
1/2+x,1/2-y,z
loop_
_atom_site_type_symbol
_atom_site_label
_atom_site_fract_x
_atom_site_fract_y
_atom_site_fract_z
Si Si1 0.690742 0.371372 0.222887
Si Si2 0.811991 0.225098 0.917841
Si Si3 0.094995 0.884648 0.650639
Si Si4 0.388777 0.057998 0.886728
Si Si5 0.794651 0.057925 0.036192
Si Si6 0.712498 0.122131 0.414936
Si Si7 0.843545 0.270926 0.650665
Si Si8 0.997745 0.189327 0.788024
O O1 0.745233 0.323414 0.186371
O O2 0.757988 0.392716 0.400895
O O3 0.580989 0.352145 0.205556
O O4 0.682218 0.414390 0.098107
O O5 0.822222 0.267615 0.806537
O O6 0.750000 0.250000 0.000000
O O7 0.924552 0.206892 0.035984
O O8 0.124689 0.925866 0.788163
O O9 0.184025 0.868876 0.602640
O O10 0.000000 0.907740 0.500000
O O11 0.063935 0.833550 0.705000
O O12 0.316195 0.071227 0.973328
O O13 0.352069 0.080105 0.708896
O O14 0.391148 0.000000 0.860886
O O15 0.500000 0.078883 0.000000
O O16 0.806591 0.000000 0.013814
O O17 0.642744 0.171313 0.375095
O O18 0.750000 0.250000 0.500000
O O19 0.941878 0.237396 0.682612
#
# Coordination Sequence:
#
# PCOD8112655 Si02
#       8
#     8   8   8   8   8   8   8   8
#     4  11  21  40  60  86 131 159 200 257 316 364
#     4  11  23  37  59  82 115 166 213 245 298 363
#     4  11  20  37  63  86 120 167 206 248 309 364
#     4   9  21  44  71  93 119 158 201 252 315 374
#     4  10  23  40  65  93 121 157 205 254 303 372
#     4  11  22  38  64  92 122 158 209 259 301 363
#     4  11  20  36  56  85 120 157 202 255 297 356
#     4  11  22  38  61  84 123 170 209 242 310 368
#
# _framework density 19.454663
#
# number of rings (size 3 to 8) (size 9 to 14) (size 15 to 20)
#    0.000    1.375    5.000    2.250    1.750    1.750 
#    0.000    1.875    0.000    2.250    0.000    0.000 
#    0.000    0.000    0.000    0.000    0.000    0.000 
#
# Total GULP energy -396665.427174 kJ/mol
# GULP energy per Si atom -12395.794599 kJ/mol
# Density = 1.941038 g / cm^3
# Si number density = 19.454663 Si / 1000 Ang^3
#
#
#
# Elastic Constant Matrix: (Units=GPa)
#
#
# Indices 1 2 3 4 5 6 
#
# 1 85.9406 34.7481 50.6998 0.0000 5.1997 0.0000
# 2 34.7481 77.5228 42.0765 0.0000 -2.4053 0.0000
# 3 50.6998 42.0765 154.4733 0.0000 4.1608 0.0000
# 4 0.0000 0.0000 0.0000 29.7809 0.0000 1.1495
# 5 5.1997 -2.4053 4.1608 0.0000 31.1738 0.0000
# 6 0.0000 0.0000 0.0000 1.1495 0.0000 26.8142
#
#
#
# Elastic Compliance Matrix: (Units=1/GPa)
#
#
# Indices 1 2 3 4 5 6 
#
# 1 0.016163 -0.005262 -0.003802 0.000000 -0.002595 0.000000
# 2 -0.005262 0.016943 -0.002958 0.000000 0.002580 0.000000
# 3 -0.003802 -0.002958 0.008547 0.000000 -0.000735 0.000000
# 4 0.000000 0.000000 0.000000 0.033634 0.000000 -0.001442
# 5 -0.002595 0.002580 -0.000735 0.000000 0.032808 0.000000
# 6 0.000000 0.000000 0.000000 -0.001442 0.000000 0.037355
#
#
# Mechanical properties :
#
#
# Convention : Reuss Voigt Hill
#
# Bulk Modulus (GPa) = 56.78343 63.66504 60.22424
# Shear Modulus (GPa) = 28.51211 30.24794 29.38002
#
# Velocity S-wave (km/s) = 3.83243 3.94736 3.89032
# Velocity P-wave (km/s) = 6.98815 7.31925 7.15562
#
# Compressibility (1/GPa) = 0.01761077
#
# Stress axis : x y z
#
# Youngs Moduli (GPa) = 61.86858 59.02038 117.00272
#
# Poissons Ratio (x) = 0.31056 0.44482
# Poissons Ratio (y) = 0.32555 0.34605
# Poissons Ratio (z) = 0.23521 0.17456
#
# Static dielectric constant tensor:
#      x y z
#    x 3.548750 0.000000 0.076400 
#    y 0.000000 3.697610 0.000000 
#    z 0.076400 0.000000 3.907190 
# 
# 
# High freq. dielectric constant tensor:
#      x y z
#    x 1.743120 0.000000 -0.003180 
#    y 0.000000 1.744890 0.000000 
#    z -0.003180 0.000000 1.777470 
# 
# From -- ./inp_files/68254.got.cif
#   From: 2010.06.25/outbox.cif.g09.slc.cpg/sg12_35_cif.got.tgz:68254.got - 2010.06.28 00:19:55.
