data_PCOD8112878
_publ_section_title
;
Structure prediction by ZEFSAII (Michael W. Deem and Ramdas Pophale) SiO2 
 PCOD8112878
Probable space group: C 2/M
;
_chemical_formula_sum "Si O2"
_cell_formula_units_Z 48
_cell_length_a 17.319489
_cell_length_b 29.307068
_cell_length_c 9.192372
_cell_angle_alpha 90.000000
_cell_angle_beta 30.523415
_cell_angle_gamma 90.000000
_cell_volume 2369.763888
_symmetry_space_group_name_H-M "C 2/M"
_symmetry_group_IT_number 12
_symmetry_cell_setting 'monoclinic'
loop_
_space_group_symop_operation_xyz
x,y,z
-x,y,-z
-x,-y,-z
x,-y,z
1/2+x,1/2+y,z
1/2-x,1/2+y,-z
1/2-x,1/2-y,-z
1/2+x,1/2-y,z
loop_
_atom_site_type_symbol
_atom_site_label
_atom_site_fract_x
_atom_site_fract_y
_atom_site_fract_z
Si Si1 0.586516 0.615717 0.225365
Si Si2 0.638490 0.552861 0.872672
Si Si3 0.058933 0.791807 0.565032
Si Si4 0.417562 0.214719 0.981746
Si Si5 0.410779 0.131684 0.794032
Si Si6 0.967757 0.552582 0.218634
O O1 0.500000 0.590833 0.500000
O O2 0.478852 0.655426 0.335929
O O3 0.637511 0.579012 0.025731
O O4 0.734475 0.640876 0.049280
O O5 0.619470 0.500000 0.941359
O O6 0.791695 0.562962 0.536325
O O7 0.500000 0.570686 0.000000
O O8 0.237181 0.783478 0.295293
O O9 0.000000 0.778679 0.500000
O O10 0.969676 0.761814 0.826509
O O11 0.500000 0.207512 0.000000
O O12 0.472516 0.172856 0.791703
O O13 0.500000 0.130009 0.500000
O O14 0.427740 0.083330 0.848252
O O15 0.008894 0.500000 0.184598
O O16 0.000000 0.565208 0.000000
#
# Coordination Sequence:
#
# PCOD8112878 Si02
#       6
#     8   8   8   8   8   8
#     4  11  24  43  65  95 132 169 217 267 327 387
#     4  10  23  42  64  94 130 172 218 268 328 388
#     4  11  24  45  67  94 130 171 212 269 326 390
#     4  12  26  43  67  98 130 167 220 267 327 391
#     4  12  24  42  66  95 126 174 217 270 326 385
#     4  10  23  42  65  94 130 171 216 269 324 384
#
# _framework density 20.255182000000001
#
# number of rings (size 3 to 8) (size 9 to 14) (size 15 to 20)
#    0.000    1.000    5.000    2.000    4.667    3.333 
#    0.000    0.000    0.000    0.000    0.000    0.000 
#    0.000    0.000    0.000    0.000    0.000    0.000 
#
# Total GULP energy -297723.376206 kJ/mol
# GULP energy per Si atom -12405.140675 kJ/mol
# Density = 2.020908 g / cm^3
# Si number density = 20.255182 Si / 1000 Ang^3
#
#
#
# Elastic Constant Matrix: (Units=GPa)
#
#
# Indices 1 2 3 4 5 6 
#
# 1 120.6091 43.9474 57.4603 0.0000 5.5980 0.0000
# 2 43.9474 86.7441 51.5265 0.0000 13.5445 0.0000
# 3 57.4603 51.5265 147.6724 0.0000 8.7779 0.0000
# 4 0.0000 0.0000 0.0000 32.9151 0.0000 0.9580
# 5 5.5980 13.5445 8.7779 0.0000 44.9246 0.0000
# 6 0.0000 0.0000 0.0000 0.9580 0.0000 21.0733
#
#
#
# Elastic Compliance Matrix: (Units=1/GPa)
#
#
# Indices 1 2 3 4 5 6 
#
# 1 0.011124 -0.003924 -0.002982 0.000000 0.000379 0.000000
# 2 -0.003924 0.016469 -0.004000 0.000000 -0.003695 0.000000
# 3 -0.002982 -0.004000 0.009342 0.000000 -0.000248 0.000000
# 4 0.000000 0.000000 0.000000 0.030421 0.000000 -0.001383
# 5 0.000379 -0.003695 -0.000248 0.000000 0.023375 0.000000
# 6 0.000000 0.000000 0.000000 -0.001383 0.000000 0.047516
#
#
# Mechanical properties :
#
#
# Convention : Reuss Voigt Hill
#
# Bulk Modulus (GPa) = 66.11972 73.43266 69.77619
# Shear Modulus (GPa) = 30.28457 33.25537 31.76997
#
# Velocity S-wave (km/s) = 3.87091 4.05633 3.96471
# Velocity P-wave (km/s) = 7.25898 7.63354 7.44862
#
# Compressibility (1/GPa) = 0.01512408
#
# Stress axis : x y z
#
# Youngs Moduli (GPa) = 89.89578 60.71990 107.03816
#
# Poissons Ratio (x) = 0.23825 0.31917
# Poissons Ratio (y) = 0.35273 0.42816
# Poissons Ratio (z) = 0.26806 0.24288
#
# Static dielectric constant tensor:
#      x y z
#    x 3.931640 0.000000 -0.574390 
#    y 0.000000 3.672890 0.000000 
#    z -0.574390 0.000000 4.988130 
# 
# 
# High freq. dielectric constant tensor:
#      x y z
#    x 1.791700 0.000000 -0.000040 
#    y 0.000000 1.792570 0.000000 
#    z -0.000040 0.000000 1.811490 
# 
# From -- ./inp_files/80594.got.cif
#   From: 2010.06.25/outbox.cif.g09.slc.cpg/sg12_41_cif.got.tgz:80594.got - 2010.06.28 00:19:55.
