data_PCOD8112061
_publ_section_title
;
Structure prediction by ZEFSAII (Michael W. Deem and Ramdas Pophale) SiO2 
 PCOD8112061
Probable space group: C 2/M
;
_chemical_formula_sum "Si O2"
_cell_formula_units_Z 48
_cell_length_a 18.207056
_cell_length_b 29.190145
_cell_length_c 9.099003
_cell_angle_alpha 90.000000
_cell_angle_beta 30.733798
_cell_angle_gamma 90.000000
_cell_volume 2471.344098
_symmetry_space_group_name_H-M "C 2/M"
_symmetry_group_IT_number 12
_symmetry_cell_setting 'monoclinic'
loop_
_space_group_symop_operation_xyz
x,y,z
-x,y,-z
-x,-y,-z
x,-y,z
1/2+x,1/2+y,z
1/2-x,1/2+y,-z
1/2-x,1/2-y,-z
1/2+x,1/2-y,z
loop_
_atom_site_type_symbol
_atom_site_label
_atom_site_fract_x
_atom_site_fract_y
_atom_site_fract_z
Si Si1 0.084231 0.500000 0.207613
Si Si2 0.553835 0.925032 0.745679
Si Si3 0.904420 0.244703 0.800861
Si Si4 0.052518 0.318754 0.746014
Si Si5 0.874681 0.070170 0.104262
Si Si6 0.886877 0.000000 0.824329
Si Si7 0.373884 0.322847 0.109836
O O1 0.000000 0.500000 0.500000
O O2 0.047258 0.453764 0.185989
O O3 0.248626 0.500000 0.961968
O O4 0.528999 0.871978 0.749395
O O5 0.719616 0.940921 0.442786
O O6 0.500000 0.936244 0.000000
O O7 0.000000 0.231424 0.500000
O O8 0.959972 0.290258 0.788058
O O9 0.750000 0.250000 0.000000
O O10 0.903300 0.201342 0.907074
O O11 0.221931 0.307565 0.441561
O O12 0.000000 0.306388 0.000000
O O13 0.884930 0.123761 0.056001
O O14 0.000000 0.054026 0.000000
O O15 0.895123 0.044624 0.914256
O O16 0.000000 0.000000 0.500000
O O17 0.500000 0.306541 0.000000
#
# Coordination Sequence:
#
# PCOD8112061 Si02
#       7
#     4   8   8   8   8   4   8
#     4  12  23  40  62  92 123 160 200 248 300 362
#     4  10  22  41  67  91 117 160 208 252 297 355
#     4  12  25  40  60  90 123 162 200 248 309 362
#     4  10  23  42  64  90 121 160 205 253 301 356
#     4  10  22  43  64  89 122 161 205 250 299 356
#     4  12  27  40  60  92 129 164 196 245 310 362
#     4  10  23  42  65  89 120 161 207 252 297 360
#
# _framework density 19.422629000000001
#
# number of rings (size 3 to 8) (size 9 to 14) (size 15 to 20)
#    0.000    1.333    3.333    1.000    4.667    4.000 
#    0.000    0.000    0.000    0.000    0.000    0.000 
#    0.000    0.000    0.000    0.000    0.000    0.000 
#
# Total GULP energy -297620.851241 kJ/mol
# GULP energy per Si atom -12400.868802 kJ/mol
# Density = 1.937842 g / cm^3
# Si number density = 19.422629 Si / 1000 Ang^3
#
#
#
# Elastic Constant Matrix: (Units=GPa)
#
#
# Indices 1 2 3 4 5 6 
#
# 1 176.8367 73.1852 101.7206 0.0000 -11.5117 0.0002
# 2 73.1852 84.8293 59.3625 0.0000 2.9257 0.0000
# 3 101.7206 59.3625 188.5498 -0.0001 7.5386 0.0006
# 4 0.0000 0.0000 -0.0001 20.1819 0.0000 37.7862
# 5 -11.5117 2.9257 7.5386 0.0000 49.0275 -0.0002
# 6 0.0002 0.0000 0.0006 37.7862 -0.0002 -220.4256
#
#
#
# Elastic Compliance Matrix: (Units=1/GPa)
#
#
# Indices 1 2 3 4 5 6 
#
# 1 0.010972 -0.006858 -0.003903 0.000000 0.003586 0.000000
# 2 -0.006858 0.019407 -0.002314 0.000000 -0.002413 0.000000
# 3 -0.003903 -0.002314 0.008220 0.000000 -0.002042 0.000000
# 4 0.000000 0.000000 0.000000 0.037510 0.000000 0.006430
# 5 0.003586 -0.002413 -0.002042 0.000000 0.021697 0.000000
# 6 0.000000 0.000000 0.000000 0.006430 0.000000 -0.003434
#
#
# Mechanical properties :
#
#
# Convention : Reuss Voigt Hill
#
# Bulk Modulus (GPa) = 80.33182 102.08359 91.20770
# Shear Modulus (GPa) = 40.10533 -15.84673 12.12930
#
# Velocity S-wave (km/s) = 4.54902 -2.85948 2.50170
# Velocity P-wave (km/s) = 8.30910 6.46305 7.44353
#
# Compressibility (1/GPa) = 0.01244837
#
# Stress axis : x y z
#
# Youngs Moduli (GPa) = 91.14179 51.52666 121.65917
#
# Poissons Ratio (x) = 0.35337 0.47489
# Poissons Ratio (y) = 0.62504 0.28151
# Poissons Ratio (z) = 0.35577 0.11923
#
# Static dielectric constant tensor:
#      x y z
#    x 4.030390 0.000000 0.222440 
#    y 0.000000 3.624010 0.000000 
#    z 0.222440 0.000000 3.914230 
# 
# 
# High freq. dielectric constant tensor:
#      x y z
#    x 1.764770 0.000000 -0.002920 
#    y 0.000000 1.767320 0.000000 
#    z -0.002920 0.000000 1.772940 
# 
# From -- ./inp_files/80661.got.cif
#   From: 2010.06.25/outbox.cif.g09.slc.cpg/sg12_41_cif.got.tgz:80661.got - 2010.06.28 00:19:55.
