data_PCOD8112575
_publ_section_title
;
Structure prediction by ZEFSAII (Michael W. Deem and Ramdas Pophale) SiO2 
 PCOD8112575
Probable space group: C 2/M
;
_chemical_formula_sum "Si O2"
_cell_formula_units_Z 52
_cell_length_a 9.520300
_cell_length_b 16.978418
_cell_length_c 21.958630
_cell_angle_alpha 90.000000
_cell_angle_beta 135.293880
_cell_angle_gamma 90.000000
_cell_volume 2496.887998
_symmetry_space_group_name_H-M "C 2/M"
_symmetry_group_IT_number 12
_symmetry_cell_setting 'monoclinic'
loop_
_space_group_symop_operation_xyz
x,y,z
-x,y,-z
-x,-y,-z
x,-y,z
1/2+x,1/2+y,z
1/2-x,1/2+y,-z
1/2-x,1/2-y,-z
1/2+x,1/2-y,z
loop_
_atom_site_type_symbol
_atom_site_label
_atom_site_fract_x
_atom_site_fract_y
_atom_site_fract_z
Si Si1 0.500000 0.155339 0.000000
Si Si2 0.126460 0.592984 0.361991
Si Si3 0.698946 0.211969 0.764445
Si Si4 0.037261 0.412158 0.138318
Si Si5 0.682103 0.907164 0.516061
Si Si6 0.871985 0.250559 0.124225
Si Si7 0.879618 0.139791 0.328421
O O1 0.574239 0.100570 0.077866
O O2 0.678826 0.212640 0.032364
O O3 0.100844 0.500000 0.350912
O O4 0.172934 0.624231 0.444028
O O5 0.307718 0.620028 0.374647
O O6 0.916355 0.629470 0.275033
O O7 0.641654 0.259684 0.807402
O O8 0.642361 0.266896 0.689480
O O9 0.937506 0.200239 0.839674
O O10 0.947592 0.500000 0.121107
O O11 0.246624 0.407591 0.238616
O O12 0.887266 0.344380 0.115729
O O13 0.500000 0.871248 0.500000
O O14 0.890991 0.883314 0.610484
O O15 0.662651 0.000000 0.509004
#
# Coordination Sequence:
#
# PCOD8112575 Si02
#       7
#     4   8   8   8   8   8   8
#     4  12  23  44  67  96 128 174 210 264 321 390
#     4  11  23  42  68  95 130 171 216 265 317 377
#     4  11  23  41  66  98 125 169 216 266 312 386
#     4  11  23  40  67  96 128 167 215 266 316 382
#     4  10  23  39  61  96 134 170 213 266 322 375
#     4  11  23  43  68  93 131 169 214 257 330 382
#     4  11  22  41  65  92 128 174 215 259 318 385
#
# _framework density 20.825925000000002
#
# number of rings (size 3 to 8) (size 9 to 14) (size 15 to 20)
#    0.000    1.077    6.154    2.538    2.154    1.846 
#    0.000    1.923    0.000    0.000    0.000    0.000 
#    0.000    0.000    0.000    0.000    0.000    0.000 
#
# Total GULP energy -322398.398104 kJ/mol
# GULP energy per Si atom -12399.938389 kJ/mol
# Density = 2.077852 g / cm^3
# Si number density = 20.825925 Si / 1000 Ang^3
#
#
#
# Elastic Constant Matrix: (Units=GPa)
#
#
# Indices 1 2 3 4 5 6 
#
# 1 135.8789 31.3287 54.4643 0.0000 9.4109 0.0000
# 2 31.3287 75.5015 25.5008 0.0000 9.6640 0.0000
# 3 54.4643 25.5008 99.6492 0.0000 0.4116 0.0000
# 4 0.0000 0.0000 0.0000 21.2945 0.0000 -4.2898
# 5 9.4109 9.6640 0.4116 0.0000 41.0426 0.0000
# 6 0.0000 0.0000 0.0000 -4.2898 0.0000 26.8163
#
#
#
# Elastic Compliance Matrix: (Units=1/GPa)
#
#
# Indices 1 2 3 4 5 6 
#
# 1 0.009943 -0.002272 -0.004846 0.000000 -0.001696 0.000000
# 2 -0.002272 0.015501 -0.002712 0.000000 -0.003102 0.000000
# 3 -0.004846 -0.002712 0.013371 0.000000 0.001616 0.000000
# 4 0.000000 0.000000 0.000000 0.048524 0.000000 0.007762
# 5 -0.001696 -0.003102 0.001616 0.000000 0.025468 0.000000
# 6 0.000000 0.000000 0.000000 0.007762 0.000000 0.038532
#
#
# Mechanical properties :
#
#
# Convention : Reuss Voigt Hill
#
# Bulk Modulus (GPa) = 52.20667 59.29078 55.74872
# Shear Modulus (GPa) = 28.18725 31.14641 29.66683
#
# Velocity S-wave (km/s) = 3.68294 3.87144 3.77837
# Velocity P-wave (km/s) = 6.57328 6.96531 6.77213
#
# Compressibility (1/GPa) = 0.01915464
#
# Stress axis : x y z
#
# Youngs Moduli (GPa) = 100.56995 64.51399 74.78687
#
# Poissons Ratio (x) = 0.14657 0.36243
# Poissons Ratio (y) = 0.22849 0.20283
# Poissons Ratio (z) = 0.48738 0.17497
#
# Static dielectric constant tensor:
#      x y z
#    x 4.031240 0.000000 -0.141400 
#    y 0.000000 3.627950 0.000000 
#    z -0.141400 0.000000 3.884100 
# 
# 
# High freq. dielectric constant tensor:
#      x y z
#    x 1.819180 0.000000 -0.012560 
#    y 0.000000 1.798970 0.000000 
#    z -0.012560 0.000000 1.822930 
# 
# From -- ./inp_files/301183.got.cif
#   From: 2010.06.25/outbox.cif.g09.slc.cpg/sg12_151_cif.got.tgz:301183.got - 2010.06.28 00:19:55.
