data_PCOD8112827
_publ_section_title
;
Structure prediction by ZEFSAII (Michael W. Deem and Ramdas Pophale) SiO2 
 PCOD8112827
Probable space group: C 2/M
;
_chemical_formula_sum "Si O2"
_cell_formula_units_Z 48
_cell_length_a 19.888946
_cell_length_b 8.880590
_cell_length_c 28.382264
_cell_angle_alpha 90.000000
_cell_angle_beta 155.129681
_cell_angle_gamma 90.000000
_cell_volume 2108.310928
_symmetry_space_group_name_H-M "C 2/M"
_symmetry_group_IT_number 12
_symmetry_cell_setting 'monoclinic'
loop_
_space_group_symop_operation_xyz
x,y,z
-x,y,-z
-x,-y,-z
x,-y,z
1/2+x,1/2+y,z
1/2-x,1/2+y,-z
1/2-x,1/2-y,-z
1/2+x,1/2-y,z
loop_
_atom_site_type_symbol
_atom_site_label
_atom_site_fract_x
_atom_site_fract_y
_atom_site_fract_z
Si Si1 0.825498 0.326514 0.228295
Si Si2 0.806117 0.169889 0.082118
Si Si3 0.927803 0.827176 0.006384
Si Si4 0.156672 0.677161 0.397992
Si Si5 0.682265 0.668227 0.319433
Si Si6 0.209112 0.675684 0.239237
O O1 0.847137 0.500000 0.255565
O O2 0.632289 0.309043 0.088031
O O3 0.843713 0.228348 0.287211
O O4 0.967600 0.278949 0.283164
O O5 0.748980 0.276861 0.088427
O O6 0.993961 0.162435 0.199257
O O7 0.736351 0.000000 0.042327
O O8 0.750000 0.250000 0.000000
O O9 0.964825 0.000000 0.042980
O O10 0.040208 0.717626 0.108085
O O11 0.182219 0.500000 0.414811
O O12 0.250000 0.750000 0.500000
O O13 0.232388 0.740004 0.397814
O O14 0.754792 0.500000 0.367962
O O15 0.744998 0.746522 0.311842
O O16 0.218693 0.500000 0.253832
#
# Coordination Sequence:
#
# PCOD8112827 Si02
#       6
#     8   8   8   8   8   8
#     4  10  23  42  63  88 125 168 207 251 307 367
#     4  11  21  32  54  86 123 164 207 254 301 358
#     4  11  21  36  58  86 125 171 212 250 297 362
#     4  11  24  45  71  97 122 155 203 259 316 372
#     4  11  23  40  63  90 124 164 206 255 309 366
#     4  12  25  38  59  92 131 169 208 253 303 365
#
# _framework density 22.767042
#
# number of rings (size 3 to 8) (size 9 to 14) (size 15 to 20)
#    0.000    1.000    3.333    4.000    0.000    6.000 
#    0.000    0.833    0.000    5.000    0.000    0.000 
#    0.000    0.000    0.000    0.000    0.000    0.000 
#
# Total GULP energy -297438.610180 kJ/mol
# GULP energy per Si atom -12393.275424 kJ/mol
# Density = 2.271522 g / cm^3
# Si number density = 22.767042 Si / 1000 Ang^3
#
#
#
# Elastic Constant Matrix: (Units=GPa)
#
#
# Indices 1 2 3 4 5 6 
#
# 1 91.3750 50.6098 13.2905 0.0016 -35.5728 0.0004
# 2 50.6098 125.4479 29.8970 0.0020 -20.6843 0.0005
# 3 13.2905 29.8970 74.0831 0.0018 -24.8554 0.0013
# 4 0.0016 0.0020 0.0018 28.8497 0.0017 -6.6121
# 5 -35.5728 -20.6843 -24.8554 0.0017 36.8159 0.0003
# 6 0.0004 0.0005 0.0013 -6.6121 0.0003 42.1585
#
#
#
# Elastic Compliance Matrix: (Units=1/GPa)
#
#
# Indices 1 2 3 4 5 6 
#
# 1 0.022385 -0.006877 0.006102 -0.000003 0.021886 -0.000001
# 2 -0.006877 0.011253 -0.004416 0.000000 -0.003303 0.000000
# 3 0.006102 -0.004416 0.019821 -0.000003 0.016797 -0.000001
# 4 -0.000003 0.000000 -0.000003 0.035955 -0.000006 0.005639
# 5 0.021886 -0.003303 0.016797 -0.000006 0.057793 -0.000002
# 6 -0.000001 0.000000 -0.000001 0.005639 -0.000002 0.024604
#
#
# Mechanical properties :
#
#
# Convention : Reuss Voigt Hill
#
# Bulk Modulus (GPa) = 23.21343 53.16676 38.19009
# Shear Modulus (GPa) = 25.43842 34.70539 30.07191
#
# Velocity S-wave (km/s) = 3.34628 3.90855 3.63830
# Velocity P-wave (km/s) = 5.01481 6.61606 5.87029
#
# Compressibility (1/GPa) = 0.04307852
#
# Stress axis : x y z
#
# Youngs Moduli (GPa) = 44.67216 88.86138 50.45101
#
# Poissons Ratio (x) = 0.61107 -0.30785
# Poissons Ratio (y) = 0.30719 0.22280
# Poissons Ratio (z) = -0.27259 0.39242
#
# Static dielectric constant tensor:
#      x y z
#    x 4.879370 0.000020 -0.276530 
#    y 0.000020 4.146150 -0.000010 
#    z -0.276530 -0.000010 4.427280 
# 
# 
# High freq. dielectric constant tensor:
#      x y z
#    x 1.926410 0.000000 -0.009080 
#    y 0.000000 1.897180 0.000000 
#    z -0.009080 0.000000 1.883550 
# 
# From -- ./inp_files/365569.got.cif
#   From: 2010.06.25/outbox.cif.g09.slc.cpg/sg12_183_cif.got.tgz:365569.got - 2010.06.28 00:19:55.
