data_PCOD8112696
_publ_section_title
;
Structure prediction by ZEFSAII (Michael W. Deem and Ramdas Pophale) SiO2 
 PCOD8112696
Probable space group: C 2/M
;
_chemical_formula_sum "Si O2"
_cell_formula_units_Z 40
_cell_length_a 19.179676
_cell_length_b 8.810353
_cell_length_c 12.129212
_cell_angle_alpha 90.000000
_cell_angle_beta 102.159272
_cell_angle_gamma 90.000000
_cell_volume 2003.610002
_symmetry_space_group_name_H-M "C 2/M"
_symmetry_group_IT_number 12
_symmetry_cell_setting 'monoclinic'
loop_
_space_group_symop_operation_xyz
x,y,z
-x,y,-z
-x,-y,-z
x,-y,z
1/2+x,1/2+y,z
1/2-x,1/2+y,-z
1/2-x,1/2-y,-z
1/2+x,1/2-y,z
loop_
_atom_site_type_symbol
_atom_site_label
_atom_site_fract_x
_atom_site_fract_y
_atom_site_fract_z
Si Si1 0.702497 0.179964 0.679608
Si Si2 0.190701 0.827250 0.907236
Si Si3 0.146129 0.321424 0.284205
Si Si4 0.424652 0.820412 0.517194
Si Si5 0.922317 0.172586 0.948129
O O1 0.680805 0.233653 0.793265
O O2 0.777812 0.246324 0.665679
O O3 0.640681 0.240856 0.578250
O O4 0.708784 0.000000 0.680853
O O5 0.213143 0.000000 0.887559
O O6 0.250000 0.750000 0.000000
O O7 0.117400 0.820649 0.948953
O O8 0.157892 0.500000 0.288393
O O9 0.090323 0.272445 0.361119
O O10 0.116782 0.272648 0.156101
O O11 0.500000 0.749991 0.500000
O O12 0.428292 0.000000 0.506775
O O13 0.926472 0.000000 0.905085
O O14 0.000000 0.239911 0.000000
#
# Coordination Sequence:
#
# PCOD8112696 Si02
#       5
#     8   8   8   8   8
#     4  11  22  38  63  87 119 159 196 245 296 349
#     4  11  22  38  61  89 122 156 196 241 291 352
#     4  11  22  38  63  89 117 155 202 247 290 354
#     4   9  21  40  60  87 119 153 195 247 300 348
#     4  10  23  41  60  85 122 160 192 240 300 352
#
# _framework density 19.963965000000002
#
# number of rings (size 3 to 8) (size 9 to 14) (size 15 to 20)
#    0.000    1.600    2.000    2.400    2.800    1.200 
#    0.000    3.000    0.000    4.800    0.000    0.000 
#    0.000    0.000    0.000    0.000    0.000    0.000 
#
# Total GULP energy -248045.212542 kJ/mol
# GULP energy per Si atom -12402.260627 kJ/mol
# Density = 1.991853 g / cm^3
# Si number density = 19.963965 Si / 1000 Ang^3
#
#
#
# Elastic Constant Matrix: (Units=GPa)
#
#
# Indices 1 2 3 4 5 6 
#
# 1 149.7863 34.8763 40.5803 0.0000 -0.3648 0.0000
# 2 34.8763 75.4990 25.0080 0.0000 -0.0379 0.0000
# 3 40.5803 25.0080 91.7283 0.0000 -8.2623 0.0000
# 4 0.0000 0.0000 0.0000 19.0264 0.0000 -9.8204
# 5 -0.3648 -0.0379 -8.2623 0.0000 37.9335 0.0000
# 6 0.0000 0.0000 0.0000 -9.8204 0.0000 18.6764
#
#
#
# Elastic Compliance Matrix: (Units=1/GPa)
#
#
# Indices 1 2 3 4 5 6 
#
# 1 0.008103 -0.002792 -0.002873 0.000000 -0.000551 0.000000
# 2 -0.002792 0.015550 -0.003065 0.000000 -0.000679 0.000000
# 3 -0.002873 -0.003065 0.013266 0.000000 0.002859 0.000000
# 4 0.000000 0.000000 0.000000 0.072136 0.000000 0.037930
# 5 -0.000551 -0.000679 0.002859 0.000000 0.026979 0.000000
# 6 0.000000 0.000000 0.000000 0.037930 0.000000 0.073488
#
#
# Mechanical properties :
#
#
# Convention : Reuss Voigt Hill
#
# Bulk Modulus (GPa) = 51.39231 57.54920 54.47075
# Shear Modulus (GPa) = 21.41607 29.56386 25.48996
#
# Velocity S-wave (km/s) = 3.27882 3.85237 3.57711
# Velocity P-wave (km/s) = 6.33503 6.97688 6.66369
#
# Compressibility (1/GPa) = 0.01945817
#
# Stress axis : x y z
#
# Youngs Moduli (GPa) = 123.40593 64.30904 75.37970
#
# Poissons Ratio (x) = 0.17954 0.21659
# Poissons Ratio (y) = 0.34453 0.23107
# Poissons Ratio (z) = 0.35459 0.19714
#
# Static dielectric constant tensor:
#      x y z
#    x 4.014290 0.000000 -0.216060 
#    y 0.000000 3.551250 0.000000 
#    z -0.216060 0.000000 3.855440 
# 
# 
# High freq. dielectric constant tensor:
#      x y z
#    x 1.793590 0.000000 -0.006540 
#    y 0.000000 1.765870 0.000000 
#    z -0.006540 0.000000 1.786870 
# 
# From -- ./inp_files/151656.got.cif
#   From: 2010.06.25/outbox.cif.g09.slc.cpg/sg12_76_cif.got.tgz:151656.got - 2010.06.28 00:19:55.
