data_PCOD8112183
_publ_section_title
;
Structure prediction by ZEFSAII (Michael W. Deem and Ramdas Pophale) SiO2 
 PCOD8112183
Probable space group: C 2/M
;
_chemical_formula_sum "Si O2"
_cell_formula_units_Z 56
_cell_length_a 19.044635
_cell_length_b 8.743308
_cell_length_c 16.666311
_cell_angle_alpha 90.000000
_cell_angle_beta 74.072398
_cell_angle_gamma 90.000000
_cell_volume 2668.618738
_symmetry_space_group_name_H-M "C 2/M"
_symmetry_group_IT_number 12
_symmetry_cell_setting 'monoclinic'
loop_
_space_group_symop_operation_xyz
x,y,z
-x,y,-z
-x,-y,-z
x,-y,z
1/2+x,1/2+y,z
1/2-x,1/2+y,-z
1/2-x,1/2-y,-z
1/2+x,1/2-y,z
loop_
_atom_site_type_symbol
_atom_site_label
_atom_site_fract_x
_atom_site_fract_y
_atom_site_fract_z
Si Si1 0.419955 0.174863 0.182301
Si Si2 0.668353 0.321961 0.926508
Si Si3 0.307081 0.678175 0.823397
Si Si4 0.709518 0.824379 0.339940
Si Si5 0.581547 0.822212 0.500462
Si Si6 0.588017 0.825243 0.097705
Si Si7 0.366486 0.677017 0.353949
O O1 0.370441 0.286691 0.145497
O O2 0.501976 0.193923 0.127364
O O3 0.412528 0.222472 0.276973
O O4 0.393706 0.000000 0.179134
O O5 0.686595 0.500000 0.925165
O O6 0.743774 0.228004 0.905359
O O7 0.617199 0.276250 0.015865
O O8 0.321128 0.500000 0.826761
O O9 0.286235 0.718983 0.739365
O O10 0.380119 0.766332 0.827665
O O11 0.636042 0.784366 0.410652
O O12 0.779923 0.789065 0.373026
O O13 0.709371 0.000000 0.311635
O O14 0.500000 0.775637 0.500000
O O15 0.606591 0.720767 0.566734
O O16 0.585841 0.000000 0.523204
O O17 0.610602 0.000000 0.075906
O O18 0.383566 0.500000 0.333135
#
# Coordination Sequence:
#
# PCOD8112183 Si02
#       7
#     8   8   8   8   8   8   8
#     4  11  24  42  66  94 127 171 217 261 317 384
#     4  12  24  42  66  94 129 167 214 268 320 377
#     4  12  25  41  65  95 128 170 217 263 318 381
#     4  10  22  42  65  92 127 170 214 259 315 376
#     4  10  23  42  66  95 129 168 209 257 317 382
#     4  11  25  43  64  91 129 171 214 267 323 379
#     4  11  23  40  65  94 128 168 212 264 313 371
#
# _framework density 20.984638
#
# number of rings (size 3 to 8) (size 9 to 14) (size 15 to 20)
#    0.000    1.000    1.429    5.143    2.000    5.429 
#    0.000    0.000    0.000    0.000    0.000    0.000 
#    0.000    0.000    0.000    0.000    0.000    0.000 
#
# Total GULP energy -347415.293124 kJ/mol
# GULP energy per Si atom -12407.689040 kJ/mol
# Density = 2.093688 g / cm^3
# Si number density = 20.984638 Si / 1000 Ang^3
#
#
#
# Elastic Constant Matrix: (Units=GPa)
#
#
# Indices 1 2 3 4 5 6 
#
# 1 71.9170 36.1056 22.0114 0.0000 0.1247 0.0000
# 2 36.1056 73.9177 22.5201 0.0000 -3.4851 0.0000
# 3 22.0114 22.5201 86.9310 0.0000 -9.3545 0.0000
# 4 0.0000 0.0000 0.0000 36.2109 0.0000 6.0517
# 5 0.1247 -3.4851 -9.3545 0.0000 31.2372 0.0000
# 6 0.0000 0.0000 0.0000 6.0517 0.0000 33.2085
#
#
#
# Elastic Compliance Matrix: (Units=1/GPa)
#
#
# Indices 1 2 3 4 5 6 
#
# 1 0.019057 -0.008539 -0.002815 0.000000 -0.001872 0.000000
# 2 -0.008539 0.018522 -0.002490 0.000000 0.001355 0.000000
# 3 -0.002815 -0.002490 0.013260 0.000000 0.003704 0.000000
# 4 0.000000 0.000000 0.000000 0.028483 0.000000 -0.005191
# 5 -0.001872 0.001355 0.003704 0.000000 0.033281 0.000000
# 6 0.000000 0.000000 0.000000 -0.005191 0.000000 0.031059
#
#
# Mechanical properties :
#
#
# Convention : Reuss Voigt Hill
#
# Bulk Modulus (GPa) = 43.19546 43.78221 43.48883
# Shear Modulus (GPa) = 27.92258 30.27322 29.09790
#
# Velocity S-wave (km/s) = 3.65172 3.80233 3.72779
# Velocity P-wave (km/s) = 6.19751 6.33925 6.26878
#
# Compressibility (1/GPa) = 0.02315058
#
# Stress axis : x y z
#
# Youngs Moduli (GPa) = 52.47525 53.98946 75.41595
#
# Poissons Ratio (x) = 0.46102 0.21226
# Poissons Ratio (y) = 0.44809 0.18781
# Poissons Ratio (z) = 0.14769 0.13445
#
# Static dielectric constant tensor:
#      x y z
#    x 3.946350 0.000000 -0.059380 
#    y 0.000000 3.800270 0.000000 
#    z -0.059380 0.000000 3.733770 
# 
# 
# High freq. dielectric constant tensor:
#      x y z
#    x 1.833830 0.000000 -0.001070 
#    y 0.000000 1.826080 0.000000 
#    z -0.001070 0.000000 1.826560 
# 
# From -- ./inp_files/275043.got.cif
#   From: 2010.06.25/outbox.cif.g09.slc.cpg/sg12_138_cif.got.tgz:275043.got - 2010.06.28 00:19:55.
