data_PCOD8112961
_publ_section_title
;
Structure prediction by ZEFSAII (Michael W. Deem and Ramdas Pophale) SiO2 
 PCOD8112961
Probable space group: C 2/M
;
_chemical_formula_sum "Si O2"
_cell_formula_units_Z 40
_cell_length_a 8.441107
_cell_length_b 26.532625
_cell_length_c 8.641511
_cell_angle_alpha 90.000000
_cell_angle_beta 92.536232
_cell_angle_gamma 90.000000
_cell_volume 1933.497811
_symmetry_space_group_name_H-M "C 2/M"
_symmetry_group_IT_number 12
_symmetry_cell_setting 'monoclinic'
loop_
_space_group_symop_operation_xyz
x,y,z
-x,y,-z
-x,-y,-z
x,-y,z
1/2+x,1/2+y,z
1/2-x,1/2+y,-z
1/2-x,1/2-y,-z
1/2+x,1/2-y,z
loop_
_atom_site_type_symbol
_atom_site_label
_atom_site_fract_x
_atom_site_fract_y
_atom_site_fract_z
Si Si1 0.500000 0.905223 0.000000
Si Si2 0.500000 0.097626 0.500000
Si Si3 0.468595 0.646184 0.316557
Si Si4 0.619365 0.263771 0.874697
Si Si5 0.770185 0.443630 0.735511
Si Si6 0.675231 0.158204 0.763183
O O1 0.612524 0.938630 0.113459
O O2 0.378074 0.870718 0.086815
O O3 0.622551 0.063194 0.411878
O O4 0.605052 0.133510 0.608668
O O5 0.500000 0.651669 0.500000
O O6 0.353691 0.690581 0.246248
O O7 0.381036 0.593776 0.271848
O O8 0.634604 0.654031 0.235539
O O9 0.599082 0.214175 0.767381
O O10 0.500000 0.281119 0.000000
O O11 0.750000 0.250000 0.000000
O O12 0.699290 0.500000 0.732339
#
# Coordination Sequence:
#
# PCOD8112961 Si02
#       6
#     4   4   8   8   8   8
#     4  10  23  42  72 100 132 172 229 282 322 402
#     4  10  23  42  70  98 132 176 219 276 330 408
#     4  12  27  44  65 103 141 173 223 285 333 402
#     4  12  25  41  67  98 135 182 219 265 334 405
#     4  11  24  45  69  98 134 180 227 278 339 391
#     4  11  23  43  67  99 135 173 221 270 338 402
#
# _framework density 20.687894
#
# number of rings (size 3 to 8) (size 9 to 14) (size 15 to 20)
#    0.000    0.800    5.000    1.800    4.200    1.200 
#    0.000    3.000    0.000    0.000    0.000    0.000 
#    0.000    0.000    0.000    0.000    0.000    0.000 
#
# Total GULP energy -247765.741088 kJ/mol
# GULP energy per Si atom -12388.287054 kJ/mol
# Density = 2.064081 g / cm^3
# Si number density = 20.687894 Si / 1000 Ang^3
#
#
#
# Elastic Constant Matrix: (Units=GPa)
#
#
# Indices 1 2 3 4 5 6 
#
# 1 69.1825 38.1225 42.4718 0.0000 1.1669 0.0000
# 2 38.1225 183.3052 67.4261 0.0000 7.9641 0.0000
# 3 42.4718 67.4261 135.1588 0.0000 11.5248 0.0000
# 4 0.0000 0.0000 0.0000 28.6457 0.0000 2.5635
# 5 1.1669 7.9641 11.5248 0.0000 27.2614 0.0000
# 6 0.0000 0.0000 0.0000 2.5635 0.0000 29.1050
#
#
#
# Elastic Compliance Matrix: (Units=1/GPa)
#
#
# Indices 1 2 3 4 5 6 
#
# 1 0.018642 -0.002138 -0.004955 0.000000 0.001922 0.000000
# 2 -0.002138 0.006935 -0.002721 0.000000 -0.000784 0.000000
# 3 -0.004955 -0.002721 0.010610 0.000000 -0.003478 0.000000
# 4 0.000000 0.000000 0.000000 0.035187 0.000000 -0.003099
# 5 0.001922 -0.000784 -0.003478 0.000000 0.038299 0.000000
# 6 0.000000 0.000000 0.000000 -0.003099 0.000000 0.034631
#
#
# Mechanical properties :
#
#
# Convention : Reuss Voigt Hill
#
# Bulk Modulus (GPa) = 60.39123 75.96526 68.17825
# Shear Modulus (GPa) = 29.50683 32.97749 31.24216
#
# Velocity S-wave (km/s) = 3.78072 3.99688 3.89030
# Velocity P-wave (km/s) = 6.95078 7.62230 7.29427
#
# Compressibility (1/GPa) = 0.01655869
#
# Stress axis : x y z
#
# Youngs Moduli (GPa) = 53.64138 144.19779 94.25177
#
# Poissons Ratio (x) = 0.30826 0.46706
# Poissons Ratio (y) = 0.11467 0.25646
# Poissons Ratio (z) = 0.26582 0.39236
#
# Static dielectric constant tensor:
#      x y z
#    x 3.704800 0.000000 0.113950 
#    y 0.000000 3.662080 0.000000 
#    z 0.113950 0.000000 3.529000 
# 
# 
# High freq. dielectric constant tensor:
#      x y z
#    x 1.814130 0.000000 0.004560 
#    y 0.000000 1.808100 0.000000 
#    z 0.004560 0.000000 1.829570 
# 
# From -- ./inp_files/40476.got.cif
#   From: 2010.06.25/outbox.cif.g09.slc.cpg/sg12_21_cif.got.tgz:40476.got - 2010.06.28 00:19:55.
