data_PCOD8112462
_publ_section_title
;
Structure prediction by ZEFSAII (Michael W. Deem and Ramdas Pophale) SiO2 
 PCOD8112462
Probable space group: C 2/M
;
_chemical_formula_sum "Si O2"
_cell_formula_units_Z 24
_cell_length_a 17.552518
_cell_length_b 14.141229
_cell_length_c 8.734082
_cell_angle_alpha 90.000000
_cell_angle_beta 24.186255
_cell_angle_gamma 90.000000
_cell_volume 888.207165
_symmetry_space_group_name_H-M "C 2/M"
_symmetry_group_IT_number 12
_symmetry_cell_setting 'monoclinic'
loop_
_space_group_symop_operation_xyz
x,y,z
-x,y,-z
-x,-y,-z
x,-y,z
1/2+x,1/2+y,z
1/2-x,1/2+y,-z
1/2-x,1/2-y,-z
1/2+x,1/2-y,z
loop_
_atom_site_type_symbol
_atom_site_label
_atom_site_fract_x
_atom_site_fract_y
_atom_site_fract_z
Si Si1 0.712340 0.738377 0.392038
Si Si2 0.118753 0.395022 0.130722
Si Si3 0.123293 0.892127 0.085615
O O1 0.750000 0.750000 0.500000
O O2 0.556580 0.661255 0.645176
O O3 0.896162 0.687024 0.972632
O O4 0.701365 0.841599 0.329732
O O5 0.089170 0.500000 0.115464
O O6 0.000000 0.378667 0.500000
O O7 0.331490 0.386859 0.814412
O O8 0.114576 0.000000 0.045294
#
# Coordination Sequence:
#
# PCOD8112462 Si02
#       3
#     8   8   8
#     4  12  25  42  69 105 146 189 236 298 367 433
#     4  10  22  44  75 107 142 190 246 301 359 432
#     4  11  25  46  72 103 143 192 244 298 359 433
#
# _framework density 27.020723
#
# number of rings (size 3 to 8) (size 9 to 14) (size 15 to 20)
#    0.000    1.000    0.000    6.000    0.000    6.667 
#    0.000    1.667    0.000   16.000    0.000    0.000 
#    0.000    0.000    0.000    0.000    0.000    0.000 
#
# Total GULP energy -148715.173476 kJ/mol
# GULP energy per Si atom -12392.931123 kJ/mol
# Density = 2.695922 g / cm^3
# Si number density = 27.020723 Si / 1000 Ang^3
#
#
#
# Elastic Constant Matrix: (Units=GPa)
#
#
# Indices 1 2 3 4 5 6 
#
# 1 162.4713 104.2351 14.6369 -0.0007 42.1917 0.0023
# 2 104.2351 271.7394 54.0585 -0.0001 37.9100 0.0008
# 3 14.6369 54.0585 40.6842 -0.0004 23.5342 0.0002
# 4 -0.0007 -0.0001 -0.0004 34.0587 0.0002 -12.2334
# 5 42.1917 37.9100 23.5342 0.0002 40.0696 -0.0031
# 6 0.0023 0.0008 0.0002 -12.2334 -0.0031 32.0176
#
#
#
# Elastic Compliance Matrix: (Units=1/GPa)
#
#
# Indices 1 2 3 4 5 6 
#
# 1 0.011788 -0.004538 0.009823 0.000000 -0.013888 -0.000002
# 2 -0.004538 0.006792 -0.009752 0.000000 0.004081 0.000001
# 3 0.009823 -0.009752 0.052479 0.000000 -0.031940 -0.000004
# 4 0.000000 0.000000 0.000000 0.034031 0.000001 0.013003
# 5 -0.013888 0.004081 -0.031940 0.000001 0.054479 0.000007
# 6 -0.000002 0.000001 -0.000004 0.013003 0.000007 0.036201
#
#
# Mechanical properties :
#
#
# Convention : Reuss Voigt Hill
#
# Bulk Modulus (GPa) = 16.09678 91.19512 53.64595
# Shear Modulus (GPa) = 22.18149 41.36013 31.77081
#
# Velocity S-wave (km/s) = 2.86826 3.91664 3.43271
# Velocity P-wave (km/s) = 4.11574 7.36727 5.96725
#
# Compressibility (1/GPa) = 0.06212422
#
# Stress axis : x y z
#
# Youngs Moduli (GPa) = 84.83040 147.24136 19.05511
#
# Poissons Ratio (x) = 0.66824 -0.18718
# Poissons Ratio (y) = 0.38500 0.18583
# Poissons Ratio (z) = -0.83329 1.43591
#
# Static dielectric constant tensor:
#      x y z
#    x 4.713280 0.000000 -0.539170 
#    y 0.000000 5.200420 0.000010 
#    z -0.539170 0.000010 8.400320 
# 
# 
# High freq. dielectric constant tensor:
#      x y z
#    x 2.057290 0.000000 -0.031850 
#    y 0.000000 2.104020 0.000000 
#    z -0.031850 0.000000 2.158140 
# 
# From -- ./inp_files/35699.got.cif
#   From: 2010.06.25/outbox.cif.g09.slc.cpg/sg12_18_cif.got.tgz:35699.got - 2010.06.28 00:19:55.
