data_PCOD8112528
_publ_section_title
;
Structure prediction by ZEFSAII (Michael W. Deem and Ramdas Pophale) SiO2 
 PCOD8112528
Probable space group: C 2/M
;
_chemical_formula_sum "Si O2"
_cell_formula_units_Z 32
_cell_length_a 14.669706
_cell_length_b 17.459677
_cell_length_c 5.894409
_cell_angle_alpha 90.000000
_cell_angle_beta 79.973708
_cell_angle_gamma 90.000000
_cell_volume 1486.668550
_symmetry_space_group_name_H-M "C 2/M"
_symmetry_group_IT_number 12
_symmetry_cell_setting 'monoclinic'
loop_
_space_group_symop_operation_xyz
x,y,z
-x,y,-z
-x,-y,-z
x,-y,z
1/2+x,1/2+y,z
1/2-x,1/2+y,-z
1/2-x,1/2-y,-z
1/2+x,1/2-y,z
loop_
_atom_site_type_symbol
_atom_site_label
_atom_site_fract_x
_atom_site_fract_y
_atom_site_fract_z
Si Si1 0.340420 0.200171 0.785404
Si Si2 0.000000 0.645686 0.000000
Si Si3 0.053369 0.000000 0.223331
Si Si4 0.299808 0.633565 0.826103
Si Si5 0.632246 0.083333 0.604306
O O1 0.329233 0.286385 0.695140
O O2 0.378924 0.150505 0.566957
O O3 0.417493 0.200659 0.949710
O O4 0.244567 0.161333 0.914333
O O5 0.959311 0.588547 0.204596
O O6 0.113816 0.077195 0.181496
O O7 0.000000 0.000000 0.500000
O O8 0.000000 0.000000 0.000000
O O9 0.225491 0.589704 0.708508
O O10 0.633681 0.000000 0.484841
#
# Coordination Sequence:
#
# PCOD8112528 Si02
#       5
#     8   4   4   8   8
#     4  10  23  41  69  92 135 180 225 290 343 428
#     4  10  23  38  58 103 126 170 218 279 348 410
#     4  12  30  48  76 109 144 189 238 302 354 424
#     4  10  24  45  65  99 131 179 234 283 357 412
#     4  11  22  39  67  93 134 171 225 279 348 416
#
# _framework density 21.524636999999998
#
# number of rings (size 3 to 8) (size 9 to 14) (size 15 to 20)
#    0.000    1.500    1.250    1.875    7.000    5.000 
#    0.000    0.000    0.000    0.000    0.000    0.000 
#    0.000    0.000    0.000    0.000    0.000    0.000 
#
# Total GULP energy -198269.896363 kJ/mol
# GULP energy per Si atom -12391.868523 kJ/mol
# Density = 2.147565 g / cm^3
# Si number density = 21.524637 Si / 1000 Ang^3
#
#
#
# Elastic Constant Matrix: (Units=GPa)
#
#
# Indices 1 2 3 4 5 6 
#
# 1 110.1520 52.7693 37.3961 0.0000 -17.9916 0.0000
# 2 52.7693 177.6225 50.9875 0.0000 -27.3798 0.0000
# 3 37.3961 50.9875 98.5048 0.0000 -17.8261 0.0000
# 4 0.0000 0.0000 0.0000 30.3048 0.0000 -3.0760
# 5 -17.9916 -27.3798 -17.8261 0.0000 17.0229 0.0000
# 6 0.0000 0.0000 0.0000 -3.0760 0.0000 43.9705
#
#
#
# Elastic Compliance Matrix: (Units=1/GPa)
#
#
# Indices 1 2 3 4 5 6 
#
# 1 0.011891 -0.001741 -0.002277 0.000000 0.007383 0.000000
# 2 -0.001741 0.008107 -0.001862 0.000000 0.009251 0.000000
# 3 -0.002277 -0.001862 0.013575 0.000000 0.008815 0.000000
# 4 0.000000 0.000000 0.000000 0.033234 0.000000 0.002325
# 5 0.007383 0.009251 0.008815 0.000000 0.090657 0.000000
# 6 0.000000 0.000000 0.000000 0.002325 0.000000 0.022905
#
#
# Mechanical properties :
#
#
# Convention : Reuss Voigt Hill
#
# Bulk Modulus (GPa) = 45.84103 74.28722 60.06413
# Shear Modulus (GPa) = 25.07509 34.60140 29.83825
#
# Velocity S-wave (km/s) = 3.41684 4.01375 3.72726
# Velocity P-wave (km/s) = 6.07533 7.48784 6.81826
#
# Compressibility (1/GPa) = 0.02181452
#
# Stress axis : x y z
#
# Youngs Moduli (GPa) = 84.09419 123.34312 73.66496
#
# Poissons Ratio (x) = 0.21474 0.16774
# Poissons Ratio (y) = 0.14641 0.13713
# Poissons Ratio (z) = 0.19149 0.22961
#
# Static dielectric constant tensor:
#      x y z
#    x 4.109690 0.000000 -0.050490 
#    y 0.000000 3.898120 0.000000 
#    z -0.050490 0.000000 4.029280 
# 
# 
# High freq. dielectric constant tensor:
#      x y z
#    x 1.855450 0.000000 -0.002710 
#    y 0.000000 1.855040 0.000000 
#    z -0.002710 0.000000 1.834930 
# 
# From -- ./inp_files/10227.got.cif
#   From: 2010.06.25/outbox.cif.g09.slc.cpg/sg12_6_cif.got.tgz:10227.got - 2010.06.28 00:19:55.
