data_PCOD8112281
_publ_section_title
;
Structure prediction by ZEFSAII (Michael W. Deem and Ramdas Pophale) SiO2 
 PCOD8112281
Probable space group: C 2/M
;
_chemical_formula_sum "Si O2"
_cell_formula_units_Z 56
_cell_length_a 29.072469
_cell_length_b 9.009575
_cell_length_c 21.121652
_cell_angle_alpha 90.000000
_cell_angle_beta 151.297019
_cell_angle_gamma 90.000000
_cell_volume 2657.044203
_symmetry_space_group_name_H-M "C 2/M"
_symmetry_group_IT_number 12
_symmetry_cell_setting 'monoclinic'
loop_
_space_group_symop_operation_xyz
x,y,z
-x,y,-z
-x,-y,-z
x,-y,z
1/2+x,1/2+y,z
1/2-x,1/2+y,-z
1/2-x,1/2-y,-z
1/2+x,1/2-y,z
loop_
_atom_site_type_symbol
_atom_site_label
_atom_site_fract_x
_atom_site_fract_y
_atom_site_fract_z
Si Si1 0.820860 0.667552 0.777057
Si Si2 0.172569 0.833918 0.095393
Si Si3 0.484018 0.173567 0.407097
Si Si4 0.221111 0.326347 0.899288
Si Si5 0.880930 0.831777 0.524662
Si Si6 0.052048 0.832316 0.160653
Si Si7 0.350827 0.825821 0.611771
O O1 0.859667 0.500000 0.831116
O O2 0.781148 0.725331 0.796741
O O3 0.733208 0.673247 0.622511
O O4 0.906021 0.774842 0.855587
O O5 0.198651 0.781200 0.055965
O O6 0.214950 0.000000 0.155880
O O7 0.060957 0.831660 0.974453
O O8 0.500000 0.213181 0.500000
O O9 0.380979 0.223195 0.254008
O O10 0.565451 0.264769 0.470240
O O11 0.499844 0.000000 0.414702
O O12 0.221272 0.500000 0.913538
O O13 0.250000 0.250000 0.000000
O O14 0.905044 0.735325 0.615400
O O15 0.915704 0.000000 0.577674
O O16 0.083258 0.713134 0.249873
O O17 0.090426 0.000000 0.219515
O O18 0.250000 0.750000 0.500000
O O19 0.336541 0.000000 0.588634
#
# Coordination Sequence:
#
# PCOD8112281 Si02
#       7
#     8   8   8   8   8   8   8
#     4  11  23  39  61  92 127 164 205 254 311 371
#     4  10  23  42  64  89 122 164 209 254 311 377
#     4  10  22  42  68  96 126 164 216 272 326 384
#     4  10  23  43  65  93 126 166 211 266 328 385
#     4  11  24  40  62  92 127 165 208 258 317 377
#     4  11  23  39  62  91 125 166 208 253 308 371
#     4  12  24  40  62  90 125 165 208 257 310 371
#
# _framework density 21.076051
#
# number of rings (size 3 to 8) (size 9 to 14) (size 15 to 20)
#    0.000    1.286    1.429    3.857    2.000    7.143 
#    0.000    0.000    0.000    0.000    0.000    0.000 
#    0.000    0.000    0.000    0.000    0.000    0.000 
#
# Total GULP energy -347227.398618 kJ/mol
# GULP energy per Si atom -12400.978522 kJ/mol
# Density = 2.102808 g / cm^3
# Si number density = 21.076051 Si / 1000 Ang^3
#
#
#
# Elastic Constant Matrix: (Units=GPa)
#
#
# Indices 1 2 3 4 5 6 
#
# 1 146.0297 67.3537 33.9800 0.0000 -15.0679 0.0000
# 2 67.3537 123.7923 31.0758 0.0000 -5.7503 0.0000
# 3 33.9800 31.0758 80.2524 0.0000 -14.4587 0.0000
# 4 0.0000 0.0000 0.0000 29.2308 0.0000 -7.6942
# 5 -15.0679 -5.7503 -14.4587 0.0000 37.0246 0.0000
# 6 0.0000 0.0000 0.0000 -7.6942 0.0000 38.6273
#
#
#
# Elastic Compliance Matrix: (Units=1/GPa)
#
#
# Indices 1 2 3 4 5 6 
#
# 1 0.009702 -0.004701 -0.001837 0.000000 0.002501 0.000000
# 2 -0.004701 0.011226 -0.002568 0.000000 -0.001173 0.000000
# 3 -0.001837 -0.002568 0.015088 0.000000 0.004746 0.000000
# 4 0.000000 0.000000 0.000000 0.036103 0.000000 0.007192
# 5 0.002501 -0.001173 0.004746 0.000000 0.029698 0.000000
# 6 0.000000 0.000000 0.000000 0.007192 0.000000 0.027321
#
#
# Mechanical properties :
#
#
# Convention : Reuss Voigt Hill
#
# Bulk Modulus (GPa) = 56.16741 68.32147 62.24444
# Shear Modulus (GPa) = 32.61914 35.48754 34.05334
#
# Velocity S-wave (km/s) = 3.93833 4.10785 4.02398
# Velocity P-wave (km/s) = 6.88392 7.41527 7.15453
#
# Compressibility (1/GPa) = 0.01780392
#
# Stress axis : x y z
#
# Youngs Moduli (GPa) = 103.07359 89.07832 66.27917
#
# Poissons Ratio (x) = 0.41879 0.12174
# Poissons Ratio (y) = 0.48458 0.17018
# Poissons Ratio (z) = 0.18933 0.22872
#
# Static dielectric constant tensor:
#      x y z
#    x 3.986610 0.000000 -0.155690 
#    y 0.000000 4.407690 0.000000 
#    z -0.155690 0.000000 4.054240 
# 
# 
# High freq. dielectric constant tensor:
#      x y z
#    x 1.840840 0.000000 -0.007550 
#    y 0.000000 1.825980 0.000000 
#    z -0.007550 0.000000 1.821810 
# 
# From -- ./inp_files/238366.got.cif
#   From: 2010.06.25/outbox.cif.g09.slc.cpg/sg12_120_cif.got.tgz:238366.got - 2010.06.28 00:19:55.
