data_PCOD8112879
_publ_section_title
;
Structure prediction by ZEFSAII (Michael W. Deem and Ramdas Pophale) SiO2 
 PCOD8112879
Probable space group: C 2/M
;
_chemical_formula_sum "Si O2"
_cell_formula_units_Z 48
_cell_length_a 7.420397
_cell_length_b 18.413192
_cell_length_c 16.498879
_cell_angle_alpha 90.000000
_cell_angle_beta 104.757478
_cell_angle_gamma 90.000000
_cell_volume 2179.931458
_symmetry_space_group_name_H-M "C 2/M"
_symmetry_group_IT_number 12
_symmetry_cell_setting 'monoclinic'
loop_
_space_group_symop_operation_xyz
x,y,z
-x,y,-z
-x,-y,-z
x,-y,z
1/2+x,1/2+y,z
1/2-x,1/2+y,-z
1/2-x,1/2-y,-z
1/2+x,1/2-y,z
loop_
_atom_site_type_symbol
_atom_site_label
_atom_site_fract_x
_atom_site_fract_y
_atom_site_fract_z
Si Si1 0.298924 0.330244 0.346501
Si Si2 0.828582 0.416932 0.176876
Si Si3 0.845758 0.675312 0.841930
Si Si4 0.031736 0.584620 0.627488
Si Si5 0.712941 0.694677 0.421798
Si Si6 0.502035 0.674932 0.905902
O O1 0.278160 0.348241 0.249748
O O2 0.177891 0.384559 0.388794
O O3 0.508811 0.340320 0.402208
O O4 0.231084 0.246703 0.345790
O O5 0.859981 0.500000 0.159611
O O6 0.618541 0.395854 0.129331
O O7 0.969824 0.373551 0.134899
O O8 0.862821 0.401475 0.275657
O O9 0.715910 0.660891 0.904798
O O10 0.913046 0.758325 0.846169
O O11 0.026431 0.500000 0.602975
O O12 0.860852 0.628831 0.431214
O O13 0.750000 0.750000 0.500000
O O14 0.500000 0.693421 0.000000
#
# Coordination Sequence:
#
# PCOD8112879 Si02
#       6
#     8   8   8   8   8   8
#     4  11  22  39  67  95 123 169 223 264 317 392
#     4  10  23  42  64  94 131 169 214 268 327 388
#     4  11  22  39  65  93 122 170 222 268 315 386
#     4  10  23  43  67  97 132 170 215 269 323 382
#     4  12  24  39  66 100 132 168 210 270 327 387
#     4  12  24  38  64  95 131 168 218 271 327 383
#
# _framework density 22.019041999999999
#
# number of rings (size 3 to 8) (size 9 to 14) (size 15 to 20)
#    0.000    1.000    3.333    4.000    0.000    1.667 
#    0.000    5.833    0.000    2.000    0.000    0.000 
#    0.000    0.000    0.000    0.000    0.000    0.000 
#
# Total GULP energy -297677.905927 kJ/mol
# GULP energy per Si atom -12403.246080 kJ/mol
# Density = 2.196893 g / cm^3
# Si number density = 22.019042 Si / 1000 Ang^3
#
#
#
# Elastic Constant Matrix: (Units=GPa)
#
#
# Indices 1 2 3 4 5 6 
#
# 1 145.7181 62.6276 36.5975 0.0000 -6.9422 0.0000
# 2 62.6276 130.6753 28.5064 0.0000 -6.9287 0.0000
# 3 36.5975 28.5064 47.5286 0.0000 -1.6740 0.0000
# 4 0.0000 0.0000 0.0000 17.5340 0.0000 -0.0217
# 5 -6.9422 -6.9287 -1.6740 0.0000 35.2542 0.0000
# 6 0.0000 0.0000 0.0000 -0.0217 0.0000 37.6618
#
#
#
# Elastic Compliance Matrix: (Units=1/GPa)
#
#
# Indices 1 2 3 4 5 6 
#
# 1 0.009745 -0.003439 -0.005407 0.000000 0.000986 0.000000
# 2 -0.003439 0.010096 -0.003367 0.000000 0.001147 0.000000
# 3 -0.005407 -0.003367 0.027207 0.000000 -0.000435 0.000000
# 4 0.000000 0.000000 0.000000 0.057032 0.000000 0.000033
# 5 0.000986 0.001147 -0.000435 0.000000 0.028765 0.000000
# 6 0.000000 0.000000 0.000000 0.000033 0.000000 0.026552
#
#
# Mechanical properties :
#
#
# Convention : Reuss Voigt Hill
#
# Bulk Modulus (GPa) = 44.20168 64.37612 54.28890
# Shear Modulus (GPa) = 26.12820 31.16935 28.64877
#
# Velocity S-wave (km/s) = 3.44847 3.76648 3.61098
# Velocity P-wave (km/s) = 5.99782 6.94372 6.48803
#
# Compressibility (1/GPa) = 0.02262357
#
# Stress axis : x y z
#
# Youngs Moduli (GPa) = 102.61176 99.04932 36.75465
#
# Poissons Ratio (x) = 0.34061 0.19873
# Poissons Ratio (y) = 0.35286 0.12375
# Poissons Ratio (z) = 0.55481 0.33350
#
# Static dielectric constant tensor:
#      x y z
#    x 4.099640 0.000000 -0.060240 
#    y 0.000000 3.870910 0.000000 
#    z -0.060240 0.000000 3.859780 
# 
# 
# High freq. dielectric constant tensor:
#      x y z
#    x 1.878130 0.000000 -0.001840 
#    y 0.000000 1.849160 0.000000 
#    z -0.001840 0.000000 1.864920 
# 
# From -- ./inp_files/256715.got.cif
#   From: 2010.06.25/outbox.cif.g09.slc.cpg/sg12_129_cif.got.tgz:256715.got - 2010.06.28 00:19:55.
