data_PCOD8112092
_publ_section_title
;
Structure prediction by ZEFSAII (Michael W. Deem and Ramdas Pophale) SiO2 
 PCOD8112092
Probable space group: C 2/M
;
_chemical_formula_sum "Si O2"
_cell_formula_units_Z 40
_cell_length_a 9.014717
_cell_length_b 16.151899
_cell_length_c 12.180537
_cell_angle_alpha 90.000000
_cell_angle_beta 97.156446
_cell_angle_gamma 90.000000
_cell_volume 1759.728170
_symmetry_space_group_name_H-M "C 2/M"
_symmetry_group_IT_number 12
_symmetry_cell_setting 'monoclinic'
loop_
_space_group_symop_operation_xyz
x,y,z
-x,y,-z
-x,-y,-z
x,-y,z
1/2+x,1/2+y,z
1/2-x,1/2+y,-z
1/2-x,1/2-y,-z
1/2+x,1/2-y,z
loop_
_atom_site_type_symbol
_atom_site_label
_atom_site_fract_x
_atom_site_fract_y
_atom_site_fract_z
Si Si1 0.333696 0.828002 0.953817
Si Si2 0.132560 0.091900 0.079932
Si Si3 0.178742 0.839314 0.508640
Si Si4 0.365441 0.902043 0.724731
Si Si5 0.199359 0.404109 0.702005
O O1 0.315542 0.844979 0.822493
O O2 0.500000 0.813451 0.000000
O O3 0.250000 0.750000 0.000000
O O4 0.274199 0.909630 0.011247
O O5 0.186586 0.137565 0.197755
O O6 0.075448 0.000000 0.102694
O O7 0.000000 0.139339 0.000000
O O8 0.250000 0.750000 0.500000
O O9 0.241795 0.884430 0.621424
O O10 0.231728 0.893266 0.410769
O O11 0.000000 0.834371 0.500000
O O12 0.528967 0.870980 0.697047
O O13 0.365128 0.000000 0.752843
O O14 0.192830 0.500000 0.732112
#
# Coordination Sequence:
#
# PCOD8112092 Si02
#       5
#     8   8   8   8   8
#     4  12  26  43  68 102 142 183 234 284 350 416
#     4  10  22  41  68 101 139 178 225 284 343 413
#     4  12  28  46  72 103 141 184 233 289 350 412
#     4  11  25  46  74 103 140 186 235 288 349 421
#     4  10  22  44  72 102 139 182 230 284 346 415
#
# _framework density 22.730782999999999
#
# number of rings (size 3 to 8) (size 9 to 14) (size 15 to 20)
#    0.000    1.000    2.000    3.600    5.600    5.600 
#    0.000    0.000    0.000    0.000    0.000    0.000 
#    0.000    0.000    0.000    0.000    0.000    0.000 
#
# Total GULP energy -247798.244877 kJ/mol
# GULP energy per Si atom -12389.912244 kJ/mol
# Density = 2.267905 g / cm^3
# Si number density = 22.730783 Si / 1000 Ang^3
#
#
#
# Elastic Constant Matrix: (Units=GPa)
#
#
# Indices 1 2 3 4 5 6 
#
# 1 165.0096 40.0609 91.7982 0.0000 15.9835 0.0000
# 2 40.0609 66.2933 32.9219 0.0000 0.6567 0.0000
# 3 91.7982 32.9219 217.4314 0.0000 9.0360 0.0000
# 4 0.0000 0.0000 0.0000 -256.7924 0.0000 -266.9036
# 5 15.9835 0.6567 9.0360 0.0000 50.9317 0.0000
# 6 0.0000 0.0000 0.0000 -266.9036 0.0000 -190.9650
#
#
#
# Elastic Compliance Matrix: (Units=1/GPa)
#
#
# Indices 1 2 3 4 5 6 
#
# 1 0.008928 -0.003835 -0.003097 0.000000 -0.002203 0.000000
# 2 -0.003835 0.017961 -0.001149 0.000000 0.001176 0.000000
# 3 -0.003097 -0.001149 0.006085 0.000000 -0.000093 0.000000
# 4 0.000000 0.000000 0.000000 0.008602 0.000000 -0.012023
# 5 -0.002203 0.001176 -0.000093 0.000000 0.020327 0.000000
# 6 0.000000 0.000000 0.000000 -0.012023 0.000000 0.011568
#
#
# Mechanical properties :
#
#
# Convention : Reuss Voigt Hill
#
# Bulk Modulus (GPa) = 59.48623 86.47738 72.98180
# Shear Modulus (GPa) = 52.50103 -60.43492 -3.96695
#
# Velocity S-wave (km/s) = 4.81114 -5.16188 -1.32249
# Velocity P-wave (km/s) = 7.55575 1.61249 5.46304
#
# Compressibility (1/GPa) = 0.01681061
#
# Stress axis : x y z
#
# Youngs Moduli (GPa) = 112.01196 55.67575 164.35122
#
# Poissons Ratio (x) = 0.21352 0.50899
# Poissons Ratio (y) = 0.42958 0.18888
# Poissons Ratio (z) = 0.34690 0.06398
#
# Static dielectric constant tensor:
#      x y z
#    x 4.418250 0.000000 0.142530 
#    y 0.000000 3.992990 0.000000 
#    z 0.142530 0.000000 4.473250 
# 
# 
# High freq. dielectric constant tensor:
#      x y z
#    x 1.910640 0.000000 0.008690 
#    y 0.000000 1.887330 0.000000 
#    z 0.008690 0.000000 1.914440 
# 
# From -- ./inp_files/118930.got.cif
#   From: 2010.06.25/outbox.cif.g09.slc.cpg/sg12_60_cif.got.tgz:118930.got - 2010.06.28 00:19:55.
