data_PCOD8112869
_publ_section_title
;
Structure prediction by ZEFSAII (Michael W. Deem and Ramdas Pophale) SiO2 
 PCOD8112869
Probable space group: C 2/M
;
_chemical_formula_sum "Si O2"
_cell_formula_units_Z 64
_cell_length_a 30.432850
_cell_length_b 8.721179
_cell_length_c 19.411227
_cell_angle_alpha 90.000000
_cell_angle_beta 141.969380
_cell_angle_gamma 90.000000
_cell_volume 3174.020286
_symmetry_space_group_name_H-M "C 2/M"
_symmetry_group_IT_number 12
_symmetry_cell_setting 'monoclinic'
loop_
_space_group_symop_operation_xyz
x,y,z
-x,y,-z
-x,-y,-z
x,-y,z
1/2+x,1/2+y,z
1/2-x,1/2+y,-z
1/2-x,1/2-y,-z
1/2+x,1/2-y,z
loop_
_atom_site_type_symbol
_atom_site_label
_atom_site_fract_x
_atom_site_fract_y
_atom_site_fract_z
Si Si1 0.427311 0.678982 0.602794
Si Si2 0.295005 0.678735 0.755053
Si Si3 0.797151 0.178281 0.248213
Si Si4 0.767445 0.181199 0.448714
Si Si5 0.068566 0.673419 0.538472
Si Si6 0.049006 0.820880 0.998497
Si Si7 0.547163 0.181349 0.847112
Si Si8 0.704708 0.819023 0.005790
O O1 0.441062 0.500000 0.630204
O O2 0.348069 0.725828 0.528033
O O3 0.437956 0.719560 0.536146
O O4 0.484339 0.768590 0.719193
O O5 0.276148 0.500000 0.738938
O O6 0.236997 0.784093 0.720633
O O7 0.290247 0.733305 0.670685
O O8 0.371009 0.716368 0.880961
O O9 0.869971 0.272150 0.333442
O O10 0.743807 0.234802 0.123375
O O11 0.814577 0.000000 0.264150
O O12 0.750000 0.250000 0.500000
O O13 0.754987 0.000000 0.431389
O O14 0.082206 0.500000 0.530337
O O15 0.000000 0.687484 0.500000
O O16 0.034438 0.000000 0.970419
O O17 0.031574 0.741421 0.904630
O O18 0.000000 0.756235 0.000000
O O19 0.550025 0.000000 0.854882
O O20 0.623171 0.242502 0.910424
O O21 0.705191 0.000000 0.997803
O O22 0.750000 0.750000 0.000000
#
# Coordination Sequence:
#
# PCOD8112869 Si02
#       8
#     8   8   8   8   8   8   8   8
#     4  11  25  44  65  91 126 168 210 255 311 374
#     4  11  22  39  66  94 124 164 209 261 314 369
#     4  11  22  41  65  92 125 163 209 260 311 372
#     4  11  25  43  65  93 127 166 209 260 314 374
#     4  11  25  43  65  95 127 163 208 259 313 372
#     4  10  23  42  64  93 127 165 208 255 309 371
#     4  11  24  43  64  92 128 165 207 258 311 368
#     4  10  24  42  63  92 126 163 207 256 309 369
#
# _framework density 20.163702000000001
#
# number of rings (size 3 to 8) (size 9 to 14) (size 15 to 20)
#    0.000    1.250    2.500    2.250    3.500    5.250 
#    0.000    0.000    0.000    0.000    0.000    0.000 
#    0.000    0.000    0.000    0.000    0.000    0.000 
#
# Total GULP energy -396895.734974 kJ/mol
# GULP energy per Si atom -12402.991718 kJ/mol
# Density = 2.011781 g / cm^3
# Si number density = 20.163702 Si / 1000 Ang^3
#
#
#
# Elastic Constant Matrix: (Units=GPa)
#
#
# Indices 1 2 3 4 5 6 
#
# 1 80.6108 43.0760 32.2686 0.0000 -5.5546 0.0000
# 2 43.0760 45.3641 29.1645 0.0000 8.9481 0.0000
# 3 32.2686 29.1645 106.9338 0.0000 -2.8736 0.0000
# 4 0.0000 0.0000 0.0000 35.2876 0.0000 -3.7105
# 5 -5.5546 8.9481 -2.8736 0.0000 32.4077 0.0000
# 6 0.0000 0.0000 0.0000 -3.7105 0.0000 32.3716
#
#
#
# Elastic Compliance Matrix: (Units=1/GPa)
#
#
# Indices 1 2 3 4 5 6 
#
# 1 0.030066 -0.031118 -0.000217 0.000000 0.013726 0.000000
# 2 -0.031118 0.061208 -0.007920 0.000000 -0.022936 0.000000
# 3 -0.000217 -0.007920 0.011663 0.000000 0.003184 0.000000
# 4 0.000000 0.000000 0.000000 0.028684 0.000000 0.003288
# 5 0.013726 -0.022936 0.003184 0.000000 0.039825 0.000000
# 6 0.000000 0.000000 0.000000 0.003288 0.000000 0.031268
#
#
# Mechanical properties :
#
#
# Convention : Reuss Voigt Hill
#
# Bulk Modulus (GPa) = 40.93724 49.10298 45.02011
# Shear Modulus (GPa) = 17.27921 28.57335 22.92628
#
# Velocity S-wave (km/s) = 2.93054 3.76848 3.37561
# Velocity P-wave (km/s) = 5.63891 6.58333 6.12934
#
# Compressibility (1/GPa) = 0.02442764
#
# Stress axis : x y z
#
# Youngs Moduli (GPa) = 33.25971 16.33784 85.74405
#
# Poissons Ratio (x) = 0.50840 0.01862
# Poissons Ratio (y) = 1.03497 0.67906
# Poissons Ratio (z) = 0.00722 0.12939
#
# Static dielectric constant tensor:
#      x y z
#    x 3.757150 0.000000 0.071970 
#    y 0.000000 3.697570 0.000000 
#    z 0.071970 0.000000 3.887660 
# 
# 
# High freq. dielectric constant tensor:
#      x y z
#    x 1.794800 0.000000 0.000130 
#    y 0.000000 1.790440 0.000000 
#    z 0.000130 0.000000 1.804060 
# 
# From -- ./inp_files/295539.got.cif
#   From: 2010.06.25/outbox.cif.g09.slc.cpg/sg12_148_cif.got.tgz:295539.got - 2010.06.28 00:19:55.
