data_PCOD8112874
_publ_section_title
;
Structure prediction by ZEFSAII (Michael W. Deem and Ramdas Pophale) SiO2 
 PCOD8112874
Probable space group: C 2/M
;
_chemical_formula_sum "Si O2"
_cell_formula_units_Z 40
_cell_length_a 24.116728
_cell_length_b 8.639736
_cell_length_c 16.964619
_cell_angle_alpha 90.000000
_cell_angle_beta 146.865800
_cell_angle_gamma 90.000000
_cell_volume 1932.120040
_symmetry_space_group_name_H-M "C 2/M"
_symmetry_group_IT_number 12
_symmetry_cell_setting 'monoclinic'
loop_
_space_group_symop_operation_xyz
x,y,z
-x,y,-z
-x,-y,-z
x,-y,z
1/2+x,1/2+y,z
1/2-x,1/2+y,-z
1/2-x,1/2-y,-z
1/2+x,1/2-y,z
loop_
_atom_site_type_symbol
_atom_site_label
_atom_site_fract_x
_atom_site_fract_y
_atom_site_fract_z
Si Si1 0.139071 0.680908 0.373748
Si Si2 0.714379 0.817762 0.719032
Si Si3 0.542056 0.682459 0.411473
Si Si4 0.190133 0.817660 0.855136
Si Si5 0.599927 0.322489 0.169119
O O1 0.143061 0.500000 0.398019
O O2 0.250000 0.750000 0.500000
O O3 0.078425 0.767422 0.369168
O O4 0.084113 0.713232 0.225681
O O5 0.606540 0.762278 0.557262
O O6 0.739488 0.741359 0.832833
O O7 0.802272 0.766207 0.763316
O O8 0.713738 0.000000 0.729996
O O9 0.553662 0.500000 0.435543
O O10 0.426398 0.737472 0.281976
O O11 0.198897 0.000000 0.869981
O O12 0.250000 0.750000 0.000000
O O13 0.614596 0.500000 0.213735
O O14 0.500000 0.301787 0.000000
#
# Coordination Sequence:
#
# PCOD8112874 Si02
#       5
#     8   8   8   8   8
#     4  12  24  40  65  97 130 166 211 261 313 375
#     4  11  23  41  67  96 127 168 213 260 318 378
#     4  11  24  43  67  93 127 170 212 261 318 376
#     4  11  26  45  66  93 128 168 212 264 323 377
#     4  10  23  42  64  93 132 171 208 255 316 380
#
# _framework density 20.702649000000001
#
# number of rings (size 3 to 8) (size 9 to 14) (size 15 to 20)
#    0.000    1.000    2.000    4.200    2.800    6.800 
#    0.000    0.000    0.000    0.000    0.000    0.000 
#    0.000    0.000    0.000    0.000    0.000    0.000 
#
# Total GULP energy -248132.837470 kJ/mol
# GULP energy per Si atom -12406.641873 kJ/mol
# Density = 2.065553 g / cm^3
# Si number density = 20.702649 Si / 1000 Ang^3
#
#
#
# Elastic Constant Matrix: (Units=GPa)
#
#
# Indices 1 2 3 4 5 6 
#
# 1 92.3829 14.2190 33.9457 0.0000 -22.6255 0.0000
# 2 14.2190 30.3896 27.8454 0.0000 4.2177 0.0000
# 3 33.9457 27.8454 113.2184 0.0000 -14.2560 0.0000
# 4 0.0000 0.0000 0.0000 36.6569 0.0000 -6.0743
# 5 -22.6255 4.2177 -14.2560 0.0000 37.8037 0.0000
# 6 0.0000 0.0000 0.0000 -6.0743 0.0000 38.9562
#
#
#
# Elastic Compliance Matrix: (Units=1/GPa)
#
#
# Indices 1 2 3 4 5 6 
#
# 1 0.014607 -0.006546 -0.001656 0.000000 0.008848 0.000000
# 2 -0.006546 0.048628 -0.011731 0.000000 -0.013767 0.000000
# 3 -0.001656 -0.011731 0.012865 0.000000 0.005169 0.000000
# 4 0.000000 0.000000 0.000000 0.028004 0.000000 0.004367
# 5 0.008848 -0.013767 0.005169 0.000000 0.035234 0.000000
# 6 0.000000 0.000000 0.000000 0.004367 0.000000 0.026351
#
#
# Mechanical properties :
#
#
# Convention : Reuss Voigt Hill
#
# Bulk Modulus (GPa) = 27.59668 43.11234 35.35451
# Shear Modulus (GPa) = 22.97474 33.34875 28.16174
#
# Velocity S-wave (km/s) = 3.33490 4.01789 3.69222
# Velocity P-wave (km/s) = 5.30921 6.51109 5.94062
#
# Compressibility (1/GPa) = 0.03623624
#
# Stress axis : x y z
#
# Youngs Moduli (GPa) = 68.45841 20.56439 77.73126
#
# Poissons Ratio (x) = 0.13461 0.12869
# Poissons Ratio (y) = 0.44811 0.91183
# Poissons Ratio (z) = 0.11334 0.24123
#
# Static dielectric constant tensor:
#      x y z
#    x 4.292530 0.000000 -0.126350 
#    y 0.000000 3.448810 0.000000 
#    z -0.126350 0.000000 3.930480 
# 
# 
# High freq. dielectric constant tensor:
#      x y z
#    x 1.825390 0.000000 -0.006330 
#    y 0.000000 1.815100 0.000000 
#    z -0.006330 0.000000 1.820370 
# 
# From -- ./inp_files/238090.got.cif
#   From: 2010.06.25/outbox.cif.g09.slc.cpg/sg12_120_cif.got.tgz:238090.got - 2010.06.28 00:19:55.
