data_PCOD8112745
_publ_section_title
;
Structure prediction by ZEFSAII (Michael W. Deem and Ramdas Pophale) SiO2 
 PCOD8112745
Probable space group: C 2/M
;
_chemical_formula_sum "Si O2"
_cell_formula_units_Z 40
_cell_length_a 19.045354
_cell_length_b 8.759643
_cell_length_c 28.557102
_cell_angle_alpha 90.000000
_cell_angle_beta 24.201847
_cell_angle_gamma 90.000000
_cell_volume 1953.093620
_symmetry_space_group_name_H-M "C 2/M"
_symmetry_group_IT_number 12
_symmetry_cell_setting 'monoclinic'
loop_
_space_group_symop_operation_xyz
x,y,z
-x,y,-z
-x,-y,-z
x,-y,z
1/2+x,1/2+y,z
1/2-x,1/2+y,-z
1/2-x,1/2-y,-z
1/2+x,1/2-y,z
loop_
_atom_site_type_symbol
_atom_site_label
_atom_site_fract_x
_atom_site_fract_y
_atom_site_fract_z
Si Si1 0.998010 0.326499 0.949076
Si Si2 0.664703 0.326381 0.096061
Si Si3 0.280412 0.176752 0.714456
Si Si4 0.305580 0.180124 0.329172
Si Si5 0.654816 0.177731 0.513855
O O1 0.068520 0.500000 0.904569
O O2 0.114405 0.225181 0.844591
O O3 0.800230 0.321085 0.055303
O O4 0.000000 0.258756 0.000000
O O5 0.610180 0.500000 0.117537
O O6 0.502125 0.229665 0.210069
O O7 0.750000 0.250000 0.000000
O O8 0.289938 0.267610 0.659908
O O9 0.450759 0.208118 0.641452
O O10 0.263489 0.000000 0.711884
O O11 0.215791 0.251487 0.428443
O O12 0.294121 0.000000 0.339691
O O13 0.750000 0.250000 0.500000
O O14 0.698528 0.000000 0.486935
#
# Coordination Sequence:
#
# PCOD8112745 Si02
#       5
#     8   8   8   8   8
#     4  10  23  41  63  94 129 169 212 257 316 381
#     4  11  22  39  64  96 131 168 209 263 317 376
#     4  11  24  43  67  95 127 166 215 268 320 378
#     4  12  25  42  67  96 128 172 217 262 318 380
#     4  11  26  46  67  96 129 166 212 267 326 383
#
# _framework density 20.480328
#
# number of rings (size 3 to 8) (size 9 to 14) (size 15 to 20)
#    0.000    1.000    2.000    4.200    2.800    6.800 
#    0.000    0.000    0.000    0.000    0.000    0.000 
#    0.000    0.000    0.000    0.000    0.000    0.000 
#
# Total GULP energy -248094.147290 kJ/mol
# GULP energy per Si atom -12404.707365 kJ/mol
# Density = 2.043371 g / cm^3
# Si number density = 20.480328 Si / 1000 Ang^3
#
#
#
# Elastic Constant Matrix: (Units=GPa)
#
#
# Indices 1 2 3 4 5 6 
#
# 1 137.3014 53.9814 31.2662 0.0006 -0.3607 0.0004
# 2 53.9814 128.4765 40.6800 -0.0005 -6.0607 0.0001
# 3 31.2662 40.6800 79.3006 -0.0086 -6.7763 0.0014
# 4 0.0006 -0.0005 -0.0086 38.9681 0.0009 2.3020
# 5 -0.3607 -6.0607 -6.7763 0.0009 38.4430 0.0009
# 6 0.0004 0.0001 0.0014 2.3020 0.0009 33.7188
#
#
#
# Elastic Compliance Matrix: (Units=1/GPa)
#
#
# Indices 1 2 3 4 5 6 
#
# 1 0.008983 -0.003186 -0.001973 -0.000001 -0.000766 0.000000
# 2 -0.003186 0.010438 -0.004021 -0.000001 0.000907 0.000000
# 3 -0.001973 -0.004021 0.015631 0.000003 0.002103 -0.000001
# 4 -0.000001 -0.000001 0.000003 0.025766 0.000000 -0.001759
# 5 -0.000766 0.000907 0.002103 0.000000 0.026519 -0.000001
# 6 0.000000 0.000000 -0.000001 -0.001759 -0.000001 0.029777
#
#
# Mechanical properties :
#
#
# Convention : Reuss Voigt Hill
#
# Bulk Modulus (GPa) = 59.90843 66.32597 63.11720
# Shear Modulus (GPa) = 35.45165 36.83603 36.14384
#
# Velocity S-wave (km/s) = 4.16505 4.24560 4.20552
# Velocity P-wave (km/s) = 7.24192 7.51592 7.38019
#
# Compressibility (1/GPa) = 0.01669214
#
# Stress axis : x y z
#
# Youngs Moduli (GPa) = 111.32090 95.80332 63.97746
#
# Poissons Ratio (x) = 0.30521 0.12622
# Poissons Ratio (y) = 0.35464 0.25725
# Poissons Ratio (z) = 0.21963 0.38522
#
# Static dielectric constant tensor:
#      x y z
#    x 3.069230 -0.000080 0.581080 
#    y -0.000080 3.869810 0.000080 
#    z 0.581080 0.000080 3.134530 
# 
# 
# High freq. dielectric constant tensor:
#      x y z
#    x 1.814490 0.000000 -0.007910 
#    y 0.000000 1.812290 0.000000 
#    z -0.007910 0.000000 1.808090 
# 
# From -- ./inp_files/237090.got.cif
#   From: 2010.06.25/outbox.cif.g09.slc.cpg/sg12_119_cif.got.tgz:237090.got - 2010.06.28 00:19:55.
