data_PCOD8112367
_publ_section_title
;
Structure prediction by ZEFSAII (Michael W. Deem and Ramdas Pophale) SiO2 
 PCOD8112367
Probable space group: C 2/M
;
_chemical_formula_sum "Si O2"
_cell_formula_units_Z 44
_cell_length_a 13.704194
_cell_length_b 17.688389
_cell_length_c 9.135976
_cell_angle_alpha 90.000000
_cell_angle_beta 90.803286
_cell_angle_gamma 90.000000
_cell_volume 2214.389659
_symmetry_space_group_name_H-M "C 2/M"
_symmetry_group_IT_number 12
_symmetry_cell_setting 'monoclinic'
loop_
_space_group_symop_operation_xyz
x,y,z
-x,y,-z
-x,-y,-z
x,-y,z
1/2+x,1/2+y,z
1/2-x,1/2+y,-z
1/2-x,1/2-y,-z
1/2+x,1/2-y,z
loop_
_atom_site_type_symbol
_atom_site_label
_atom_site_fract_x
_atom_site_fract_y
_atom_site_fract_z
Si Si1 0.226131 0.000000 0.173519
Si Si2 0.143244 0.125311 0.678729
Si Si3 0.518288 0.771963 0.660853
Si Si4 0.094110 0.000000 0.903199
Si Si5 0.614163 0.500000 0.463457
Si Si6 0.321361 0.156048 0.136076
Si Si7 0.820484 0.708769 0.822299
O O1 0.138346 0.000000 0.291540
O O2 0.293109 0.073308 0.190555
O O3 0.186764 0.000000 0.009214
O O4 0.063990 0.189020 0.642886
O O5 0.097067 0.075278 0.806740
O O6 0.161629 0.075019 0.534949
O O7 0.248176 0.158200 0.723661
O O8 0.500000 0.807419 0.500000
O O9 0.590142 0.822898 0.756923
O O10 0.415043 0.767576 0.736157
O O11 0.000000 0.000000 0.000000
O O12 0.500000 0.500000 0.500000
O O13 0.229217 0.211562 0.142921
O O14 0.353479 0.161486 0.966638
#
# Coordination Sequence:
#
# PCOD8112367 Si02
#       7
#     4   8   8   4   4   8   8
#     4  12  24  42  66  92 133 164 214 263 317 378
#     4  10  23  42  61  98 128 170 209 256 326 378
#     4  11  25  40  67  93 128 169 216 258 320 376
#     4  11  23  37  66  96 127 165 209 263 322 380
#     4  11  25  39  62  98 137 168 203 258 329 390
#     4  10  24  42  64  97 122 171 215 265 317 371
#     4  10  22  43  67  89 131 166 217 269 309 371
#
# _framework density 19.870035000000001
#
# number of rings (size 3 to 8) (size 9 to 14) (size 15 to 20)
#    0.000    1.455    1.818    2.182   10.182    1.455 
#    0.000    4.091    0.000    0.000    0.000    0.000 
#    0.000    0.000    0.000    0.000    0.000    0.000 
#
# Total GULP energy -272837.303632 kJ/mol
# GULP energy per Si atom -12401.695620 kJ/mol
# Density = 1.982481 g / cm^3
# Si number density = 19.870035 Si / 1000 Ang^3
#
#
#
# Elastic Constant Matrix: (Units=GPa)
#
#
# Indices 1 2 3 4 5 6 
#
# 1 98.8182 27.8780 37.7014 0.0000 8.0446 0.0000
# 2 27.8780 97.9492 14.3044 0.0000 9.9043 0.0000
# 3 37.7014 14.3044 110.9623 0.0000 12.2131 0.0000
# 4 0.0000 0.0000 0.0000 20.1190 0.0000 0.0603
# 5 8.0446 9.9043 12.2131 0.0000 34.3987 0.0000
# 6 0.0000 0.0000 0.0000 0.0603 0.0000 12.6986
#
#
#
# Elastic Compliance Matrix: (Units=1/GPa)
#
#
# Indices 1 2 3 4 5 6 
#
# 1 0.012440 -0.002916 -0.003770 0.000000 -0.000731 0.000000
# 2 -0.002916 0.011321 -0.000192 0.000000 -0.002509 0.000000
# 3 -0.003770 -0.000192 0.010630 0.000000 -0.002837 0.000000
# 4 0.000000 0.000000 0.000000 0.049705 0.000000 -0.000236
# 5 -0.000731 -0.002509 -0.002837 0.000000 0.030972 0.000000
# 6 0.000000 0.000000 0.000000 -0.000236 0.000000 0.078750
#
#
# Mechanical properties :
#
#
# Convention : Reuss Voigt Hill
#
# Bulk Modulus (GPa) = 48.46451 51.94416 50.20433
# Shear Modulus (GPa) = 23.31502 28.63299 25.97401
#
# Velocity S-wave (km/s) = 3.42917 3.80019 3.61944
# Velocity P-wave (km/s) = 6.33425 6.74195 6.54128
#
# Compressibility (1/GPa) = 0.02063366
#
# Stress axis : x y z
#
# Youngs Moduli (GPa) = 80.38395 88.32980 94.07155
#
# Poissons Ratio (x) = 0.25758 0.35469
# Poissons Ratio (y) = 0.23441 0.01810
# Poissons Ratio (z) = 0.30308 0.01700
#
# Static dielectric constant tensor:
#      x y z
#    x 3.474910 0.000000 0.231510 
#    y 0.000000 3.673530 0.000000 
#    z 0.231510 0.000000 4.037400 
# 
# 
# High freq. dielectric constant tensor:
#      x y z
#    x 1.771290 0.000000 0.011290 
#    y 0.000000 1.772460 0.000000 
#    z 0.011290 0.000000 1.792260 
# 
# From -- ./inp_files/61169.got.cif
#   From: 2010.06.25/outbox.cif.g09.slc.cpg/sg12_31_cif.got.tgz:61169.got - 2010.06.28 00:19:55.
