data_PCOD8112286
_publ_section_title
;
Structure prediction by ZEFSAII (Michael W. Deem and Ramdas Pophale) SiO2 
 PCOD8112286
Probable space group: C 2/M
;
_chemical_formula_sum "Si O2"
_cell_formula_units_Z 36
_cell_length_a 12.484430
_cell_length_b 21.663209
_cell_length_c 6.079253
_cell_angle_alpha 90.000000
_cell_angle_beta 67.640808
_cell_angle_gamma 90.000000
_cell_volume 1520.539229
_symmetry_space_group_name_H-M "C 2/M"
_symmetry_group_IT_number 12
_symmetry_cell_setting 'monoclinic'
loop_
_space_group_symop_operation_xyz
x,y,z
-x,y,-z
-x,-y,-z
x,-y,z
1/2+x,1/2+y,z
1/2-x,1/2+y,-z
1/2-x,1/2-y,-z
1/2+x,1/2-y,z
loop_
_atom_site_type_symbol
_atom_site_label
_atom_site_fract_x
_atom_site_fract_y
_atom_site_fract_z
Si Si1 0.587487 0.567272 0.600572
Si Si2 0.500000 0.257125 0.000000
Si Si3 0.803253 0.850105 0.157125
Si Si4 0.691827 0.068907 0.861142
Si Si5 0.913591 0.344161 0.382350
O O1 0.500000 0.601751 0.500000
O O2 0.534700 0.500000 0.701430
O O3 0.600615 0.604805 0.813545
O O4 0.710089 0.558845 0.393222
O O5 0.383715 0.293734 0.012287
O O6 0.466397 0.218073 0.240502
O O7 0.711474 0.828445 0.413717
O O8 0.734492 0.885887 0.020821
O O9 0.590436 0.104020 0.806842
O O10 0.653504 0.000000 0.976570
O O11 0.000000 0.370485 0.500000
#
# Coordination Sequence:
#
# PCOD8112286 Si02
#       5
#     8   4   8   8   8
#     4   9  18  34  59  95 134 168 208 262 327 393
#     4  12  26  44  66  96 134 174 220 268 320 386
#     4  11  23  41  68  98 131 171 216 268 326 386
#     4  10  22  42  68  98 130 167 215 270 330 390
#     4  11  26  45  65  95 132 175 222 269 322 381
#
# _framework density 23.675812000000001
#
# number of rings (size 3 to 8) (size 9 to 14) (size 15 to 20)
#    0.000    1.556    0.000    4.000    0.000    9.333 
#    0.000    8.333    0.000    0.000    0.000    0.000 
#    0.000    0.000    0.000    0.000    0.000    0.000 
#
# Total GULP energy -223119.074160 kJ/mol
# GULP energy per Si atom -12395.504120 kJ/mol
# Density = 2.362192 g / cm^3
# Si number density = 23.675812 Si / 1000 Ang^3
#
#
#
# Elastic Constant Matrix: (Units=GPa)
#
#
# Indices 1 2 3 4 5 6 
#
# 1 134.4512 69.0261 57.3388 0.0000 35.4093 0.0000
# 2 69.0261 146.4373 72.0947 0.0000 11.6705 0.0000
# 3 57.3388 72.0947 96.2401 0.0000 20.1106 0.0000
# 4 0.0000 0.0000 0.0000 55.9735 0.0000 -38.3086
# 5 35.4093 11.6705 20.1106 0.0000 65.8879 0.0000
# 6 0.0000 0.0000 0.0000 -38.3086 0.0000 69.0060
#
#
#
# Elastic Compliance Matrix: (Units=1/GPa)
#
#
# Indices 1 2 3 4 5 6 
#
# 1 0.012008 -0.003562 -0.003492 0.000000 -0.004757 0.000000
# 2 -0.003562 0.011897 -0.007210 0.000000 0.002008 0.000000
# 3 -0.003492 -0.007210 0.018386 0.000000 -0.002458 0.000000
# 4 0.000000 0.000000 0.000000 0.028813 0.000000 0.015996
# 5 -0.004757 0.002008 -0.002458 0.000000 0.018128 0.000000
# 6 0.000000 0.000000 0.000000 0.015996 0.000000 0.023371
#
#
# Mechanical properties :
#
#
# Convention : Reuss Voigt Hill
#
# Bulk Modulus (GPa) = 72.65473 86.00532 79.33003
# Shear Modulus (GPa) = 34.31230 50.08475 42.19852
#
# Velocity S-wave (km/s) = 3.81104 4.60438 4.22637
# Velocity P-wave (km/s) = 7.07950 8.04190 7.57600
#
# Compressibility (1/GPa) = 0.01376373
#
# Stress axis : x y z
#
# Youngs Moduli (GPa) = 83.27535 84.05136 54.38956
#
# Poissons Ratio (x) = 0.29939 0.18993
# Poissons Ratio (y) = 0.29663 0.39214
# Poissons Ratio (z) = 0.29081 0.60600
#
# Static dielectric constant tensor:
#      x y z
#    x 4.353160 0.000000 -0.035970 
#    y 0.000000 4.616020 0.000000 
#    z -0.035970 0.000000 4.121600 
# 
# 
# High freq. dielectric constant tensor:
#      x y z
#    x 1.949550 0.000000 -0.005460 
#    y 0.000000 1.929800 0.000000 
#    z -0.005460 0.000000 1.937050 
# 
# From -- ./inp_files/6950.got.cif
#   From: 2010.06.25/outbox.cif.g09.slc.cpg/sg12_4_cif.got.tgz:6950.got - 2010.06.28 00:19:55.
