data_PCOD8112136
_publ_section_title
;
Structure prediction by ZEFSAII (Michael W. Deem and Ramdas Pophale) SiO2 
 PCOD8112136
Probable space group: C 2/M
;
_chemical_formula_sum "Si O2"
_cell_formula_units_Z 56
_cell_length_a 9.602430
_cell_length_b 14.503405
_cell_length_c 24.927110
_cell_angle_alpha 90.000000
_cell_angle_beta 127.607671
_cell_angle_gamma 90.000000
_cell_volume 2750.187157
_symmetry_space_group_name_H-M "C 2/M"
_symmetry_group_IT_number 12
_symmetry_cell_setting 'monoclinic'
loop_
_space_group_symop_operation_xyz
x,y,z
-x,y,-z
-x,-y,-z
x,-y,z
1/2+x,1/2+y,z
1/2-x,1/2+y,-z
1/2-x,1/2-y,-z
1/2+x,1/2-y,z
loop_
_atom_site_type_symbol
_atom_site_label
_atom_site_fract_x
_atom_site_fract_y
_atom_site_fract_z
Si Si1 0.138866 0.893387 0.373092
Si Si2 0.883572 0.253775 0.265284
Si Si3 0.343946 0.609467 0.501089
Si Si4 0.962706 0.393434 0.376046
Si Si5 0.087587 0.605866 0.938445
Si Si6 0.726022 0.394147 0.911226
Si Si7 0.485448 0.228821 0.173017
O O1 0.128554 0.856522 0.431672
O O2 0.337917 0.882430 0.398557
O O3 0.009497 0.832048 0.307401
O O4 0.078591 0.000000 0.354965
O O5 0.886425 0.333944 0.309777
O O6 0.690918 0.211954 0.214205
O O7 0.937725 0.299878 0.222047
O O8 0.500000 0.648904 0.500000
O O9 0.343550 0.500000 0.500051
O O10 0.156161 0.645318 0.435778
O O11 0.971279 0.500000 0.359869
O O12 0.089154 0.500000 0.921516
O O13 0.900680 0.632518 0.919911
O O14 0.123443 0.665130 0.893717
O O15 0.240773 0.625161 0.017827
O O16 0.674933 0.500000 0.889809
O O17 0.564100 0.334718 0.851109
#
# Coordination Sequence:
#
# PCOD8112136 Si02
#       7
#     8   8   8   8   8   8   8
#     4  10  22  42  64  85 117 160 203 245 295 358
#     4  12  26  39  58  89 124 161 202 242 292 361
#     4   9  19  36  63  94 117 148 198 255 305 343
#     4  10  22  42  63  85 119 159 200 247 299 355
#     4   9  19  38  64  92 117 153 202 247 293 349
#     4   9  19  38  65  90 117 156 201 244 293 355
#     4  12  23  40  59  88 125 159 197 243 298 352
#
# _framework density 20.362251000000001
#
# number of rings (size 3 to 8) (size 9 to 14) (size 15 to 20)
#    0.000    1.857    2.857    1.714    2.000    4.571 
#    0.000    0.000    0.000    1.714    0.000    0.000 
#    0.000    0.000    0.000    0.000    0.000    0.000 
#
# Total GULP energy -347285.726130 kJ/mol
# GULP energy per Si atom -12403.061647 kJ/mol
# Density = 2.031591 g / cm^3
# Si number density = 20.362251 Si / 1000 Ang^3
#
#
#
# Elastic Constant Matrix: (Units=GPa)
#
#
# Indices 1 2 3 4 5 6 
#
# 1 113.9108 18.4109 36.2129 0.0000 -18.8572 0.0000
# 2 18.4109 67.8964 37.3561 0.0000 -3.0886 0.0000
# 3 36.2129 37.3561 98.5931 0.0000 -15.3639 0.0000
# 4 0.0000 0.0000 0.0000 29.6641 0.0000 0.8769
# 5 -18.8572 -3.0886 -15.3639 0.0000 54.1593 0.0000
# 6 0.0000 0.0000 0.0000 0.8769 0.0000 24.3232
#
#
#
# Elastic Compliance Matrix: (Units=1/GPa)
#
#
# Indices 1 2 3 4 5 6 
#
# 1 0.010342 -0.001040 -0.002985 0.000000 0.002695 0.000000
# 2 -0.001040 0.018762 -0.006923 0.000000 -0.001256 0.000000
# 3 -0.002985 -0.006923 0.014269 0.000000 0.002614 0.000000
# 4 0.000000 0.000000 0.000000 0.033747 0.000000 -0.001217
# 5 0.002695 -0.001256 0.002614 0.000000 0.020072 0.000000
# 6 0.000000 0.000000 0.000000 -0.001217 0.000000 0.041157
#
#
# Mechanical properties :
#
#
# Convention : Reuss Voigt Hill
#
# Bulk Modulus (GPa) = 46.55669 51.59557 49.07613
# Shear Modulus (GPa) = 29.86823 34.19068 32.02946
#
# Velocity S-wave (km/s) = 3.83409 4.10215 3.97039
# Velocity P-wave (km/s) = 6.52029 6.91598 6.72105
#
# Compressibility (1/GPa) = 0.02147919
#
# Stress axis : x y z
#
# Youngs Moduli (GPa) = 96.69522 53.29970 70.08104
#
# Poissons Ratio (x) = 0.05541 0.20917
# Poissons Ratio (y) = 0.10052 0.48514
# Poissons Ratio (z) = 0.28860 0.36897
#
# Static dielectric constant tensor:
#      x y z
#    x 3.433200 0.000000 0.109940 
#    y 0.000000 3.502890 0.000000 
#    z 0.109940 0.000000 3.594740 
# 
# 
# High freq. dielectric constant tensor:
#      x y z
#    x 1.789310 0.000000 -0.006280 
#    y 0.000000 1.790190 0.000000 
#    z -0.006280 0.000000 1.803250 
# 
# From -- ./inp_files/332816.got.cif
#   From: 2010.06.25/outbox.cif.g09.slc.cpg/sg12_167_cif.got.tgz:332816.got - 2010.06.28 00:19:55.
