data_PCOD8112308
_publ_section_title
;
Structure prediction by ZEFSAII (Michael W. Deem and Ramdas Pophale) SiO2 
 PCOD8112308
Probable space group: C 2/M
;
_chemical_formula_sum "Si O2"
_cell_formula_units_Z 40
_cell_length_a 17.055161
_cell_length_b 11.702955
_cell_length_c 8.255877
_cell_angle_alpha 90.000000
_cell_angle_beta 91.344473
_cell_angle_gamma 90.000000
_cell_volume 1647.384571
_symmetry_space_group_name_H-M "C 2/M"
_symmetry_group_IT_number 12
_symmetry_cell_setting 'monoclinic'
loop_
_space_group_symop_operation_xyz
x,y,z
-x,y,-z
-x,-y,-z
x,-y,z
1/2+x,1/2+y,z
1/2-x,1/2+y,-z
1/2-x,1/2-y,-z
1/2+x,1/2-y,z
loop_
_atom_site_type_symbol
_atom_site_label
_atom_site_fract_x
_atom_site_fract_y
_atom_site_fract_z
Si Si1 0.205140 0.235195 0.665137
Si Si2 0.064299 0.000000 0.266890
Si Si3 0.453775 0.127005 0.644950
Si Si4 0.901238 0.372988 0.147666
Si Si5 0.855880 0.226123 0.842089
Si Si6 0.114411 0.000000 0.639999
O O1 0.250000 0.250000 0.500000
O O2 0.137347 0.330771 0.683468
O O3 0.262048 0.271092 0.819210
O O4 0.167050 0.109981 0.687840
O O5 0.099356 0.893800 0.169176
O O6 0.097791 0.000000 0.448930
O O7 0.968715 0.000000 0.265408
O O8 0.500000 0.187543 0.500000
O O9 0.505950 0.123435 0.811962
O O10 0.378317 0.200175 0.683447
O O11 0.428092 0.000000 0.590254
O O12 0.871372 0.500000 0.098590
O O13 0.881727 0.281850 0.010251
#
# Coordination Sequence:
#
# PCOD8112308 Si02
#       6
#     8   4   8   8   8   4
#     4  12  26  45  71 104 142 191 244 301 361 431
#     4  11  26  47  75 105 149 194 251 296 364 438
#     4  10  22  42  70 102 134 182 238 297 353 426
#     4  11  26  46  71 104 147 184 236 300 369 434
#     4  12  25  44  72 102 146 189 239 299 362 436
#     4  11  26  47  73 109 144 195 247 309 361 434
#
# _framework density 24.280911
#
# number of rings (size 3 to 8) (size 9 to 14) (size 15 to 20)
#    0.000    0.800    2.000    4.200    8.400    2.400 
#    0.000    3.000    0.000    0.000    0.000    0.000 
#    0.000    0.000    0.000    0.000    0.000    0.000 
#
# Total GULP energy -247943.865403 kJ/mol
# GULP energy per Si atom -12397.193270 kJ/mol
# Density = 2.422565 g / cm^3
# Si number density = 24.280911 Si / 1000 Ang^3
#
#
#
# Elastic Constant Matrix: (Units=GPa)
#
#
# Indices 1 2 3 4 5 6 
#
# 1 105.1076 59.8850 7.2545 0.0000 -6.0204 0.0000
# 2 59.8850 167.3748 36.7038 0.0000 -16.8051 0.0000
# 3 7.2545 36.7038 61.3422 0.0000 -3.3391 0.0000
# 4 0.0000 0.0000 0.0000 36.4670 0.0000 -9.6573
# 5 -6.0204 -16.8051 -3.3391 0.0000 31.5581 0.0000
# 6 0.0000 0.0000 0.0000 -9.6573 0.0000 39.4262
#
#
#
# Elastic Compliance Matrix: (Units=1/GPa)
#
#
# Indices 1 2 3 4 5 6 
#
# 1 0.012043 -0.004602 0.001328 0.000000 -0.000012 0.000000
# 2 -0.004602 0.008982 -0.004644 0.000000 0.003414 0.000000
# 3 0.001328 -0.004644 0.018912 0.000000 -0.000219 0.000000
# 4 0.000000 0.000000 0.000000 0.029324 0.000000 0.007183
# 5 -0.000012 0.003414 -0.000219 0.000000 0.033480 0.000000
# 6 0.000000 0.000000 0.000000 0.007183 0.000000 0.027123
#
#
# Mechanical properties :
#
#
# Convention : Reuss Voigt Hill
#
# Bulk Modulus (GPa) = 41.48977 60.16793 50.82885
# Shear Modulus (GPa) = 32.52357 36.82233 34.67295
#
# Velocity S-wave (km/s) = 3.66385 3.89847 3.78298
# Velocity P-wave (km/s) = 5.91801 6.71549 6.32932
#
# Compressibility (1/GPa) = 0.02410233
#
# Stress axis : x y z
#
# Youngs Moduli (GPa) = 83.03306 111.33049 52.87656
#
# Poissons Ratio (x) = 0.51229 -0.07024
# Poissons Ratio (y) = 0.38208 0.24558
# Poissons Ratio (z) = -0.11030 0.51707
#
# Static dielectric constant tensor:
#      x y z
#    x 4.781010 0.000000 -0.168690 
#    y 0.000000 4.388310 0.000000 
#    z -0.168690 0.000000 4.232010 
# 
# 
# High freq. dielectric constant tensor:
#      x y z
#    x 1.979520 0.000000 -0.004540 
#    y 0.000000 1.963460 0.000000 
#    z -0.004540 0.000000 1.973020 
# 
# From -- ./inp_files/71275.got.cif
#   From: 2010.06.25/outbox.cif.g09.slc.cpg/sg12_36_cif.got.tgz:71275.got - 2010.06.28 00:19:55.
