data_PCOD8112156
_publ_section_title
;
Structure prediction by ZEFSAII (Michael W. Deem and Ramdas Pophale) SiO2 
 PCOD8112156
Probable space group: C 2/M
;
_chemical_formula_sum "Si O2"
_cell_formula_units_Z 64
_cell_length_a 24.110843
_cell_length_b 8.539983
_cell_length_c 31.519498
_cell_angle_alpha 90.000000
_cell_angle_beta 151.743870
_cell_angle_gamma 90.000000
_cell_volume 3072.484548
_symmetry_space_group_name_H-M "C 2/M"
_symmetry_group_IT_number 12
_symmetry_cell_setting 'monoclinic'
loop_
_space_group_symop_operation_xyz
x,y,z
-x,y,-z
-x,-y,-z
x,-y,z
1/2+x,1/2+y,z
1/2-x,1/2+y,-z
1/2-x,1/2-y,-z
1/2+x,1/2-y,z
loop_
_atom_site_type_symbol
_atom_site_label
_atom_site_fract_x
_atom_site_fract_y
_atom_site_fract_z
Si Si1 0.109155 0.682286 0.022985
Si Si2 0.232076 0.316713 0.941518
Si Si3 0.121190 0.317700 0.408165
Si Si4 0.266605 0.318133 0.653678
Si Si5 0.194514 0.179675 0.691731
Si Si6 0.508994 0.682216 0.249965
Si Si7 0.043942 0.679822 0.449604
Si Si8 0.363212 0.319021 0.870233
O O1 0.127791 0.500000 0.043819
O O2 0.172384 0.732535 0.022960
O O3 0.164704 0.775943 0.099937
O O4 0.971479 0.717910 0.925647
O O5 0.256973 0.500000 0.958216
O O6 0.102495 0.284895 0.837091
O O7 0.250000 0.250000 0.000000
O O8 0.129721 0.500000 0.402063
O O9 0.250000 0.250000 0.500000
O O10 0.051367 0.224352 0.325439
O O11 0.049931 0.291623 0.403461
O O12 0.257232 0.500000 0.659570
O O13 0.255370 0.216083 0.688160
O O14 0.390546 0.278378 0.716197
O O15 0.166881 0.269761 0.553023
O O16 0.249289 0.285244 0.765634
O O17 0.056600 0.215943 0.596806
O O18 0.215546 0.000000 0.717111
O O19 0.475192 0.500000 0.226079
O O20 0.015998 0.500000 0.441316
O O21 0.397180 0.500000 0.890089
#
# Coordination Sequence:
#
# PCOD8112156 Si02
#       8
#     8   8   8   8   8   8   8   8
#     4  11  23  44  70  98 131 165 210 268 324 386
#     4  12  27  47  70 100 136 177 219 270 330 394
#     4  11  22  40  66  97 132 173 221 271 328 394
#     4  10  22  43  66  89 126 173 216 261 322 391
#     4  12  26  40  61  95 129 166 216 272 322 376
#     4  11  24  44  68  98 132 173 222 272 329 393
#     4  10  22  42  64  90 127 172 216 261 321 388
#     4  11  23  43  69  96 127 170 214 263 326 389
#
# _framework density 20.830048999999999
#
# number of rings (size 3 to 8) (size 9 to 14) (size 15 to 20)
#    0.000    1.000    1.250    6.375    3.500    4.000 
#    0.000    0.000    0.000    0.000    0.000    0.000 
#    0.000    0.000    0.000    0.000    0.000    0.000 
#
# Total GULP energy -397055.768166 kJ/mol
# GULP energy per Si atom -12407.992755 kJ/mol
# Density = 2.078264 g / cm^3
# Si number density = 20.830049 Si / 1000 Ang^3
#
#
#
# Elastic Constant Matrix: (Units=GPa)
#
#
# Indices 1 2 3 4 5 6 
#
# 1 110.3923 27.6581 20.3851 0.0004 -3.5705 0.0001
# 2 27.6581 95.2027 15.2493 0.0017 -0.7250 -0.0019
# 3 20.3851 15.2493 81.9319 0.0004 -7.6039 -0.0001
# 4 0.0004 0.0017 0.0004 38.1615 0.0000 -1.3480
# 5 -3.5705 -0.7250 -7.6039 0.0000 27.4249 0.0002
# 6 0.0001 -0.0019 -0.0001 -1.3480 0.0002 38.3680
#
#
#
# Elastic Compliance Matrix: (Units=1/GPa)
#
#
# Indices 1 2 3 4 5 6 
#
# 1 0.010098 -0.002614 -0.001961 0.000000 0.000702 0.000000
# 2 -0.002614 0.011506 -0.001534 0.000000 -0.000461 0.000001
# 3 -0.001961 -0.001534 0.013293 0.000000 0.003390 0.000000
# 4 0.000000 0.000000 0.000000 0.026237 0.000000 0.000922
# 5 0.000702 -0.000461 0.003390 0.000000 0.037482 0.000000
# 6 0.000000 0.000001 0.000000 0.000922 0.000000 0.026096
#
#
# Mechanical properties :
#
#
# Convention : Reuss Voigt Hill
#
# Bulk Modulus (GPa) = 44.09311 46.01242 45.05276
# Shear Modulus (GPa) = 34.60451 35.73985 35.17218
#
# Velocity S-wave (km/s) = 4.08030 4.14670 4.11363
# Velocity P-wave (km/s) = 6.58881 6.71299 6.65119
#
# Compressibility (1/GPa) = 0.02267928
#
# Stress axis : x y z
#
# Youngs Moduli (GPa) = 99.02560 86.91433 75.22642
#
# Poissons Ratio (x) = 0.22722 0.14750
# Poissons Ratio (y) = 0.25889 0.11538
# Poissons Ratio (z) = 0.19417 0.13331
#
# Static dielectric constant tensor:
#      x y z
#    x 3.869760 0.000000 -0.063430 
#    y 0.000000 3.803420 0.000000 
#    z -0.063430 0.000000 3.698080 
# 
# 
# High freq. dielectric constant tensor:
#      x y z
#    x 1.826610 0.000000 -0.002180 
#    y 0.000000 1.822440 0.000000 
#    z -0.002180 0.000000 1.821600 
# 
# From -- ./inp_files/382517.got.cif
#   From: 2010.06.25/outbox.cif.g09.slc.cpg/sg12_192_cif.got.tgz:382517.got - 2010.06.28 00:19:55.
