data_PCOD8112595
_publ_section_title
;
Structure prediction by ZEFSAII (Michael W. Deem and Ramdas Pophale) SiO2 
 PCOD8112595
Probable space group: C 2/M
;
_chemical_formula_sum "Si O2"
_cell_formula_units_Z 48
_cell_length_a 8.757322
_cell_length_b 16.805008
_cell_length_c 29.519544
_cell_angle_alpha 90.000000
_cell_angle_beta 148.103454
_cell_angle_gamma 90.000000
_cell_volume 2295.471673
_symmetry_space_group_name_H-M "C 2/M"
_symmetry_group_IT_number 12
_symmetry_cell_setting 'monoclinic'
loop_
_space_group_symop_operation_xyz
x,y,z
-x,y,-z
-x,-y,-z
x,-y,z
1/2+x,1/2+y,z
1/2-x,1/2+y,-z
1/2-x,1/2-y,-z
1/2+x,1/2-y,z
loop_
_atom_site_type_symbol
_atom_site_label
_atom_site_fract_x
_atom_site_fract_y
_atom_site_fract_z
Si Si1 0.896885 0.153812 0.560588
Si Si2 0.569025 0.000000 0.192757
Si Si3 0.211081 0.304080 0.610982
Si Si4 0.230222 0.000000 0.658942
Si Si5 0.409033 0.500000 0.058893
Si Si6 0.376895 0.627579 0.212185
Si Si7 0.626455 0.500000 0.212119
Si Si8 0.591802 0.168181 0.971571
O O1 0.571487 0.138648 0.459921
O O2 0.895478 0.183385 0.612170
O O3 0.078298 0.215970 0.576562
O O4 0.065805 0.073526 0.596893
O O5 0.652680 0.922069 0.185937
O O6 0.776519 0.000000 0.288559
O O7 0.229701 0.000000 0.118550
O O8 0.418092 0.317062 0.705921
O O9 0.555050 0.000000 0.725447
O O10 0.410900 0.500000 0.114376
O O11 0.253403 0.582323 0.002884
O O12 0.582746 0.575864 0.232361
O O13 0.185487 0.679392 0.130224
O O14 0.500000 0.169560 0.000000
O O15 0.750000 0.250000 0.000000
#
# Coordination Sequence:
#
# PCOD8112595 Si02
#       8
#     8   4   8   4   4   8   4   8
#     4  10  23  43  66  94 134 171 215 262 331 384
#     4  10  23  39  71 103 126 173 223 267 330 389
#     4  10  23  42  67  93 132 175 211 268 329 385
#     4  11  22  41  65 102 129 168 222 269 315 382
#     4  11  23  50  70  90 144 178 211 279 335 389
#     4  11  23  43  67  98 133 169 224 270 324 391
#     4  10  23  40  69  97 132 178 217 266 334 387
#     4  12  28  46  70 102 133 176 225 270 335 392
#
# _framework density 20.910734999999999
#
# number of rings (size 3 to 8) (size 9 to 14) (size 15 to 20)
#    0.000    1.333    3.333    1.250    4.667    7.333 
#    0.000    0.833    0.000    0.000    0.000    0.000 
#    0.000    0.000    0.000    0.000    0.000    0.000 
#
# Total GULP energy -297499.913214 kJ/mol
# GULP energy per Si atom -12395.829717 kJ/mol
# Density = 2.086314 g / cm^3
# Si number density = 20.910735 Si / 1000 Ang^3
#
#
#
# Elastic Constant Matrix: (Units=GPa)
#
#
# Indices 1 2 3 4 5 6 
#
# 1 67.2609 15.9392 20.4587 -0.2627 -1.4989 -0.1803
# 2 15.9392 100.0694 33.9302 -0.2507 7.4345 -0.1719
# 3 20.4587 33.9302 142.5346 -0.9303 -15.2714 -0.6391
# 4 -0.2627 -0.2507 -0.9303 4463.5830 -0.0984 3048.3732
# 5 -1.4989 7.4345 -15.2714 -0.0984 24.2327 -0.0679
# 6 -0.1803 -0.1719 -0.6391 3048.3732 -0.0679 2118.9087
#
#
#
# Elastic Compliance Matrix: (Units=1/GPa)
#
#
# Indices 1 2 3 4 5 6 
#
# 1 0.015880 -0.001968 -0.001760 0.000000 0.000477 0.000000
# 2 -0.001968 0.011795 -0.003138 0.000000 -0.005718 0.000000
# 3 -0.001760 -0.003138 0.008694 0.000001 0.006333 0.000001
# 4 0.000000 0.000000 0.000001 0.012815 0.000001 -0.018436
# 5 0.000477 -0.005718 0.006333 0.000001 0.047041 0.000001
# 6 0.000000 0.000000 0.000001 -0.018436 0.000001 0.026995
#
#
# Mechanical properties :
#
#
# Convention : Reuss Voigt Hill
#
# Bulk Modulus (GPa) = 44.17471 50.05790 47.11631
# Shear Modulus (GPa) = 34.60251 1337.31401 685.95826
#
# Velocity S-wave (km/s) = 4.07230 25.31646 18.13156
# Velocity P-wave (km/s) = 6.57896 29.64043 21.46902
#
# Compressibility (1/GPa) = 0.02263739
#
# Stress axis : x y z
#
# Youngs Moduli (GPa) = 62.97325 84.77903 115.02273
#
# Poissons Ratio (x) = 0.16686 0.20240
# Poissons Ratio (y) = 0.12394 0.36094
# Poissons Ratio (z) = 0.11081 0.26604
#
# Static dielectric constant tensor:
#      x y z
#    x 3.869110 0.000000 -0.148590 
#    y 0.000000 3.732120 0.000000 
#    z -0.148590 0.000000 4.003490 
# 
# 
# High freq. dielectric constant tensor:
#      x y z
#    x 1.830040 0.000000 -0.003480 
#    y 0.000000 1.809820 0.000000 
#    z -0.003480 0.000000 1.833090 
# 
# From -- ./inp_files/373056.got.cif
#   From: 2010.06.25/outbox.cif.g09.slc.cpg/sg12_187_cif.got.tgz:373056.got - 2010.06.28 00:19:55.
