data_PCOD8112872
_publ_section_title
;
Structure prediction by ZEFSAII (Michael W. Deem and Ramdas Pophale) SiO2 
 PCOD8112872
Probable space group: C 2/M
;
_chemical_formula_sum "Si O2"
_cell_formula_units_Z 48
_cell_length_a 29.355550
_cell_length_b 8.659876
_cell_length_c 14.678510
_cell_angle_alpha 90.000000
_cell_angle_beta 38.276203
_cell_angle_gamma 90.000000
_cell_volume 2311.491238
_symmetry_space_group_name_H-M "C 2/M"
_symmetry_group_IT_number 12
_symmetry_cell_setting 'monoclinic'
loop_
_space_group_symop_operation_xyz
x,y,z
-x,y,-z
-x,-y,-z
x,-y,z
1/2+x,1/2+y,z
1/2-x,1/2+y,-z
1/2-x,1/2-y,-z
1/2+x,1/2-y,z
loop_
_atom_site_type_symbol
_atom_site_label
_atom_site_fract_x
_atom_site_fract_y
_atom_site_fract_z
Si Si1 0.092752 0.321154 0.093486
Si Si2 0.516282 0.820212 0.577025
Si Si3 0.071782 0.180976 0.941616
Si Si4 0.834684 0.819243 0.622389
Si Si5 0.774853 0.318063 0.365466
Si Si6 0.258791 0.318962 0.084673
O O1 0.090356 0.500000 0.071016
O O2 0.055693 0.288989 0.249126
O O3 0.054293 0.226319 0.073225
O O4 0.176242 0.266557 0.965035
O O5 0.500000 0.761653 0.500000
O O6 0.580029 0.722020 0.526251
O O7 0.537988 0.000000 0.542486
O O8 0.144327 0.262678 0.789302
O O9 0.084696 0.000000 0.912005
O O10 0.000000 0.236056 0.000000
O O11 0.785881 0.765593 0.613256
O O12 0.813716 0.718843 0.743979
O O13 0.824660 0.000000 0.657433
O O14 0.776575 0.500000 0.371616
O O15 0.750000 0.250000 0.500000
O O16 0.273410 0.500000 0.055604
O O17 0.250000 0.250000 0.000000
#
# Coordination Sequence:
#
# PCOD8112872 Si02
#       6
#     8   8   8   8   8   8
#     4  11  23  41  65  96 131 168 216 267 321 385
#     4  10  23  42  64  93 130 173 216 262 319 383
#     4  11  25  44  67  96 130 170 216 266 326 389
#     4  11  24  42  65  95 130 168 214 267 320 384
#     4  11  25  44  68  97 131 169 216 268 326 390
#     4  12  24  40  66  95 128 169 213 264 322 383
#
# _framework density 20.765816000000001
#
# number of rings (size 3 to 8) (size 9 to 14) (size 15 to 20)
#    0.000    1.000    1.667    4.500    2.333    6.333 
#    0.000    0.000    0.000    0.000    0.000    0.000 
#    0.000    0.000    0.000    0.000    0.000    0.000 
#
# Total GULP energy -297730.382295 kJ/mol
# GULP energy per Si atom -12405.432596 kJ/mol
# Density = 2.071855 g / cm^3
# Si number density = 20.765816 Si / 1000 Ang^3
#
#
#
# Elastic Constant Matrix: (Units=GPa)
#
#
# Indices 1 2 3 4 5 6 
#
# 1 122.6958 40.7856 28.5055 0.0000 2.7587 0.0000
# 2 40.7856 45.9730 30.7524 0.0004 -2.1412 0.0000
# 3 28.5055 30.7524 86.1661 0.0000 7.5064 0.0000
# 4 0.0000 0.0004 0.0000 35.3930 0.0000 2.0826
# 5 2.7587 -2.1412 7.5064 0.0000 43.0197 0.0000
# 6 0.0000 0.0000 0.0000 2.0826 0.0000 36.7147
#
#
#
# Elastic Compliance Matrix: (Units=1/GPa)
#
#
# Indices 1 2 3 4 5 6 
#
# 1 0.011627 -0.010343 -0.000046 0.000000 -0.001252 0.000000
# 2 -0.010343 0.038228 -0.010607 0.000000 0.004417 0.000000
# 3 -0.000046 -0.010607 0.015691 0.000000 -0.003263 0.000000
# 4 0.000000 0.000000 0.000000 0.028349 0.000000 -0.001608
# 5 -0.001252 0.004417 -0.003263 0.000000 0.024115 0.000000
# 6 0.000000 0.000000 0.000000 -0.001608 0.000000 0.027328
#
#
# Mechanical properties :
#
#
# Convention : Reuss Voigt Hill
#
# Bulk Modulus (GPa) = 42.45407 50.54689 46.50048
# Shear Modulus (GPa) = 25.61733 33.34491 29.48112
#
# Velocity S-wave (km/s) = 3.51612 4.01154 3.77197
# Velocity P-wave (km/s) = 6.08052 6.77133 6.43520
#
# Compressibility (1/GPa) = 0.02355487
#
# Stress axis : x y z
#
# Youngs Moduli (GPa) = 86.00574 26.15862 63.73275
#
# Poissons Ratio (x) = 0.27055 0.00294
# Poissons Ratio (y) = 0.88953 0.67600
# Poissons Ratio (z) = 0.00397 0.27746
#
# Static dielectric constant tensor:
#      x y z
#    x 3.242080 0.000000 0.533860 
#    y 0.000000 3.813940 0.000000 
#    z 0.533860 0.000000 3.390590 
# 
# 
# High freq. dielectric constant tensor:
#      x y z
#    x 1.825210 0.000000 0.001840 
#    y 0.000000 1.818700 0.000000 
#    z 0.001840 0.000000 1.822560 
# 
# From -- ./inp_files/244679.got.cif
#   From: 2010.06.25/outbox.cif.g09.slc.cpg/sg12_123_cif.got.tgz:244679.got - 2010.06.28 00:19:55.
