data_PCOD8112724
_publ_section_title
;
Structure prediction by ZEFSAII (Michael W. Deem and Ramdas Pophale) SiO2 
 PCOD8112724
Probable space group: C 2/M
;
_chemical_formula_sum "Si O2"
_cell_formula_units_Z 48
_cell_length_a 29.354143
_cell_length_b 8.560570
_cell_length_c 18.677470
_cell_angle_alpha 90.000000
_cell_angle_beta 29.822041
_cell_angle_gamma 90.000000
_cell_volume 2334.077958
_symmetry_space_group_name_H-M "C 2/M"
_symmetry_group_IT_number 12
_symmetry_cell_setting 'monoclinic'
loop_
_space_group_symop_operation_xyz
x,y,z
-x,y,-z
-x,-y,-z
x,-y,z
1/2+x,1/2+y,z
1/2-x,1/2+y,-z
1/2-x,1/2-y,-z
1/2+x,1/2-y,z
loop_
_atom_site_type_symbol
_atom_site_label
_atom_site_fract_x
_atom_site_fract_y
_atom_site_fract_z
Si Si1 0.600761 0.817695 0.381092
Si Si2 0.259549 0.816544 0.066092
Si Si3 0.105554 0.181051 0.527726
Si Si4 0.744918 0.675631 0.583187
Si Si5 0.533400 0.323595 0.880044
Si Si6 0.961560 0.683189 0.832561
O O1 0.500000 0.752679 0.500000
O O2 0.676513 0.735114 0.229460
O O3 0.615453 0.785248 0.444092
O O4 0.608148 0.000000 0.354836
O O5 0.256718 0.000000 0.063168
O O6 0.250000 0.750000 0.000000
O O7 0.355892 0.762680 0.970021
O O8 0.199129 0.210407 0.441981
O O9 0.018332 0.227824 0.694201
O O10 0.097233 0.000000 0.518400
O O11 0.786895 0.500000 0.526791
O O12 0.750000 0.750000 0.500000
O O13 0.640603 0.672792 0.747098
O O14 0.495760 0.500000 0.920128
O O15 0.500644 0.221748 0.857669
O O16 0.500000 0.248352 0.000000
O O17 0.972116 0.500000 0.804515
#
# Coordination Sequence:
#
# PCOD8112724 Si02
#       6
#     8   8   8   8   8   8
#     4  11  25  45  69  97 128 165 210 264 320 377
#     4  11  25  44  67  98 130 167 210 258 319 383
#     4  12  25  41  65  95 129 170 215 262 317 379
#     4  11  22  39  63  93 128 168 213 264 315 372
#     4  10  23  41  62  91 125 166 215 260 312 376
#     4  11  24  42  64  93 128 166 213 263 316 377
#
# _framework density 20.564864
#
# number of rings (size 3 to 8) (size 9 to 14) (size 15 to 20)
#    0.000    1.000    1.667    4.500    2.333    9.000 
#    0.000    0.000    0.000    0.000    0.000    0.000 
#    0.000    0.000    0.000    0.000    0.000    0.000 
#
# Total GULP energy -297651.023227 kJ/mol
# GULP energy per Si atom -12402.125968 kJ/mol
# Density = 2.051806 g / cm^3
# Si number density = 20.564864 Si / 1000 Ang^3
#
#
#
# Elastic Constant Matrix: (Units=GPa)
#
#
# Indices 1 2 3 4 5 6 
#
# 1 115.8979 16.1182 63.4930 0.0018 -3.4475 0.0009
# 2 16.1182 67.4267 27.2512 -0.0015 -9.5578 -0.0009
# 3 63.4930 27.2512 142.0513 -0.0059 4.3498 0.0011
# 4 0.0018 -0.0015 -0.0059 30.9591 0.0020 2.8066
# 5 -3.4475 -9.5578 4.3498 0.0020 44.0684 -0.0008
# 6 0.0009 -0.0009 0.0011 2.8066 -0.0008 37.4444
#
#
#
# Elastic Compliance Matrix: (Units=1/GPa)
#
#
# Indices 1 2 3 4 5 6 
#
# 1 0.011529 -0.000514 -0.005094 -0.000002 0.001293 0.000000
# 2 -0.000514 0.016762 -0.003105 0.000000 0.003902 0.000001
# 3 -0.005094 -0.003105 0.009975 0.000002 -0.002057 0.000000
# 4 -0.000002 0.000000 0.000002 0.032522 -0.000002 -0.002438
# 5 0.001293 0.003902 -0.002057 -0.000002 0.023842 0.000001
# 6 0.000000 0.000001 0.000000 -0.002438 0.000001 0.026889
#
#
# Mechanical properties :
#
#
# Convention : Reuss Voigt Hill
#
# Bulk Modulus (GPa) = 47.98583 59.90007 53.94295
# Shear Modulus (GPa) = 34.27178 37.06195 35.66686
#
# Velocity S-wave (km/s) = 4.08673 4.24984 4.16908
# Velocity P-wave (km/s) = 6.75671 7.29877 7.03296
#
# Compressibility (1/GPa) = 0.02083949
#
# Stress axis : x y z
#
# Youngs Moduli (GPa) = 86.73789 59.65910 100.24662
#
# Poissons Ratio (x) = 0.03065 0.51067
# Poissons Ratio (y) = 0.04456 0.31131
# Poissons Ratio (z) = 0.44186 0.18527
#
# Static dielectric constant tensor:
#      x y z
#    x 2.819170 0.000190 0.626220 
#    y 0.000190 3.828070 -0.000140 
#    z 0.626220 -0.000140 3.170870 
# 
# 
# High freq. dielectric constant tensor:
#      x y z
#    x 1.817300 0.000000 -0.002110 
#    y 0.000000 1.810490 0.000000 
#    z -0.002110 0.000000 1.820030 
# 
# From -- ./inp_files/274096.got.cif
#   From: 2010.06.25/outbox.cif.g09.slc.cpg/sg12_138_cif.got.tgz:274096.got - 2010.06.28 00:19:55.
