data_PCOD8112100
_publ_section_title
;
Structure prediction by ZEFSAII (Michael W. Deem and Ramdas Pophale) SiO2 
 PCOD8112100
Probable space group: C 2/M
;
_chemical_formula_sum "Si O2"
_cell_formula_units_Z 48
_cell_length_a 25.552892
_cell_length_b 17.255783
_cell_length_c 12.457094
_cell_angle_alpha 90.000000
_cell_angle_beta 157.633060
_cell_angle_gamma 90.000000
_cell_volume 2090.201640
_symmetry_space_group_name_H-M "C 2/M"
_symmetry_group_IT_number 12
_symmetry_cell_setting 'monoclinic'
loop_
_space_group_symop_operation_xyz
x,y,z
-x,y,-z
-x,-y,-z
x,-y,z
1/2+x,1/2+y,z
1/2-x,1/2+y,-z
1/2-x,1/2-y,-z
1/2+x,1/2-y,z
loop_
_atom_site_type_symbol
_atom_site_label
_atom_site_fract_x
_atom_site_fract_y
_atom_site_fract_z
Si Si1 0.770537 0.665997 0.646971
Si Si2 0.512636 0.661222 0.396911
Si Si3 0.223668 0.662454 0.583580
Si Si4 0.502647 0.585160 0.837824
Si Si5 0.455692 0.908137 0.172782
Si Si6 0.702250 0.783647 0.021684
O O1 0.834216 0.665356 0.648139
O O2 0.776892 0.751064 0.714327
O O3 0.611050 0.643182 0.332129
O O4 0.857038 0.606548 0.883617
O O5 0.500000 0.642166 0.500000
O O6 0.498772 0.585580 0.296509
O O7 0.659025 0.701589 0.647983
O O8 0.397256 0.716375 0.124380
O O9 0.104279 0.630054 0.434665
O O10 0.349928 0.604077 0.833346
O O11 0.462681 0.500000 0.800155
O O12 0.467505 0.000000 0.218197
O O13 0.386143 0.864374 0.144385
O O14 0.750000 0.750000 0.000000
#
# Coordination Sequence:
#
# PCOD8112100 Si02
#       6
#     8   8   8   8   8   8
#     4  11  23  43  70  95 134 187 239 272 322 405
#     4  10  22  41  68  97 122 172 228 278 334 411
#     4  11  25  43  66 100 136 185 233 275 328 409
#     4  12  25  40  63  98 138 175 216 281 344 393
#     4  12  25  41  67 102 141 177 222 289 353 402
#     4  10  22  42  69  97 126 173 224 276 337 411
#
# _framework density 22.964290999999999
#
# number of rings (size 3 to 8) (size 9 to 14) (size 15 to 20)
#    0.000    1.000    1.667    5.000    2.333    7.000 
#    0.000    2.500    0.000    4.500    0.000    0.000 
#    0.000    0.000    0.000    0.000    0.000    0.000 
#
# Total GULP energy -297411.474474 kJ/mol
# GULP energy per Si atom -12392.144770 kJ/mol
# Density = 2.291202 g / cm^3
# Si number density = 22.964291 Si / 1000 Ang^3
#
#
#
# Elastic Constant Matrix: (Units=GPa)
#
#
# Indices 1 2 3 4 5 6 
#
# 1 81.4299 35.3763 -1.8852 0.0000 1.5999 0.0000
# 2 35.3763 123.6744 7.2360 0.0000 9.2425 0.0000
# 3 -1.8852 7.2360 86.8270 0.0000 16.6774 0.0000
# 4 0.0000 0.0000 0.0000 33.3891 0.0000 4.0940
# 5 1.5999 9.2425 16.6774 0.0000 37.6701 0.0000
# 6 0.0000 0.0000 0.0000 4.0940 0.0000 20.9617
#
#
#
# Elastic Compliance Matrix: (Units=1/GPa)
#
#
# Indices 1 2 3 4 5 6 
#
# 1 0.014059 -0.004067 0.000620 0.000000 0.000126 0.000000
# 2 -0.004067 0.009422 -0.000506 0.000000 -0.001915 0.000000
# 3 0.000620 -0.000506 0.012628 0.000000 -0.005493 0.000000
# 4 0.000000 0.000000 0.000000 0.030685 0.000000 -0.005993
# 5 0.000126 -0.001915 -0.005493 0.000000 0.029443 0.000000
# 6 0.000000 0.000000 0.000000 -0.005993 0.000000 0.048877
#
#
# Mechanical properties :
#
#
# Convention : Reuss Voigt Hill
#
# Bulk Modulus (GPa) = 35.45722 41.48727 38.47225
# Shear Modulus (GPa) = 30.78438 35.15112 32.96775
#
# Velocity S-wave (km/s) = 3.66530 3.91664 3.79305
# Velocity P-wave (km/s) = 5.77808 6.20956 5.99770
#
# Compressibility (1/GPa) = 0.02820300
#
# Stress axis : x y z
#
# Youngs Moduli (GPa) = 71.12700 106.13594 79.19034
#
# Poissons Ratio (x) = 0.43169 -0.04909
# Poissons Ratio (y) = 0.28930 0.04004
# Poissons Ratio (z) = -0.04410 0.05367
#
# Static dielectric constant tensor:
#      x y z
#    x 4.375390 0.000000 0.200450 
#    y 0.000000 3.992130 0.000000 
#    z 0.200450 0.000000 4.485730 
# 
# 
# High freq. dielectric constant tensor:
#      x y z
#    x 1.917470 0.000000 0.011300 
#    y 0.000000 1.888440 0.000000 
#    z 0.011300 0.000000 1.919680 
# 
# From -- ./inp_files/251514.got.cif
#   From: 2010.06.25/outbox.cif.g09.slc.cpg/sg12_126_cif.got.tgz:251514.got - 2010.06.28 00:19:55.
