data_PCOD8112135
_publ_section_title
;
Structure prediction by ZEFSAII (Michael W. Deem and Ramdas Pophale) SiO2 
 PCOD8112135
Probable space group: C 2/M
;
_chemical_formula_sum "Si O2"
_cell_formula_units_Z 64
_cell_length_a 32.424137
_cell_length_b 17.537751
_cell_length_c 12.207736
_cell_angle_alpha 90.000000
_cell_angle_beta 149.713251
_cell_angle_gamma 90.000000
_cell_volume 3500.986808
_symmetry_space_group_name_H-M "C 2/M"
_symmetry_group_IT_number 12
_symmetry_cell_setting 'monoclinic'
loop_
_space_group_symop_operation_xyz
x,y,z
-x,y,-z
-x,-y,-z
x,-y,z
1/2+x,1/2+y,z
1/2-x,1/2+y,-z
1/2-x,1/2-y,-z
1/2+x,1/2-y,z
loop_
_atom_site_type_symbol
_atom_site_label
_atom_site_fract_x
_atom_site_fract_y
_atom_site_fract_z
Si Si1 0.652658 0.673076 0.995477
Si Si2 0.493864 0.414967 0.615763
Si Si3 0.810707 0.412527 0.429394
Si Si4 0.579714 0.913112 0.117289
Si Si5 0.677796 0.913094 0.932336
Si Si6 0.410990 0.166990 0.087824
Si Si7 0.837152 0.823903 0.241938
Si Si8 0.098410 0.662619 0.553578
O O1 0.572300 0.626526 0.845975
O O2 0.643483 0.758449 0.017869
O O3 0.666910 0.671078 0.898319
O O4 0.727691 0.634246 0.229108
O O5 0.500000 0.416602 0.500000
O O6 0.489542 0.500000 0.654322
O O7 0.412799 0.370451 0.465450
O O8 0.795260 0.500000 0.358867
O O9 0.841075 0.407329 0.623638
O O10 0.880840 0.376863 0.513590
O O11 0.566845 0.000000 0.046378
O O12 0.500000 0.885743 0.000000
O O13 0.593464 0.856780 0.048195
O O14 0.627857 0.900500 0.929419
O O15 0.616853 0.896804 0.692240
O O16 0.708117 0.000000 0.995768
O O17 0.755728 0.857916 0.107232
O O18 0.503228 0.184586 0.338387
O O19 0.845118 0.736734 0.298175
#
# Coordination Sequence:
#
# PCOD8112135 Si02
#       8
#     8   8   8   8   8   8   8   8
#     4  11  21  37  58  86 123 153 196 245 297 351
#     4   9  18  31  54  80 112 156 198 237 279 342
#     4  11  23  39  64  89 114 155 203 251 294 343
#     4  10  22  42  63  85 117 157 201 249 298 349
#     4  12  25  36  56  89 124 160 199 241 289 361
#     4  12  24  39  61  87 120 159 197 243 300 357
#     4  11  21  38  55  83 125 164 191 232 299 358
#     4  12  22  37  59  87 120 156 195 236 298 360
#
# _framework density 18.280560000000001
#
# number of rings (size 3 to 8) (size 9 to 14) (size 15 to 20)
#    0.000    1.000    5.000    3.000    0.000    3.500 
#    0.000    0.000    0.000    0.000    0.000    0.000 
#    0.000    6.000    0.000    0.000    0.000    0.000 
#
# Total GULP energy -396963.322753 kJ/mol
# GULP energy per Si atom -12405.103836 kJ/mol
# Density = 1.823895 g / cm^3
# Si number density = 18.280560 Si / 1000 Ang^3
#
#
#
# Elastic Constant Matrix: (Units=GPa)
#
#
# Indices 1 2 3 4 5 6 
#
# 1 75.7433 30.2059 39.0261 0.0000 2.0176 0.0000
# 2 30.2059 106.8338 36.6421 0.0000 2.5076 0.0000
# 3 39.0261 36.6421 99.5638 0.0000 11.3591 0.0000
# 4 0.0000 0.0000 0.0000 28.1211 0.0000 2.9618
# 5 2.0176 2.5076 11.3591 0.0000 24.3390 0.0000
# 6 0.0000 0.0000 0.0000 2.9618 0.0000 24.0598
#
#
#
# Elastic Compliance Matrix: (Units=1/GPa)
#
#
# Indices 1 2 3 4 5 6 
#
# 1 0.017374 -0.002920 -0.005921 0.000000 0.001624 0.000000
# 2 -0.002920 0.011217 -0.003041 0.000000 0.000506 0.000000
# 3 -0.005921 -0.003041 0.014145 0.000000 -0.005798 0.000000
# 4 0.000000 0.000000 0.000000 0.036028 0.000000 -0.004435
# 5 0.001624 0.000506 -0.005798 0.000000 0.043605 0.000000
# 6 0.000000 0.000000 0.000000 -0.004435 0.000000 0.042109
#
#
# Mechanical properties :
#
#
# Convention : Reuss Voigt Hill
#
# Bulk Modulus (GPa) = 52.70753 54.87656 53.79205
# Shear Modulus (GPa) = 25.69804 27.05510 26.37657
#
# Velocity S-wave (km/s) = 3.75341 3.85124 3.80264
# Velocity P-wave (km/s) = 6.90502 7.06118 6.98354
#
# Compressibility (1/GPa) = 0.01897262
#
# Stress axis : x y z
#
# Youngs Moduli (GPa) = 57.55627 89.14926 70.69419
#
# Poissons Ratio (x) = 0.26029 0.41858
# Poissons Ratio (y) = 0.16805 0.21501
# Poissons Ratio (z) = 0.34079 0.27115
#
# Static dielectric constant tensor:
#      x y z
#    x 3.159500 0.000000 0.171360 
#    y 0.000000 3.481280 0.000000 
#    z 0.171360 0.000000 3.402660 
# 
# 
# High freq. dielectric constant tensor:
#      x y z
#    x 1.684930 0.000000 0.019610 
#    y 0.000000 1.720580 0.000000 
#    z 0.019610 0.000000 1.713400 
# 
# From -- ./inp_files/190088.got.cif
#   From: 2010.06.25/outbox.cif.g09.slc.cpg/sg12_96_cif.got.tgz:190088.got - 2010.06.28 00:19:55.
