data_PCOD8112743
_publ_section_title
;
Structure prediction by ZEFSAII (Michael W. Deem and Ramdas Pophale) SiO2 
 PCOD8112743
Probable space group: C 2/M
;
_chemical_formula_sum "Si O2"
_cell_formula_units_Z 64
_cell_length_a 9.294057
_cell_length_b 18.576944
_cell_length_c 28.956984
_cell_angle_alpha 90.000000
_cell_angle_beta 37.800441
_cell_angle_gamma 90.000000
_cell_volume 3064.304074
_symmetry_space_group_name_H-M "C 2/M"
_symmetry_group_IT_number 12
_symmetry_cell_setting 'monoclinic'
loop_
_space_group_symop_operation_xyz
x,y,z
-x,y,-z
-x,-y,-z
x,-y,z
1/2+x,1/2+y,z
1/2-x,1/2+y,-z
1/2-x,1/2-y,-z
1/2+x,1/2-y,z
loop_
_atom_site_type_symbol
_atom_site_label
_atom_site_fract_x
_atom_site_fract_y
_atom_site_fract_z
Si Si1 0.898462 0.167653 0.157804
Si Si2 0.835376 0.326320 0.998067
Si Si3 0.341603 0.675826 0.582160
Si Si4 0.431545 0.084103 0.142546
Si Si5 0.995705 0.705882 0.195132
Si Si6 0.894289 0.415764 0.697679
Si Si7 0.511756 0.695993 0.638186
Si Si8 0.918701 0.918070 0.304513
O O1 0.690320 0.210565 0.185119
O O2 0.792103 0.105547 0.216108
O O3 0.043714 0.229497 0.147886
O O4 0.093534 0.132896 0.074502
O O5 0.965881 0.378026 0.928795
O O6 0.750000 0.250000 0.000000
O O7 0.000000 0.313286 0.000000
O O8 0.500000 0.647500 0.500000
O O9 0.510212 0.684841 0.583618
O O10 0.146826 0.617126 0.644083
O O11 0.215710 0.749261 0.599764
O O12 0.520106 0.127117 0.165433
O O13 0.149740 0.091221 0.214049
O O14 0.508988 0.000000 0.125668
O O15 0.742729 0.723591 0.281419
O O16 0.922292 0.500000 0.692563
O O17 0.798128 0.390467 0.671957
O O18 0.572319 0.622779 0.649390
O O19 0.883028 0.000000 0.328052
#
# Coordination Sequence:
#
# PCOD8112743 Si02
#       8
#     8   8   8   8   8   8   8   8
#     4  12  24  39  66  93 123 165 220 263 319 374
#     4  12  25  40  63  90 128 170 215 267 321 381
#     4  12  25  42  66  97 131 165 203 260 321 383
#     4  10  23  41  63  93 129 167 213 268 323 371
#     4  11  22  39  66  92 119 165 208 264 310 374
#     4  11  24  42  63  93 127 165 214 263 313 383
#     4  11  21  40  66  96 125 162 210 261 310 378
#     4   9  21  41  68  93 125 171 216 260 314 376
#
# _framework density 20.885656000000001
#
# number of rings (size 3 to 8) (size 9 to 14) (size 15 to 20)
#    0.000    1.000    3.750    2.625    3.500    2.000 
#    0.000    0.625    0.000    1.875    0.000    0.000 
#    0.000    0.000    0.000    0.000    0.000    0.000 
#
# Total GULP energy -396841.728602 kJ/mol
# GULP energy per Si atom -12401.304019 kJ/mol
# Density = 2.083812 g / cm^3
# Si number density = 20.885656 Si / 1000 Ang^3
#
#
#
# Elastic Constant Matrix: (Units=GPa)
#
#
# Indices 1 2 3 4 5 6 
#
# 1 107.9318 28.3702 16.4859 -0.0007 14.3632 0.0198
# 2 28.3702 80.0021 31.3844 -0.0215 11.4822 0.0104
# 3 16.4859 31.3844 85.7027 -0.0927 15.6422 0.0252
# 4 -0.0007 -0.0215 -0.0927 17.2832 0.0055 5.3648
# 5 14.3632 11.4822 15.6422 0.0055 31.4742 -0.0104
# 6 0.0198 0.0104 0.0252 5.3648 -0.0104 26.0790
#
#
#
# Elastic Compliance Matrix: (Units=1/GPa)
#
#
# Indices 1 2 3 4 5 6 
#
# 1 0.010606 -0.003157 -0.000232 -0.000001 -0.003573 -0.000008
# 2 -0.003157 0.015787 -0.004823 -0.000006 -0.001921 0.000001
# 3 -0.000232 -0.004823 0.014449 0.000083 -0.005316 -0.000031
# 4 -0.000001 -0.000006 0.000083 0.061807 -0.000053 -0.012715
# 5 -0.003573 -0.001921 -0.005316 -0.000053 0.036745 0.000034
# 6 -0.000008 0.000001 -0.000031 -0.012715 0.000034 0.040961
#
#
# Mechanical properties :
#
#
# Convention : Reuss Voigt Hill
#
# Bulk Modulus (GPa) = 40.95374 47.34640 44.15007
# Shear Modulus (GPa) = 24.39982 28.12702 26.26342
#
# Velocity S-wave (km/s) = 3.42169 3.67374 3.54995
# Velocity P-wave (km/s) = 5.93816 6.38073 6.16342
#
# Compressibility (1/GPa) = 0.02441779
#
# Stress axis : x y z
#
# Youngs Moduli (GPa) = 94.28714 63.34247 69.20679
#
# Poissons Ratio (x) = 0.19999 0.01605
# Poissons Ratio (y) = 0.29769 0.33380
# Poissons Ratio (z) = 0.02186 0.30552
#
# Static dielectric constant tensor:
#      x y z
#    x 3.920300 -0.000010 -0.005560 
#    y -0.000010 3.666430 0.000010 
#    z -0.005560 0.000010 3.905670 
# 
# 
# High freq. dielectric constant tensor:
#      x y z
#    x 1.829090 0.000000 0.000140 
#    y 0.000000 1.808550 0.000000 
#    z 0.000140 0.000000 1.817100 
# 
# From -- ./inp_files/333766.got.cif
#   From: 2010.06.25/outbox.cif.g09.slc.cpg/sg12_167_cif.got.tgz:333766.got - 2010.06.28 00:19:55.
