data_PCOD8112739
_publ_section_title
;
Structure prediction by ZEFSAII (Michael W. Deem and Ramdas Pophale) SiO2 
 PCOD8112739
Probable space group: C 2/M
;
_chemical_formula_sum "Si O2"
_cell_formula_units_Z 56
_cell_length_a 18.841755
_cell_length_b 8.830179
_cell_length_c 24.805378
_cell_angle_alpha 90.000000
_cell_angle_beta 40.806449
_cell_angle_gamma 90.000000
_cell_volume 2697.032368
_symmetry_space_group_name_H-M "C 2/M"
_symmetry_group_IT_number 12
_symmetry_cell_setting 'monoclinic'
loop_
_space_group_symop_operation_xyz
x,y,z
-x,y,-z
-x,-y,-z
x,-y,z
1/2+x,1/2+y,z
1/2-x,1/2+y,-z
1/2-x,1/2-y,-z
1/2+x,1/2-y,z
loop_
_atom_site_type_symbol
_atom_site_label
_atom_site_fract_x
_atom_site_fract_y
_atom_site_fract_z
Si Si1 0.715081 0.830055 0.683672
Si Si2 0.923069 0.822217 0.993828
Si Si3 0.321843 0.170172 0.414677
Si Si4 0.307453 0.676001 0.864469
Si Si5 0.025929 0.320671 0.148112
Si Si6 0.029118 0.826365 0.322060
Si Si7 0.928880 0.678013 0.590666
O O1 0.741483 0.828451 0.605145
O O2 0.593991 0.769810 0.764462
O O3 0.802804 0.723658 0.661219
O O4 0.727922 0.000000 0.699687
O O5 0.800758 0.773988 0.077252
O O6 0.926852 0.000000 0.978295
O O7 0.963481 0.726309 0.919880
O O8 0.000000 0.782117 0.000000
O O9 0.250000 0.250000 0.500000
O O10 0.433168 0.259596 0.340810
O O11 0.347446 0.000000 0.418895
O O12 0.281650 0.500000 0.891250
O O13 0.384021 0.735767 0.868226
O O14 0.361268 0.695873 0.774804
O O15 0.042549 0.500000 0.145586
O O16 0.024243 0.738766 0.380791
O O17 0.006079 0.000000 0.348119
O O18 0.937836 0.500000 0.585639
O O19 0.000000 0.744656 0.500000
#
# Coordination Sequence:
#
# PCOD8112739 Si02
#       7
#     8   8   8   8   8   8   8
#     4  10  23  41  63  92 126 167 210 259 317 374
#     4  11  26  45  67  98 132 168 208 256 314 375
#     4  11  22  39  63  93 128 166 211 261 315 372
#     4  11  24  43  68  97 129 168 212 259 315 377
#     4  11  23  43  69  96 129 168 211 260 316 377
#     4  11  24  41  64  94 127 167 214 263 317 376
#     4  11  25  42  62  90 126 171 217 265 321 380
#
# _framework density 20.763563999999999
#
# number of rings (size 3 to 8) (size 9 to 14) (size 15 to 20)
#    0.000    1.143    1.429    3.857    2.000    8.571 
#    0.000    0.000    0.000    0.000    0.000    0.000 
#    0.000    0.000    0.000    0.000    0.000    0.000 
#
# Total GULP energy -347314.254842 kJ/mol
# GULP energy per Si atom -12404.080530 kJ/mol
# Density = 2.071630 g / cm^3
# Si number density = 20.763564 Si / 1000 Ang^3
#
#
#
# Elastic Constant Matrix: (Units=GPa)
#
#
# Indices 1 2 3 4 5 6 
#
# 1 91.7865 26.3928 22.0905 0.0000 -2.0060 0.0001
# 2 26.3928 59.4061 32.5495 0.0000 -5.8682 0.0002
# 3 22.0905 32.5495 86.4686 0.0000 -0.3217 -0.0001
# 4 0.0000 0.0000 0.0000 34.7651 0.0000 -3.5496
# 5 -2.0060 -5.8682 -0.3217 0.0000 37.3850 0.0000
# 6 0.0001 0.0002 -0.0001 -3.5496 0.0000 34.6968
#
#
#
# Elastic Compliance Matrix: (Units=1/GPa)
#
#
# Indices 1 2 3 4 5 6 
#
# 1 0.012625 -0.004852 -0.001399 0.000000 -0.000096 0.000000
# 2 -0.004852 0.023477 -0.007585 0.000000 0.003359 0.000000
# 3 -0.001399 -0.007585 0.014774 0.000000 -0.001139 0.000000
# 4 0.000000 0.000000 0.000000 0.029068 0.000000 0.002974
# 5 -0.000096 0.003359 -0.001139 0.000000 0.027261 0.000000
# 6 0.000000 0.000000 0.000000 0.002974 0.000000 0.029125
#
#
# Mechanical properties :
#
#
# Convention : Reuss Voigt Hill
#
# Bulk Modulus (GPa) = 43.09942 44.41410 43.75676
# Shear Modulus (GPa) = 29.11442 31.81128 30.46285
#
# Velocity S-wave (km/s) = 3.74864 3.91842 3.83447
# Velocity P-wave (km/s) = 6.28798 6.47370 6.38152
#
# Compressibility (1/GPa) = 0.02320217
#
# Stress axis : x y z
#
# Youngs Moduli (GPa) = 79.21051 42.59524 67.68858
#
# Poissons Ratio (x) = 0.20666 0.09472
# Poissons Ratio (y) = 0.38430 0.51345
# Poissons Ratio (z) = 0.11084 0.32310
#
# Static dielectric constant tensor:
#      x y z
#    x 3.748330 0.000000 0.009150 
#    y 0.000000 3.883470 0.000000 
#    z 0.009150 0.000000 3.849490 
# 
# 
# High freq. dielectric constant tensor:
#      x y z
#    x 1.818580 0.000000 0.001320 
#    y 0.000000 1.821350 0.000000 
#    z 0.001320 0.000000 1.825110 
# 
# From -- ./inp_files/362980.got.cif
#   From: 2010.06.25/outbox.cif.g09.slc.cpg/sg12_182_cif.got.tgz:362980.got - 2010.06.28 00:19:55.
