data_PCOD8112628
_publ_section_title
;
Structure prediction by ZEFSAII (Michael W. Deem and Ramdas Pophale) SiO2 
 PCOD8112628
Probable space group: C 2/M
;
_chemical_formula_sum "Si O2"
_cell_formula_units_Z 48
_cell_length_a 11.475523
_cell_length_b 17.911130
_cell_length_c 11.828899
_cell_angle_alpha 90.000000
_cell_angle_beta 94.070819
_cell_angle_gamma 90.000000
_cell_volume 2425.172960
_symmetry_space_group_name_H-M "C 2/M"
_symmetry_group_IT_number 12
_symmetry_cell_setting 'monoclinic'
loop_
_space_group_symop_operation_xyz
x,y,z
-x,y,-z
-x,-y,-z
x,-y,z
1/2+x,1/2+y,z
1/2-x,1/2+y,-z
1/2-x,1/2-y,-z
1/2+x,1/2-y,z
loop_
_atom_site_type_symbol
_atom_site_label
_atom_site_fract_x
_atom_site_fract_y
_atom_site_fract_z
Si Si1 0.620669 0.268707 0.941205
Si Si2 0.787564 0.332248 0.463042
Si Si3 0.037484 0.301212 0.717591
Si Si4 0.546140 0.648336 0.376237
Si Si5 0.882503 0.916484 0.183393
Si Si6 0.850252 0.585467 0.694085
O O1 0.622993 0.223779 0.823789
O O2 0.607734 0.357463 0.917932
O O3 0.500000 0.245604 0.000000
O O4 0.750000 0.250000 0.000000
O O5 0.750000 0.250000 0.500000
O O6 0.894139 0.330234 0.385641
O O7 0.682084 0.372819 0.389602
O O8 0.822550 0.383235 0.569374
O O9 0.959974 0.232108 0.671328
O O10 0.955122 0.367451 0.756773
O O11 0.500000 0.641743 0.500000
O O12 0.480209 0.592955 0.287077
O O13 0.758487 0.903792 0.232101
O O14 0.894126 0.000000 0.133920
O O15 0.888954 0.500000 0.686690
#
# Coordination Sequence:
#
# PCOD8112628 Si02
#       6
#     8   8   8   8   8   8
#     4  11  25  44  70  92 114 155 213 268 313 360
#     4  12  20  33  57  89 124 163 200 237 288 359
#     4  11  23  36  60  85 122 155 204 251 298 356
#     4  11  19  33  58  88 121 163 197 236 287 360
#     4  10  23  40  62  89 124 158 195 248 306 362
#     4  11  22  38  59  90 130 166 192 232 297 369
#
# _framework density 19.792403
#
# number of rings (size 3 to 8) (size 9 to 14) (size 15 to 20)
#    0.000    1.000    5.000    2.500    4.667    2.667 
#    0.000    0.833    0.000    3.000    0.000    0.000 
#    0.000    0.000    0.000    0.000    0.000    0.000 
#
# Total GULP energy -297519.762630 kJ/mol
# GULP energy per Si atom -12396.656776 kJ/mol
# Density = 1.974735 g / cm^3
# Si number density = 19.792403 Si / 1000 Ang^3
#
#
#
# Elastic Constant Matrix: (Units=GPa)
#
#
# Indices 1 2 3 4 5 6 
#
# 1 93.1504 36.7417 15.7420 0.0000 18.7133 0.0000
# 2 36.7417 86.7157 23.0575 0.0000 4.5401 0.0000
# 3 15.7420 23.0575 63.4408 0.0000 18.4493 0.0000
# 4 0.0000 0.0000 0.0000 24.0642 0.0000 -4.5234
# 5 18.7133 4.5401 18.4493 0.0000 35.3796 0.0000
# 6 0.0000 0.0000 0.0000 -4.5234 0.0000 25.8901
#
#
#
# Elastic Compliance Matrix: (Units=1/GPa)
#
#
# Indices 1 2 3 4 5 6 
#
# 1 0.014398 -0.005901 0.000668 0.000000 -0.007206 0.000000
# 2 -0.005901 0.015209 -0.005191 0.000000 0.003876 0.000000
# 3 0.000668 -0.005191 0.020502 0.000000 -0.010378 0.000000
# 4 0.000000 0.000000 0.000000 0.042967 0.000000 0.007507
# 5 -0.007206 0.003876 -0.010378 0.000000 0.036991 0.000000
# 6 0.000000 0.000000 0.000000 0.007507 0.000000 0.039936
#
#
# Mechanical properties :
#
#
# Convention : Reuss Voigt Hill
#
# Bulk Modulus (GPa) = 34.17514 43.82104 38.99809
# Shear Modulus (GPa) = 24.92477 28.25116 26.58797
#
# Velocity S-wave (km/s) = 3.55253 3.78216 3.66914
# Velocity P-wave (km/s) = 5.84222 6.42350 6.13974
#
# Compressibility (1/GPa) = 0.02926104
#
# Stress axis : x y z
#
# Youngs Moduli (GPa) = 69.45619 65.74918 48.77636
#
# Poissons Ratio (x) = 0.38795 -0.03256
# Poissons Ratio (y) = 0.40983 0.25319
# Poissons Ratio (z) = -0.04637 0.34130
#
# Static dielectric constant tensor:
#      x y z
#    x 4.044250 0.000000 0.037890 
#    y 0.000000 3.425780 0.000000 
#    z 0.037890 0.000000 3.730930 
# 
# 
# High freq. dielectric constant tensor:
#      x y z
#    x 1.786170 0.000000 0.005750 
#    y 0.000000 1.760880 0.000000 
#    z 0.005750 0.000000 1.762050 
# 
# From -- ./inp_files/131026.got.cif
#   From: 2010.06.25/outbox.cif.g09.slc.cpg/sg12_66_cif.got.tgz:131026.got - 2010.06.28 00:19:55.
