data_PCOD8112030
_publ_section_title
;
Structure prediction by ZEFSAII (Michael W. Deem and Ramdas Pophale) SiO2 
 PCOD8112030
Probable space group: C 2/M
;
_chemical_formula_sum "Si O2"
_cell_formula_units_Z 48
_cell_length_a 18.250826
_cell_length_b 14.067654
_cell_length_c 18.680492
_cell_angle_alpha 90.000000
_cell_angle_beta 28.833332
_cell_angle_gamma 90.000000
_cell_volume 2313.006242
_symmetry_space_group_name_H-M "C 2/M"
_symmetry_group_IT_number 12
_symmetry_cell_setting 'monoclinic'
loop_
_space_group_symop_operation_xyz
x,y,z
-x,y,-z
-x,-y,-z
x,-y,z
1/2+x,1/2+y,z
1/2-x,1/2+y,-z
1/2-x,1/2-y,-z
1/2+x,1/2-y,z
loop_
_atom_site_type_symbol
_atom_site_label
_atom_site_fract_x
_atom_site_fract_y
_atom_site_fract_z
Si Si1 0.177820 0.101609 0.359027
Si Si2 0.139746 0.895694 0.932555
Si Si3 0.812270 0.112365 0.372904
Si Si4 0.916620 0.768749 0.886303
Si Si5 0.821124 0.692642 0.660408
Si Si6 0.638977 0.893884 0.661348
O O1 0.239870 0.199359 0.270878
O O2 0.214830 0.108102 0.411933
O O3 0.000000 0.097593 0.500000
O O4 0.246918 0.000000 0.270027
O O5 0.285948 0.871297 0.759326
O O6 0.166316 0.000000 0.946132
O O7 0.105814 0.811658 0.016085
O O8 0.000000 0.902327 0.000000
O O9 0.756289 0.153844 0.345349
O O10 0.695192 0.142708 0.535496
O O11 0.978938 0.156618 0.247634
O O12 0.829713 0.000000 0.352598
O O13 0.004377 0.668601 0.810198
O O14 0.750000 0.750000 0.000000
O O15 0.000000 0.691499 0.500000
O O16 0.572639 0.000000 0.710502
#
# Coordination Sequence:
#
# PCOD8112030 Si02
#       6
#     8   8   8   8   8   8
#     4   9  18  35  61  92 125 162 209 263 319 381
#     4  11  23  43  67  93 131 175 219 271 332 399
#     4  11  23  42  66  94 131 173 219 275 333 393
#     4  12  26  41  62  92 136 179 217 261 334 397
#     4  11  23  38  67  99 129 166 218 275 332 391
#     4  10  22  41  66  94 126 167 220 271 320 388
#
# _framework density 20.752213000000001
#
# number of rings (size 3 to 8) (size 9 to 14) (size 15 to 20)
#    0.000    1.333    3.333    1.500    2.333    4.000 
#    0.000    0.833    0.000    3.000    0.000    0.000 
#    0.000    0.000    0.000    0.000    0.000    0.000 
#
# Total GULP energy -297328.785907 kJ/mol
# GULP energy per Si atom -12388.699413 kJ/mol
# Density = 2.070498 g / cm^3
# Si number density = 20.752213 Si / 1000 Ang^3
#
#
#
# Elastic Constant Matrix: (Units=GPa)
#
#
# Indices 1 2 3 4 5 6 
#
# 1 83.5394 50.9202 53.1784 -0.0026 -5.8895 0.0005
# 2 50.9202 166.3614 73.2135 -0.0069 0.8963 0.0027
# 3 53.1784 73.2135 125.2623 -0.0089 3.7046 0.0024
# 4 -0.0026 -0.0069 -0.0089 33.1052 0.0039 9.6798
# 5 -5.8895 0.8963 3.7046 0.0039 32.9749 -0.0009
# 6 0.0005 0.0027 0.0024 9.6798 -0.0009 22.3067
#
#
#
# Elastic Compliance Matrix: (Units=1/GPa)
#
#
# Indices 1 2 3 4 5 6 
#
# 1 0.017802 -0.002818 -0.006027 -0.000002 0.003933 0.000001
# 2 -0.002818 0.008542 -0.003787 0.000001 -0.000310 -0.000001
# 3 -0.006027 -0.003787 0.012827 0.000003 -0.002415 -0.000002
# 4 -0.000002 0.000001 0.000003 0.034596 -0.000005 -0.015013
# 5 0.003933 -0.000310 -0.002415 -0.000005 0.031308 0.000004
# 6 0.000001 -0.000001 -0.000002 -0.015013 0.000004 0.051344
#
#
# Mechanical properties :
#
#
# Convention : Reuss Voigt Hill
#
# Bulk Modulus (GPa) = 71.90687 81.08745 76.49716
# Shear Modulus (GPa) = 26.83581 30.86744 28.85162
#
# Velocity S-wave (km/s) = 3.59995 3.86090 3.73271
# Velocity P-wave (km/s) = 7.21144 7.68338 7.45115
#
# Compressibility (1/GPa) = 0.01390688
#
# Stress axis : x y z
#
# Youngs Moduli (GPa) = 56.17462 117.07169 77.96146
#
# Poissons Ratio (x) = 0.32986 0.46987
# Poissons Ratio (y) = 0.15828 0.29525
# Poissons Ratio (z) = 0.33856 0.44337
#
# Static dielectric constant tensor:
#      x y z
#    x 3.688200 -0.000010 -0.035360 
#    y -0.000010 5.146530 0.000010 
#    z -0.035360 0.000010 3.805560 
# 
# 
# High freq. dielectric constant tensor:
#      x y z
#    x 1.801860 0.000000 -0.008700 
#    y 0.000000 1.844590 0.000000 
#    z -0.008700 0.000000 1.791400 
# 
# From -- ./inp_files/278031.got.cif
#   From: 2010.06.25/outbox.cif.g09.slc.cpg/sg12_140_cif.got.tgz:278031.got - 2010.06.28 00:19:55.
