data_PCOD8112663
_publ_section_title
;
Structure prediction by ZEFSAII (Michael W. Deem and Ramdas Pophale) SiO2 
 PCOD8112663
Probable space group: C 2/M
;
_chemical_formula_sum "Si O2"
_cell_formula_units_Z 52
_cell_length_a 13.535768
_cell_length_b 31.468571
_cell_length_c 7.883157
_cell_angle_alpha 90.000000
_cell_angle_beta 135.549331
_cell_angle_gamma 90.000000
_cell_volume 2351.478792
_symmetry_space_group_name_H-M "C 2/M"
_symmetry_group_IT_number 12
_symmetry_cell_setting 'monoclinic'
loop_
_space_group_symop_operation_xyz
x,y,z
-x,y,-z
-x,-y,-z
x,-y,z
1/2+x,1/2+y,z
1/2-x,1/2+y,-z
1/2-x,1/2-y,-z
1/2+x,1/2-y,z
loop_
_atom_site_type_symbol
_atom_site_label
_atom_site_fract_x
_atom_site_fract_y
_atom_site_fract_z
Si Si1 0.000000 0.403440 0.000000
Si Si2 0.414621 0.950297 0.555608
Si Si3 0.158285 0.194939 0.410510
Si Si4 0.869981 0.046336 0.957471
Si Si5 0.560619 0.370743 0.761922
Si Si6 0.684323 0.165975 0.083033
Si Si7 0.439113 0.782627 0.611721
O O1 0.035367 0.431043 0.207049
O O2 0.139201 0.376206 0.129513
O O3 0.500000 0.931315 0.500000
O O4 0.253619 0.938248 0.319190
O O5 0.441025 0.000000 0.604573
O O6 0.234695 0.196469 0.687344
O O7 0.281927 0.195736 0.418761
O O8 0.065804 0.237887 0.294136
O O9 0.052726 0.154545 0.258064
O O10 0.830836 0.000000 0.995053
O O11 0.908916 0.081537 0.142780
O O12 0.000000 0.038025 0.000000
O O13 0.500000 0.373465 0.500000
O O14 0.709017 0.345445 0.939615
O O15 0.543189 0.187052 0.841231
O O16 0.500000 0.775811 0.500000
#
# Coordination Sequence:
#
# PCOD8112663 Si02
#       7
#     4   8   8   8   8   8   8
#     4  12  23  40  72  96 136 180 222 296 341 402
#     4  10  23  44  68  98 132 175 232 284 345 418
#     4  10  23  44  63  93 134 170 219 278 333 406
#     4  10  23  42  63  95 137 170 214 278 337 408
#     4  10  23  40  66  94 131 176 223 276 340 407
#     4  11  23  42  60  94 130 167 222 277 327 403
#     4  11  23  41  68  92 127 176 223 273 342 396
#
# _framework density 22.113744000000001
#
# number of rings (size 3 to 8) (size 9 to 14) (size 15 to 20)
#    0.000    1.538    1.538    2.538    4.308    5.846 
#    0.000    3.846    0.000    0.000    0.000    0.000 
#    0.000    0.000    0.000    0.000    0.000    0.000 
#
# Total GULP energy -322326.254786 kJ/mol
# GULP energy per Si atom -12397.163646 kJ/mol
# Density = 2.206341 g / cm^3
# Si number density = 22.113744 Si / 1000 Ang^3
#
#
#
# Elastic Constant Matrix: (Units=GPa)
#
#
# Indices 1 2 3 4 5 6 
#
# 1 137.3842 48.7697 55.4188 0.0000 19.8299 0.0000
# 2 48.7697 118.4811 55.3837 0.0000 5.2895 0.0000
# 3 55.4188 55.3837 95.5712 0.0000 11.2497 0.0000
# 4 0.0000 0.0000 0.0000 32.5038 0.0000 1.6062
# 5 19.8299 5.2895 11.2497 0.0000 32.7019 0.0000
# 6 0.0000 0.0000 0.0000 1.6062 0.0000 49.0436
#
#
#
# Elastic Compliance Matrix: (Units=1/GPa)
#
#
# Indices 1 2 3 4 5 6 
#
# 1 0.010396 -0.002068 -0.004301 0.000000 -0.004490 0.000000
# 2 -0.002068 0.011994 -0.005910 0.000000 0.001347 0.000000
# 3 -0.004301 -0.005910 0.016636 0.000000 -0.002159 0.000000
# 4 0.000000 0.000000 0.000000 0.030816 0.000000 -0.001009
# 5 -0.004490 0.001347 -0.002159 0.000000 0.033827 0.000000
# 6 0.000000 0.000000 0.000000 -0.001009 0.000000 0.020423
#
#
# Mechanical properties :
#
#
# Convention : Reuss Voigt Hill
#
# Bulk Modulus (GPa) = 69.11885 74.50898 71.81391
# Shear Modulus (GPa) = 32.57900 35.64081 34.10990
#
# Velocity S-wave (km/s) = 3.84245 4.01896 3.93170
# Velocity P-wave (km/s) = 7.14212 7.43658 7.29083
#
# Compressibility (1/GPa) = 0.01446783
#
# Stress axis : x y z
#
# Youngs Moduli (GPa) = 96.18856 83.37619 60.10882
#
# Poissons Ratio (x) = 0.17244 0.25855
# Poissons Ratio (y) = 0.19894 0.35523
# Poissons Ratio (z) = 0.41375 0.49273
#
# Static dielectric constant tensor:
#      x y z
#    x 4.265330 0.000000 0.355650 
#    y 0.000000 4.142530 0.000000 
#    z 0.355650 0.000000 3.843710 
# 
# 
# High freq. dielectric constant tensor:
#      x y z
#    x 1.879620 0.000000 0.022910 
#    y 0.000000 1.874050 0.000000 
#    z 0.022910 0.000000 1.863750 
# 
# From -- ./inp_files/68666.got.cif
#   From: 2010.06.25/outbox.cif.g09.slc.cpg/sg12_35_cif.got.tgz:68666.got - 2010.06.28 00:19:55.
