data_PCOD8112508
_publ_section_title
;
Structure prediction by ZEFSAII (Michael W. Deem and Ramdas Pophale) SiO2 
 PCOD8112508
Probable space group: C 2/M
;
_chemical_formula_sum "Si O2"
_cell_formula_units_Z 40
_cell_length_a 10.065360
_cell_length_b 29.606866
_cell_length_c 14.807208
_cell_angle_alpha 90.000000
_cell_angle_beta 154.764430
_cell_angle_gamma 90.000000
_cell_volume 1881.273615
_symmetry_space_group_name_H-M "C 2/M"
_symmetry_group_IT_number 12
_symmetry_cell_setting 'monoclinic'
loop_
_space_group_symop_operation_xyz
x,y,z
-x,y,-z
-x,-y,-z
x,-y,z
1/2+x,1/2+y,z
1/2-x,1/2+y,-z
1/2-x,1/2-y,-z
1/2+x,1/2-y,z
loop_
_atom_site_type_symbol
_atom_site_label
_atom_site_fract_x
_atom_site_fract_y
_atom_site_fract_z
Si Si1 0.576109 0.883633 0.900951
Si Si2 0.214240 0.549700 0.391793
Si Si3 0.338374 0.716071 0.663319
Si Si4 0.275984 0.201796 0.100290
Si Si5 0.500880 0.626302 0.323289
O O1 0.560583 0.931994 0.841743
O O2 0.577959 0.847830 0.819711
O O3 0.275302 0.869965 0.774693
O O4 0.879910 0.886568 0.149351
O O5 0.500000 0.545788 0.500000
O O6 0.132109 0.500000 0.380922
O O7 0.270286 0.585651 0.506906
O O8 0.448850 0.764833 0.691694
O O9 0.334073 0.675432 0.587019
O O10 0.000000 0.719356 0.500000
O O11 0.626869 0.710486 0.910093
O O12 0.000000 0.202809 0.000000
#
# Coordination Sequence:
#
# PCOD8112508 Si02
#       5
#     8   8   8   8   8
#     4   9  19  36  55  82 115 152 184 237 288 331
#     4   9  18  33  56  87 112 140 188 238 289 343
#     4  10  23  37  56  83 113 157 195 234 283 339
#     4  10  23  38  55  84 119 151 194 239 277 342
#     4   9  19  35  57  81 116 149 190 236 282 341
#
# _framework density 21.262191000000001
#
# number of rings (size 3 to 8) (size 9 to 14) (size 15 to 20)
#    0.000    2.600    0.000    0.000   11.200    4.000 
#    0.000    4.000    0.000    1.200    0.000    0.000 
#    0.000    0.000    0.000    0.000    0.000    0.000 
#
# Total GULP energy -247772.089034 kJ/mol
# GULP energy per Si atom -12388.604452 kJ/mol
# Density = 2.121380 g / cm^3
# Si number density = 21.262191 Si / 1000 Ang^3
#
#
#
# Elastic Constant Matrix: (Units=GPa)
#
#
# Indices 1 2 3 4 5 6 
#
# 1 59.0928 56.8307 21.1193 0.0000 0.6799 0.0002
# 2 56.8307 191.0184 58.6979 0.0000 -12.0045 0.0000
# 3 21.1193 58.6979 52.5118 -0.0004 0.0989 -0.0008
# 4 0.0000 0.0000 -0.0004 14.9531 0.0000 -4.8503
# 5 0.6799 -12.0045 0.0989 0.0000 25.6425 0.0002
# 6 0.0002 0.0000 -0.0008 -4.8503 0.0002 22.0990
#
#
#
# Elastic Compliance Matrix: (Units=1/GPa)
#
#
# Indices 1 2 3 4 5 6 
#
# 1 0.024277 -0.006801 -0.002155 0.000000 -0.003819 0.000000
# 2 -0.006801 0.010260 -0.008744 0.000000 0.005017 0.000000
# 3 -0.002155 -0.008744 0.029691 0.000001 -0.004151 0.000001
# 4 0.000000 0.000000 0.000001 0.072002 0.000000 0.015803
# 5 -0.003819 0.005017 -0.004151 0.000000 0.041464 -0.000001
# 6 0.000000 0.000000 0.000001 0.015803 -0.000001 0.048720
#
#
# Mechanical properties :
#
#
# Convention : Reuss Voigt Hill
#
# Bulk Modulus (GPa) = 34.68516 63.99097 49.33806
# Shear Modulus (GPa) = 18.42149 23.60392 21.01271
#
# Velocity S-wave (km/s) = 2.94665 3.33548 3.14708
# Velocity P-wave (km/s) = 5.28446 6.70786 6.03825
#
# Compressibility (1/GPa) = 0.02883077
#
# Stress axis : x y z
#
# Youngs Moduli (GPa) = 41.19161 97.46114 33.67979
#
# Poissons Ratio (x) = 0.66279 0.07257
# Poissons Ratio (y) = 0.28013 0.29448
# Poissons Ratio (z) = 0.08876 0.85216
#
# Static dielectric constant tensor:
#      x y z
#    x 3.596480 0.000000 -0.360710 
#    y 0.000000 4.374830 0.000000 
#    z -0.360710 0.000000 3.893330 
# 
# 
# High freq. dielectric constant tensor:
#      x y z
#    x 1.809560 0.000000 -0.026630 
#    y 0.000000 1.836070 0.000000 
#    z -0.026630 0.000000 1.833910 
# 
# From -- ./inp_files/266234.got.cif
#   From: 2010.06.25/outbox.cif.g09.slc.cpg/sg12_134_cif.got.tgz:266234.got - 2010.06.28 00:19:55.
