data_PCOD8112336
_publ_section_title
;
Structure prediction by ZEFSAII (Michael W. Deem and Ramdas Pophale) SiO2 
 PCOD8112336
Probable space group: C 2/M
;
_chemical_formula_sum "Si O2"
_cell_formula_units_Z 56
_cell_length_a 9.471391
_cell_length_b 31.552186
_cell_length_c 11.762142
_cell_angle_alpha 90.000000
_cell_angle_beta 126.000184
_cell_angle_gamma 90.000000
_cell_volume 2843.716308
_symmetry_space_group_name_H-M "C 2/M"
_symmetry_group_IT_number 12
_symmetry_cell_setting 'monoclinic'
loop_
_space_group_symop_operation_xyz
x,y,z
-x,y,-z
-x,-y,-z
x,-y,z
1/2+x,1/2+y,z
1/2-x,1/2+y,-z
1/2-x,1/2-y,-z
1/2+x,1/2-y,z
loop_
_atom_site_type_symbol
_atom_site_label
_atom_site_fract_x
_atom_site_fract_y
_atom_site_fract_z
Si Si1 0.710914 0.000000 0.228193
Si Si2 0.782154 0.795096 0.654242
Si Si3 0.315199 0.000000 0.053269
Si Si4 0.557547 0.859305 0.153087
Si Si5 0.250270 0.590215 0.908328
Si Si6 0.105697 0.912657 0.660154
Si Si7 0.442720 0.618092 0.795905
Si Si8 0.967044 0.711269 0.669310
O O1 0.811179 0.958629 0.319927
O O2 0.516808 0.000000 0.188034
O O3 0.701156 0.000000 0.088886
O O4 0.906086 0.834467 0.738274
O O5 0.911562 0.756443 0.692023
O O6 0.669619 0.805479 0.488837
O O7 0.657607 0.784631 0.702400
O O8 0.215757 0.040618 0.055951
O O9 0.443292 0.899030 0.141779
O O10 0.754725 0.875859 0.246448
O O11 0.527402 0.820497 0.222926
O O12 0.500000 0.845073 0.000000
O O13 0.276068 0.600469 0.787192
O O14 0.386237 0.618301 0.044187
O O15 0.000000 0.898655 0.500000
O O16 0.972152 0.912982 0.702819
#
# Coordination Sequence:
#
# PCOD8112336 Si02
#       8
#     4   8   4   8   8   8   8   8
#     4  11  21  39  65  94 129 162 218 266 319 376
#     4  10  22  43  64  92 128 165 216 264 322 384
#     4  11  20  40  68  93 122 173 220 265 316 392
#     4  12  22  43  64  96 128 173 221 257 323 390
#     4  11  23  40  67  92 126 168 216 265 323 377
#     4  12  25  40  65  96 130 169 213 266 320 384
#     4  11  23  41  62  95 129 161 212 270 312 378
#     4  10  23  41  67  91 124 174 212 262 323 391
#
# _framework density 19.692540999999999
#
# number of rings (size 3 to 8) (size 9 to 14) (size 15 to 20)
#    0.000    1.000    5.714    1.071    2.000    1.714 
#    2.571    1.429    0.000    0.857    0.000    0.000 
#    0.000    0.000    0.000    0.000    0.000    0.000 
#
# Total GULP energy -347317.475817 kJ/mol
# GULP energy per Si atom -12404.195565 kJ/mol
# Density = 1.964772 g / cm^3
# Si number density = 19.692541 Si / 1000 Ang^3
#
#
#
# Elastic Constant Matrix: (Units=GPa)
#
#
# Indices 1 2 3 4 5 6 
#
# 1 100.5126 36.6818 47.7866 0.0000 -14.3901 0.0000
# 2 36.6818 115.9115 50.4127 0.0000 2.2519 0.0000
# 3 47.7866 50.4127 111.7036 0.0000 -12.0949 0.0000
# 4 0.0000 0.0000 0.0000 -42.7234 0.0000 17.2398
# 5 -14.3901 2.2519 -12.0949 0.0000 32.2359 0.0000
# 6 0.0000 0.0000 0.0000 17.2398 0.0000 22.6210
#
#
#
# Elastic Compliance Matrix: (Units=1/GPa)
#
#
# Indices 1 2 3 4 5 6 
#
# 1 0.013514 -0.002579 -0.004111 0.000000 0.004670 0.000000
# 2 -0.002579 0.011453 -0.004458 0.000000 -0.003624 0.000000
# 3 -0.004111 -0.004458 0.013090 0.000000 0.003387 0.000000
# 4 0.000000 0.000000 0.000000 -0.017901 0.000000 0.013643
# 5 0.004670 -0.003624 0.003387 0.000000 0.034630 0.000000
# 6 0.000000 0.000000 0.000000 0.013643 0.000000 0.033809
#
#
# Mechanical properties :
#
#
# Convention : Reuss Voigt Hill
#
# Bulk Modulus (GPa) = 63.45441 66.43220 64.94330
# Shear Modulus (GPa) = 43.05013 15.30981 29.17997
#
# Velocity S-wave (km/s) = 4.68066 2.79129 3.85356
# Velocity P-wave (km/s) = 7.84245 6.64803 7.26981
#
# Compressibility (1/GPa) = 0.01575935
#
# Stress axis : x y z
#
# Youngs Moduli (GPa) = 73.99993 87.31616 76.39599
#
# Poissons Ratio (x) = 0.22520 0.31410
# Poissons Ratio (y) = 0.19085 0.34055
# Poissons Ratio (z) = 0.30425 0.38923
#
# Static dielectric constant tensor:
#      x y z
#    x 3.867210 0.000000 -0.106330 
#    y 0.000000 3.527340 0.000000 
#    z -0.106330 0.000000 3.534760 
# 
# 
# High freq. dielectric constant tensor:
#      x y z
#    x 1.783780 0.000000 -0.006840 
#    y 0.000000 1.765800 0.000000 
#    z -0.006840 0.000000 1.758160 
# 
# From -- ./inp_files/125883.got.cif
#   From: 2010.06.25/outbox.cif.g09.slc.cpg/sg12_63_cif.got.tgz:125883.got - 2010.06.28 00:19:55.
