data_PCOD8112256
_publ_section_title
;
Structure prediction by ZEFSAII (Michael W. Deem and Ramdas Pophale) SiO2 
 PCOD8112256
Probable space group: C 2/M
;
_chemical_formula_sum "Si O2"
_cell_formula_units_Z 48
_cell_length_a 14.177648
_cell_length_b 25.065128
_cell_length_c 10.517968
_cell_angle_alpha 90.000000
_cell_angle_beta 35.397622
_cell_angle_gamma 90.000000
_cell_volume 2165.060368
_symmetry_space_group_name_H-M "C 2/M"
_symmetry_group_IT_number 12
_symmetry_cell_setting 'monoclinic'
loop_
_space_group_symop_operation_xyz
x,y,z
-x,y,-z
-x,-y,-z
x,-y,z
1/2+x,1/2+y,z
1/2-x,1/2+y,-z
1/2-x,1/2-y,-z
1/2+x,1/2-y,z
loop_
_atom_site_type_symbol
_atom_site_label
_atom_site_fract_x
_atom_site_fract_y
_atom_site_fract_z
Si Si1 0.713288 0.500000 0.031111
Si Si2 0.000000 0.239924 0.500000
Si Si3 0.403890 0.900242 0.739041
Si Si4 0.219702 0.206242 0.927526
Si Si5 0.599840 0.500000 0.764788
Si Si6 0.787683 0.588064 0.444300
Si Si7 0.690129 0.000000 0.784139
Si Si8 0.622090 0.297814 0.622377
O O1 0.788914 0.450996 0.871376
O O2 0.519328 0.500000 0.226407
O O3 0.734936 0.500000 0.158517
O O4 0.834313 0.276061 0.683148
O O5 0.977188 0.204069 0.400959
O O6 0.500000 0.895811 0.500000
O O7 0.285207 0.851030 0.897779
O O8 0.524191 0.903987 0.727545
O O9 0.250000 0.250000 0.000000
O O10 0.024599 0.204187 0.111060
O O11 0.709312 0.553261 0.643801
O O12 0.500000 0.500000 0.000000
O O13 0.760468 0.554341 0.344681
O O14 0.710773 0.646141 0.525106
O O15 0.500000 0.000000 0.000000
O O16 0.750000 0.250000 0.500000
#
# Coordination Sequence:
#
# PCOD8112256 Si02
#       8
#     4   4   8   8   4   8   4   8
#     4  12  24  42  70 101 133 190 225 285 357 406
#     4  10  22  46  64  94 136 178 224 278 338 406
#     4  12  23  41  69  98 139 179 232 289 348 413
#     4  10  22  42  67  95 134 179 226 275 341 409
#     4  11  24  44  66 103 141 173 233 282 348 419
#     4  11  24  43  68  99 138 179 229 287 343 414
#     4  11  23  47  66  96 140 177 238 284 340 421
#     4  11  25  44  66 101 137 174 229 279 341 411
#
# _framework density 22.170282
#
# number of rings (size 3 to 8) (size 9 to 14) (size 15 to 20)
#    0.000    1.000    2.500    4.750    0.000    6.000 
#    3.000    0.000    0.000    0.000    0.000    0.000 
#    0.000    0.000    0.000    0.000    0.000    0.000 
#
# Total GULP energy -297461.014636 kJ/mol
# GULP energy per Si atom -12394.208943 kJ/mol
# Density = 2.211982 g / cm^3
# Si number density = 22.170282 Si / 1000 Ang^3
#
#
#
# Elastic Constant Matrix: (Units=GPa)
#
#
# Indices 1 2 3 4 5 6 
#
# 1 69.0538 18.7672 13.5212 0.0000 -1.7187 -0.0001
# 2 18.7672 195.6642 60.8966 0.0000 -8.8047 0.0000
# 3 13.5212 60.8966 136.2131 -0.0001 -16.2690 -0.0001
# 4 0.0000 0.0000 -0.0001 21.1532 0.0000 -8.2817
# 5 -1.7187 -8.8047 -16.2690 0.0000 44.5545 0.0000
# 6 -0.0001 0.0000 -0.0001 -8.2817 0.0000 26.5083
#
#
#
# Elastic Compliance Matrix: (Units=1/GPa)
#
#
# Indices 1 2 3 4 5 6 
#
# 1 0.014981 -0.001132 -0.000982 0.000000 -0.000004 0.000000
# 2 -0.001132 0.006024 -0.002555 0.000000 0.000214 0.000000
# 3 -0.000982 -0.002555 0.008905 0.000000 0.002709 0.000000
# 4 0.000000 0.000000 0.000000 0.053862 0.000000 0.016828
# 5 -0.000004 0.000214 0.002709 0.000000 0.023476 0.000000
# 6 0.000000 0.000000 0.000000 0.016828 0.000000 0.042981
#
#
# Mechanical properties :
#
#
# Convention : Reuss Voigt Hill
#
# Bulk Modulus (GPa) = 48.60768 65.25567 56.93168
# Shear Modulus (GPa) = 30.04364 38.95961 34.50163
#
# Velocity S-wave (km/s) = 3.68520 4.19655 3.94916
# Velocity P-wave (km/s) = 6.33087 7.27868 6.82126
#
# Compressibility (1/GPa) = 0.02057288
#
# Stress axis : x y z
#
# Youngs Moduli (GPa) = 66.75066 165.99521 112.29832
#
# Poissons Ratio (x) = 0.18784 0.11024
# Poissons Ratio (y) = 0.07553 0.28697
# Poissons Ratio (z) = 0.06553 0.42419
#
# Static dielectric constant tensor:
#      x y z
#    x 3.625930 0.000000 -0.234120 
#    y 0.000000 4.052480 0.000000 
#    z -0.234120 0.000000 4.876410 
# 
# 
# High freq. dielectric constant tensor:
#      x y z
#    x 1.861020 0.000000 -0.009920 
#    y 0.000000 1.883010 0.000000 
#    z -0.009920 0.000000 1.896160 
# 
# From -- ./inp_files/149704.got.cif
#   From: 2010.06.25/outbox.cif.g09.slc.cpg/sg12_75_cif.got.tgz:149704.got - 2010.06.28 00:19:55.
