data_PCOD8112396
_publ_section_title
;
Structure prediction by ZEFSAII (Michael W. Deem and Ramdas Pophale) SiO2 
 PCOD8112396
Probable space group: C 2/M
;
_chemical_formula_sum "Si O2"
_cell_formula_units_Z 36
_cell_length_a 8.484545
_cell_length_b 17.792729
_cell_length_c 10.957716
_cell_angle_alpha 90.000000
_cell_angle_beta 75.497240
_cell_angle_gamma 90.000000
_cell_volume 1601.501472
_symmetry_space_group_name_H-M "C 2/M"
_symmetry_group_IT_number 12
_symmetry_cell_setting 'monoclinic'
loop_
_space_group_symop_operation_xyz
x,y,z
-x,y,-z
-x,-y,-z
x,-y,z
1/2+x,1/2+y,z
1/2-x,1/2+y,-z
1/2-x,1/2-y,-z
1/2+x,1/2-y,z
loop_
_atom_site_type_symbol
_atom_site_label
_atom_site_fract_x
_atom_site_fract_y
_atom_site_fract_z
Si Si1 0.905548 0.914005 0.400120
Si Si2 0.000000 0.811851 0.000000
Si Si3 0.326381 0.413456 0.856227
Si Si4 0.359368 0.799713 0.619739
Si Si5 0.895392 0.697129 0.224181
O O1 0.736782 0.871298 0.412426
O O2 0.000000 0.882461 0.500000
O O3 0.017483 0.903692 0.260227
O O4 0.857283 0.000000 0.432426
O O5 0.918507 0.760586 0.117950
O O6 0.140172 0.865476 0.028439
O O7 0.293611 0.500000 0.896029
O O8 0.165150 0.380853 0.822795
O O9 0.500000 0.775504 0.500000
O O10 0.240442 0.728339 0.655629
O O11 0.438285 0.819232 0.736120
#
# Coordination Sequence:
#
# PCOD8112396 Si02
#       5
#     8   4   8   8   8
#     4  10  22  43  68  98 138 178 219 272 337 401
#     4  12  23  46  71  92 138 178 228 274 329 398
#     4  11  24  44  70  98 134 180 225 272 332 402
#     4  12  24  41  68  98 136 173 226 273 336 399
#     4  12  25  42  68 101 135 175 222 281 331 390
#
# _framework density 22.478907
#
# number of rings (size 3 to 8) (size 9 to 14) (size 15 to 20)
#    0.000    0.667    4.444    3.000    0.000    3.111 
#    0.000    0.556    0.000    0.000    0.000    0.000 
#    0.000    0.000    0.000    0.000    0.000    0.000 
#
# Total GULP energy -223312.124751 kJ/mol
# GULP energy per Si atom -12406.229153 kJ/mol
# Density = 2.242774 g / cm^3
# Si number density = 22.478907 Si / 1000 Ang^3
#
#
#
# Elastic Constant Matrix: (Units=GPa)
#
#
# Indices 1 2 3 4 5 6 
#
# 1 140.0788 64.6134 43.4556 0.0000 32.0996 0.0000
# 2 64.6134 138.0130 48.4672 0.0000 8.2665 0.0000
# 3 43.4556 48.4672 93.2189 0.0000 18.3870 0.0000
# 4 0.0000 0.0000 0.0000 26.6408 0.0000 12.9703
# 5 32.0996 8.2665 18.3870 0.0000 33.2196 0.0000
# 6 0.0000 0.0000 0.0000 12.9703 0.0000 43.4421
#
#
#
# Elastic Compliance Matrix: (Units=1/GPa)
#
#
# Indices 1 2 3 4 5 6 
#
# 1 0.011809 -0.004508 -0.001270 0.000000 -0.009586 0.000000
# 2 -0.004508 0.010590 -0.004203 0.000000 0.004047 0.000000
# 3 -0.001270 -0.004203 0.014656 0.000000 -0.005839 0.000000
# 4 0.000000 0.000000 0.000000 0.043921 0.000000 -0.013113
# 5 -0.009586 0.004047 -0.005839 0.000000 0.041590 0.000000
# 6 0.000000 0.000000 0.000000 -0.013113 0.000000 0.026934
#
#
# Mechanical properties :
#
#
# Convention : Reuss Voigt Hill
#
# Bulk Modulus (GPa) = 58.50377 76.04259 67.27318
# Shear Modulus (GPa) = 28.54521 34.97879 31.76200
#
# Velocity S-wave (km/s) = 3.56738 3.94899 3.76303
# Velocity P-wave (km/s) = 6.56132 7.39557 6.99090
#
# Compressibility (1/GPa) = 0.01709291
#
# Stress axis : x y z
#
# Youngs Moduli (GPa) = 84.68013 94.43007 68.22991
#
# Poissons Ratio (x) = 0.42573 0.08666
# Poissons Ratio (y) = 0.38178 0.28674
# Poissons Ratio (z) = 0.10756 0.39685
#
# Static dielectric constant tensor:
#      x y z
#    x 4.159330 0.000000 0.295440 
#    y 0.000000 4.052570 0.000000 
#    z 0.295440 0.000000 4.203890 
# 
# 
# High freq. dielectric constant tensor:
#      x y z
#    x 1.888180 0.000000 0.017210 
#    y 0.000000 1.885120 0.000000 
#    z 0.017210 0.000000 1.895000 
# 
# From -- ./inp_files/118494.got.cif
#   From: 2010.06.25/outbox.cif.g09.slc.cpg/sg12_60_cif.got.tgz:118494.got - 2010.06.28 00:19:55.
