data_PCOD8112177
_publ_section_title
;
Structure prediction by ZEFSAII (Michael W. Deem and Ramdas Pophale) SiO2 
 PCOD8112177
Probable space group: C 2/M
;
_chemical_formula_sum "Si O2"
_cell_formula_units_Z 64
_cell_length_a 15.354072
_cell_length_b 8.698881
_cell_length_c 33.189368
_cell_angle_alpha 90.000000
_cell_angle_beta 45.769254
_cell_angle_gamma 90.000000
_cell_volume 3176.319626
_symmetry_space_group_name_H-M "C 2/M"
_symmetry_group_IT_number 12
_symmetry_cell_setting 'monoclinic'
loop_
_space_group_symop_operation_xyz
x,y,z
-x,y,-z
-x,-y,-z
x,-y,z
1/2+x,1/2+y,z
1/2-x,1/2+y,-z
1/2-x,1/2-y,-z
1/2+x,1/2-y,z
loop_
_atom_site_type_symbol
_atom_site_label
_atom_site_fract_x
_atom_site_fract_y
_atom_site_fract_z
Si Si1 0.875314 0.680132 0.063426
Si Si2 0.193810 0.317404 0.058573
Si Si3 0.555243 0.180811 0.440142
Si Si4 0.631907 0.679255 0.557696
Si Si5 0.470127 0.175551 0.334594
Si Si6 0.718378 0.824645 0.667974
Si Si7 0.258009 0.179466 0.739968
Si Si8 0.934343 0.819543 0.129637
O O1 0.852953 0.500000 0.077118
O O2 0.762892 0.749833 0.074956
O O3 0.883765 0.763879 0.103291
O O4 0.000000 0.712090 0.000000
O O5 0.207194 0.500000 0.053825
O O6 0.053110 0.271775 0.105526
O O7 0.250000 0.250000 0.000000
O O8 0.500000 0.241825 0.500000
O O9 0.488452 0.262170 0.425056
O O10 0.695184 0.225920 0.389480
O O11 0.537153 0.000000 0.442604
O O12 0.645746 0.500000 0.549153
O O13 0.750000 0.750000 0.500000
O O14 0.618195 0.725249 0.608537
O O15 0.417492 0.189876 0.306349
O O16 0.607920 0.237428 0.290673
O O17 0.466044 0.000000 0.351129
O O18 0.712660 0.765930 0.715121
O O19 0.764129 0.000000 0.652783
O O20 0.169084 0.220117 0.804934
O O21 0.258430 0.000000 0.730034
O O22 0.964171 0.000000 0.117822
#
# Coordination Sequence:
#
# PCOD8112177 Si02
#       8
#     8   8   8   8   8   8   8   8
#     4  11  23  40  65  97 133 173 216 267 325 385
#     4  12  24  40  65  96 132 174 217 269 326 387
#     4  11  23  39  60  88 124 164 206 258 319 381
#     4  12  24  38  60  91 124 161 206 258 317 381
#     4  10  22  42  65  90 126 166 207 259 317 376
#     4  11  23  39  64  95 125 165 212 262 316 377
#     4  10  23  44  67  91 128 174 215 262 316 377
#     4  11  24  42  66  98 133 174 221 267 321 384
#
# _framework density 20.149104999999999
#
# number of rings (size 3 to 8) (size 9 to 14) (size 15 to 20)
#    0.000    1.000    2.500    4.500    0.000    6.500 
#    0.000    1.250    0.000    0.000    0.000    0.000 
#    0.000    0.000    0.000    0.000    0.000    0.000 
#
# Total GULP energy -396947.189606 kJ/mol
# GULP energy per Si atom -12404.599675 kJ/mol
# Density = 2.010325 g / cm^3
# Si number density = 20.149105 Si / 1000 Ang^3
#
#
#
# Elastic Constant Matrix: (Units=GPa)
#
#
# Indices 1 2 3 4 5 6 
#
# 1 140.0121 29.4960 52.2835 0.0010 6.9590 0.0034
# 2 29.4960 87.2925 41.6450 0.0023 4.0494 0.0042
# 3 52.2835 41.6450 119.9259 0.0005 3.9758 0.0005
# 4 0.0010 0.0023 0.0005 28.7599 0.0004 4.1701
# 5 6.9590 4.0494 3.9758 0.0004 33.6811 0.0013
# 6 0.0034 0.0042 0.0005 4.1701 0.0013 34.5516
#
#
#
# Elastic Compliance Matrix: (Units=1/GPa)
#
#
# Indices 1 2 3 4 5 6 
#
# 1 0.008714 -0.001311 -0.003302 0.000000 -0.001253 -0.000001
# 2 -0.001311 0.013968 -0.004249 -0.000001 -0.000907 -0.000001
# 3 -0.003302 -0.004249 0.011258 0.000000 -0.000136 0.000001
# 4 0.000000 -0.000001 0.000000 0.035390 0.000000 -0.004271
# 5 -0.001253 -0.000907 -0.000136 0.000000 0.030074 -0.000001
# 6 -0.000001 -0.000001 0.000001 -0.004271 -0.000001 0.029458
#
#
# Mechanical properties :
#
#
# Convention : Reuss Voigt Hill
#
# Bulk Modulus (GPa) = 61.66801 66.00883 63.83842
# Shear Modulus (GPa) = 32.89683 34.31893 33.60788
#
# Velocity S-wave (km/s) = 4.04501 4.13152 4.08850
# Velocity P-wave (km/s) = 7.24489 7.45591 7.35116
#
# Compressibility (1/GPa) = 0.01621586
#
# Stress axis : x y z
#
# Youngs Moduli (GPa) = 114.76094 71.59347 88.82546
#
# Poissons Ratio (x) = 0.09385 0.29331
# Poissons Ratio (y) = 0.15044 0.37740
# Poissons Ratio (z) = 0.37896 0.30419
#
# Static dielectric constant tensor:
#      x y z
#    x 3.918930 0.000000 -0.110450 
#    y 0.000000 3.741280 0.000000 
#    z -0.110450 0.000000 3.564320 
# 
# 
# High freq. dielectric constant tensor:
#      x y z
#    x 1.804580 0.000000 0.001150 
#    y 0.000000 1.794950 0.000000 
#    z 0.001150 0.000000 1.783240 
# 
# From -- ./inp_files/375514.got.cif
#   From: 2010.06.25/outbox.cif.g09.slc.cpg/sg12_188_cif.got.tgz:375514.got - 2010.06.28 00:19:55.
