data_PCOD8112930
_publ_section_title
;
Structure prediction by ZEFSAII (Michael W. Deem and Ramdas Pophale) SiO2 
 PCOD8112930
Probable space group: C 2/M
;
_chemical_formula_sum "Si O2"
_cell_formula_units_Z 48
_cell_length_a 14.001968
_cell_length_b 26.918446
_cell_length_c 9.024063
_cell_angle_alpha 90.000000
_cell_angle_beta 40.502316
_cell_angle_gamma 90.000000
_cell_volume 2209.053090
_symmetry_space_group_name_H-M "C 2/M"
_symmetry_group_IT_number 12
_symmetry_cell_setting 'monoclinic'
loop_
_space_group_symop_operation_xyz
x,y,z
-x,y,-z
-x,-y,-z
x,-y,z
1/2+x,1/2+y,z
1/2-x,1/2+y,-z
1/2-x,1/2-y,-z
1/2+x,1/2-y,z
loop_
_atom_site_type_symbol
_atom_site_label
_atom_site_fract_x
_atom_site_fract_y
_atom_site_fract_z
Si Si1 0.608848 0.383342 0.002645
Si Si2 0.077163 0.054266 0.562217
Si Si3 0.848104 0.398119 0.105322
Si Si4 0.652490 0.202364 0.249721
Si Si5 0.636345 0.942563 0.239045
Si Si6 0.856630 0.715337 0.075230
O O1 0.504867 0.400925 0.258503
O O2 0.500000 0.368250 0.000000
O O3 0.717880 0.338387 0.914604
O O4 0.716921 0.429964 0.838274
O O5 0.242074 0.069801 0.332523
O O6 0.000000 0.046198 0.500000
O O7 0.076302 0.000000 0.646298
O O8 0.806829 0.340347 0.172674
O O9 0.853281 0.411748 0.925565
O O10 0.000000 0.410817 0.000000
O O11 0.500000 0.182018 0.500000
O O12 0.719107 0.247728 0.269457
O O13 0.605605 0.220872 0.142742
O O14 0.500000 0.925660 0.500000
O O15 0.629131 0.000000 0.206787
O O16 0.000000 0.731286 0.000000
#
# Coordination Sequence:
#
# PCOD8112930 Si02
#       6
#     8   8   8   8   8   8
#     4  12  26  42  65  96 134 175 227 271 335 394
#     4  11  23  42  66  91 131 177 223 279 326 388
#     4  11  24  42  68  98 133 172 223 271 334 396
#     4  11  24  44  70  97 136 174 220 276 335 395
#     4  11  24  43  66  94 133 175 222 276 330 395
#     4  10  23  42  67 100 132 170 218 272 332 401
#
# _framework density 21.728767000000001
#
# number of rings (size 3 to 8) (size 9 to 14) (size 15 to 20)
#    0.000    1.000    3.333    2.000    2.333    8.000 
#    0.000    0.000    0.000    0.000    0.000    0.000 
#    0.000    0.000    0.000    0.000    0.000    0.000 
#
# Total GULP energy -297435.325602 kJ/mol
# GULP energy per Si atom -12393.138567 kJ/mol
# Density = 2.167931 g / cm^3
# Si number density = 21.728767 Si / 1000 Ang^3
#
#
#
# Elastic Constant Matrix: (Units=GPa)
#
#
# Indices 1 2 3 4 5 6 
#
# 1 140.5251 53.2546 50.1012 0.0000 -20.0819 0.0000
# 2 53.2546 116.4399 57.3034 0.0000 -17.7542 0.0000
# 3 50.1012 57.3034 136.9075 0.0000 -24.2816 0.0000
# 4 0.0000 0.0000 0.0000 34.0900 0.0000 -9.7173
# 5 -20.0819 -17.7542 -24.2816 0.0000 29.5916 0.0000
# 6 0.0000 0.0000 0.0000 -9.7173 0.0000 27.7538
#
#
#
# Elastic Compliance Matrix: (Units=1/GPa)
#
#
# Indices 1 2 3 4 5 6 
#
# 1 0.009263 -0.002971 -0.001577 0.000000 0.003210 0.000000
# 2 -0.002971 0.012042 -0.003545 0.000000 0.002300 0.000000
# 3 -0.001577 -0.003545 0.010297 0.000000 0.005252 0.000000
# 4 0.000000 0.000000 0.000000 0.032586 0.000000 0.011409
# 5 0.003210 0.002300 0.005252 0.000000 0.041661 0.000000
# 6 0.000000 0.000000 0.000000 0.011409 0.000000 0.040026
#
#
# Mechanical properties :
#
#
# Convention : Reuss Voigt Hill
#
# Bulk Modulus (GPa) = 64.87023 79.46564 72.16794
# Shear Modulus (GPa) = 29.90438 33.83464 31.86951
#
# Velocity S-wave (km/s) = 3.71382 3.95034 3.83390
# Velocity P-wave (km/s) = 6.95049 7.58010 7.27211
#
# Compressibility (1/GPa) = 0.01541539
#
# Stress axis : x y z
#
# Youngs Moduli (GPa) = 107.95619 83.04049 97.11929
#
# Poissons Ratio (x) = 0.24672 0.15316
# Poissons Ratio (y) = 0.32074 0.34431
# Poissons Ratio (z) = 0.17025 0.29440
#
# Static dielectric constant tensor:
#      x y z
#    x 4.133400 0.000000 -0.232240 
#    y 0.000000 4.143550 0.000000 
#    z -0.232240 0.000000 3.809190 
# 
# 
# High freq. dielectric constant tensor:
#      x y z
#    x 1.859730 0.000000 -0.016560 
#    y 0.000000 1.868430 0.000000 
#    z -0.016560 0.000000 1.844360 
# 
# From -- ./inp_files/67301.got.cif
#   From: 2010.06.25/outbox.cif.g09.slc.cpg/sg12_34_cif.got.tgz:67301.got - 2010.06.28 00:19:55.
