data_PCOD8112263
_publ_section_title
;
Structure prediction by ZEFSAII (Michael W. Deem and Ramdas Pophale) SiO2 
 PCOD8112263
Probable space group: C 2/M
;
_chemical_formula_sum "Si O2"
_cell_formula_units_Z 40
_cell_length_a 7.336692
_cell_length_b 23.287491
_cell_length_c 8.391471
_cell_angle_alpha 90.000000
_cell_angle_beta 93.131693
_cell_angle_gamma 90.000000
_cell_volume 1431.568149
_symmetry_space_group_name_H-M "C 2/M"
_symmetry_group_IT_number 12
_symmetry_cell_setting 'monoclinic'
loop_
_space_group_symop_operation_xyz
x,y,z
-x,y,-z
-x,-y,-z
x,-y,z
1/2+x,1/2+y,z
1/2-x,1/2+y,-z
1/2-x,1/2-y,-z
1/2+x,1/2-y,z
loop_
_atom_site_type_symbol
_atom_site_label
_atom_site_fract_x
_atom_site_fract_y
_atom_site_fract_z
Si Si1 0.171845 0.937333 0.627439
Si Si2 0.978168 0.339223 0.817849
Si Si3 0.816953 0.757422 0.322067
Si Si4 0.345067 0.934085 0.321034
Si Si5 0.521374 0.352660 0.188228
O O1 0.341692 0.931041 0.512904
O O2 0.160476 0.888273 0.762426
O O3 0.000000 0.932253 0.500000
O O4 0.175825 0.000000 0.709993
O O5 0.810436 0.297527 0.787625
O O6 0.158716 0.305612 0.754802
O O7 0.968884 0.401436 0.728740
O O8 0.000000 0.352902 0.000000
O O9 0.750000 0.750000 0.500000
O O10 0.012930 0.793387 0.300138
O O11 0.186475 0.896928 0.226685
O O12 0.339743 0.000000 0.260304
O O13 0.500000 0.337324 0.000000
#
# Coordination Sequence:
#
# PCOD8112263 Si02
#       5
#     8   8   8   8   8
#     4   8  16  32  55  84 122 169 216 258 307 377
#     4  12  25  45  69  98 137 178 229 288 347 404
#     4  12  26  44  69  99 133 177 230 286 346 413
#     4  10  22  42  67  96 136 185 229 271 328 403
#     4  11  21  38  65 101 136 172 223 280 339 399
#
# _framework density 27.941388
#
# number of rings (size 3 to 8) (size 9 to 14) (size 15 to 20)
#    0.000    1.400    0.000    7.200    0.000    5.200 
#    0.000    2.000    0.000    4.800    0.000    0.000 
#    0.000    0.000    0.000    0.000    0.000    0.000 
#
# Total GULP energy -247870.773067 kJ/mol
# GULP energy per Si atom -12393.538653 kJ/mol
# Density = 2.787779 g / cm^3
# Si number density = 27.941388 Si / 1000 Ang^3
#
#
#
# Elastic Constant Matrix: (Units=GPa)
#
#
# Indices 1 2 3 4 5 6 
#
# 1 55.1987 21.3687 14.2063 0.0000 -15.4766 0.0000
# 2 21.3687 234.7817 86.0040 0.0000 -6.2159 0.0000
# 3 14.2063 86.0040 181.8625 0.0000 -13.4201 0.0000
# 4 0.0000 0.0000 0.0000 42.0176 0.0000 1.7935
# 5 -15.4766 -6.2159 -13.4201 0.0000 44.0906 0.0000
# 6 0.0000 0.0000 0.0000 1.7935 0.0000 24.5424
#
#
#
# Elastic Compliance Matrix: (Units=1/GPa)
#
#
# Indices 1 2 3 4 5 6 
#
# 1 0.020770 -0.001572 -0.000365 0.000000 0.006958 0.000000
# 2 -0.001572 0.005271 -0.002410 0.000000 -0.000542 0.000000
# 3 -0.000365 -0.002410 0.006785 0.000000 0.001597 0.000000
# 4 0.000000 0.000000 0.000000 0.023874 0.000000 -0.001745
# 5 0.006958 -0.000542 0.001597 0.000000 0.025533 0.000000
# 6 0.000000 0.000000 0.000000 -0.001745 0.000000 0.040873
#
#
# Mechanical properties :
#
#
# Convention : Reuss Voigt Hill
#
# Bulk Modulus (GPa) = 41.44181 79.44455 60.44318
# Shear Modulus (GPa) = 35.75422 45.48104 40.61763
#
# Velocity S-wave (km/s) = 3.58105 4.03889 3.81684
# Velocity P-wave (km/s) = 5.65354 7.08833 6.41120
#
# Compressibility (1/GPa) = 0.02413022
#
# Stress axis : x y z
#
# Youngs Moduli (GPa) = 48.14660 189.72616 147.39133
#
# Poissons Ratio (x) = 0.29830 0.05387
# Poissons Ratio (y) = 0.07570 0.35518
# Poissons Ratio (z) = 0.01760 0.45720
#
# Static dielectric constant tensor:
#      x y z
#    x 6.125850 0.000000 -1.238220 
#    y 0.000000 5.962920 0.000000 
#    z -1.238220 0.000000 4.822490 
# 
# 
# High freq. dielectric constant tensor:
#      x y z
#    x 2.201760 0.000000 -0.020280 
#    y 0.000000 2.159570 0.000000 
#    z -0.020280 0.000000 2.101790 
# 
# From -- ./inp_files/39148.got.cif
#   From: 2010.06.25/outbox.cif.g09.slc.cpg/sg12_20_cif.got.tgz:39148.got - 2010.06.28 00:19:55.
