data_PCOD8112832
_publ_section_title
;
Structure prediction by ZEFSAII (Michael W. Deem and Ramdas Pophale) SiO2 
 PCOD8112832
Probable space group: C 2/M
;
_chemical_formula_sum "Si O2"
_cell_formula_units_Z 56
_cell_length_a 10.941836
_cell_length_b 17.752178
_cell_length_c 14.506401
_cell_angle_alpha 90.000000
_cell_angle_beta 70.115396
_cell_angle_gamma 90.000000
_cell_volume 2649.748792
_symmetry_space_group_name_H-M "C 2/M"
_symmetry_group_IT_number 12
_symmetry_cell_setting 'monoclinic'
loop_
_space_group_symop_operation_xyz
x,y,z
-x,y,-z
-x,-y,-z
x,-y,z
1/2+x,1/2+y,z
1/2-x,1/2+y,-z
1/2-x,1/2-y,-z
1/2+x,1/2-y,z
loop_
_atom_site_type_symbol
_atom_site_label
_atom_site_fract_x
_atom_site_fract_y
_atom_site_fract_z
Si Si1 0.606109 0.089471 0.547210
Si Si2 0.984320 0.665937 0.245775
Si Si3 0.900647 0.911355 0.448234
Si Si4 0.367367 0.825554 0.084613
Si Si5 0.153072 0.912809 0.055689
Si Si6 0.539127 0.662315 0.753612
Si Si7 0.272661 0.334651 0.137985
O O1 0.500000 0.120065 0.500000
O O2 0.564295 0.115973 0.658151
O O3 0.752875 0.121327 0.492216
O O4 0.607733 0.000000 0.543920
O O5 0.886421 0.652947 0.186364
O O6 0.991214 0.753483 0.273167
O O7 0.125096 0.637257 0.177303
O O8 0.960410 0.891923 0.333942
O O9 0.000000 0.877869 0.500000
O O10 0.894087 0.000000 0.461840
O O11 0.300539 0.895308 0.049757
O O12 0.278996 0.750848 0.099730
O O13 0.500000 0.805121 0.000000
O O14 0.066018 0.863547 0.145570
O O15 0.118457 0.000000 0.074107
O O16 0.141395 0.888099 0.951595
O O17 0.676687 0.658892 0.770516
#
# Coordination Sequence:
#
# PCOD8112832 Si02
#       7
#     8   8   8   8   8   8   8
#     4  10  23  43  65  92 126 166 212 267 325 380
#     4  11  23  39  67  94 123 166 210 259 321 376
#     4  10  23  42  63  89 127 170 210 263 325 380
#     4  11  22  41  64  89 129 170 208 256 314 373
#     4  12  25  40  63  93 128 169 214 259 311 378
#     4  11  24  40  65  93 125 164 213 264 313 375
#     4  11  22  42  64  91 128 168 206 258 316 373
#
# _framework density 21.134079
#
# number of rings (size 3 to 8) (size 9 to 14) (size 15 to 20)
#    0.000    1.143    2.857    3.857    2.000    4.286 
#    0.000    0.000    0.000    0.000    0.000    0.000 
#    0.000    0.000    0.000    0.000    0.000    0.000 
#
# Total GULP energy -347244.122485 kJ/mol
# GULP energy per Si atom -12401.575803 kJ/mol
# Density = 2.108598 g / cm^3
# Si number density = 21.134079 Si / 1000 Ang^3
#
#
#
# Elastic Constant Matrix: (Units=GPa)
#
#
# Indices 1 2 3 4 5 6 
#
# 1 94.0832 10.8710 34.6723 0.0000 4.5871 0.0000
# 2 10.8710 22.3840 -6.0925 0.0000 8.2319 0.0000
# 3 34.6723 -6.0925 112.2635 0.0000 8.5614 0.0000
# 4 0.0000 0.0000 0.0000 37.7649 0.0000 2.7335
# 5 4.5871 8.2319 8.5614 0.0000 39.4636 0.0000
# 6 0.0000 0.0000 0.0000 2.7335 0.0000 18.9560
#
#
#
# Elastic Compliance Matrix: (Units=1/GPa)
#
#
# Indices 1 2 3 4 5 6 
#
# 1 0.013205 -0.008090 -0.004605 0.000000 0.001152 0.000000
# 2 -0.008090 0.054696 0.006371 0.000000 -0.011851 0.000000
# 3 -0.004605 0.006371 0.010917 0.000000 -0.003162 0.000000
# 4 0.000000 0.000000 0.000000 0.026759 0.000000 -0.003859
# 5 0.001152 -0.011851 -0.003162 0.000000 0.028364 0.000000
# 6 0.000000 0.000000 0.000000 -0.003859 0.000000 0.053310
#
#
# Mechanical properties :
#
#
# Convention : Reuss Voigt Hill
#
# Bulk Modulus (GPa) = 15.11286 34.18137 24.64712
# Shear Modulus (GPa) = 22.52705 31.85556 27.19130
#
# Velocity S-wave (km/s) = 3.26837 3.88662 3.59082
# Velocity P-wave (km/s) = 4.62704 6.02908 5.37398
#
# Compressibility (1/GPa) = 0.06616882
#
# Stress axis : x y z
#
# Youngs Moduli (GPa) = 75.73122 18.28285 91.60236
#
# Poissons Ratio (x) = 0.14791 0.42184
# Poissons Ratio (y) = 0.61266 -0.58357
# Poissons Ratio (z) = 0.34875 -0.11647
#
# Static dielectric constant tensor:
#      x y z
#    x 4.298250 0.000000 0.097210 
#    y 0.000000 3.507050 0.000000 
#    z 0.097210 0.000000 3.722380 
# 
# 
# High freq. dielectric constant tensor:
#      x y z
#    x 1.846890 0.000000 0.003730 
#    y 0.000000 1.804380 0.000000 
#    z 0.003730 0.000000 1.833610 
# 
# From -- ./inp_files/206571.got.cif
#   From: 2010.06.25/outbox.cif.g09.slc.cpg/sg12_104_cif.got.tgz:206571.got - 2010.06.28 00:19:55.
