data_PCOD8112519
_publ_section_title
;
Structure prediction by ZEFSAII (Michael W. Deem and Ramdas Pophale) SiO2 
 PCOD8112519
Probable space group: C 2/M
;
_chemical_formula_sum "Si O2"
_cell_formula_units_Z 52
_cell_length_a 22.316542
_cell_length_b 17.350794
_cell_length_c 9.582229
_cell_angle_alpha 90.000000
_cell_angle_beta 40.320009
_cell_angle_gamma 90.000000
_cell_volume 2400.793038
_symmetry_space_group_name_H-M "C 2/M"
_symmetry_group_IT_number 12
_symmetry_cell_setting 'monoclinic'
loop_
_space_group_symop_operation_xyz
x,y,z
-x,y,-z
-x,-y,-z
x,-y,z
1/2+x,1/2+y,z
1/2-x,1/2+y,-z
1/2-x,1/2-y,-z
1/2+x,1/2-y,z
loop_
_atom_site_type_symbol
_atom_site_label
_atom_site_fract_x
_atom_site_fract_y
_atom_site_fract_z
Si Si1 0.000000 0.704575 0.000000
Si Si2 0.777526 0.835798 0.981136
Si Si3 0.827899 0.912729 0.352599
Si Si4 0.622428 0.914108 0.649374
Si Si5 0.091234 0.340884 0.430721
Si Si6 0.065512 0.162707 0.073125
Si Si7 0.620281 0.333768 0.469163
O O1 0.970962 0.754510 0.916807
O O2 0.087723 0.649639 0.819181
O O3 0.842443 0.833528 0.000431
O O4 0.831147 0.873107 0.752758
O O5 0.750000 0.750000 0.000000
O O6 0.678853 0.876543 0.188700
O O7 0.732660 0.904895 0.437008
O O8 0.821534 0.854845 0.495692
O O9 0.844212 0.000000 0.375798
O O10 0.912891 0.889741 0.100218
O O11 0.572998 0.900045 0.588439
O O12 0.596844 0.000000 0.747105
O O13 0.116969 0.257767 0.449976
O O14 0.000000 0.333383 0.500000
O O15 0.982703 0.130805 0.319323
#
# Coordination Sequence:
#
# PCOD8112519 Si02
#       7
#     4   8   8   8   8   8   8
#     4  12  25  38  69 102 126 166 230 280 337 378
#     4  10  23  37  64  95 134 169 215 282 327 384
#     4  11  25  44  66  96 138 182 219 265 333 403
#     4  11  25  43  64  94 136 178 221 272 333 400
#     4  11  22  41  67  97 129 172 229 280 328 390
#     4  12  21  41  67 101 129 172 221 276 330 396
#     4  11  22  39  64 102 130 167 224 273 331 389
#
# _framework density 21.659509
#
# number of rings (size 3 to 8) (size 9 to 14) (size 15 to 20)
#    0.000    0.923    4.615    2.538    4.308    2.769 
#    0.000    1.538    0.000    4.154    0.000    0.000 
#    0.000    0.000    0.000    0.000    0.000    0.000 
#
# Total GULP energy -322243.351076 kJ/mol
# GULP energy per Si atom -12393.975041 kJ/mol
# Density = 2.161021 g / cm^3
# Si number density = 21.659509 Si / 1000 Ang^3
#
#
#
# Elastic Constant Matrix: (Units=GPa)
#
#
# Indices 1 2 3 4 5 6 
#
# 1 125.6757 47.7977 46.9772 0.0000 5.3883 0.0000
# 2 47.7977 70.4404 37.0599 0.0000 -6.3228 0.0000
# 3 46.9772 37.0599 158.7040 0.0000 -2.2260 0.0000
# 4 0.0000 0.0000 0.0000 20.9387 0.0000 -2.7603
# 5 5.3883 -6.3228 -2.2260 0.0000 34.0390 0.0000
# 6 0.0000 0.0000 0.0000 -2.7603 0.0000 19.8594
#
#
#
# Elastic Compliance Matrix: (Units=1/GPa)
#
#
# Indices 1 2 3 4 5 6 
#
# 1 0.011479 -0.007148 -0.001774 0.000000 -0.003261 0.000000
# 2 -0.007148 0.020900 -0.002697 0.000000 0.004837 0.000000
# 3 -0.001774 -0.002697 0.007460 0.000000 0.000268 0.000000
# 4 0.000000 0.000000 0.000000 0.048650 0.000000 0.006762
# 5 -0.003261 0.004837 0.000268 0.000000 0.030810 0.000000
# 6 0.000000 0.000000 0.000000 0.006762 0.000000 0.051294
#
#
# Mechanical properties :
#
#
# Convention : Reuss Voigt Hill
#
# Bulk Modulus (GPa) = 60.24117 68.72106 64.48112
# Shear Modulus (GPa) = 25.07980 29.83310 27.45645
#
# Velocity S-wave (km/s) = 3.40650 3.71532 3.56426
# Velocity P-wave (km/s) = 6.58373 7.08530 6.83912
#
# Compressibility (1/GPa) = 0.01659994
#
# Stress axis : x y z
#
# Youngs Moduli (GPa) = 87.11852 47.84748 134.05345
#
# Poissons Ratio (x) = 0.34202 0.23785
# Poissons Ratio (y) = 0.62273 0.36150
# Poissons Ratio (z) = 0.15457 0.12903
#
# Static dielectric constant tensor:
#      x y z
#    x 3.787090 0.000000 -0.022370 
#    y 0.000000 3.586060 0.000000 
#    z -0.022370 0.000000 4.989470 
# 
# 
# High freq. dielectric constant tensor:
#      x y z
#    x 1.850760 0.000000 -0.005480 
#    y 0.000000 1.812240 0.000000 
#    z -0.005480 0.000000 1.874530 
# 
# From -- ./inp_files/88363.got.cif
#   From: 2010.06.25/outbox.cif.g09.slc.cpg/sg12_45_cif.got.tgz:88363.got - 2010.06.28 00:19:55.
