data_PCOD8112104
_publ_section_title
;
Structure prediction by ZEFSAII (Michael W. Deem and Ramdas Pophale) SiO2 
 PCOD8112104
Probable space group: C 2/M
;
_chemical_formula_sum "Si O2"
_cell_formula_units_Z 48
_cell_length_a 8.408978
_cell_length_b 27.657826
_cell_length_c 16.877938
_cell_angle_alpha 90.000000
_cell_angle_beta 32.296301
_cell_angle_gamma 90.000000
_cell_volume 2097.316685
_symmetry_space_group_name_H-M "C 2/M"
_symmetry_group_IT_number 12
_symmetry_cell_setting 'monoclinic'
loop_
_space_group_symop_operation_xyz
x,y,z
-x,y,-z
-x,-y,-z
x,-y,z
1/2+x,1/2+y,z
1/2-x,1/2+y,-z
1/2-x,1/2-y,-z
1/2+x,1/2-y,z
loop_
_atom_site_type_symbol
_atom_site_label
_atom_site_fract_x
_atom_site_fract_y
_atom_site_fract_z
Si Si1 0.068693 0.554567 0.062936
Si Si2 0.662691 0.198160 0.799455
Si Si3 0.518433 0.445985 0.586387
Si Si4 0.041600 0.299382 0.293059
Si Si5 0.414774 0.646619 0.947142
Si Si6 0.757389 0.850366 0.452225
O O1 0.185547 0.500000 0.025145
O O2 0.793722 0.564308 0.237939
O O3 0.336338 0.590180 0.974047
O O4 0.000000 0.564160 0.000000
O O5 0.770386 0.250299 0.781786
O O6 0.606057 0.194492 0.729778
O O7 0.913859 0.159666 0.720989
O O8 0.356285 0.180692 0.970737
O O9 0.500000 0.441002 0.500000
O O10 0.630001 0.500000 0.562196
O O11 0.757856 0.406103 0.512856
O O12 0.274066 0.341127 0.226616
O O13 0.772983 0.308458 0.467388
O O14 0.500000 0.662137 0.000000
O O15 0.500000 0.839703 0.500000
#
# Coordination Sequence:
#
# PCOD8112104 Si02
#       6
#     8   8   8   8   8   8
#     4  10  22  41  68  98 133 174 218 271 330 390
#     4  11  22  43  62  91 130 171 218 273 328 397
#     4  10  22  43  70  97 131 177 220 269 332 397
#     4  11  24  39  64  93 127 169 221 273 329 395
#     4  10  23  40  65  94 127 172 218 268 329 394
#     4  12  25  40  64  95 128 172 219 273 332 390
#
# _framework density 22.886386000000002
#
# number of rings (size 3 to 8) (size 9 to 14) (size 15 to 20)
#    0.000    1.333    1.667    3.500    4.667    2.000 
#    0.000    0.833    0.000    0.000    0.000    0.000 
#    0.000    0.000    0.000    0.000    0.000    0.000 
#
# Total GULP energy -297434.488171 kJ/mol
# GULP energy per Si atom -12393.103674 kJ/mol
# Density = 2.283430 g / cm^3
# Si number density = 22.886386 Si / 1000 Ang^3
#
#
#
# Elastic Constant Matrix: (Units=GPa)
#
#
# Indices 1 2 3 4 5 6 
#
# 1 84.4512 24.9129 28.3319 0.0000 -22.0789 0.0000
# 2 24.9129 133.3339 12.6393 0.0000 -20.5815 0.0000
# 3 28.3319 12.6393 67.4340 0.0000 -3.1802 0.0000
# 4 0.0000 0.0000 0.0000 33.1432 0.0000 -8.3430
# 5 -22.0789 -20.5815 -3.1802 0.0000 37.8902 0.0000
# 6 0.0000 0.0000 0.0000 -8.3430 0.0000 32.4828
#
#
#
# Elastic Compliance Matrix: (Units=1/GPa)
#
#
# Indices 1 2 3 4 5 6 
#
# 1 0.016521 -0.001183 -0.006321 0.000000 0.008454 0.000000
# 2 -0.001183 0.008392 -0.000897 0.000000 0.003794 0.000000
# 3 -0.006321 -0.000897 0.017526 0.000000 -0.002699 0.000000
# 4 0.000000 0.000000 0.000000 0.032258 0.000000 0.008285
# 5 0.008454 0.003794 -0.002699 0.000000 0.033152 0.000000
# 6 0.000000 0.000000 0.000000 0.008285 0.000000 0.032914
#
#
# Mechanical properties :
#
#
# Convention : Reuss Voigt Hill
#
# Bulk Modulus (GPa) = 39.00588 46.33190 42.66889
# Shear Modulus (GPa) = 30.10087 35.32558 32.71322
#
# Velocity S-wave (km/s) = 3.63054 3.93303 3.78481
# Velocity P-wave (km/s) = 5.88683 6.39634 6.14687
#
# Compressibility (1/GPa) = 0.02563716
#
# Stress axis : x y z
#
# Youngs Moduli (GPa) = 60.53014 119.16686 57.05893
#
# Poissons Ratio (x) = 0.14094 0.36065
# Poissons Ratio (y) = 0.07159 0.05118
# Poissons Ratio (z) = 0.38259 0.10690
#
# Static dielectric constant tensor:
#      x y z
#    x 3.930600 0.000000 -0.075170 
#    y 0.000000 4.277200 0.000000 
#    z -0.075170 0.000000 4.457050 
# 
# 
# High freq. dielectric constant tensor:
#      x y z
#    x 1.895710 0.000000 0.000420 
#    y 0.000000 1.914160 0.000000 
#    z 0.000420 0.000000 1.908710 
# 
# From -- ./inp_files/170695.got.cif
#   From: 2010.06.25/outbox.cif.g09.slc.cpg/sg12_86_cif.got.tgz:170695.got - 2010.06.28 00:19:55.
