data_PCOD8112490
_publ_section_title
;
Structure prediction by ZEFSAII (Michael W. Deem and Ramdas Pophale) SiO2 
 PCOD8112490
Probable space group: C 2/M
;
_chemical_formula_sum "Si O2"
_cell_formula_units_Z 32
_cell_length_a 5.036113
_cell_length_b 23.096219
_cell_length_c 13.298217
_cell_angle_alpha 90.000000
_cell_angle_beta 90.192924
_cell_angle_gamma 90.000000
_cell_volume 1546.775586
_symmetry_space_group_name_H-M "C 2/M"
_symmetry_group_IT_number 12
_symmetry_cell_setting 'monoclinic'
loop_
_space_group_symop_operation_xyz
x,y,z
-x,y,-z
-x,-y,-z
x,-y,z
1/2+x,1/2+y,z
1/2-x,1/2+y,-z
1/2-x,1/2-y,-z
1/2+x,1/2-y,z
loop_
_atom_site_type_symbol
_atom_site_label
_atom_site_fract_x
_atom_site_fract_y
_atom_site_fract_z
Si Si1 0.000000 0.149722 0.500000
Si Si2 0.184526 0.090245 0.239583
Si Si3 0.609225 0.287698 0.300235
Si Si4 0.191693 0.564375 0.367484
Si Si5 0.749142 0.000000 0.929473
O O1 0.132394 0.189323 0.414574
O O2 0.233657 0.109811 0.545707
O O3 0.162287 0.159558 0.222728
O O4 0.400921 0.078484 0.325749
O O5 0.259559 0.058058 0.137340
O O6 0.901226 0.066909 0.276522
O O7 0.315574 0.263497 0.280759
O O8 0.190825 0.500000 0.414074
O O9 0.500000 0.000000 0.000000
O O10 0.000000 0.000000 0.000000
#
# Coordination Sequence:
#
# PCOD8112490 Si02
#       5
#     4   8   8   8   4
#     4  10  23  34  58  92 122 173 224 250 282 328
#     4  11  23  41  62  92 122 159 201 247 319 369
#     4  11  23  40  60  84 126 172 213 253 281 340
#     4  11  20  37  57  85 132 168 200 251 297 363
#     4  12  24  42  72  97 120 143 188 262 322 388
#
# _framework density 20.688196000000001
#
# number of rings (size 3 to 8) (size 9 to 14) (size 15 to 20)
#    0.000    1.000    2.500    5.625    0.000    8.000 
#    0.000    6.250    0.000    4.500    0.000    0.000 
#    0.000    0.000    0.000    0.000    0.000    0.000 
#
# Total GULP energy -198449.662492 kJ/mol
# GULP energy per Si atom -12403.103906 kJ/mol
# Density = 2.064111 g / cm^3
# Si number density = 20.688196 Si / 1000 Ang^3
#
#
#
# Elastic Constant Matrix: (Units=GPa)
#
#
# Indices 1 2 3 4 5 6 
#
# 1 83.3292 30.9158 18.6723 0.0000 0.8011 0.0000
# 2 30.9158 148.2971 42.3305 0.0000 -5.2077 0.0000
# 3 18.6723 42.3305 91.1716 0.0000 -4.0292 0.0000
# 4 0.0000 0.0000 0.0000 23.8538 0.0000 -13.8657
# 5 0.8011 -5.2077 -4.0292 0.0000 35.6843 0.0000
# 6 0.0000 0.0000 0.0000 -13.8657 0.0000 31.1158
#
#
#
# Elastic Compliance Matrix: (Units=1/GPa)
#
#
# Indices 1 2 3 4 5 6 
#
# 1 0.013241 -0.002311 -0.001675 0.000000 -0.000824 0.000000
# 2 -0.002311 0.008196 -0.003293 0.000000 0.000876 0.000000
# 3 -0.001675 -0.003293 0.012885 0.000000 0.001012 0.000000
# 4 0.000000 0.000000 0.000000 0.056577 0.000000 0.025212
# 5 -0.000824 0.000876 0.001012 0.000000 0.028284 0.000000
# 6 0.000000 0.000000 0.000000 0.025212 0.000000 0.043373
#
#
# Mechanical properties :
#
#
# Convention : Reuss Voigt Hill
#
# Bulk Modulus (GPa) = 50.59936 56.29280 53.44608
# Shear Modulus (GPa) = 27.21783 33.52273 30.37028
#
# Velocity S-wave (km/s) = 3.63108 4.02976 3.83561
# Velocity P-wave (km/s) = 6.48775 6.99436 6.74581
#
# Compressibility (1/GPa) = 0.01976309
#
# Stress axis : x y z
#
# Youngs Moduli (GPa) = 75.52092 122.01313 77.60866
#
# Poissons Ratio (x) = 0.28200 0.13001
# Poissons Ratio (y) = 0.17454 0.25558
# Poissons Ratio (z) = 0.12651 0.40182
#
# Static dielectric constant tensor:
#      x y z
#    x 3.811520 0.000000 -0.055590 
#    y 0.000000 4.142600 0.000000 
#    z -0.055590 0.000000 3.486580 
# 
# 
# High freq. dielectric constant tensor:
#      x y z
#    x 1.832170 0.000000 -0.005560 
#    y 0.000000 1.828290 0.000000 
#    z -0.005560 0.000000 1.762350 
# 
# From -- ./inp_files/114831.got.cif
#   From: 2010.06.25/outbox.cif.g09.slc.cpg/sg12_58_cif.got.tgz:114831.got - 2010.06.28 00:19:55.
