data_PCOD8112471
_publ_section_title
;
Structure prediction by ZEFSAII (Michael W. Deem and Ramdas Pophale) SiO2 
 PCOD8112471
Probable space group: C 2/M
;
_chemical_formula_sum "Si O2"
_cell_formula_units_Z 60
_cell_length_a 18.935192
_cell_length_b 31.445359
_cell_length_c 5.160798
_cell_angle_alpha 90.000000
_cell_angle_beta 110.775212
_cell_angle_gamma 90.000000
_cell_volume 2873.062605
_symmetry_space_group_name_H-M "C 2/M"
_symmetry_group_IT_number 12
_symmetry_cell_setting 'monoclinic'
loop_
_space_group_symop_operation_xyz
x,y,z
-x,y,-z
-x,-y,-z
x,-y,z
1/2+x,1/2+y,z
1/2-x,1/2+y,-z
1/2-x,1/2-y,-z
1/2+x,1/2-y,z
loop_
_atom_site_type_symbol
_atom_site_label
_atom_site_fract_x
_atom_site_fract_y
_atom_site_fract_z
Si Si1 0.298619 0.950996 0.205087
Si Si2 0.356409 0.827930 0.836997
Si Si3 0.088309 0.622805 0.595062
Si Si4 0.079606 0.883337 0.480444
Si Si5 0.500000 0.675275 0.000000
Si Si6 0.814562 0.811669 0.306727
Si Si7 0.797795 0.048695 0.412685
Si Si8 0.629369 0.269823 0.094506
O O1 0.372075 0.923185 0.359638
O O2 0.240268 0.944261 0.361188
O O3 0.324676 0.000000 0.217701
O O4 0.258072 0.935581 0.887862
O O5 0.390403 0.849352 0.626009
O O6 0.265980 0.829725 0.712017
O O7 0.385308 0.779964 0.901657
O O8 0.385703 0.852716 0.120156
O O9 0.000000 0.613971 0.500000
O O10 0.133939 0.852034 0.715441
O O11 0.123296 0.926424 0.475188
O O12 0.000000 0.895980 0.500000
O O13 0.061145 0.855355 0.207428
O O14 0.448444 0.707299 0.104614
O O15 0.846520 0.785161 0.589612
O O16 0.808683 0.780934 0.046866
O O17 0.819351 0.000000 0.389455
#
# Coordination Sequence:
#
# PCOD8112471 Si02
#       8
#     8   8   8   8   4   8   8   8
#     4  10  22  45  70  96 126 164 208 258 314 384
#     4  12  25  43  65  92 130 168 210 276 318 372
#     4  12  26  42  64 100 129 165 210 249 331 390
#     4  11  22  38  59  90 130 166 216 263 314 376
#     4  10  24  38  57  90 126 176 219 256 328 368
#     4  11  22  40  64  90 119 167 228 267 314 372
#     4  10  23  41  68  96 125 166 210 258 320 377
#     4  11  23  40  62  88 124 166 223 268 316 376
#
# _framework density 20.883635999999999
#
# number of rings (size 3 to 8) (size 9 to 14) (size 15 to 20)
#    0.000    1.067    1.333    5.200    3.733    1.600 
#    0.000    0.333    0.000    4.000    0.000    0.000 
#    0.000    0.000    0.000    0.000    0.000    0.000 
#
# Total GULP energy -371907.719814 kJ/mol
# GULP energy per Si atom -12396.923994 kJ/mol
# Density = 2.083610 g / cm^3
# Si number density = 20.883636 Si / 1000 Ang^3
#
#
#
# Elastic Constant Matrix: (Units=GPa)
#
#
# Indices 1 2 3 4 5 6 
#
# 1 133.7452 70.4064 30.8444 0.0000 14.3140 0.0000
# 2 70.4064 135.9445 40.8229 0.0000 9.1267 0.0000
# 3 30.8444 40.8229 88.4961 0.0000 -9.1036 0.0000
# 4 0.0000 0.0000 0.0000 26.1672 0.0000 7.9189
# 5 14.3140 9.1267 -9.1036 0.0000 48.4460 0.0000
# 6 0.0000 0.0000 0.0000 7.9189 0.0000 76.8151
#
#
#
# Elastic Compliance Matrix: (Units=1/GPa)
#
#
# Indices 1 2 3 4 5 6 
#
# 1 0.010710 -0.004844 -0.001764 0.000000 -0.002583 0.000000
# 2 -0.004844 0.011011 -0.003525 0.000000 -0.001306 0.000000
# 3 -0.001764 -0.003525 0.013932 0.000000 0.003803 0.000000
# 4 0.000000 0.000000 0.000000 0.039446 0.000000 -0.004067
# 5 -0.002583 -0.001306 0.003803 0.000000 0.022366 0.000000
# 6 0.000000 0.000000 0.000000 -0.004067 0.000000 0.013437
#
#
# Mechanical properties :
#
#
# Convention : Reuss Voigt Hill
#
# Bulk Modulus (GPa) = 64.99123 71.37036 68.18079
# Shear Modulus (GPa) = 36.68436 44.69315 40.68876
#
# Velocity S-wave (km/s) = 4.19574 4.63114 4.41881
# Velocity P-wave (km/s) = 7.39327 7.92755 7.66507
#
# Compressibility (1/GPa) = 0.01538669
#
# Stress axis : x y z
#
# Youngs Moduli (GPa) = 93.37044 90.82051 71.77531
#
# Poissons Ratio (x) = 0.43989 0.12664
# Poissons Ratio (y) = 0.45224 0.25303
# Poissons Ratio (z) = 0.16474 0.32017
#
# Static dielectric constant tensor:
#      x y z
#    x 4.054870 0.000000 0.098560 
#    y 0.000000 3.915280 0.000000 
#    z 0.098560 0.000000 3.852490 
# 
# 
# High freq. dielectric constant tensor:
#      x y z
#    x 1.824040 0.000000 -0.004310 
#    y 0.000000 1.827710 0.000000 
#    z -0.004310 0.000000 1.820600 
# 
# From -- ./inp_files/18352.got.cif
#   From: 2010.06.25/outbox.cif.g09.slc.cpg/sg12_10_cif.got.tgz:18352.got - 2010.06.28 00:19:55.
