data_PCOD8112903
_publ_section_title
;
Structure prediction by ZEFSAII (Michael W. Deem and Ramdas Pophale) SiO2 
 PCOD8112903
Probable space group: C 2/M
;
_chemical_formula_sum "Si O2"
_cell_formula_units_Z 64
_cell_length_a 19.473495
_cell_length_b 8.653833
_cell_length_c 30.992586
_cell_angle_alpha 90.000000
_cell_angle_beta 142.275046
_cell_angle_gamma 90.000000
_cell_volume 3195.733185
_symmetry_space_group_name_H-M "C 2/M"
_symmetry_group_IT_number 12
_symmetry_cell_setting 'monoclinic'
loop_
_space_group_symop_operation_xyz
x,y,z
-x,y,-z
-x,-y,-z
x,-y,z
1/2+x,1/2+y,z
1/2-x,1/2+y,-z
1/2-x,1/2-y,-z
1/2+x,1/2-y,z
loop_
_atom_site_type_symbol
_atom_site_label
_atom_site_fract_x
_atom_site_fract_y
_atom_site_fract_z
Si Si1 0.237625 0.676221 0.448016
Si Si2 0.487465 0.676142 0.541874
Si Si3 0.022882 0.819196 0.306119
Si Si4 0.011091 0.676189 0.957771
Si Si5 0.618488 0.817712 0.685851
Si Si6 0.977712 0.680246 0.191980
Si Si7 0.260712 0.675312 0.051059
Si Si8 0.623397 0.318133 0.187729
O O1 0.192587 0.500000 0.428668
O O2 0.250000 0.750000 0.500000
O O3 0.355849 0.682897 0.483818
O O4 0.151557 0.784829 0.380348
O O5 0.500000 0.744073 0.500000
O O6 0.531947 0.500000 0.567034
O O7 0.557205 0.776770 0.610597
O O8 0.941698 0.766582 0.304335
O O9 0.002224 0.725340 0.252720
O O10 0.004506 0.000000 0.288981
O O11 0.967574 0.500000 0.935213
O O12 0.938698 0.767676 0.886823
O O13 0.142115 0.685455 0.014617
O O14 0.000000 0.748898 0.000000
O O15 0.747599 0.760533 0.748300
O O16 0.610549 0.000000 0.689363
O O17 0.992126 0.500000 0.192413
O O18 0.849434 0.727341 0.121906
O O19 0.061198 0.757018 0.199200
O O20 0.303646 0.500000 0.068242
O O21 0.250000 0.750000 0.000000
O O22 0.619600 0.500000 0.188148
#
# Coordination Sequence:
#
# PCOD8112903 Si02
#       8
#     8   8   8   8   8   8   8   8
#     4  11  22  40  66  96 129 167 211 267 321 378
#     4  10  23  42  65  95 127 168 216 259 315 382
#     4  12  26  44  67  95 129 172 217 267 323 383
#     4  10  23  42  65  95 127 168 216 259 315 382
#     4  11  25  44  65  95 131 168 214 267 323 384
#     4  12  26  44  67  95 129 172 217 267 323 383
#     4  11  22  40  66  96 129 167 211 267 321 378
#     4  11  25  44  65  95 131 168 214 267 323 384
#
# _framework density 20.026702
#
# number of rings (size 3 to 8) (size 9 to 14) (size 15 to 20)
#    0.000    1.000    2.500    3.750    3.500    3.500 
#    0.000    0.000    0.000    0.000    0.000    0.000 
#    0.000    0.000    0.000    0.000    0.000    0.000 
#
# Total GULP energy -396854.932089 kJ/mol
# GULP energy per Si atom -12401.716628 kJ/mol
# Density = 1.998112 g / cm^3
# Si number density = 20.026702 Si / 1000 Ang^3
#
#
#
# Elastic Constant Matrix: (Units=GPa)
#
#
# Indices 1 2 3 4 5 6 
#
# 1 118.2025 29.3938 49.5704 -0.0001 -13.6234 0.0004
# 2 29.3938 71.1401 21.5815 -0.0001 7.9844 0.0005
# 3 49.5704 21.5815 130.2178 -0.0001 -2.1464 0.0002
# 4 -0.0001 -0.0001 -0.0001 38.1255 0.0000 -3.3163
# 5 -13.6234 7.9844 -2.1464 0.0000 37.5604 0.0000
# 6 0.0004 0.0005 0.0002 -3.3163 0.0000 28.5676
#
#
#
# Elastic Compliance Matrix: (Units=1/GPa)
#
#
# Indices 1 2 3 4 5 6 
#
# 1 0.011604 -0.004243 -0.003633 0.000000 0.004903 0.000000
# 2 -0.004243 0.016770 -0.001250 0.000000 -0.005175 0.000000
# 3 -0.003633 -0.001250 0.009261 0.000000 -0.000523 0.000000
# 4 0.000000 0.000000 0.000000 0.026497 0.000000 0.003076
# 5 0.004903 -0.005175 -0.000523 0.000000 0.029472 0.000000
# 6 0.000000 0.000000 0.000000 0.003076 0.000000 0.035362
#
#
# Mechanical properties :
#
#
# Convention : Reuss Voigt Hill
#
# Bulk Modulus (GPa) = 51.59002 57.85020 54.72011
# Shear Modulus (GPa) = 32.53569 35.45169 33.99369
#
# Velocity S-wave (km/s) = 4.03502 4.21196 4.12444
# Velocity P-wave (km/s) = 6.89385 7.25282 7.07561
#
# Compressibility (1/GPa) = 0.01938360
#
# Stress axis : x y z
#
# Youngs Moduli (GPa) = 86.17812 59.63171 107.97937
#
# Poissons Ratio (x) = 0.25299 0.39233
# Poissons Ratio (y) = 0.36562 0.13493
# Poissons Ratio (z) = 0.31311 0.07451
#
# Static dielectric constant tensor:
#      x y z
#    x 3.646620 0.000000 0.019380 
#    y 0.000000 3.855240 0.000000 
#    z 0.019380 0.000000 3.751320 
# 
# 
# High freq. dielectric constant tensor:
#      x y z
#    x 1.796990 0.000000 -0.000010 
#    y 0.000000 1.789600 0.000000 
#    z -0.000010 0.000000 1.796750 
# 
# From -- ./inp_files/378512.got.cif
#   From: 2010.06.25/outbox.cif.g09.slc.cpg/sg12_190_cif.got.tgz:378512.got - 2010.06.28 00:19:55.
