data_PCOD8112728
_publ_section_title
;
Structure prediction by ZEFSAII (Michael W. Deem and Ramdas Pophale) SiO2 
 PCOD8112728
Probable space group: C 2/M
;
_chemical_formula_sum "Si O2"
_cell_formula_units_Z 40
_cell_length_a 9.626189
_cell_length_b 26.639929
_cell_length_c 16.520182
_cell_angle_alpha 90.000000
_cell_angle_beta 28.701103
_cell_angle_gamma 90.000000
_cell_volume 2034.515261
_symmetry_space_group_name_H-M "C 2/M"
_symmetry_group_IT_number 12
_symmetry_cell_setting 'monoclinic'
loop_
_space_group_symop_operation_xyz
x,y,z
-x,y,-z
-x,-y,-z
x,-y,z
1/2+x,1/2+y,z
1/2-x,1/2+y,-z
1/2-x,1/2-y,-z
1/2+x,1/2-y,z
loop_
_atom_site_type_symbol
_atom_site_label
_atom_site_fract_x
_atom_site_fract_y
_atom_site_fract_z
Si Si1 0.797174 0.271332 0.889518
Si Si2 0.863996 0.886176 0.483806
Si Si3 0.664678 0.883532 0.148798
Si Si4 0.729837 0.291555 0.577699
Si Si5 0.600072 0.058946 0.858758
O O1 0.949662 0.326059 0.808420
O O2 0.955314 0.224771 0.768457
O O3 0.500000 0.282724 0.000000
O O4 0.750000 0.250000 0.000000
O O5 0.540121 0.905724 0.673872
O O6 0.829762 0.843613 0.434638
O O7 0.000000 0.867903 0.500000
O O8 0.067999 0.927205 0.335355
O O9 0.621753 0.914112 0.088377
O O10 0.000000 0.888118 0.000000
O O11 0.750000 0.250000 0.500000
O O12 0.000000 0.294907 0.500000
O O13 0.566210 0.000000 0.865440
O O14 0.500000 0.075504 0.000000
#
# Coordination Sequence:
#
# PCOD8112728 Si02
#       5
#     8   8   8   8   8
#     4  11  25  37  57  89 127 172 211 250 304 369
#     4  10  23  41  65  91 127 167 215 256 314 376
#     4  10  23  41  62  93 131 162 214 259 309 379
#     4  12  24  38  60  88 130 169 212 255 304 364
#     4  10  24  45  70  95 122 160 212 268 326 378
#
# _framework density 19.660703000000002
#
# number of rings (size 3 to 8) (size 9 to 14) (size 15 to 20)
#    0.000    1.400    2.000    1.800   14.000    4.000 
#    0.000    0.000    0.000    3.000    0.000    0.000 
#    0.000    0.000    0.000    0.000    0.000    0.000 
#
# Total GULP energy -247787.961860 kJ/mol
# GULP energy per Si atom -12389.398093 kJ/mol
# Density = 1.961595 g / cm^3
# Si number density = 19.660703 Si / 1000 Ang^3
#
#
#
# Elastic Constant Matrix: (Units=GPa)
#
#
# Indices 1 2 3 4 5 6 
#
# 1 115.1520 62.1908 61.5632 -0.0007 13.8739 -0.0002
# 2 62.1908 82.4683 39.1387 -0.0006 5.7097 0.0006
# 3 61.5632 39.1387 165.4117 -0.0009 12.4692 0.0001
# 4 -0.0007 -0.0006 -0.0009 33.2912 0.0004 4.5677
# 5 13.8739 5.7097 12.4692 0.0004 40.1770 0.0003
# 6 -0.0002 0.0006 0.0001 4.5677 0.0003 33.9127
#
#
#
# Elastic Compliance Matrix: (Units=1/GPa)
#
#
# Indices 1 2 3 4 5 6 
#
# 1 0.016710 -0.010751 -0.003436 0.000000 -0.003176 0.000000
# 2 -0.010751 0.020613 -0.000957 0.000000 0.001080 0.000000
# 3 -0.003436 -0.000957 0.007630 0.000000 -0.001045 0.000000
# 4 0.000000 0.000000 0.000000 0.030604 0.000000 -0.004122
# 5 -0.003176 0.001080 -0.001045 0.000000 0.026158 0.000000
# 6 0.000000 0.000000 0.000000 -0.004122 0.000000 0.030043
#
#
# Mechanical properties :
#
#
# Convention : Reuss Voigt Hill
#
# Bulk Modulus (GPa) = 68.19360 76.53527 72.36444
# Shear Modulus (GPa) = 29.95220 34.81880 32.38550
#
# Velocity S-wave (km/s) = 3.90738 4.21287 4.06300
# Velocity P-wave (km/s) = 7.42411 7.91688 7.67445
#
# Compressibility (1/GPa) = 0.01466413
#
# Stress axis : x y z
#
# Youngs Moduli (GPa) = 59.84435 48.51356 131.06715
#
# Poissons Ratio (x) = 0.52156 0.45034
# Poissons Ratio (y) = 0.64337 0.12549
# Poissons Ratio (z) = 0.20562 0.04645
#
# Static dielectric constant tensor:
#      x y z
#    x 3.617570 -0.000010 0.052390 
#    y -0.000010 3.530130 0.000010 
#    z 0.052390 0.000010 4.041280 
# 
# 
# High freq. dielectric constant tensor:
#      x y z
#    x 1.770380 0.000000 0.007630 
#    y 0.000000 1.751460 0.000000 
#    z 0.007630 0.000000 1.791280 
# 
# From -- ./inp_files/41458.got.cif
#   From: 2010.06.25/outbox.cif.g09.slc.cpg/sg12_21_cif.got.tgz:41458.got - 2010.06.28 00:19:55.
