data_PCOD8112240
_publ_section_title
;
Structure prediction by ZEFSAII (Michael W. Deem and Ramdas Pophale) SiO2 
 PCOD8112240
Probable space group: C 2/M
;
_chemical_formula_sum "Si O2"
_cell_formula_units_Z 40
_cell_length_a 9.777425
_cell_length_b 17.051062
_cell_length_c 10.879724
_cell_angle_alpha 90.000000
_cell_angle_beta 82.155121
_cell_angle_gamma 90.000000
_cell_volume 1796.843303
_symmetry_space_group_name_H-M "C 2/M"
_symmetry_group_IT_number 12
_symmetry_cell_setting 'monoclinic'
loop_
_space_group_symop_operation_xyz
x,y,z
-x,y,-z
-x,-y,-z
x,-y,z
1/2+x,1/2+y,z
1/2-x,1/2+y,-z
1/2-x,1/2-y,-z
1/2+x,1/2-y,z
loop_
_atom_site_type_symbol
_atom_site_label
_atom_site_fract_x
_atom_site_fract_y
_atom_site_fract_z
Si Si1 0.249103 0.351864 0.724128
Si Si2 0.346132 0.585295 0.473363
Si Si3 0.962927 0.091895 0.205541
Si Si4 0.764854 0.202693 0.124694
Si Si5 0.976501 0.587743 0.861490
O O1 0.268424 0.354229 0.573602
O O2 0.381156 0.384246 0.782323
O O3 0.216904 0.263262 0.765942
O O4 0.119974 0.406386 0.772130
O O5 0.500000 0.574131 0.500000
O O6 0.272193 0.500000 0.491407
O O7 0.356727 0.612061 0.330652
O O8 0.900042 0.145456 0.103088
O O9 0.959657 0.000000 0.170706
O O10 0.631812 0.150930 0.173890
O O11 0.750000 0.250000 0.000000
O O12 0.917016 0.500000 0.850741
O O13 0.000000 0.607089 0.000000
#
# Coordination Sequence:
#
# PCOD8112240 Si02
#       5
#     8   8   8   8   8
#     4  11  21  38  68  93 122 160 205 258 311 361
#     4   8  16  35  62  93 122 154 203 257 304 361
#     4  10  22  42  67  91 121 164 212 253 298 368
#     4  12  25  42  58  89 131 165 201 259 309 362
#     4  11  23  41  61  86 123 166 205 248 309 367
#
# _framework density 22.261261999999999
#
# number of rings (size 3 to 8) (size 9 to 14) (size 15 to 20)
#    0.000    1.600    2.000    4.800    0.000    0.800 
#    0.000    4.000    0.000    3.600    0.000    0.000 
#    0.000    0.000    0.000    0.000    0.000    0.000 
#
# Total GULP energy -247921.329720 kJ/mol
# GULP energy per Si atom -12396.066486 kJ/mol
# Density = 2.221059 g / cm^3
# Si number density = 22.261262 Si / 1000 Ang^3
#
#
#
# Elastic Constant Matrix: (Units=GPa)
#
#
# Indices 1 2 3 4 5 6 
#
# 1 91.2944 29.8566 13.0918 0.0000 -8.2418 0.0000
# 2 29.8566 122.3449 6.8135 0.0000 5.4347 0.0000
# 3 13.0918 6.8135 39.9438 0.0000 -8.9546 0.0000
# 4 0.0000 0.0000 0.0000 37.2319 0.0000 12.4803
# 5 -8.2418 5.4347 -8.9546 0.0000 29.0560 0.0000
# 6 0.0000 0.0000 0.0000 12.4803 0.0000 42.9482
#
#
#
# Elastic Compliance Matrix: (Units=1/GPa)
#
#
# Indices 1 2 3 4 5 6 
#
# 1 0.012671 -0.003077 -0.002893 0.000000 0.003278 0.000000
# 2 -0.003077 0.009123 -0.001210 0.000000 -0.002952 0.000000
# 3 -0.002893 -0.001210 0.027990 0.000000 0.008032 0.000000
# 4 0.000000 0.000000 0.000000 0.029757 0.000000 -0.008647
# 5 0.003278 -0.002952 0.008032 0.000000 0.038374 0.000000
# 6 0.000000 0.000000 0.000000 -0.008647 0.000000 0.025797
#
#
# Mechanical properties :
#
#
# Convention : Reuss Voigt Hill
#
# Bulk Modulus (GPa) = 28.22853 39.23408 33.73130
# Shear Modulus (GPa) = 29.43287 35.43530 32.43409
#
# Velocity S-wave (km/s) = 3.64009 3.99406 3.82117
# Velocity P-wave (km/s) = 5.51136 6.23960 5.88675
#
# Compressibility (1/GPa) = 0.03542515
#
# Stress axis : x y z
#
# Youngs Moduli (GPa) = 78.92332 109.61444 35.72664
#
# Poissons Ratio (x) = 0.33723 0.10336
# Poissons Ratio (y) = 0.24281 0.04321
# Poissons Ratio (z) = 0.22834 0.13258
#
# Static dielectric constant tensor:
#      x y z
#    x 3.841160 0.000000 -0.153770 
#    y 0.000000 4.131240 0.000000 
#    z -0.153770 0.000000 4.828950 
# 
# 
# High freq. dielectric constant tensor:
#      x y z
#    x 1.861550 0.000000 -0.008240 
#    y 0.000000 1.886250 0.000000 
#    z -0.008240 0.000000 1.869260 
# 
# From -- ./inp_files/118926.got.cif
#   From: 2010.06.25/outbox.cif.g09.slc.cpg/sg12_60_cif.got.tgz:118926.got - 2010.06.28 00:19:55.
