data_PCOD8112025
_publ_section_title
;
Structure prediction by ZEFSAII (Michael W. Deem and Ramdas Pophale) SiO2 
 PCOD8112025
Probable space group: C 2/M
;
_chemical_formula_sum "Si O2"
_cell_formula_units_Z 56
_cell_length_a 9.182855
_cell_length_b 18.118095
_cell_length_c 26.672849
_cell_angle_alpha 90.000000
_cell_angle_beta 141.038926
_cell_angle_gamma 90.000000
_cell_volume 2790.402516
_symmetry_space_group_name_H-M "C 2/M"
_symmetry_group_IT_number 12
_symmetry_cell_setting 'monoclinic'
loop_
_space_group_symop_operation_xyz
x,y,z
-x,y,-z
-x,-y,-z
x,-y,z
1/2+x,1/2+y,z
1/2-x,1/2+y,-z
1/2-x,1/2-y,-z
1/2+x,1/2-y,z
loop_
_atom_site_type_symbol
_atom_site_label
_atom_site_fract_x
_atom_site_fract_y
_atom_site_fract_z
Si Si1 0.233032 0.083963 0.940798
Si Si2 0.275014 0.320014 0.971223
Si Si3 0.304379 0.185966 0.790179
Si Si4 0.836452 0.828480 0.504357
Si Si5 0.492536 0.413061 0.641699
Si Si6 0.370754 0.085005 0.372108
Si Si7 0.457211 0.330083 0.784523
O O1 0.080576 0.137371 0.866063
O O2 0.154682 0.000000 0.911329
O O3 0.500000 0.095633 0.000000
O O4 0.194723 0.105821 0.988223
O O5 0.063861 0.332143 0.876555
O O6 0.500000 0.304622 0.000000
O O7 0.250000 0.250000 0.000000
O O8 0.209457 0.118776 0.730984
O O9 0.296217 0.261261 0.756243
O O10 0.148509 0.198568 0.797136
O O11 0.750000 0.750000 0.500000
O O12 0.609794 0.873459 0.429447
O O13 0.000000 0.819005 0.500000
O O14 0.979119 0.871548 0.585235
O O15 0.533720 0.500000 0.644432
O O16 0.253207 0.398296 0.607799
O O17 0.200951 0.106942 0.281750
O O18 0.429678 0.000000 0.382801
#
# Coordination Sequence:
#
# PCOD8112025 Si02
#       7
#     8   8   8   8   8   8   8
#     4  11  23  40  63  89 123 165 211 262 317 378
#     4  12  23  40  64  92 126 167 215 261 317 376
#     4  11  23  38  64  92 125 166 212 261 312 376
#     4  12  25  43  67  96 128 165 213 260 314 377
#     4  10  23  43  66  95 130 169 208 258 318 380
#     4  10  22  41  66  93 128 166 205 254 312 375
#     4  11  22  39  62  94 123 162 213 259 314 370
#
# _framework density 20.068788000000001
#
# number of rings (size 3 to 8) (size 9 to 14) (size 15 to 20)
#    0.000    1.000    2.857    4.286    0.000    7.143 
#    0.000    0.000    0.000    0.000    0.000    0.000 
#    0.000    0.000    0.000    0.000    0.000    0.000 
#
# Total GULP energy -347334.986071 kJ/mol
# GULP energy per Si atom -12404.820931 kJ/mol
# Density = 2.002311 g / cm^3
# Si number density = 20.068788 Si / 1000 Ang^3
#
#
#
# Elastic Constant Matrix: (Units=GPa)
#
#
# Indices 1 2 3 4 5 6 
#
# 1 140.7873 65.5549 54.1597 0.0001 5.0540 -0.0002
# 2 65.5549 135.9303 51.5650 0.0003 0.9729 0.0001
# 3 54.1597 51.5650 112.2083 0.0014 5.7787 0.0005
# 4 0.0001 0.0003 0.0014 36.8793 0.0002 -3.5822
# 5 5.0540 0.9729 5.7787 0.0002 31.5864 0.0000
# 6 -0.0002 0.0001 0.0005 -3.5822 0.0000 27.3448
#
#
#
# Elastic Compliance Matrix: (Units=1/GPa)
#
#
# Indices 1 2 3 4 5 6 
#
# 1 0.010035 -0.003650 -0.003119 0.000000 -0.000923 0.000000
# 2 -0.003650 0.010245 -0.002988 0.000000 0.000815 0.000000
# 3 -0.003119 -0.002988 0.011872 0.000000 -0.001581 0.000000
# 4 0.000000 0.000000 0.000000 0.027465 0.000000 0.003598
# 5 -0.000923 0.000815 -0.001581 0.000000 0.032071 0.000000
# 6 0.000000 0.000000 0.000000 0.003598 0.000000 0.037041
#
#
# Mechanical properties :
#
#
# Convention : Reuss Voigt Hill
#
# Bulk Modulus (GPa) = 79.12664 81.27612 80.20138
# Shear Modulus (GPa) = 32.79629 33.67185 33.23407
#
# Velocity S-wave (km/s) = 4.04690 4.10057 4.07382
# Velocity P-wave (km/s) = 7.83262 7.93765 7.88531
#
# Compressibility (1/GPa) = 0.01263797
#
# Stress axis : x y z
#
# Youngs Moduli (GPa) = 99.64716 97.61142 84.23161
#
# Poissons Ratio (x) = 0.35628 0.26271
# Poissons Ratio (y) = 0.36371 0.25170
# Poissons Ratio (z) = 0.31079 0.29168
#
# Static dielectric constant tensor:
#      x y z
#    x 3.770840 0.000000 -0.047640 
#    y 0.000000 3.874410 0.000000 
#    z -0.047640 0.000000 3.734870 
# 
# 
# High freq. dielectric constant tensor:
#      x y z
#    x 1.782050 0.000000 -0.005030 
#    y 0.000000 1.792760 0.000000 
#    z -0.005030 0.000000 1.797250 
# 
# From -- ./inp_files/356764.got.cif
#   From: 2010.06.25/outbox.cif.g09.slc.cpg/sg12_179_cif.got.tgz:356764.got - 2010.06.28 00:19:55.
