data_PCOD8112125
_publ_section_title
;
Structure prediction by ZEFSAII (Michael W. Deem and Ramdas Pophale) SiO2 
 PCOD8112125
Probable space group: C 2/M
;
_chemical_formula_sum "Si O2"
_cell_formula_units_Z 56
_cell_length_a 20.184771
_cell_length_b 8.712483
_cell_length_c 17.263194
_cell_angle_alpha 90.000000
_cell_angle_beta 105.218181
_cell_angle_gamma 90.000000
_cell_volume 2929.437201
_symmetry_space_group_name_H-M "C 2/M"
_symmetry_group_IT_number 12
_symmetry_cell_setting 'monoclinic'
loop_
_space_group_symop_operation_xyz
x,y,z
-x,y,-z
-x,-y,-z
x,-y,z
1/2+x,1/2+y,z
1/2-x,1/2+y,-z
1/2-x,1/2-y,-z
1/2+x,1/2-y,z
loop_
_atom_site_type_symbol
_atom_site_label
_atom_site_fract_x
_atom_site_fract_y
_atom_site_fract_z
Si Si1 0.574784 0.679042 0.990071
Si Si2 0.059323 0.819472 0.258997
Si Si3 0.208506 0.678458 0.761939
Si Si4 0.149180 0.679747 0.152268
Si Si5 0.300548 0.179033 0.414206
Si Si6 0.346534 0.680153 0.574763
Si Si7 0.079110 0.321480 0.825796
O O1 0.581958 0.500000 0.972790
O O2 0.632208 0.728212 0.068964
O O3 0.500000 0.718682 0.000000
O O4 0.587337 0.776363 0.917209
O O5 0.096566 0.728599 0.202393
O O6 0.090595 0.768067 0.351242
O O7 0.979509 0.777268 0.234316
O O8 0.069802 0.000000 0.247171
O O9 0.230754 0.500000 0.770805
O O10 0.273602 0.782352 0.800346
O O11 0.180218 0.721799 0.667873
O O12 0.150128 0.717369 0.805517
O O13 0.141215 0.500000 0.134262
O O14 0.355057 0.253341 0.490646
O O15 0.223936 0.242205 0.408403
O O16 0.303645 0.000000 0.429401
O O17 0.344872 0.500000 0.567298
O O18 0.060585 0.500000 0.812884
#
# Coordination Sequence:
#
# PCOD8112125 Si02
#       7
#     8   8   8   8   8   8   8
#     4  11  23  40  63  87 117 157 193 235 295 351
#     4  11  21  38  60  85 120 158 194 238 296 351
#     4  10  22  42  61  84 122 161 192 235 298 353
#     4  12  24  37  62  92 117 149 198 248 285 340
#     4   9  17  33  56  82 115 152 191 236 288 343
#     4   9  18  32  55  85 114 148 194 240 285 340
#     4  11  24  40  62  89 118 153 197 245 289 344
#
# _framework density 19.116299999999999
#
# number of rings (size 3 to 8) (size 9 to 14) (size 15 to 20)
#    0.000    1.571    2.857    2.571    0.000    4.000 
#    0.000    0.714    0.000    4.286    0.000    0.000 
#    0.000    0.000    0.000    0.000    0.000    0.000 
#
# Total GULP energy -347296.195086 kJ/mol
# GULP energy per Si atom -12403.435539 kJ/mol
# Density = 1.907279 g / cm^3
# Si number density = 19.116300 Si / 1000 Ang^3
#
#
#
# Elastic Constant Matrix: (Units=GPa)
#
#
# Indices 1 2 3 4 5 6 
#
# 1 46.8076 20.6182 10.7908 0.0000 -4.3324 0.0000
# 2 20.6182 40.3820 17.5307 0.0000 -1.7248 0.0000
# 3 10.7908 17.5307 113.1478 0.0000 4.4911 0.0000
# 4 0.0000 0.0000 0.0000 35.7578 0.0000 3.0229
# 5 -4.3324 -1.7248 4.4911 0.0000 29.2865 0.0000
# 6 0.0000 0.0000 0.0000 3.0229 0.0000 26.2482
#
#
#
# Elastic Compliance Matrix: (Units=1/GPa)
#
#
# Indices 1 2 3 4 5 6 
#
# 1 0.027921 -0.013825 -0.000656 0.000000 0.003417 0.000000
# 2 -0.013825 0.033537 -0.003899 0.000000 0.000528 0.000000
# 3 -0.000656 -0.003899 0.009576 0.000000 -0.001795 0.000000
# 4 0.000000 0.000000 0.000000 0.028241 0.000000 -0.003252
# 5 0.003417 0.000528 -0.001795 0.000000 0.034957 0.000000
# 6 0.000000 0.000000 0.000000 -0.003252 0.000000 0.038472
#
#
# Mechanical properties :
#
#
# Convention : Reuss Voigt Hill
#
# Bulk Modulus (GPa) = 29.17644 33.13521 31.15582
# Shear Modulus (GPa) = 22.63564 28.35169 25.49366
#
# Velocity S-wave (km/s) = 3.44481 3.85530 3.65582
# Velocity P-wave (km/s) = 5.57835 6.09827 5.84410
#
# Compressibility (1/GPa) = 0.03427423
#
# Stress axis : x y z
#
# Youngs Moduli (GPa) = 35.81470 29.81747 104.42892
#
# Poissons Ratio (x) = 0.41223 0.06855
# Poissons Ratio (y) = 0.49515 0.40713
# Poissons Ratio (z) = 0.02351 0.11625
#
# Static dielectric constant tensor:
#      x y z
#    x 3.368060 0.000000 0.063370 
#    y 0.000000 3.473670 0.000000 
#    z 0.063370 0.000000 3.756930 
# 
# 
# High freq. dielectric constant tensor:
#      x y z
#    x 1.719910 0.000000 0.004320 
#    y 0.000000 1.744710 0.000000 
#    z 0.004320 0.000000 1.761450 
# 
# From -- ./inp_files/275550.got.cif
#   From: 2010.06.25/outbox.cif.g09.slc.cpg/sg12_138_cif.got.tgz:275550.got - 2010.06.28 00:19:55.
