data_PCOD8112990
_publ_section_title
;
Structure prediction by ZEFSAII (Michael W. Deem and Ramdas Pophale) SiO2 
 PCOD8112990
Probable space group: C 2/M
;
_chemical_formula_sum "Si O2"
_cell_formula_units_Z 48
_cell_length_a 17.748848
_cell_length_b 29.764133
_cell_length_c 8.715735
_cell_angle_alpha 90.000000
_cell_angle_beta 147.617573
_cell_angle_gamma 90.000000
_cell_volume 2465.936500
_symmetry_space_group_name_H-M "C 2/M"
_symmetry_group_IT_number 12
_symmetry_cell_setting 'monoclinic'
loop_
_space_group_symop_operation_xyz
x,y,z
-x,y,-z
-x,-y,-z
x,-y,z
1/2+x,1/2+y,z
1/2-x,1/2+y,-z
1/2-x,1/2-y,-z
1/2+x,1/2-y,z
loop_
_atom_site_type_symbol
_atom_site_label
_atom_site_fract_x
_atom_site_fract_y
_atom_site_fract_z
Si Si1 0.140048 0.621941 0.654348
Si Si2 0.412346 0.448892 0.614890
Si Si3 0.150609 0.869057 0.712914
Si Si4 0.711473 0.551045 0.275354
Si Si5 0.203785 0.292898 0.229373
Si Si6 0.390844 0.209786 0.595824
O O1 0.166938 0.584386 0.571654
O O2 0.122749 0.670166 0.547974
O O3 0.000000 0.607432 0.500000
O O4 0.267998 0.623315 0.990812
O O5 0.404409 0.500000 0.541313
O O6 0.369557 0.417124 0.401954
O O7 0.305556 0.441897 0.572285
O O8 0.567819 0.437164 0.940560
O O9 0.236396 0.836950 0.747810
O O10 0.000000 0.847912 0.500000
O O11 0.756780 0.500000 0.318075
O O12 0.314023 0.252926 0.392308
O O13 0.185304 0.304180 0.377060
O O14 0.054564 0.278371 0.901177
#
# Coordination Sequence:
#
# PCOD8112990 Si02
#       6
#     8   8   8   8   8   8
#     4  12  24  40  58  88 129 160 189 241 306 356
#     4   9  19  38  63  89 117 156 206 250 286 341
#     4  12  24  38  59  92 123 159 197 242 297 356
#     4   9  19  38  63  88 118 158 203 247 291 346
#     4  10  23  43  64  88 116 156 202 245 292 350
#     4  10  23  43  65  86 117 157 201 245 291 353
#
# _framework density 19.465221
#
# number of rings (size 3 to 8) (size 9 to 14) (size 15 to 20)
#    0.000    1.667    3.333    2.000    2.333    2.667 
#    0.000    0.000    0.000    2.000    0.000    0.000 
#    0.000    0.000    0.000    0.000    0.000    0.000 
#
# Total GULP energy -297685.959293 kJ/mol
# GULP energy per Si atom -12403.581637 kJ/mol
# Density = 1.942092 g / cm^3
# Si number density = 19.465221 Si / 1000 Ang^3
#
#
#
# Elastic Constant Matrix: (Units=GPa)
#
#
# Indices 1 2 3 4 5 6 
#
# 1 81.1858 40.0461 24.4346 0.0000 15.2656 0.0000
# 2 40.0461 90.2229 24.4707 0.0000 4.2682 0.0000
# 3 24.4346 24.4707 88.2283 0.0000 2.4583 0.0000
# 4 0.0000 0.0000 0.0000 27.8452 0.0000 -10.3189
# 5 15.2656 4.2682 2.4583 0.0000 35.0847 0.0000
# 6 0.0000 0.0000 0.0000 -10.3189 0.0000 24.2702
#
#
#
# Elastic Compliance Matrix: (Units=1/GPa)
#
#
# Indices 1 2 3 4 5 6 
#
# 1 0.017797 -0.006808 -0.002854 0.000000 -0.006715 0.000000
# 2 -0.006808 0.014642 -0.002213 0.000000 0.001336 0.000000
# 3 -0.002854 -0.002213 0.012721 0.000000 0.000620 0.000000
# 4 0.000000 0.000000 0.000000 0.042629 0.000000 0.018125
# 5 -0.006715 0.001336 0.000620 0.000000 0.031218 0.000000
# 6 0.000000 0.000000 0.000000 0.018125 0.000000 0.048909
#
#
# Mechanical properties :
#
#
# Convention : Reuss Voigt Hill
#
# Bulk Modulus (GPa) = 46.70303 48.61553 47.65928
# Shear Modulus (GPa) = 25.15053 28.81904 26.98479
#
# Velocity S-wave (km/s) = 3.59844 3.85195 3.72735
# Velocity P-wave (km/s) = 6.42730 6.69427 6.56214
#
# Compressibility (1/GPa) = 0.02141189
#
# Stress axis : x y z
#
# Youngs Moduli (GPa) = 56.18929 68.29517 78.60984
#
# Poissons Ratio (x) = 0.46493 0.22432
# Poissons Ratio (y) = 0.38252 0.17396
# Poissons Ratio (z) = 0.16034 0.15114
#
# Static dielectric constant tensor:
#      x y z
#    x 3.674590 0.000000 0.046680 
#    y 0.000000 3.480970 0.000000 
#    z 0.046680 0.000000 3.508000 
# 
# 
# High freq. dielectric constant tensor:
#      x y z
#    x 1.772040 0.000000 -0.000460 
#    y 0.000000 1.758070 0.000000 
#    z -0.000460 0.000000 1.751290 
# 
# From -- ./inp_files/80561.got.cif
#   From: 2010.06.25/outbox.cif.g09.slc.cpg/sg12_41_cif.got.tgz:80561.got - 2010.06.28 00:19:55.
