data_PCOD8112247
_publ_section_title
;
Structure prediction by ZEFSAII (Michael W. Deem and Ramdas Pophale) SiO2 
 PCOD8112247
Probable space group: C 2/M
;
_chemical_formula_sum "Si O2"
_cell_formula_units_Z 40
_cell_length_a 14.636892
_cell_length_b 16.134300
_cell_length_c 8.761553
_cell_angle_alpha 90.000000
_cell_angle_beta 111.560010
_cell_angle_gamma 90.000000
_cell_volume 1924.325515
_symmetry_space_group_name_H-M "C 2/M"
_symmetry_group_IT_number 12
_symmetry_cell_setting 'monoclinic'
loop_
_space_group_symop_operation_xyz
x,y,z
-x,y,-z
-x,-y,-z
x,-y,z
1/2+x,1/2+y,z
1/2-x,1/2+y,-z
1/2-x,1/2-y,-z
1/2+x,1/2-y,z
loop_
_atom_site_type_symbol
_atom_site_label
_atom_site_fract_x
_atom_site_fract_y
_atom_site_fract_z
Si Si1 0.405814 0.807614 0.353571
Si Si2 0.230931 0.591975 0.511922
Si Si3 0.713945 0.350326 0.780777
Si Si4 0.105381 0.000000 0.860974
Si Si5 0.909325 0.597337 0.055057
Si Si6 0.376967 0.500000 0.780723
O O1 0.500000 0.769859 0.500000
O O2 0.349228 0.857188 0.448059
O O3 0.340170 0.737151 0.233924
O O4 0.438291 0.871099 0.240658
O O5 0.189283 0.500000 0.442892
O O6 0.260277 0.640740 0.379897
O O7 0.327516 0.582271 0.678126
O O8 0.638150 0.419971 0.788124
O O9 0.813494 0.353220 0.939465
O O10 0.989411 0.000000 0.806513
O O11 0.149979 0.000000 0.057593
O O12 0.884039 0.500000 0.043697
O O13 0.000000 0.616390 0.000000
#
# Coordination Sequence:
#
# PCOD8112247 Si02
#       6
#     8   8   8   4   8   4
#     4  12  27  42  66 103 140 177 219 281 338 393
#     4  10  22  42  67  93 134 173 226 272 329 397
#     4  12  24  43  70  98 136 174 226 278 335 398
#     4  11  21  43  66  95 132 175 233 265 342 389
#     4  11  24  46  72  98 133 179 230 272 333 401
#     4   9  23  39  68  97 124 179 221 281 318 403
#
# _framework density 20.786504000000001
#
# number of rings (size 3 to 8) (size 9 to 14) (size 15 to 20)
#    0.600    0.400    2.000    4.200    2.800    4.000 
#    3.600    0.000    0.000    0.000    0.000    0.000 
#    0.000    0.000    0.000    0.000    0.000    0.000 
#
# Total GULP energy -248035.744076 kJ/mol
# GULP energy per Si atom -12401.787204 kJ/mol
# Density = 2.073919 g / cm^3
# Si number density = 20.786504 Si / 1000 Ang^3
#
#
#
# Elastic Constant Matrix: (Units=GPa)
#
#
# Indices 1 2 3 4 5 6 
#
# 1 111.2301 40.5879 50.0173 0.0000 -11.9571 0.0000
# 2 40.5879 78.8620 26.5749 0.0000 0.0933 0.0000
# 3 50.0173 26.5749 119.9118 0.0000 -7.0936 0.0000
# 4 0.0000 0.0000 0.0000 19.4667 0.0000 2.6867
# 5 -11.9571 0.0933 -7.0936 0.0000 53.2652 0.0000
# 6 0.0000 0.0000 0.0000 2.6867 0.0000 28.7553
#
#
#
# Elastic Compliance Matrix: (Units=1/GPa)
#
#
# Indices 1 2 3 4 5 6 
#
# 1 0.013043 -0.005328 -0.004118 0.000000 0.002389 0.000000
# 2 -0.005328 0.015890 -0.001382 0.000000 -0.001408 0.000000
# 3 -0.004118 -0.001382 0.010391 0.000000 0.000462 0.000000
# 4 0.000000 0.000000 0.000000 0.052041 0.000000 -0.004862
# 5 0.002389 -0.001408 0.000462 0.000000 0.019374 0.000000
# 6 0.000000 0.000000 0.000000 -0.004862 0.000000 0.035231
#
#
# Mechanical properties :
#
#
# Convention : Reuss Voigt Hill
#
# Bulk Modulus (GPa) = 56.60408 60.48489 58.54449
# Shear Modulus (GPa) = 28.81566 33.15237 30.98401
#
# Velocity S-wave (km/s) = 3.72730 3.99795 3.86500
# Velocity P-wave (km/s) = 6.76860 7.10442 6.93854
#
# Compressibility (1/GPa) = 0.01766657
#
# Stress axis : x y z
#
# Youngs Moduli (GPa) = 76.66755 62.93247 96.23661
#
# Poissons Ratio (x) = 0.33530 0.39635
# Poissons Ratio (y) = 0.40848 0.13304
# Poissons Ratio (z) = 0.31576 0.08700
#
# Static dielectric constant tensor:
#      x y z
#    x 3.759840 0.000000 -0.048640 
#    y 0.000000 3.795270 0.000000 
#    z -0.048640 0.000000 3.905920 
# 
# 
# High freq. dielectric constant tensor:
#      x y z
#    x 1.826480 0.000000 -0.007450 
#    y 0.000000 1.803300 0.000000 
#    z -0.007450 0.000000 1.828650 
# 
# From -- ./inp_files/59276.got.cif
#   From: 2010.06.25/outbox.cif.g09.slc.cpg/sg12_30_cif.got.tgz:59276.got - 2010.06.28 00:19:55.
