data_PCOD8112166
_publ_section_title
;
Structure prediction by ZEFSAII (Michael W. Deem and Ramdas Pophale) SiO2 
 PCOD8112166
Probable space group: C 2/M
;
_chemical_formula_sum "Si O2"
_cell_formula_units_Z 64
_cell_length_a 29.967745
_cell_length_b 15.676781
_cell_length_c 7.478117
_cell_angle_alpha 90.000000
_cell_angle_beta 57.451980
_cell_angle_gamma 90.000000
_cell_volume 2961.422044
_symmetry_space_group_name_H-M "C 2/M"
_symmetry_group_IT_number 12
_symmetry_cell_setting 'monoclinic'
loop_
_space_group_symop_operation_xyz
x,y,z
-x,y,-z
-x,-y,-z
x,-y,z
1/2+x,1/2+y,z
1/2-x,1/2+y,-z
1/2-x,1/2-y,-z
1/2+x,1/2-y,z
loop_
_atom_site_type_symbol
_atom_site_label
_atom_site_fract_x
_atom_site_fract_y
_atom_site_fract_z
Si Si1 0.003037 0.730825 0.794633
Si Si2 0.151478 0.149977 0.059535
Si Si3 0.698209 0.306724 0.586801
Si Si4 0.768456 0.095676 0.821789
Si Si5 0.157727 0.340738 0.147021
Si Si6 0.421013 0.095561 0.956872
Si Si7 0.464847 0.405418 0.749267
Si Si8 0.614484 0.179075 0.607008
O O1 0.064393 0.721707 0.608593
O O2 0.981919 0.827859 0.840202
O O3 0.000000 0.696359 0.000000
O O4 0.963672 0.663396 0.782054
O O5 0.182623 0.148535 0.805126
O O6 0.185484 0.100941 0.132540
O O7 0.138771 0.244870 0.152403
O O8 0.096884 0.099184 0.160725
O O9 0.750000 0.250000 0.500000
O O10 0.709269 0.379919 0.419753
O O11 0.648803 0.251776 0.626256
O O12 0.746780 0.000000 0.858985
O O13 0.720563 0.157076 0.981273
O O14 0.146552 0.367352 0.377917
O O15 0.129124 0.402634 0.067995
O O16 0.402195 0.114017 0.200940
O O17 0.444933 0.000000 0.902420
O O18 0.500000 0.391113 0.500000
O O19 0.476390 0.500000 0.806904
#
# Coordination Sequence:
#
# PCOD8112166 Si02
#       8
#     8   8   8   8   8   8   8   8
#     4  10  22  42  64  95 132 176 221 271 338 394
#     4  12  22  44  72  96 133 180 226 274 341 409
#     4  12  23  43  71  98 127 179 227 272 342 402
#     4  12  27  42  63 101 137 168 223 285 336 402
#     4  12  22  42  70  96 129 179 223 271 339 402
#     4  11  24  43  66  98 139 175 220 279 331 395
#     4  11  24  42  67  99 134 174 222 281 342 401
#     4  11  23  40  69  98 125 177 226 271 331 407
#
# _framework density 21.611239000000001
#
# number of rings (size 3 to 8) (size 9 to 14) (size 15 to 20)
#    0.000    0.625    5.000    3.375    0.000    4.500 
#    0.000    0.625    0.000    0.000    0.000    0.000 
#    0.000    0.000    0.000    0.000    0.000    0.000 
#
# Total GULP energy -396765.822541 kJ/mol
# GULP energy per Si atom -12398.931954 kJ/mol
# Density = 2.156205 g / cm^3
# Si number density = 21.611239 Si / 1000 Ang^3
#
#
#
# Elastic Constant Matrix: (Units=GPa)
#
#
# Indices 1 2 3 4 5 6 
#
# 1 94.1168 19.2735 33.9036 0.0000 -2.3190 0.0000
# 2 19.2735 119.1315 14.9234 0.0000 -1.3813 0.0000
# 3 33.9036 14.9234 116.8733 0.0000 7.4829 0.0000
# 4 0.0000 0.0000 0.0000 12.0629 0.0000 6.2703
# 5 -2.3190 -1.3813 7.4829 0.0000 42.2116 0.0000
# 6 0.0000 0.0000 0.0000 6.2703 0.0000 18.8123
#
#
#
# Elastic Compliance Matrix: (Units=1/GPa)
#
#
# Indices 1 2 3 4 5 6 
#
# 1 0.012202 -0.001531 -0.003423 0.000000 0.001227 0.000000
# 2 -0.001531 0.008732 -0.000692 0.000000 0.000324 0.000000
# 3 -0.003423 -0.000692 0.009762 0.000000 -0.001941 0.000000
# 4 0.000000 0.000000 0.000000 0.100271 0.000000 -0.033421
# 5 0.001227 0.000324 -0.001941 0.000000 0.024112 0.000000
# 6 0.000000 0.000000 0.000000 -0.033421 0.000000 0.064296
#
#
# Mechanical properties :
#
#
# Convention : Reuss Voigt Hill
#
# Bulk Modulus (GPa) = 51.53300 51.81362 51.67331
# Shear Modulus (GPa) = 21.08505 32.08542 26.58524
#
# Velocity S-wave (km/s) = 3.12693 3.85731 3.51117
# Velocity P-wave (km/s) = 6.07735 6.62313 6.35610
#
# Compressibility (1/GPa) = 0.01940504
#
# Stress axis : x y z
#
# Youngs Moduli (GPa) = 81.95506 114.51885 102.44066
#
# Poissons Ratio (x) = 0.17534 0.35062
# Poissons Ratio (y) = 0.12548 0.07085
# Poissons Ratio (z) = 0.28050 0.07920
#
# Static dielectric constant tensor:
#      x y z
#    x 4.151650 0.000000 -0.099310 
#    y 0.000000 0.662590 0.000000 
#    z -0.099310 0.000000 4.126530 
# 
# 
# High freq. dielectric constant tensor:
#      x y z
#    x 1.861040 0.000000 -0.006900 
#    y 0.000000 1.836830 0.000000 
#    z -0.006900 0.000000 1.856030 
# 
# From -- ./inp_files/111986.got.cif
#   From: 2010.06.25/outbox.cif.g09.slc.cpg/sg12_56_cif.got.tgz:111986.got - 2010.06.28 00:19:55.
