data_PCOD8112708
_publ_section_title
;
Structure prediction by ZEFSAII (Michael W. Deem and Ramdas Pophale) SiO2 
 PCOD8112708
Probable space group: C 2/M
;
_chemical_formula_sum "Si O2"
_cell_formula_units_Z 48
_cell_length_a 26.340250
_cell_length_b 8.875255
_cell_length_c 14.918058
_cell_angle_alpha 90.000000
_cell_angle_beta 41.190370
_cell_angle_gamma 90.000000
_cell_volume 2296.732116
_symmetry_space_group_name_H-M "C 2/M"
_symmetry_group_IT_number 12
_symmetry_cell_setting 'monoclinic'
loop_
_space_group_symop_operation_xyz
x,y,z
-x,y,-z
-x,-y,-z
x,-y,z
1/2+x,1/2+y,z
1/2-x,1/2+y,-z
1/2-x,1/2-y,-z
1/2+x,1/2-y,z
loop_
_atom_site_type_symbol
_atom_site_label
_atom_site_fract_x
_atom_site_fract_y
_atom_site_fract_z
Si Si1 0.087147 0.823182 0.861635
Si Si2 0.832193 0.172975 0.740805
Si Si3 0.580172 0.826421 0.532456
Si Si4 0.168267 0.674529 0.594807
Si Si5 0.157507 0.323742 0.936614
Si Si6 0.575514 0.673723 0.206138
O O1 0.104922 0.750124 0.742449
O O2 0.144447 0.758015 0.859850
O O3 0.100750 0.000000 0.837141
O O4 0.000000 0.780276 0.000000
O O5 0.881522 0.280128 0.611637
O O6 0.742884 0.218238 0.855765
O O7 0.858962 0.199587 0.806696
O O8 0.845007 0.000000 0.694002
O O9 0.642548 0.799312 0.527184
O O10 0.505762 0.725114 0.646894
O O11 0.554558 0.000000 0.561558
O O12 0.174930 0.500000 0.610504
O O13 0.250000 0.750000 0.500000
O O14 0.145827 0.500000 0.938023
O O15 0.095876 0.268173 0.091127
O O16 0.569647 0.500000 0.185553
#
# Coordination Sequence:
#
# PCOD8112708 Si02
#       6
#     8   8   8   8   8   8
#     4  11  24  41  62  89 121 158 199 244 296 354
#     4  10  23  41  61  88 121 158 198 243 296 351
#     4  11  24  40  61  90 121 155 198 247 296 349
#     4  11  24  41  62  89 121 157 199 247 297 352
#     4  11  23  40  63  90 121 156 197 246 297 351
#     4  11  23  40  62  88 121 159 199 243 293 352
#
# _framework density 20.899260000000002
#
# number of rings (size 3 to 8) (size 9 to 14) (size 15 to 20)
#    0.000    1.167    0.000    5.500    0.000   14.000 
#    0.000    0.000    0.000    0.000    0.000    0.000 
#    0.000    0.000    0.000    0.000    0.000    0.000 
#
# Total GULP energy -297821.018331 kJ/mol
# GULP energy per Si atom -12409.209097 kJ/mol
# Density = 2.085169 g / cm^3
# Si number density = 20.899260 Si / 1000 Ang^3
#
#
#
# Elastic Constant Matrix: (Units=GPa)
#
#
# Indices 1 2 3 4 5 6 
#
# 1 57.1445 19.1678 -5.8681 0.0005 -10.6731 -0.0006
# 2 19.1678 69.7778 27.3889 -0.0021 -10.2046 0.0009
# 3 -5.8681 27.3889 81.5501 -0.0010 0.4001 0.0004
# 4 0.0005 -0.0021 -0.0010 41.7875 0.0006 2.8072
# 5 -10.6731 -10.2046 0.4001 0.0006 36.7973 -0.0001
# 6 -0.0006 0.0009 0.0004 2.8072 -0.0001 35.6090
#
#
#
# Elastic Compliance Matrix: (Units=1/GPa)
#
#
# Indices 1 2 3 4 5 6 
#
# 1 0.020863 -0.006565 0.003685 -0.000001 0.004191 0.000001
# 2 -0.006565 0.019404 -0.007007 0.000001 0.003553 -0.000001
# 3 0.003685 -0.007007 0.014886 0.000000 -0.001036 0.000000
# 4 -0.000001 0.000001 0.000000 0.024058 0.000000 -0.001897
# 5 0.004191 0.003553 -0.001036 0.000000 0.029388 0.000000
# 6 0.000001 -0.000001 0.000000 -0.001897 0.000000 0.028232
#
#
# Mechanical properties :
#
#
# Convention : Reuss Voigt Hill
#
# Bulk Modulus (GPa) = 28.26387 32.20550 30.23468
# Shear Modulus (GPa) = 29.69170 34.02435 31.85802
#
# Velocity S-wave (km/s) = 3.77331 4.03925 3.90854
# Velocity P-wave (km/s) = 5.70413 6.09896 5.90485
#
# Compressibility (1/GPa) = 0.03538086
#
# Stress axis : x y z
#
# Youngs Moduli (GPa) = 47.93265 51.53456 67.17734
#
# Poissons Ratio (x) = 0.33830 -0.24758
# Poissons Ratio (y) = 0.31466 0.47070
# Poissons Ratio (z) = -0.17665 0.36110
#
# Static dielectric constant tensor:
#      x y z
#    x 3.864590 0.000000 -0.057320 
#    y 0.000000 3.872160 0.000000 
#    z -0.057320 0.000000 3.694560 
# 
# 
# High freq. dielectric constant tensor:
#      x y z
#    x 1.833270 0.000000 -0.000640 
#    y 0.000000 1.829050 0.000000 
#    z -0.000640 0.000000 1.827440 
# 
# From -- ./inp_files/244670.got.cif
#   From: 2010.06.25/outbox.cif.g09.slc.cpg/sg12_123_cif.got.tgz:244670.got - 2010.06.28 00:19:55.
