data_PCOD8112483
_publ_section_title
;
Structure prediction by ZEFSAII (Michael W. Deem and Ramdas Pophale) SiO2 
 PCOD8112483
Probable space group: C 2/M
;
_chemical_formula_sum "Si O2"
_cell_formula_units_Z 44
_cell_length_a 26.381302
_cell_length_b 12.485742
_cell_length_c 14.835213
_cell_angle_alpha 90.000000
_cell_angle_beta 152.777553
_cell_angle_gamma 90.000000
_cell_volume 2235.344828
_symmetry_space_group_name_H-M "C 2/M"
_symmetry_group_IT_number 12
_symmetry_cell_setting 'monoclinic'
loop_
_space_group_symop_operation_xyz
x,y,z
-x,y,-z
-x,-y,-z
x,-y,z
1/2+x,1/2+y,z
1/2-x,1/2+y,-z
1/2-x,1/2-y,-z
1/2+x,1/2-y,z
loop_
_atom_site_type_symbol
_atom_site_label
_atom_site_fract_x
_atom_site_fract_y
_atom_site_fract_z
Si Si1 0.532219 0.000000 0.946745
Si Si2 0.682646 0.774791 0.614233
Si Si3 0.494439 0.375041 0.237287
Si Si4 0.403602 0.000000 0.278669
Si Si5 0.581730 0.231812 0.045657
Si Si6 0.258820 0.681094 0.927555
Si Si7 0.574759 0.000000 0.402528
O O1 0.430132 0.000000 0.714143
O O2 0.500000 0.000000 0.000000
O O3 0.596443 0.111179 0.028085
O O4 0.593138 0.685052 0.446441
O O5 0.794093 0.767029 0.729145
O O6 0.724588 0.755183 0.782809
O O7 0.638512 0.894985 0.536273
O O8 0.526510 0.500000 0.272225
O O9 0.475106 0.314667 0.112723
O O10 0.381179 0.369686 0.114656
O O11 0.500000 0.000000 0.500000
O O12 0.333204 0.900510 0.192385
O O13 0.451272 0.000000 0.251391
O O14 0.500000 0.228970 0.000000
O O15 0.250000 0.750000 0.000000
#
# Coordination Sequence:
#
# PCOD8112483 Si02
#       7
#     4   8   8   4   8   8   4
#     4  10  22  46  67  95 130 164 222 278 321 394
#     4  11  24  42  67  94 131 169 223 265 327 391
#     4  11  24  44  62  96 138 168 213 272 328 385
#     4  12  22  38  67  94 127 169 225 262 310 386
#     4  10  24  44  67  96 129 169 215 270 331 389
#     4  11  24  42  63  93 130 173 216 270 317 383
#     4  12  22  42  71  96 124 178 230 263 315 396
#
# _framework density 19.683764
#
# number of rings (size 3 to 8) (size 9 to 14) (size 15 to 20)
#    0.000    1.091    4.545    1.091    7.636    1.091 
#    1.636    0.909    0.000    0.000    0.000    0.000 
#    0.000    0.000    0.000    0.000    0.000    0.000 
#
# Total GULP energy -272583.529312 kJ/mol
# GULP energy per Si atom -12390.160423 kJ/mol
# Density = 1.963896 g / cm^3
# Si number density = 19.683764 Si / 1000 Ang^3
#
#
#
# Elastic Constant Matrix: (Units=GPa)
#
#
# Indices 1 2 3 4 5 6 
#
# 1 108.8420 45.7304 59.3335 0.0000 10.5388 0.0000
# 2 45.7304 164.1232 61.7642 0.0000 9.2770 0.0000
# 3 59.3335 61.7642 141.9105 0.0000 12.1234 0.0000
# 4 0.0000 0.0000 0.0000 -93.4347 0.0000 15.0066
# 5 10.5388 9.2770 12.1234 0.0000 39.4999 0.0000
# 6 0.0000 0.0000 0.0000 15.0066 0.0000 28.7051
#
#
#
# Elastic Compliance Matrix: (Units=1/GPa)
#
#
# Indices 1 2 3 4 5 6 
#
# 1 0.012419 -0.001755 -0.004293 0.000000 -0.001583 0.000000
# 2 -0.001755 0.007557 -0.002509 0.000000 -0.000536 0.000000
# 3 -0.004293 -0.002509 0.010049 0.000000 -0.001350 0.000000
# 4 0.000000 0.000000 0.000000 -0.009874 0.000000 0.005162
# 5 -0.001583 -0.000536 -0.001350 0.000000 0.026279 0.000000
# 6 0.000000 0.000000 0.000000 0.005162 0.000000 0.032139
#
#
# Mechanical properties :
#
#
# Convention : Reuss Voigt Hill
#
# Bulk Modulus (GPa) = 77.46318 83.17020 80.31669
# Shear Modulus (GPa) = 50.00660 11.49056 30.74858
#
# Velocity S-wave (km/s) = 5.04581 2.41873 3.95667
# Velocity P-wave (km/s) = 8.56657 7.08133 7.85912
#
# Compressibility (1/GPa) = 0.01290936
#
# Stress axis : x y z
#
# Youngs Moduli (GPa) = 80.52346 132.33381 99.51153
#
# Poissons Ratio (x) = 0.23227 0.42722
# Poissons Ratio (y) = 0.14133 0.24970
# Poissons Ratio (z) = 0.34570 0.33206
#
# Static dielectric constant tensor:
#      x y z
#    x 3.846380 0.000000 0.056830 
#    y 0.000000 3.872010 0.000000 
#    z 0.056830 0.000000 3.666470 
# 
# 
# High freq. dielectric constant tensor:
#      x y z
#    x 1.767580 0.000000 0.002300 
#    y 0.000000 1.783020 0.000000 
#    z 0.002300 0.000000 1.772850 
# 
# From -- ./inp_files/245569.got.cif
#   From: 2010.06.25/outbox.cif.g09.slc.cpg/sg12_123_cif.got.tgz:245569.got - 2010.06.28 00:19:55.
