data_PCOD8112648
_publ_section_title
;
Structure prediction by ZEFSAII (Michael W. Deem and Ramdas Pophale) SiO2 
 PCOD8112648
Probable space group: C 2/M
;
_chemical_formula_sum "Si O2"
_cell_formula_units_Z 56
_cell_length_a 12.299310
_cell_length_b 18.644275
_cell_length_c 26.312571
_cell_angle_alpha 90.000000
_cell_angle_beta 155.002880
_cell_angle_gamma 90.000000
_cell_volume 2549.711101
_symmetry_space_group_name_H-M "C 2/M"
_symmetry_group_IT_number 12
_symmetry_cell_setting 'monoclinic'
loop_
_space_group_symop_operation_xyz
x,y,z
-x,y,-z
-x,-y,-z
x,-y,z
1/2+x,1/2+y,z
1/2-x,1/2+y,-z
1/2-x,1/2-y,-z
1/2+x,1/2-y,z
loop_
_atom_site_type_symbol
_atom_site_label
_atom_site_fract_x
_atom_site_fract_y
_atom_site_fract_z
Si Si1 0.975887 0.420029 0.434561
Si Si2 0.461876 0.619778 0.821177
Si Si3 0.743955 0.290381 0.868474
Si Si4 0.820940 0.829081 0.509938
Si Si5 0.667653 0.916429 0.267541
Si Si6 0.556625 0.155618 0.735025
Si Si7 0.986020 0.420693 0.911061
O O1 0.076920 0.500000 0.484023
O O2 0.692590 0.420097 0.289430
O O3 0.000000 0.381857 0.500000
O O4 0.179167 0.383543 0.485520
O O5 0.548915 0.695263 0.832756
O O6 0.283337 0.629456 0.794378
O O7 0.716362 0.578018 0.946044
O O8 0.614125 0.236923 0.774723
O O9 0.816616 0.364867 0.871212
O O10 0.000000 0.254138 0.000000
O O11 0.750000 0.750000 0.500000
O O12 0.717003 0.840226 0.409014
O O13 0.115760 0.854437 0.635640
O O14 0.463564 0.898679 0.225882
O O15 0.527859 0.903821 0.154720
O O16 0.760952 0.000000 0.312773
O O17 0.873299 0.500000 0.874325
#
# Coordination Sequence:
#
# PCOD8112648 Si02
#       7
#     8   8   8   8   8   8   8
#     4  10  23  40  64  95 129 170 214 272 334 388
#     4  10  24  42  66  99 132 174 223 278 329 400
#     4  10  24  41  67  98 135 178 218 276 337 395
#     4  11  25  43  67  95 132 173 221 274 324 401
#     4  11  26  45  69  98 136 180 224 272 332 401
#     4  11  26  42  68  97 132 179 219 276 334 394
#     4  10  23  43  69 100 134 177 224 273 333 397
#
# _framework density 21.963272
#
# number of rings (size 3 to 8) (size 9 to 14) (size 15 to 20)
#    0.000    1.571    0.000    2.143   12.000    8.286 
#    0.000    1.429    0.000    0.000    0.000    0.000 
#    0.000    0.000    0.000    0.000    0.000    0.000 
#
# Total GULP energy -347066.014273 kJ/mol
# GULP energy per Si atom -12395.214795 kJ/mol
# Density = 2.191328 g / cm^3
# Si number density = 21.963272 Si / 1000 Ang^3
#
#
#
# Elastic Constant Matrix: (Units=GPa)
#
#
# Indices 1 2 3 4 5 6 
#
# 1 107.6674 38.4339 76.6993 0.0015 -11.9518 0.0057
# 2 38.4339 99.4846 40.9102 -0.0049 -2.4869 0.0024
# 3 76.6993 40.9102 102.2615 0.0215 -19.2865 0.0128
# 4 0.0015 -0.0049 0.0215 22.6346 -0.0033 -9.4627
# 5 -11.9518 -2.4869 -19.2865 -0.0033 38.0630 0.0063
# 6 0.0057 0.0024 0.0128 -9.4627 0.0063 15.2745
#
#
#
# Elastic Compliance Matrix: (Units=1/GPa)
#
#
# Indices 1 2 3 4 5 6 
#
# 1 0.020285 -0.001816 -0.014715 0.000019 -0.001205 0.000018
# 2 -0.001816 0.012310 -0.003890 0.000010 -0.001737 0.000009
# 3 -0.014715 -0.003890 0.023720 -0.000038 0.007144 -0.000040
# 4 0.000019 0.000010 -0.000038 0.059622 -0.000014 0.036937
# 5 -0.001205 -0.001737 0.007144 -0.000014 0.029400 -0.000026
# 6 0.000018 0.000009 -0.000040 0.036937 -0.000026 0.088351
#
#
# Mechanical properties :
#
#
# Convention : Reuss Voigt Hill
#
# Bulk Modulus (GPa) = 64.63514 69.05556 66.84535
# Shear Modulus (GPa) = 17.87710 25.41911 21.64810
#
# Velocity S-wave (km/s) = 2.85608 3.40567 3.14291
# Velocity P-wave (km/s) = 6.35365 6.85379 6.60845
#
# Compressibility (1/GPa) = 0.01547146
#
# Stress axis : x y z
#
# Youngs Moduli (GPa) = 49.29754 81.23736 42.15925
#
# Poissons Ratio (x) = 0.14749 0.62039
# Poissons Ratio (y) = 0.08950 0.16402
# Poissons Ratio (z) = 0.72543 0.31605
#
# Static dielectric constant tensor:
#      x y z
#    x 5.591650 -0.001670 0.127600 
#    y -0.001670 4.532450 -0.000310 
#    z 0.127600 -0.000310 4.647120 
# 
# 
# High freq. dielectric constant tensor:
#      x y z
#    x 1.875760 0.000000 -0.013150 
#    y 0.000000 1.858320 0.000000 
#    z -0.013150 0.000000 1.873690 
# 
# From -- ./inp_files/336813.got.cif
#   From: 2010.06.25/outbox.cif.g09.slc.cpg/sg12_169_cif.got.tgz:336813.got - 2010.06.28 00:19:55.
