data_PCOD8112262
_publ_section_title
;
Structure prediction by ZEFSAII (Michael W. Deem and Ramdas Pophale) SiO2 
 PCOD8112262
Probable space group: C 2/M
;
_chemical_formula_sum "Si O2"
_cell_formula_units_Z 64
_cell_length_a 9.000994
_cell_length_b 15.972278
_cell_length_c 26.202245
_cell_angle_alpha 90.000000
_cell_angle_beta 53.794825
_cell_angle_gamma 90.000000
_cell_volume 3039.620046
_symmetry_space_group_name_H-M "C 2/M"
_symmetry_group_IT_number 12
_symmetry_cell_setting 'monoclinic'
loop_
_space_group_symop_operation_xyz
x,y,z
-x,y,-z
-x,-y,-z
x,-y,z
1/2+x,1/2+y,z
1/2-x,1/2+y,-z
1/2-x,1/2-y,-z
1/2+x,1/2-y,z
loop_
_atom_site_type_symbol
_atom_site_label
_atom_site_fract_x
_atom_site_fract_y
_atom_site_fract_z
Si Si1 0.252448 0.832466 0.245298
Si Si2 0.461050 0.596357 0.121411
Si Si3 0.483734 0.405954 0.623355
Si Si4 0.086555 0.167263 0.758026
Si Si5 0.824774 0.340329 0.998798
Si Si6 0.818890 0.593409 0.628253
Si Si7 0.538652 0.754283 0.549240
Si Si8 0.119729 0.403140 0.123793
O O1 0.172538 0.900083 0.301199
O O2 0.284963 0.748784 0.271196
O O3 0.448435 0.857440 0.183421
O O4 0.111548 0.817278 0.227462
O O5 0.427519 0.500000 0.140581
O O6 0.443137 0.646518 0.177118
O O7 0.309211 0.629441 0.111511
O O8 0.664449 0.607381 0.058154
O O9 0.470596 0.500000 0.602321
O O10 0.683018 0.390924 0.608172
O O11 0.454096 0.333631 0.587100
O O12 0.200134 0.096619 0.704556
O O13 0.880436 0.387714 0.936252
O O14 0.750000 0.250000 0.000000
O O15 0.000000 0.334348 0.000000
O O16 0.907227 0.500000 0.607254
O O17 0.973311 0.665955 0.596473
O O18 0.500000 0.774208 0.500000
O O19 0.750000 0.750000 0.500000
O O20 0.094561 0.500000 0.139596
#
# Coordination Sequence:
#
# PCOD8112262 Si02
#       8
#     8   8   8   8   8   8   8   8
#     4  11  22  39  66  93 128 170 216 268 326 385
#     4  11  24  42  63  92 129 167 211 268 326 385
#     4  10  22  42  67  96 132 173 220 271 327 391
#     4  11  22  39  66  94 128 168 217 270 323 388
#     4  12  25  42  65  91 125 167 217 265 319 388
#     4  10  22  42  68  96 129 176 222 267 325 397
#     4  12  24  42  69  97 134 171 215 270 326 390
#     4  11  24  42  63  92 129 168 211 266 328 384
#
# _framework density 21.055264000000001
#
# number of rings (size 3 to 8) (size 9 to 14) (size 15 to 20)
#    0.000    1.000    2.500    4.500    0.000    5.500 
#    2.250    0.000    0.000    0.000    0.000    0.000 
#    0.000    0.000    0.000    0.000    0.000    0.000 
#
# Total GULP energy -396711.780409 kJ/mol
# GULP energy per Si atom -12397.243138 kJ/mol
# Density = 2.100734 g / cm^3
# Si number density = 21.055264 Si / 1000 Ang^3
#
#
#
# Elastic Constant Matrix: (Units=GPa)
#
#
# Indices 1 2 3 4 5 6 
#
# 1 121.5307 25.9525 36.0639 -0.0002 -16.7747 0.0008
# 2 25.9525 124.2867 37.8151 -0.0002 -9.3433 0.0006
# 3 36.0639 37.8151 112.1842 0.0006 -9.0138 0.0010
# 4 -0.0002 -0.0002 0.0006 29.1574 0.0004 -1.3960
# 5 -16.7747 -9.3433 -9.0138 0.0004 33.0405 -0.0013
# 6 0.0008 0.0006 0.0010 -1.3960 -0.0013 27.2186
#
#
#
# Elastic Compliance Matrix: (Units=1/GPa)
#
#
# Indices 1 2 3 4 5 6 
#
# 1 0.009722 -0.000977 -0.002476 0.000000 0.003984 0.000000
# 2 -0.000977 0.009164 -0.002665 0.000000 0.001368 0.000000
# 3 -0.002476 -0.002665 0.010681 0.000000 0.000903 0.000000
# 4 0.000000 0.000000 0.000000 0.034381 0.000000 0.001763
# 5 0.003984 0.001368 0.000903 0.000000 0.032922 0.000001
# 6 0.000000 0.000000 0.000000 0.001763 0.000001 0.036830
#
#
# Mechanical properties :
#
#
# Convention : Reuss Voigt Hill
#
# Bulk Modulus (GPa) = 57.70220 61.96275 59.83247
# Shear Modulus (GPa) = 32.95743 35.09466 34.02604
#
# Velocity S-wave (km/s) = 3.96066 4.08706 4.02435
# Velocity P-wave (km/s) = 6.95560 7.19476 7.07619
#
# Compressibility (1/GPa) = 0.01733036
#
# Stress axis : x y z
#
# Youngs Moduli (GPa) = 102.86357 109.12734 93.62771
#
# Poissons Ratio (x) = 0.10664 0.23179
# Poissons Ratio (y) = 0.10052 0.24950
# Poissons Ratio (z) = 0.25466 0.29080
#
# Static dielectric constant tensor:
#      x y z
#    x 3.852570 0.000000 0.016210 
#    y 0.000000 4.066440 0.000000 
#    z 0.016210 0.000000 3.927090 
# 
# 
# High freq. dielectric constant tensor:
#      x y z
#    x 1.822640 0.000000 -0.002030 
#    y 0.000000 1.833130 0.000000 
#    z -0.002030 0.000000 1.836520 
# 
# From -- ./inp_files/372573.got.cif
#   From: 2010.06.25/outbox.cif.g09.slc.cpg/sg12_187_cif.got.tgz:372573.got - 2010.06.28 00:19:55.
