data_PCOD8112617
_publ_section_title
;
Structure prediction by ZEFSAII (Michael W. Deem and Ramdas Pophale) SiO2 
 PCOD8112617
Probable space group: C 2/M
;
_chemical_formula_sum "Si O2"
_cell_formula_units_Z 64
_cell_length_a 17.573571
_cell_length_b 15.879218
_cell_length_c 23.554076
_cell_angle_alpha 90.000000
_cell_angle_beta 150.871927
_cell_angle_gamma 90.000000
_cell_volume 3199.434001
_symmetry_space_group_name_H-M "C 2/M"
_symmetry_group_IT_number 12
_symmetry_cell_setting 'monoclinic'
loop_
_space_group_symop_operation_xyz
x,y,z
-x,y,-z
-x,-y,-z
x,-y,z
1/2+x,1/2+y,z
1/2-x,1/2+y,-z
1/2-x,1/2-y,-z
1/2+x,1/2-y,z
loop_
_atom_site_type_symbol
_atom_site_label
_atom_site_fract_x
_atom_site_fract_y
_atom_site_fract_z
Si Si1 0.093603 0.599066 0.260947
Si Si2 0.261267 0.243329 0.331001
Si Si3 0.219176 0.653157 0.991120
Si Si4 0.033751 0.721399 0.426376
Si Si5 0.041919 0.096699 0.218926
Si Si6 0.657947 0.903579 0.072920
Si Si7 0.003357 0.866518 0.681799
Si Si8 0.675033 0.090559 0.438397
O O1 0.140986 0.500000 0.280588
O O2 0.176449 0.665026 0.270868
O O3 0.136446 0.631102 0.352117
O O4 0.909323 0.611734 0.133348
O O5 0.360824 0.223751 0.339566
O O6 0.356415 0.250801 0.451193
O O7 0.153493 0.160784 0.259214
O O8 0.250000 0.750000 0.000000
O O9 0.373402 0.597967 0.078988
O O10 0.168564 0.650944 0.023585
O O11 0.035425 0.777217 0.371076
O O12 0.099230 0.634207 0.444313
O O13 0.016469 0.136681 0.264014
O O14 0.105708 0.000000 0.261874
O O15 0.817734 0.895616 0.215305
O O16 0.637261 0.000000 0.041289
O O17 0.500000 0.871279 0.000000
O O18 0.863055 0.923809 0.566049
O O19 0.593821 0.000000 0.385498
#
# Coordination Sequence:
#
# PCOD8112617 Si02
#       8
#     8   8   8   8   8   8   8   8
#     4  11  23  41  62  87 125 164 204 249 301 367
#     4  11  23  41  58  92 123 165 198 244 319 359
#     4  11  22  38  63  89 123 161 206 250 297 363
#     4  11  24  38  61  85 130 157 197 259 302 368
#     4  11  22  39  65  91 120 156 209 257 297 358
#     4  10  23  40  60  90 123 156 200 251 302 355
#     4  11  20  37  62  88 117 155 199 246 299 349
#     4  11  22  38  63  91 117 159 206 249 305 365
#
# _framework density 20.003537000000001
#
# number of rings (size 3 to 8) (size 9 to 14) (size 15 to 20)
#    0.000    1.125    3.750    4.125    3.500    0.500 
#    0.000    3.750    0.000    0.000    0.000    2.625 
#    0.000    0.000    0.000    0.000    0.000    0.000 
#
# Total GULP energy -396440.947318 kJ/mol
# GULP energy per Si atom -12388.779604 kJ/mol
# Density = 1.995801 g / cm^3
# Si number density = 20.003537 Si / 1000 Ang^3
#
#
#
# Elastic Constant Matrix: (Units=GPa)
#
#
# Indices 1 2 3 4 5 6 
#
# 1 82.5757 53.8644 37.5951 0.0024 17.4516 0.0010
# 2 53.8644 113.3616 15.0523 0.0055 12.2726 0.0008
# 3 37.5951 15.0523 112.7421 0.0166 9.0790 -0.0029
# 4 0.0024 0.0055 0.0166 23.7000 0.0010 2.7293
# 5 17.4516 12.2726 9.0790 0.0010 28.0803 -0.0012
# 6 0.0010 0.0008 -0.0029 2.7293 -0.0012 9.0370
#
#
#
# Elastic Compliance Matrix: (Units=1/GPa)
#
#
# Indices 1 2 3 4 5 6 
#
# 1 0.022162 -0.008919 -0.005549 0.000005 -0.008081 -0.000006
# 2 -0.008919 0.012946 0.001288 -0.000003 -0.000532 0.000001
# 3 -0.005549 0.001288 0.010591 -0.000008 -0.000539 0.000006
# 4 0.000005 -0.000003 -0.000008 0.043715 -0.000001 -0.013203
# 5 -0.008081 -0.000532 -0.000539 -0.000001 0.041041 0.000007
# 6 -0.000006 0.000001 0.000006 -0.013203 0.000007 0.114644
#
#
# Mechanical properties :
#
#
# Convention : Reuss Voigt Hill
#
# Bulk Modulus (GPa) = 51.70295 57.96700 54.83497
# Shear Modulus (GPa) = 17.99187 25.64130 21.81659
#
# Velocity S-wave (km/s) = 3.00231 3.58416 3.30606
# Velocity P-wave (km/s) = 6.15804 6.79482 6.48425
#
# Compressibility (1/GPa) = 0.01934126
#
# Stress axis : x y z
#
# Youngs Moduli (GPa) = 45.12250 77.24647 94.41586
#
# Poissons Ratio (x) = 0.68894 0.52388
# Poissons Ratio (y) = 0.40243 -0.12165
# Poissons Ratio (z) = 0.25037 -0.09953
#
# Static dielectric constant tensor:
#      x y z
#    x 3.544530 0.000010 0.194540 
#    y 0.000010 3.558420 -0.000010 
#    z 0.194540 -0.000010 4.053710 
# 
# 
# High freq. dielectric constant tensor:
#      x y z
#    x 1.757530 0.000000 0.006260 
#    y 0.000000 1.782200 0.000000 
#    z 0.006260 0.000000 1.795330 
# 
# From -- ./inp_files/344084.got.cif
#   From: 2010.06.25/outbox.cif.g09.slc.cpg/sg12_173_cif.got.tgz:344084.got - 2010.06.28 00:19:55.
