data_PCOD8112274
_publ_section_title
;
Structure prediction by ZEFSAII (Michael W. Deem and Ramdas Pophale) SiO2 
 PCOD8112274
Probable space group: C 2/M
;
_chemical_formula_sum "Si O2"
_cell_formula_units_Z 32
_cell_length_a 11.774186
_cell_length_b 16.006700
_cell_length_c 8.679254
_cell_angle_alpha 90.000000
_cell_angle_beta 57.381335
_cell_angle_gamma 90.000000
_cell_volume 1377.748524
_symmetry_space_group_name_H-M "C 2/M"
_symmetry_group_IT_number 12
_symmetry_cell_setting 'monoclinic'
loop_
_space_group_symop_operation_xyz
x,y,z
-x,y,-z
-x,-y,-z
x,-y,z
1/2+x,1/2+y,z
1/2-x,1/2+y,-z
1/2-x,1/2-y,-z
1/2+x,1/2-y,z
loop_
_atom_site_type_symbol
_atom_site_label
_atom_site_fract_x
_atom_site_fract_y
_atom_site_fract_z
Si Si1 0.335924 0.000000 0.113120
Si Si2 0.783737 0.346788 0.936121
Si Si3 0.051570 0.708050 0.619370
Si Si4 0.674281 0.645956 0.696518
Si Si5 0.377309 0.500000 0.475451
O O1 0.268114 0.000000 0.331824
O O2 0.500000 0.000000 0.000000
O O3 0.276281 0.915273 0.077127
O O4 0.681329 0.373082 0.873822
O O5 0.936803 0.353200 0.765516
O O6 0.750000 0.250000 0.000000
O O7 0.177145 0.651357 0.483475
O O8 0.089497 0.770110 0.729572
O O9 0.000000 0.755047 0.500000
O O10 0.599135 0.576132 0.656555
O O11 0.500000 0.500000 0.500000
#
# Coordination Sequence:
#
# PCOD8112274 Si02
#       5
#     4   8   8   8   4
#     4  12  29  48  71 108 146 184 244 300 357 422
#     4  11  26  43  70 104 141 182 240 295 364 415
#     4   9  20  39  68  98 128 181 232 282 340 439
#     4  10  22  42  68  93 139 181 232 280 364 418
#     4  12  27  44  71 100 142 188 236 296 353 432
#
# _framework density 23.226299999999998
#
# number of rings (size 3 to 8) (size 9 to 14) (size 15 to 20)
#    0.000    1.500    0.000    3.000   17.500    0.000 
#    0.000    6.250    0.000    0.000    0.000    0.000 
#    0.000    0.000    0.000    0.000    0.000    0.000 
#
# Total GULP energy -198288.964990 kJ/mol
# GULP energy per Si atom -12393.060312 kJ/mol
# Density = 2.317344 g / cm^3
# Si number density = 23.226300 Si / 1000 Ang^3
#
#
#
# Elastic Constant Matrix: (Units=GPa)
#
#
# Indices 1 2 3 4 5 6 
#
# 1 112.5787 21.3799 14.2791 0.0000 24.0021 0.0000
# 2 21.3799 107.1182 21.6364 0.0000 22.3652 0.0000
# 3 14.2791 21.6364 55.2706 0.0000 27.3304 0.0000
# 4 0.0000 0.0000 0.0000 18.4243 0.0000 17.7610
# 5 24.0021 22.3652 27.3304 0.0000 36.9085 0.0000
# 6 0.0000 0.0000 0.0000 17.7610 0.0000 34.4581
#
#
#
# Elastic Compliance Matrix: (Units=1/GPa)
#
#
# Indices 1 2 3 4 5 6 
#
# 1 0.010412 -0.000823 0.001158 0.000000 -0.007130 0.000000
# 2 -0.000823 0.010837 -0.001652 0.000000 -0.004808 0.000000
# 3 0.001158 -0.001652 0.028900 0.000000 -0.021152 0.000000
# 4 0.000000 0.000000 0.000000 0.107880 0.000000 -0.055605
# 5 -0.007130 -0.004808 -0.021152 0.000000 0.050307 0.000000
# 6 0.000000 0.000000 0.000000 -0.055605 0.000000 0.057682
#
#
# Mechanical properties :
#
#
# Convention : Reuss Voigt Hill
#
# Bulk Modulus (GPa) = 21.04654 43.28427 32.16541
# Shear Modulus (GPa) = 17.57522 32.46963 25.02243
#
# Velocity S-wave (km/s) = 2.75379 3.74300 3.28583
# Velocity P-wave (km/s) = 4.38091 6.11199 5.31736
#
# Compressibility (1/GPa) = 0.04751375
#
# Stress axis : x y z
#
# Youngs Moduli (GPa) = 96.04055 92.27261 34.60252
#
# Poissons Ratio (x) = 0.07598 -0.04006
# Poissons Ratio (y) = 0.07909 0.05717
# Poissons Ratio (z) = -0.11120 0.15245
#
# Static dielectric constant tensor:
#      x y z
#    x 4.523470 0.000000 0.145050 
#    y 0.000000 3.774890 0.000000 
#    z 0.145050 0.000000 4.262010 
# 
# 
# High freq. dielectric constant tensor:
#      x y z
#    x 1.940890 0.000000 0.007810 
#    y 0.000000 1.899680 0.000000 
#    z 0.007810 0.000000 1.916810 
# 
# From -- ./inp_files/45278.got.cif
#   From: 2010.06.25/outbox.cif.g09.slc.cpg/sg12_23_cif.got.tgz:45278.got - 2010.06.28 00:19:55.
