data_PCOD8112829
_publ_section_title
;
Structure prediction by ZEFSAII (Michael W. Deem and Ramdas Pophale) SiO2 
 PCOD8112829
Probable space group: C 2/M
;
_chemical_formula_sum "Si O2"
_cell_formula_units_Z 40
_cell_length_a 20.905567
_cell_length_b 9.288979
_cell_length_c 18.449312
_cell_angle_alpha 90.000000
_cell_angle_beta 148.753166
_cell_angle_gamma 90.000000
_cell_volume 1858.438263
_symmetry_space_group_name_H-M "C 2/M"
_symmetry_group_IT_number 12
_symmetry_cell_setting 'monoclinic'
loop_
_space_group_symop_operation_xyz
x,y,z
-x,y,-z
-x,-y,-z
x,-y,z
1/2+x,1/2+y,z
1/2-x,1/2+y,-z
1/2-x,1/2-y,-z
1/2+x,1/2-y,z
loop_
_atom_site_type_symbol
_atom_site_label
_atom_site_fract_x
_atom_site_fract_y
_atom_site_fract_z
Si Si1 0.141357 0.165883 0.933931
Si Si2 0.125919 0.338758 0.665951
Si Si3 0.988431 0.334783 0.072371
Si Si4 0.000682 0.163724 0.341076
Si Si5 0.261094 0.664690 0.345442
O O1 0.110134 0.235168 0.981621
O O2 0.020018 0.178597 0.765012
O O3 0.179419 0.000000 0.982531
O O4 0.250000 0.250000 0.000000
O O5 0.172419 0.500000 0.726459
O O6 0.227550 0.256454 0.717186
O O7 0.000000 0.336894 0.500000
O O8 0.103140 0.260551 0.720273
O O9 0.943908 0.500000 0.035076
O O10 0.122382 0.314404 0.240300
O O11 0.000000 0.287699 0.000000
O O12 0.139985 0.213119 0.497233
O O13 0.979318 0.000000 0.346053
O O14 0.283923 0.500000 0.345052
#
# Coordination Sequence:
#
# PCOD8112829 Si02
#       5
#     8   8   8   8   8
#     4  11  25  43  63  88 120 159 203 250 302 360
#     4   9  17  29  50  85 122 153 190 239 291 342
#     4  10  23  42  63  89 122 159 199 245 300 361
#     4   9  19  36  58  84 116 156 200 242 293 356
#     4   9  18  35  59  85 117 158 198 240 293 353
#
# _framework density 21.523447999999998
#
# number of rings (size 3 to 8) (size 9 to 14) (size 15 to 20)
#    0.000    2.400    0.000    1.200    2.800    6.000 
#    0.000    0.000    0.000    0.000    0.000    0.000 
#    0.000    0.000    0.000    0.000    0.000    0.000 
#
# Total GULP energy -247971.895696 kJ/mol
# GULP energy per Si atom -12398.594785 kJ/mol
# Density = 2.147446 g / cm^3
# Si number density = 21.523448 Si / 1000 Ang^3
#
#
#
# Elastic Constant Matrix: (Units=GPa)
#
#
# Indices 1 2 3 4 5 6 
#
# 1 126.9478 73.6784 33.4227 0.0000 -4.2850 0.0000
# 2 73.6784 125.1010 24.5152 0.0000 -0.6555 0.0000
# 3 33.4227 24.5152 65.2344 0.0000 -5.9933 0.0000
# 4 0.0000 0.0000 0.0000 20.6030 0.0000 -2.2896
# 5 -4.2850 -0.6555 -5.9933 0.0000 31.2060 0.0000
# 6 0.0000 0.0000 0.0000 -2.2896 0.0000 36.1632
#
#
#
# Elastic Compliance Matrix: (Units=1/GPa)
#
#
# Indices 1 2 3 4 5 6 
#
# 1 0.012911 -0.006821 -0.003972 0.000000 0.000867 0.000000
# 2 -0.006821 0.012239 -0.001188 0.000000 -0.000908 0.000000
# 3 -0.003972 -0.001188 0.018077 0.000000 0.002902 0.000000
# 4 0.000000 0.000000 0.000000 0.048880 0.000000 0.003095
# 5 0.000867 -0.000908 0.002902 0.000000 0.032702 0.000000
# 6 0.000000 0.000000 0.000000 0.003095 0.000000 0.027848
#
#
# Mechanical properties :
#
#
# Convention : Reuss Voigt Hill
#
# Bulk Modulus (GPa) = 51.90701 64.50176 58.20438
# Shear Modulus (GPa) = 27.31606 29.97224 28.64415
#
# Velocity S-wave (km/s) = 3.56635 3.73572 3.65202
# Velocity P-wave (km/s) = 6.41306 6.97429 6.69955
#
# Compressibility (1/GPa) = 0.01926522
#
# Stress axis : x y z
#
# Youngs Moduli (GPa) = 77.45264 81.70664 55.31775
#
# Poissons Ratio (x) = 0.55733 0.21972
# Poissons Ratio (y) = 0.52831 0.06572
# Poissons Ratio (z) = 0.30764 0.09707
#
# Static dielectric constant tensor:
#      x y z
#    x 3.562710 0.000000 -0.003290 
#    y 0.000000 3.913160 0.000000 
#    z -0.003290 0.000000 4.141100 
# 
# 
# High freq. dielectric constant tensor:
#      x y z
#    x 1.817820 0.000000 -0.000280 
#    y 0.000000 1.839290 0.000000 
#    z -0.000280 0.000000 1.860680 
# 
# From -- ./inp_files/281888.got.cif
#   From: 2010.06.25/outbox.cif.g09.slc.cpg/sg12_141_cif.got.tgz:281888.got - 2010.06.28 00:19:55.
