data_PCOD8112584
_publ_section_title
;
Structure prediction by ZEFSAII (Michael W. Deem and Ramdas Pophale) SiO2 
 PCOD8112584
Probable space group: C 2/M
;
_chemical_formula_sum "Si O2"
_cell_formula_units_Z 64
_cell_length_a 20.416750
_cell_length_b 21.772536
_cell_length_c 11.144813
_cell_angle_alpha 90.000000
_cell_angle_beta 37.927622
_cell_angle_gamma 90.000000
_cell_volume 3045.140122
_symmetry_space_group_name_H-M "C 2/M"
_symmetry_group_IT_number 12
_symmetry_cell_setting 'monoclinic'
loop_
_space_group_symop_operation_xyz
x,y,z
-x,y,-z
-x,-y,-z
x,-y,z
1/2+x,1/2+y,z
1/2-x,1/2+y,-z
1/2-x,1/2-y,-z
1/2+x,1/2-y,z
loop_
_atom_site_type_symbol
_atom_site_label
_atom_site_fract_x
_atom_site_fract_y
_atom_site_fract_z
Si Si1 0.232123 0.069761 0.038097
Si Si2 0.449520 0.815014 0.297177
Si Si3 0.991268 0.132862 0.649612
Si Si4 0.397024 0.834827 0.722713
Si Si5 0.542525 0.293521 0.059210
Si Si6 0.222011 0.111230 0.310036
Si Si7 0.280916 0.756776 0.712999
Si Si8 0.600982 0.069010 0.769108
O O1 0.110233 0.089255 0.193299
O O2 0.264135 0.077048 0.130821
O O3 0.246163 0.000000 0.976320
O O4 0.311866 0.110228 0.843477
O O5 0.561777 0.816517 0.206267
O O6 0.481188 0.772425 0.138632
O O7 0.350517 0.784189 0.505812
O O8 0.415977 0.884176 0.314901
O O9 0.989595 0.180619 0.762596
O O10 0.000000 0.162679 0.500000
O O11 0.098845 0.092972 0.512077
O O12 0.500000 0.857179 0.500000
O O13 0.340191 0.774084 0.751601
O O14 0.500000 0.329462 0.000000
O O15 0.668459 0.290139 0.868415
O O16 0.230457 0.184198 0.279638
O O17 0.291487 0.088152 0.319458
O O18 0.613194 0.000000 0.700212
O O19 0.500000 0.073719 0.000000
#
# Coordination Sequence:
#
# PCOD8112584 Si02
#       8
#     8   8   8   8   8   8   8   8
#     4  11  23  41  65  94 130 175 230 282 333 400
#     4  11  24  39  63  99 132 180 222 273 345 408
#     4  10  24  42  66  99 134 174 223 284 339 400
#     4  10  23  39  63  96 131 174 224 283 339 404
#     4  12  24  39  66  98 139 173 216 277 349 406
#     4  11  23  39  68  98 128 172 220 284 345 396
#     4  11  23  39  66  97 138 168 222 282 346 410
#     4  11  24  43  63  93 135 178 227 278 334 404
#
# _framework density 21.017095000000001
#
# number of rings (size 3 to 8) (size 9 to 14) (size 15 to 20)
#    0.000    1.125    2.500    3.750    5.250    6.500 
#    0.000    1.875    0.000    0.375    0.000    0.000 
#    0.000    0.000    0.000    0.000    0.000    0.000 
#
# Total GULP energy -396663.946945 kJ/mol
# GULP energy per Si atom -12395.748342 kJ/mol
# Density = 2.096926 g / cm^3
# Si number density = 21.017095 Si / 1000 Ang^3
#
#
#
# Elastic Constant Matrix: (Units=GPa)
#
#
# Indices 1 2 3 4 5 6 
#
# 1 114.5574 17.4877 34.6720 0.0000 0.4889 0.0000
# 2 17.4877 99.0251 22.0057 0.0000 8.3003 0.0000
# 3 34.6720 22.0057 91.4426 0.0000 -16.7047 0.0000
# 4 0.0000 0.0000 0.0000 3.2410 0.0000 9.1388
# 5 0.4889 8.3003 -16.7047 0.0000 34.9476 0.0000
# 6 0.0000 0.0000 0.0000 9.1388 0.0000 25.4505
#
#
#
# Elastic Compliance Matrix: (Units=1/GPa)
#
#
# Indices 1 2 3 4 5 6 
#
# 1 0.010053 -0.000735 -0.003976 0.000003 -0.001866 -0.000001
# 2 -0.000735 0.011293 -0.003207 0.000000 -0.004205 0.000000
# 3 -0.003976 -0.003207 0.014643 0.000004 0.007817 -0.000001
# 4 0.000003 0.000000 0.000004-24.620039 0.000001 8.840593
# 5 -0.001866 -0.004205 0.007817 0.000001 0.033375 0.000000
# 6 -0.000001 0.000000 -0.000001 8.840593 0.000000 -3.135198
#
#
# Mechanical properties :
#
#
# Convention : Reuss Voigt Hill
#
# Bulk Modulus (GPa) = 49.62055 50.37285 49.99670
# Shear Modulus (GPa) = -0.18074 28.11846 13.96886
#
# Velocity S-wave (km/s) = -0.29357 3.66168 2.58086
# Velocity P-wave (km/s) = 4.85242 6.47277 5.72026
#
# Compressibility (1/GPa) = 0.02015294
#
# Stress axis : x y z
#
# Youngs Moduli (GPa) = 99.47539 88.54680 68.29226
#
# Poissons Ratio (x) = 0.06512 0.27150
# Poissons Ratio (y) = 0.07315 0.21902
# Poissons Ratio (z) = 0.39548 0.28398
#
# Static dielectric constant tensor:
#      x y z
#    x 4.040260 0.000000 -0.165080 
#    y 0.000000 3.659480 0.000000 
#    z -0.165080 0.000000 3.969440 
# 
# 
# High freq. dielectric constant tensor:
#      x y z
#    x 1.832360 0.000000 -0.018110 
#    y 0.000000 1.800450 0.000000 
#    z -0.018110 0.000000 1.835250 
# 
# From -- ./inp_files/169662.got.cif
#   From: 2010.06.25/outbox.cif.g09.slc.cpg/sg12_85_cif.got.tgz:169662.got - 2010.06.28 00:19:55.
