data_PCOD8112404
_publ_section_title
;
Structure prediction by ZEFSAII (Michael W. Deem and Ramdas Pophale) SiO2 
 PCOD8112404
Probable space group: C 2/M
;
_chemical_formula_sum "Si O2"
_cell_formula_units_Z 36
_cell_length_a 8.912925
_cell_length_b 28.660199
_cell_length_c 8.838953
_cell_angle_alpha 90.000000
_cell_angle_beta 45.712327
_cell_angle_gamma 90.000000
_cell_volume 1616.285392
_symmetry_space_group_name_H-M "C 2/M"
_symmetry_group_IT_number 12
_symmetry_cell_setting 'monoclinic'
loop_
_space_group_symop_operation_xyz
x,y,z
-x,y,-z
-x,-y,-z
x,-y,z
1/2+x,1/2+y,z
1/2-x,1/2+y,-z
1/2-x,1/2-y,-z
1/2+x,1/2-y,z
loop_
_atom_site_type_symbol
_atom_site_label
_atom_site_fract_x
_atom_site_fract_y
_atom_site_fract_z
Si Si1 0.500000 0.072787 0.000000
Si Si2 0.702544 0.821149 0.449135
Si Si3 0.719886 0.500000 0.647851
Si Si4 0.006300 0.742402 0.154878
Si Si5 0.199700 0.911315 0.456954
Si Si6 0.730612 0.000000 0.042262
O O1 0.631110 0.103402 0.789741
O O2 0.348962 0.044039 0.995098
O O3 0.500000 0.839125 0.500000
O O4 0.874313 0.791109 0.236778
O O5 0.603202 0.789529 0.647401
O O6 0.832083 0.865545 0.418835
O O7 0.774081 0.454605 0.508345
O O8 0.843276 0.500000 0.725281
O O9 0.478897 0.500000 0.862566
O O10 0.000000 0.716081 0.000000
O O11 0.250000 0.750000 0.000000
O O12 0.000000 0.926502 0.500000
#
# Coordination Sequence:
#
# PCOD8112404 Si02
#       6
#     4   8   4   8   8   4
#     4  11  24  42  68  94 132 180 240 274 354 401
#     4  11  27  45  69 110 138 178 236 282 342 423
#     4  11  23  47  69  96 142 183 234 292 348 395
#     4  11  24  48  76  99 141 182 220 284 352 412
#     4  12  27  45  68 100 142 185 231 293 341 415
#     4  10  22  43  69  96 123 188 235 287 343 412
#
# _framework density 22.273295000000001
#
# number of rings (size 3 to 8) (size 9 to 14) (size 15 to 20)
#    0.000    0.889    4.444    1.667    7.778    0.889 
#    4.000    0.000    0.000    0.000    0.000    0.000 
#    0.000    0.000    0.000    0.000    0.000    0.000 
#
# Total GULP energy -223012.903499 kJ/mol
# GULP energy per Si atom -12389.605750 kJ/mol
# Density = 2.222260 g / cm^3
# Si number density = 22.273295 Si / 1000 Ang^3
#
#
#
# Elastic Constant Matrix: (Units=GPa)
#
#
# Indices 1 2 3 4 5 6 
#
# 1 132.2030 20.9018 20.6672 0.0000 11.3527 0.0000
# 2 20.9018 85.1058 14.2505 0.0000 6.0158 0.0000
# 3 20.6672 14.2505 111.2158 0.0000 13.7188 0.0000
# 4 0.0000 0.0000 0.0000 18.1236 0.0000 6.7907
# 5 11.3527 6.0158 13.7188 0.0000 41.7877 0.0000
# 6 0.0000 0.0000 0.0000 6.7907 0.0000 10.3592
#
#
#
# Elastic Compliance Matrix: (Units=1/GPa)
#
#
# Indices 1 2 3 4 5 6 
#
# 1 0.008143 -0.001703 -0.001097 0.000000 -0.001607 0.000000
# 2 -0.001703 0.012429 -0.001160 0.000000 -0.000946 0.000000
# 3 -0.001097 -0.001160 0.009679 0.000000 -0.002713 0.000000
# 4 0.000000 0.000000 0.000000 0.073141 0.000000 -0.047946
# 5 -0.001607 -0.000946 -0.002713 0.000000 0.025394 0.000000
# 6 0.000000 0.000000 0.000000 -0.047946 0.000000 0.127962
#
#
# Mechanical properties :
#
#
# Convention : Reuss Voigt Hill
#
# Bulk Modulus (GPa) = 44.77723 48.90706 46.84214
# Shear Modulus (GPa) = 18.37497 32.23445 25.30471
#
# Velocity S-wave (km/s) = 2.87536 3.80837 3.37427
# Velocity P-wave (km/s) = 5.58308 6.42990 6.02139
#
# Compressibility (1/GPa) = 0.02233278
#
# Stress axis : x y z
#
# Youngs Moduli (GPa) = 122.80832 80.45522 103.32162
#
# Poissons Ratio (x) = 0.13698 0.11332
# Poissons Ratio (y) = 0.20909 0.11980
# Poissons Ratio (z) = 0.13469 0.09329
#
# Static dielectric constant tensor:
#      x y z
#    x 4.173160 0.000000 0.124680 
#    y 0.000000 3.366020 0.000000 
#    z 0.124680 0.000000 4.312960 
# 
# 
# High freq. dielectric constant tensor:
#      x y z
#    x 1.897420 0.000000 0.002360 
#    y 0.000000 1.851800 0.000000 
#    z 0.002360 0.000000 1.901680 
# 
# From -- ./inp_files/41363.got.cif
#   From: 2010.06.25/outbox.cif.g09.slc.cpg/sg12_21_cif.got.tgz:41363.got - 2010.06.28 00:19:55.
