data_PCOD8112425
_publ_section_title
;
Structure prediction by ZEFSAII (Michael W. Deem and Ramdas Pophale) SiO2 
 PCOD8112425
Probable space group: C 2/M
;
_chemical_formula_sum "Si O2"
_cell_formula_units_Z 64
_cell_length_a 28.697987
_cell_length_b 12.272986
_cell_length_c 17.630387
_cell_angle_alpha 90.000000
_cell_angle_beta 27.892473
_cell_angle_gamma 90.000000
_cell_volume 2904.935295
_symmetry_space_group_name_H-M "C 2/M"
_symmetry_group_IT_number 12
_symmetry_cell_setting 'monoclinic'
loop_
_space_group_symop_operation_xyz
x,y,z
-x,y,-z
-x,-y,-z
x,-y,z
1/2+x,1/2+y,z
1/2-x,1/2+y,-z
1/2-x,1/2-y,-z
1/2+x,1/2-y,z
loop_
_atom_site_type_symbol
_atom_site_label
_atom_site_fract_x
_atom_site_fract_y
_atom_site_fract_z
Si Si1 0.705715 0.122319 0.265030
Si Si2 0.091168 0.736454 0.564503
Si Si3 0.252668 0.622280 0.563716
Si Si4 0.972403 0.120643 0.620118
Si Si5 0.428059 0.874777 0.902835
Si Si6 0.623334 0.684235 0.747028
Si Si7 0.731873 0.301732 0.105444
Si Si8 0.404012 0.315906 0.040645
O O1 0.650072 0.157072 0.422557
O O2 0.685974 0.209625 0.227745
O O3 0.670578 0.000000 0.292823
O O4 0.826100 0.117967 0.101880
O O5 0.172056 0.812388 0.489840
O O6 0.012685 0.808968 0.631587
O O7 0.027100 0.670082 0.718454
O O8 0.235158 0.500000 0.619494
O O9 0.295321 0.616492 0.416617
O O10 0.147378 0.685646 0.708020
O O11 0.853139 0.110070 0.789727
O O12 0.000000 0.175036 0.500000
O O13 0.019054 0.000000 0.560683
O O14 0.403363 0.811795 0.017145
O O15 0.446096 0.000000 0.897121
O O16 0.330726 0.862170 0.990780
O O17 0.517725 0.648142 0.863436
O O18 0.627761 0.656988 0.828657
O O19 0.750000 0.250000 0.000000
#
# Coordination Sequence:
#
# PCOD8112425 Si02
#       8
#     8   8   8   8   8   8   8   8
#     4  11  25  43  68  94 129 175 209 260 327 379
#     4  12  22  46  64  94 136 163 218 267 310 395
#     4  11  24  42  67  95 129 173 214 264 323 375
#     4  11  23  41  67  92 124 172 216 261 317 372
#     4  11  24  41  67  94 128 173 208 264 331 378
#     4  10  22  44  65  92 129 163 216 270 311 379
#     4  11  23  45  63  94 134 162 215 269 310 387
#     4  10  22  44  64  90 133 161 214 267 311 391
#
# _framework density 22.031472999999998
#
# number of rings (size 3 to 8) (size 9 to 14) (size 15 to 20)
#    0.000    1.125    5.000    1.125    0.000    3.000 
#    0.000    3.125    0.000    0.000    0.000    0.000 
#    0.000    0.000    0.000    0.000    0.000    0.000 
#
# Total GULP energy -396537.782951 kJ/mol
# GULP energy per Si atom -12391.805717 kJ/mol
# Density = 2.198133 g / cm^3
# Si number density = 22.031473 Si / 1000 Ang^3
#
#
#
# Elastic Constant Matrix: (Units=GPa)
#
#
# Indices 1 2 3 4 5 6 
#
# 1 64.4728 1.4827 7.1864 0.0000 -1.6366 0.0000
# 2 1.4827 99.5973 0.1318 0.0000 1.3892 0.0000
# 3 7.1864 0.1318 73.4619 0.0000 -6.9966 0.0000
# 4 0.0000 0.0000 0.0000 20.8772 0.0000 -0.8850
# 5 -1.6366 1.3892 -6.9966 0.0000 37.7083 0.0000
# 6 0.0000 0.0000 0.0000 -0.8850 0.0000 18.8636
#
#
#
# Elastic Compliance Matrix: (Units=1/GPa)
#
#
# Indices 1 2 3 4 5 6 
#
# 1 0.015693 -0.000237 -0.001495 0.000000 0.000412 0.000000
# 2 -0.000237 0.010049 -0.000032 0.000000 -0.000386 0.000000
# 3 -0.001495 -0.000032 0.014000 0.000000 0.002534 0.000000
# 4 0.000000 0.000000 0.000000 0.047995 0.000000 0.002252
# 5 0.000412 -0.000386 0.002534 0.000000 0.027022 0.000000
# 6 0.000000 0.000000 0.000000 0.002252 0.000000 0.053118
#
#
# Mechanical properties :
#
#
# Convention : Reuss Voigt Hill
#
# Bulk Modulus (GPa) = 27.61388 28.34821 27.98105
# Shear Modulus (GPa) = 27.25139 30.73856 28.99498
#
# Velocity S-wave (km/s) = 3.52082 3.73931 3.63170
# Velocity P-wave (km/s) = 5.39344 5.61590 5.50579
#
# Compressibility (1/GPa) = 0.03621367
#
# Stress axis : x y z
#
# Youngs Moduli (GPa) = 63.72256 99.50848 71.42761
#
# Poissons Ratio (x) = 0.02362 0.10682
# Poissons Ratio (y) = 0.01513 0.00226
# Poissons Ratio (z) = 0.09529 0.00315
#
# Static dielectric constant tensor:
#      x y z
#    x 3.945090 0.000000 0.189910 
#    y 0.000000 3.616190 0.000000 
#    z 0.189910 0.000000 3.430980 
# 
# 
# High freq. dielectric constant tensor:
#      x y z
#    x 1.872120 0.000000 -0.002860 
#    y 0.000000 1.848680 0.000000 
#    z -0.002860 0.000000 1.878280 
# 
# From -- ./inp_files/296452.got.cif
#   From: 2010.06.25/outbox.cif.g09.slc.cpg/sg12_149_cif.got.tgz:296452.got - 2010.06.28 00:19:55.
