data_PCOD8112124
_publ_section_title
;
Structure prediction by ZEFSAII (Michael W. Deem and Ramdas Pophale) SiO2 
 PCOD8112124
Probable space group: C 2/M
;
_chemical_formula_sum "Si O2"
_cell_formula_units_Z 28
_cell_length_a 16.160630
_cell_length_b 7.469909
_cell_length_c 13.343881
_cell_angle_alpha 90.000000
_cell_angle_beta 110.312701
_cell_angle_gamma 90.000000
_cell_volume 1510.676754
_symmetry_space_group_name_H-M "C 2/M"
_symmetry_group_IT_number 12
_symmetry_cell_setting 'monoclinic'
loop_
_space_group_symop_operation_xyz
x,y,z
-x,y,-z
-x,-y,-z
x,-y,z
1/2+x,1/2+y,z
1/2-x,1/2+y,-z
1/2-x,1/2-y,-z
1/2+x,1/2-y,z
loop_
_atom_site_type_symbol
_atom_site_label
_atom_site_fract_x
_atom_site_fract_y
_atom_site_fract_z
Si Si1 0.397247 0.500000 0.977623
Si Si2 0.356768 0.500000 0.192972
Si Si3 0.804858 0.303388 0.816321
Si Si4 0.166327 0.291486 0.397440
Si Si5 0.470927 0.500000 0.601385
O O1 0.353993 0.675442 0.913136
O O2 0.500000 0.500000 0.000000
O O3 0.381046 0.500000 0.087854
O O4 0.298626 0.323280 0.196208
O O5 0.445022 0.500000 0.292821
O O6 0.850534 0.500000 0.842472
O O7 0.811120 0.229956 0.706019
O O8 0.141807 0.500000 0.392977
O O9 0.250000 0.250000 0.500000
O O10 0.083848 0.179218 0.401479
O O11 0.500000 0.500000 0.500000
#
# Coordination Sequence:
#
# PCOD8112124 Si02
#       5
#     4   4   8   8   4
#     4  12  22  38  64  90 120 161 203 250 307 367
#     4  10  22  42  59  88 125 159 203 258 299 361
#     4   9  22  40  60  87 120 159 203 248 306 356
#     4  11  21  39  64  90 121 165 205 253 308 363
#     4  12  24  42  62  92 130 156 206 258 302 374
#
# _framework density 18.534738999999998
#
# number of rings (size 3 to 8) (size 9 to 14) (size 15 to 20)
#    0.857    0.571    1.429    5.143    0.000    1.143 
#    2.571    0.000    0.000    0.000    0.000    0.000 
#    0.000    0.000    0.000    0.000    0.000    0.000 
#
# Total GULP energy -173575.879929 kJ/mol
# GULP energy per Si atom -12398.277138 kJ/mol
# Density = 1.849255 g / cm^3
# Si number density = 18.534739 Si / 1000 Ang^3
#
#
#
# Elastic Constant Matrix: (Units=GPa)
#
#
# Indices 1 2 3 4 5 6 
#
# 1 170.1445 63.3853 101.3647 0.0000 -5.5197 0.0000
# 2 63.3853 105.8639 66.5062 0.0000 4.4056 0.0000
# 3 101.3647 66.5062 190.9389 0.0000 -9.3796 0.0000
# 4 0.0000 0.0000 0.0000 27.0517 0.0000 2.0261
# 5 -5.5197 4.4056 -9.3796 0.0000 52.6799 0.0000
# 6 0.0000 0.0000 0.0000 2.0261 0.0000 43.2470
#
#
#
# Elastic Compliance Matrix: (Units=1/GPa)
#
#
# Indices 1 2 3 4 5 6 
#
# 1 0.009380 -0.003238 -0.003824 0.000000 0.000573 0.000000
# 2 -0.003238 0.013377 -0.003039 0.000000 -0.001999 0.000000
# 3 -0.003824 -0.003039 0.008392 0.000000 0.001348 0.000000
# 4 0.000000 0.000000 0.000000 0.037096 0.000000 -0.001738
# 5 0.000573 -0.001999 0.001348 0.000000 0.019450 0.000000
# 6 0.000000 0.000000 0.000000 -0.001738 0.000000 0.023204
#
#
# Mechanical properties :
#
#
# Convention : Reuss Voigt Hill
#
# Bulk Modulus (GPa) = 91.33852 103.27331 97.30592
# Shear Modulus (GPa) = 37.10584 40.30843 38.70714
#
# Velocity S-wave (km/s) = 4.47918 4.66848 4.57481
# Velocity P-wave (km/s) = 8.72567 9.21409 8.97320
#
# Compressibility (1/GPa) = 0.01094828
#
# Stress axis : x y z
#
# Youngs Moduli (GPa) = 106.60676 74.75566 119.16423
#
# Poissons Ratio (x) = 0.24206 0.45566
# Poissons Ratio (y) = 0.34520 0.36209
# Poissons Ratio (z) = 0.40764 0.22715
#
# Static dielectric constant tensor:
#      x y z
#    x 3.483950 0.000000 -0.100300 
#    y 0.000000 3.477160 0.000000 
#    z -0.100300 0.000000 3.456730 
# 
# 
# High freq. dielectric constant tensor:
#      x y z
#    x 1.722470 0.000000 -0.010700 
#    y 0.000000 1.719620 0.000000 
#    z -0.010700 0.000000 1.736880 
# 
# From -- ./inp_files/138880.got.cif
#   From: 2010.06.25/outbox.cif.g09.slc.cpg/sg12_70_cif.got.tgz:138880.got - 2010.06.28 00:19:55.
