data_PCOD8112958
_publ_section_title
;
Structure prediction by ZEFSAII (Michael W. Deem and Ramdas Pophale) SiO2 
 PCOD8112958
Probable space group: C 2/M
;
_chemical_formula_sum "Si O2"
_cell_formula_units_Z 44
_cell_length_a 8.983009
_cell_length_b 15.932087
_cell_length_c 17.175208
_cell_angle_alpha 90.000000
_cell_angle_beta 61.696921
_cell_angle_gamma 90.000000
_cell_volume 2164.223618
_symmetry_space_group_name_H-M "C 2/M"
_symmetry_group_IT_number 12
_symmetry_cell_setting 'monoclinic'
loop_
_space_group_symop_operation_xyz
x,y,z
-x,y,-z
-x,-y,-z
x,-y,z
1/2+x,1/2+y,z
1/2-x,1/2+y,-z
1/2-x,1/2-y,-z
1/2+x,1/2-y,z
loop_
_atom_site_type_symbol
_atom_site_label
_atom_site_fract_x
_atom_site_fract_y
_atom_site_fract_z
Si Si1 0.488673 0.180164 0.388638
Si Si2 0.703345 0.000000 0.955637
Si Si3 0.305671 0.336458 0.026668
Si Si4 0.282723 0.653759 0.429223
Si Si5 0.708154 0.000000 0.783395
Si Si6 0.996630 0.000000 0.405916
Si Si7 0.427799 0.094649 0.790492
O O1 0.414702 0.273174 0.416072
O O2 0.675349 0.176819 0.379438
O O3 0.348114 0.126584 0.469943
O O4 0.504827 0.147092 0.298474
O O5 0.792102 0.000000 0.847940
O O6 0.500000 0.000000 0.000000
O O7 0.767410 0.083139 0.982654
O O8 0.210979 0.349204 0.132143
O O9 0.500000 0.330666 0.000000
O O10 0.250000 0.250000 0.000000
O O11 0.403216 0.576200 0.388143
O O12 0.588572 0.082860 0.807929
O O13 0.819373 0.000000 0.677800
O O14 0.000000 0.000000 0.500000
O O15 0.360756 0.000000 0.783698
#
# Coordination Sequence:
#
# PCOD8112958 Si02
#       7
#     8   4   8   8   4   4   8
#     4  10  23  42  69  94 140 176 225 278 336 394
#     4  12  21  48  70  96 145 171 230 287 343 410
#     4  12  27  45  74 103 137 181 227 289 354 414
#     4  10  25  42  66  98 137 180 222 279 335 391
#     4  10  24  39  74  97 133 184 219 280 347 395
#     4  12  26  40  67 102 139 175 231 272 336 405
#     4  10  23  42  71 100 135 176 229 277 345 401
#
# _framework density 20.330615999999999
#
# number of rings (size 3 to 8) (size 9 to 14) (size 15 to 20)
#    0.545    0.727    2.727    1.909   10.182    5.091 
#    0.000    0.000    0.000    0.000    0.000    0.000 
#    0.000    0.000    0.000    0.000    0.000    0.000 
#
# Total GULP energy -272594.779617 kJ/mol
# GULP energy per Si atom -12390.671801 kJ/mol
# Density = 2.028434 g / cm^3
# Si number density = 20.330616 Si / 1000 Ang^3
#
#
#
# Elastic Constant Matrix: (Units=GPa)
#
#
# Indices 1 2 3 4 5 6 
#
# 1 135.0554 55.9350 35.0075 0.0000 -1.7060 0.0000
# 2 55.9350 104.3356 40.2729 0.0000 -3.7496 0.0000
# 3 35.0075 40.2729 140.8377 0.0000 2.4325 0.0000
# 4 0.0000 0.0000 0.0000 31.5517 0.0000 5.9056
# 5 -1.7060 -3.7496 2.4325 0.0000 33.8825 0.0000
# 6 0.0000 0.0000 0.0000 5.9056 0.0000 33.1039
#
#
#
# Elastic Compliance Matrix: (Units=1/GPa)
#
#
# Indices 1 2 3 4 5 6 
#
# 1 0.009650 -0.004773 -0.001034 0.000000 0.000032 0.000000
# 2 -0.004773 0.013203 -0.002613 0.000000 0.001408 0.000000
# 3 -0.001034 -0.002613 0.008121 0.000000 -0.000924 0.000000
# 4 0.000000 0.000000 0.000000 0.032789 0.000000 -0.005849
# 5 0.000032 0.001408 -0.000924 0.000000 0.029738 0.000000
# 6 0.000000 0.000000 0.000000 -0.005849 0.000000 0.031251
#
#
# Mechanical properties :
#
#
# Convention : Reuss Voigt Hill
#
# Bulk Modulus (GPa) = 70.76129 71.40662 71.08396
# Shear Modulus (GPa) = 34.17583 36.30849 35.24216
#
# Velocity S-wave (km/s) = 4.10445 4.23058 4.16799
# Velocity P-wave (km/s) = 7.57251 7.68522 7.62907
#
# Compressibility (1/GPa) = 0.01413202
#
# Stress axis : x y z
#
# Youngs Moduli (GPa) = 103.63114 75.74317 123.14216
#
# Poissons Ratio (x) = 0.36151 0.12737
# Poissons Ratio (y) = 0.49461 0.32180
# Poissons Ratio (z) = 0.10719 0.19794
#
# Static dielectric constant tensor:
#      x y z
#    x 3.794570 0.000000 -0.080220 
#    y 0.000000 3.727400 0.000000 
#    z -0.080220 0.000000 3.723070 
# 
# 
# High freq. dielectric constant tensor:
#      x y z
#    x 1.797270 0.000000 -0.004300 
#    y 0.000000 1.793600 0.000000 
#    z -0.004300 0.000000 1.800210 
# 
# From -- ./inp_files/255317.got.cif
#   From: 2010.06.25/outbox.cif.g09.slc.cpg/sg12_128_cif.got.tgz:255317.got - 2010.06.28 00:19:55.
