data_PCOD8112117
_publ_section_title
;
Structure prediction by ZEFSAII (Michael W. Deem and Ramdas Pophale) SiO2 
 PCOD8112117
Probable space group: C 2/M
;
_chemical_formula_sum "Si O2"
_cell_formula_units_Z 44
_cell_length_a 10.474229
_cell_length_b 9.930842
_cell_length_c 24.294858
_cell_angle_alpha 90.000000
_cell_angle_beta 54.388540
_cell_angle_gamma 90.000000
_cell_volume 2054.493005
_symmetry_space_group_name_H-M "C 2/M"
_symmetry_group_IT_number 12
_symmetry_cell_setting 'monoclinic'
loop_
_space_group_symop_operation_xyz
x,y,z
-x,y,-z
-x,-y,-z
x,-y,z
1/2+x,1/2+y,z
1/2-x,1/2+y,-z
1/2-x,1/2-y,-z
1/2+x,1/2-y,z
loop_
_atom_site_type_symbol
_atom_site_label
_atom_site_fract_x
_atom_site_fract_y
_atom_site_fract_z
Si Si1 0.390488 0.655005 0.579992
Si Si2 0.160501 0.500000 0.890525
Si Si3 0.029363 0.000000 0.255296
Si Si4 0.444325 0.500000 0.157460
Si Si5 0.039543 0.252630 0.653376
Si Si6 0.090468 0.500000 0.250643
Si Si7 0.299669 0.280190 0.926013
Si Si8 0.096224 0.500000 0.133250
O O1 0.500000 0.668518 0.500000
O O2 0.363612 0.500000 0.603646
O O3 0.224759 0.720299 0.605887
O O4 0.475297 0.733160 0.608043
O O5 0.292985 0.500000 0.810426
O O6 0.169310 0.368417 0.926951
O O7 0.998895 0.500000 0.899476
O O8 0.994195 0.126578 0.300974
O O9 0.918396 0.000000 0.229913
O O10 0.267081 0.500000 0.180203
O O11 0.536860 0.364987 0.115696
O O12 0.942698 0.372709 0.704053
O O13 0.994614 0.500000 0.216280
O O14 0.306326 0.138862 0.892132
O O15 0.250000 0.250000 0.000000
#
# Coordination Sequence:
#
# PCOD8112117 Si02
#       8
#     8   4   4   4   8   4   8   4
#     4  11  25  47  71 106 146 186 236 294 349 415
#     4  10  25  45  65 100 136 175 215 298 327 410
#     4  10  22  41  70  95 142 170 229 278 356 401
#     4  10  23  44  63 103 141 172 225 306 336 412
#     4  12  24  45  72 107 136 193 235 290 350 428
#     4  12  26  41  69 105 139 177 239 279 353 422
#     4  10  23  45  69  96 128 178 230 271 351 412
#     4  12  26  41  68  97 133 179 219 280 346 395
#
# _framework density 21.416477
#
# number of rings (size 3 to 8) (size 9 to 14) (size 15 to 20)
#    0.000    1.273    1.818    4.909    7.636    1.455 
#    0.000    1.818    0.000    0.000    0.000    0.000 
#    0.000    0.000    0.000    0.000    0.000    0.000 
#
# Total GULP energy -272770.083145 kJ/mol
# GULP energy per Si atom -12398.640143 kJ/mol
# Density = 2.136773 g / cm^3
# Si number density = 21.416477 Si / 1000 Ang^3
#
#
#
# Elastic Constant Matrix: (Units=GPa)
#
#
# Indices 1 2 3 4 5 6 
#
# 1 121.8750 44.0616 45.2186 0.0000 21.8350 0.0000
# 2 44.0616 189.3870 71.0985 0.0000 15.7282 0.0000
# 3 45.2186 71.0985 129.8857 0.0000 22.2738 0.0000
# 4 0.0000 0.0000 0.0000 0.9367 0.0000 67.7563
# 5 21.8350 15.7282 22.2738 0.0000 32.1667 0.0000
# 6 0.0000 0.0000 0.0000 67.7563 0.0000 -55.9534
#
#
#
# Elastic Compliance Matrix: (Units=1/GPa)
#
#
# Indices 1 2 3 4 5 6 
#
# 1 0.010300 -0.001205 -0.002075 0.000000 -0.004966 0.000000
# 2 -0.001205 0.006806 -0.003263 0.000000 -0.000250 0.000000
# 3 -0.002075 -0.003263 0.010999 0.000000 -0.004612 0.000000
# 4 0.000000 0.000000 0.000000 0.012050 0.000000 0.014592
# 5 -0.004966 -0.000250 -0.004612 0.000000 0.037775 0.000000
# 6 0.000000 0.000000 0.000000 0.014592 0.000000 -0.000202
#
#
# Mechanical properties :
#
#
# Convention : Reuss Voigt Hill
#
# Bulk Modulus (GPa) = 66.58182 84.65611 75.61897
# Shear Modulus (GPa) = 52.18032 14.14794 33.16413
#
# Velocity S-wave (km/s) = 4.94140 2.57302 3.93941
# Velocity P-wave (km/s) = 7.98205 6.96000 7.48848
#
# Compressibility (1/GPa) = 0.01501911
#
# Stress axis : x y z
#
# Youngs Moduli (GPa) = 97.08465 146.91940 90.92085
#
# Poissons Ratio (x) = 0.17706 0.18863
# Poissons Ratio (y) = 0.11700 0.29670
# Poissons Ratio (z) = 0.20142 0.47944
#
# Static dielectric constant tensor:
#      x y z
#    x 3.968710 0.000000 0.163550 
#    y 0.000000 4.232330 0.000000 
#    z 0.163550 0.000000 3.944530 
# 
# 
# High freq. dielectric constant tensor:
#      x y z
#    x 1.840250 0.000000 0.014540 
#    y 0.000000 1.857960 0.000000 
#    z 0.014540 0.000000 1.855440 
# 
# From -- ./inp_files/334767.got.cif
#   From: 2010.06.25/outbox.cif.g09.slc.cpg/sg12_168_cif.got.tgz:334767.got - 2010.06.28 00:19:55.
