data_PCOD8112060
_publ_section_title
;
Structure prediction by ZEFSAII (Michael W. Deem and Ramdas Pophale) SiO2 
 PCOD8112060
Probable space group: C 2/M
;
_chemical_formula_sum "Si O2"
_cell_formula_units_Z 64
_cell_length_a 8.432719
_cell_length_b 28.782416
_cell_length_c 22.446803
_cell_angle_alpha 90.000000
_cell_angle_beta 35.042446
_cell_angle_gamma 90.000000
_cell_volume 3128.238051
_symmetry_space_group_name_H-M "C 2/M"
_symmetry_group_IT_number 12
_symmetry_cell_setting 'monoclinic'
loop_
_space_group_symop_operation_xyz
x,y,z
-x,y,-z
-x,-y,-z
x,-y,z
1/2+x,1/2+y,z
1/2-x,1/2+y,-z
1/2-x,1/2-y,-z
1/2+x,1/2-y,z
loop_
_atom_site_type_symbol
_atom_site_label
_atom_site_fract_x
_atom_site_fract_y
_atom_site_fract_z
Si Si1 0.705919 0.873780 0.561156
Si Si2 0.178969 0.103721 0.230271
Si Si3 0.947151 0.182253 0.382383
Si Si4 0.260238 0.054423 0.962498
Si Si5 0.767614 0.314268 0.762761
Si Si6 0.344702 0.744568 0.311052
Si Si7 0.195453 0.121013 0.089206
Si Si8 0.144989 0.550751 0.393065
O O1 0.539487 0.843150 0.660051
O O2 0.521523 0.918581 0.603643
O O3 0.000000 0.887699 0.500000
O O4 0.742990 0.846931 0.487076
O O5 0.152723 0.149745 0.279541
O O6 0.100921 0.110987 0.185165
O O7 0.945041 0.068053 0.321288
O O8 0.481722 0.081653 0.146138
O O9 0.111176 0.217022 0.374612
O O10 0.770874 0.215134 0.392830
O O11 0.203731 0.074769 0.045891
O O12 0.328559 0.000000 0.948298
O O13 0.000000 0.062673 0.000000
O O14 0.617090 0.292651 0.752181
O O15 0.534723 0.344612 0.868280
O O16 0.863091 0.271637 0.774609
O O17 0.500000 0.144022 0.000000
O O18 0.169370 0.500000 0.355664
O O19 0.000000 0.547695 0.500000
#
# Coordination Sequence:
#
# PCOD8112060 Si02
#       8
#     8   8   8   8   8   8   8   8
#     4  12  24  39  63  92 130 171 211 259 318 367
#     4  11  21  41  69  90 127 166 204 253 313 373
#     4  11  22  39  60  94 127 168 206 258 307 370
#     4  10  24  43  68  99 124 154 206 264 314 371
#     4  11  22  41  59  94 124 166 207 261 310 365
#     4  10  23  37  64  88 129 160 215 255 308 370
#     4  10  22  41  67  90 122 160 206 253 316 372
#     4  11  23  40  63  92 126 169 209 248 303 386
#
# _framework density 20.458801999999999
#
# number of rings (size 3 to 8) (size 9 to 14) (size 15 to 20)
#    0.000    1.250    5.000    0.375    1.750    6.000 
#    0.000    0.625    0.000    0.000    0.000    0.000 
#    0.000    0.000    0.000    0.000    0.000    0.000 
#
# Total GULP energy -396679.461303 kJ/mol
# GULP energy per Si atom -12396.233166 kJ/mol
# Density = 2.041224 g / cm^3
# Si number density = 20.458802 Si / 1000 Ang^3
#
#
#
# Elastic Constant Matrix: (Units=GPa)
#
#
# Indices 1 2 3 4 5 6 
#
# 1 87.5190 39.5550 20.8311 0.0003 -17.6406 -0.0004
# 2 39.5550 117.6338 38.3986 -0.0004 -13.7843 -0.0001
# 3 20.8311 38.3986 86.1409 0.0041 -13.5098 -0.0026
# 4 0.0003 -0.0004 0.0041 22.4338 -0.0006 -0.4416
# 5 -17.6406 -13.7843 -13.5098 -0.0006 30.3423 0.0002
# 6 -0.0004 -0.0001 -0.0026 -0.4416 0.0002 35.6132
#
#
#
# Elastic Compliance Matrix: (Units=1/GPa)
#
#
# Indices 1 2 3 4 5 6 
#
# 1 0.014680 -0.003927 -0.000796 0.000000 0.006396 0.000000
# 2 -0.003927 0.011215 -0.003879 0.000001 0.001085 0.000000
# 3 -0.000796 -0.003879 0.014171 -0.000003 0.004084 0.000001
# 4 0.000000 0.000001 -0.000003 0.044587 0.000000 0.000553
# 5 0.006396 0.001085 0.004084 0.000000 0.038987 0.000000
# 6 0.000000 0.000000 0.000001 0.000553 0.000000 0.028086
#
#
# Mechanical properties :
#
#
# Convention : Reuss Voigt Hill
#
# Bulk Modulus (GPa) = 43.74336 54.31814 49.03075
# Shear Modulus (GPa) = 28.32045 30.51179 29.41612
#
# Velocity S-wave (km/s) = 3.72461 3.86602 3.79598
# Velocity P-wave (km/s) = 6.31859 6.82172 6.57497
#
# Compressibility (1/GPa) = 0.02286061
#
# Stress axis : x y z
#
# Youngs Moduli (GPa) = 68.12202 89.16824 70.56472
#
# Poissons Ratio (x) = 0.35013 0.05620
# Poissons Ratio (y) = 0.26749 0.27376
# Poissons Ratio (z) = 0.05425 0.34593
#
# Static dielectric constant tensor:
#      x y z
#    x 3.787310 0.000000 -0.096320 
#    y 0.000000 4.537900 -0.000010 
#    z -0.096320 -0.000010 3.673650 
# 
# 
# High freq. dielectric constant tensor:
#      x y z
#    x 1.804700 0.000000 -0.012320 
#    y 0.000000 1.805140 0.000000 
#    z -0.012320 0.000000 1.788650 
# 
# From -- ./inp_files/334334.got.cif
#   From: 2010.06.25/outbox.cif.g09.slc.cpg/sg12_168_cif.got.tgz:334334.got - 2010.06.28 00:19:55.
