data_PCOD8112791
_publ_section_title
;
Structure prediction by ZEFSAII (Michael W. Deem and Ramdas Pophale) SiO2 
 PCOD8112791
Probable space group: C 2/M
;
_chemical_formula_sum "Si O2"
_cell_formula_units_Z 64
_cell_length_a 25.665250
_cell_length_b 22.497040
_cell_length_c 17.866916
_cell_angle_alpha 90.000000
_cell_angle_beta 161.312114
_cell_angle_gamma 90.000000
_cell_volume 3305.447150
_symmetry_space_group_name_H-M "C 2/M"
_symmetry_group_IT_number 12
_symmetry_cell_setting 'monoclinic'
loop_
_space_group_symop_operation_xyz
x,y,z
-x,y,-z
-x,-y,-z
x,-y,z
1/2+x,1/2+y,z
1/2-x,1/2+y,-z
1/2-x,1/2-y,-z
1/2+x,1/2-y,z
loop_
_atom_site_type_symbol
_atom_site_label
_atom_site_fract_x
_atom_site_fract_y
_atom_site_fract_z
Si Si1 0.535890 0.644094 0.370785
Si Si2 0.602011 0.249523 0.567865
Si Si3 0.001539 0.567875 0.214579
Si Si4 0.869039 0.068256 0.261815
Si Si5 0.368232 0.116813 0.761111
Si Si6 0.878025 0.243243 0.770044
Si Si7 0.455249 0.818608 0.643801
Si Si8 0.918772 0.773990 0.086525
O O1 0.621456 0.693450 0.540397
O O2 0.401674 0.605148 0.231019
O O3 0.683915 0.603998 0.539348
O O4 0.425886 0.672992 0.155921
O O5 0.500000 0.269669 0.500000
O O6 0.511588 0.195725 0.398912
O O7 0.771969 0.223980 0.828169
O O8 0.038033 0.500000 0.288072
O O9 0.096311 0.581859 0.267338
O O10 0.065088 0.611453 0.367490
O O11 0.808541 0.579272 0.944571
O O12 0.000000 0.089970 0.500000
O O13 0.894351 0.000000 0.274939
O O14 0.387963 0.186234 0.774457
O O15 0.500000 0.092965 0.000000
O O16 0.702830 0.220230 0.552976
O O17 0.921301 0.217712 0.747163
O O18 0.000000 0.220665 0.000000
O O19 0.592243 0.789509 0.884357
#
# Coordination Sequence:
#
# PCOD8112791 Si02
#       8
#     8   8   8   8   8   8   8   8
#     4  11  23  36  59  90 120 155 191 240 292 357
#     4  11  24  36  55  91 122 151 194 236 298 354
#     4  11  25  40  60  84 114 160 206 244 285 344
#     4  10  23  42  60  81 117 163 200 239 294 349
#     4  11  20  35  61  89 124 152 189 239 294 353
#     4  11  18  36  59  89 120 154 185 231 303 360
#     4  11  22  37  60  84 119 155 191 241 291 353
#     4  11  21  35  57  89 120 151 188 237 297 355
#
# _framework density 19.361979999999999
#
# number of rings (size 3 to 8) (size 9 to 14) (size 15 to 20)
#    0.000    1.125    5.000    3.000    5.250    1.750 
#    0.000    0.000    0.000    1.500    0.000    0.000 
#    0.000    0.000    0.000    0.000    0.000    0.000 
#
# Total GULP energy -396718.726712 kJ/mol
# GULP energy per Si atom -12397.460210 kJ/mol
# Density = 1.931791 g / cm^3
# Si number density = 19.361980 Si / 1000 Ang^3
#
#
#
# Elastic Constant Matrix: (Units=GPa)
#
#
# Indices 1 2 3 4 5 6 
#
# 1 109.7431 38.0957 19.3518 0.0000 0.6918 0.0000
# 2 38.0957 87.7000 18.7717 0.0000 -8.0234 0.0000
# 3 19.3518 18.7717 53.8486 0.0000 -9.1099 0.0000
# 4 0.0000 0.0000 0.0000 17.1142 0.0000 1.4994
# 5 0.6918 -8.0234 -9.1099 0.0000 35.6852 0.0000
# 6 0.0000 0.0000 0.0000 1.4994 0.0000 31.2564
#
#
#
# Elastic Compliance Matrix: (Units=1/GPa)
#
#
# Indices 1 2 3 4 5 6 
#
# 1 0.011152 -0.004423 -0.002791 0.000000 -0.001923 0.000000
# 2 -0.004423 0.014181 -0.002927 0.000000 0.002527 0.000000
# 3 -0.002791 -0.002927 0.021417 0.000000 0.004863 0.000000
# 4 0.000000 0.000000 0.000000 0.058678 0.000000 -0.002815
# 5 -0.001923 0.002527 0.004863 0.000000 0.029870 0.000000
# 6 0.000000 0.000000 0.000000 -0.002815 0.000000 0.032128
#
#
# Mechanical properties :
#
#
# Convention : Reuss Voigt Hill
#
# Bulk Modulus (GPa) = 37.78072 44.85890 41.31981
# Shear Modulus (GPa) = 25.44144 28.48267 26.96205
#
# Velocity S-wave (km/s) = 3.62883 3.83960 3.73570
# Velocity P-wave (km/s) = 6.09205 6.54794 6.32411
#
# Compressibility (1/GPa) = 0.02646852
#
# Stress axis : x y z
#
# Youngs Moduli (GPa) = 89.67173 70.51540 46.69250
#
# Poissons Ratio (x) = 0.31187 0.13033
# Poissons Ratio (y) = 0.39659 0.13665
# Poissons Ratio (z) = 0.25030 0.20638
#
# Static dielectric constant tensor:
#      x y z
#    x 3.969990 0.000000 -0.056750 
#    y 0.000000 3.341470 0.000000 
#    z -0.056750 0.000000 3.689100 
# 
# 
# High freq. dielectric constant tensor:
#      x y z
#    x 1.774220 0.000000 0.004430 
#    y 0.000000 1.719030 0.000000 
#    z 0.004430 0.000000 1.746180 
# 
# From -- ./inp_files/294304.got.cif
#   From: 2010.06.25/outbox.cif.g09.slc.cpg/sg12_148_cif.got.tgz:294304.got - 2010.06.28 00:19:55.
