data_PCOD8112754
_publ_section_title
;
Structure prediction by ZEFSAII (Michael W. Deem and Ramdas Pophale) SiO2 
 PCOD8112754
Probable space group: C 2/M
;
_chemical_formula_sum "Si O2"
_cell_formula_units_Z 40
_cell_length_a 19.700146
_cell_length_b 8.759203
_cell_length_c 15.095924
_cell_angle_alpha 90.000000
_cell_angle_beta 48.566959
_cell_angle_gamma 90.000000
_cell_volume 1952.982649
_symmetry_space_group_name_H-M "C 2/M"
_symmetry_group_IT_number 12
_symmetry_cell_setting 'monoclinic'
loop_
_space_group_symop_operation_xyz
x,y,z
-x,y,-z
-x,-y,-z
x,-y,z
1/2+x,1/2+y,z
1/2-x,1/2+y,-z
1/2-x,1/2-y,-z
1/2+x,1/2-y,z
loop_
_atom_site_type_symbol
_atom_site_label
_atom_site_fract_x
_atom_site_fract_y
_atom_site_fract_z
Si Si1 0.240872 0.320747 0.237624
Si Si2 0.554703 0.323189 0.365699
Si Si3 0.992535 0.675154 0.250539
Si Si4 0.677033 0.178937 0.996882
Si Si5 0.291859 0.822724 0.376561
O O1 0.255092 0.500000 0.228472
O O2 0.143135 0.281202 0.281849
O O3 0.315232 0.248419 0.108082
O O4 0.247285 0.254113 0.330067
O O5 0.500000 0.279218 0.500000
O O6 0.583047 0.500000 0.340595
O O7 0.491722 0.284221 0.336662
O O8 0.999124 0.500000 0.276670
O O9 0.899545 0.704432 0.278663
O O10 0.075674 0.718203 0.115191
O O11 0.695376 0.000000 0.977034
O O12 0.750000 0.250000 0.000000
O O13 0.250000 0.750000 0.500000
O O14 0.266602 0.000000 0.397431
#
# Coordination Sequence:
#
# PCOD8112754 Si02
#       5
#     8   8   8   8   8
#     4  12  25  41  63  92 127 170 212 259 315 373
#     4  11  23  38  61  92 123 160 210 265 315 372
#     4  10  23  41  64  91 124 165 207 256 319 379
#     4  11  22  40  65  95 127 164 209 264 319 374
#     4  11  24  44  66  93 129 169 210 260 316 378
#
# _framework density 20.481493
#
# number of rings (size 3 to 8) (size 9 to 14) (size 15 to 20)
#    0.000    1.000    2.000    4.800    0.000    8.000 
#    0.000    4.000    0.000    0.000    0.000    0.000 
#    0.000    0.000    0.000    0.000    0.000    0.000 
#
# Total GULP energy -248148.777293 kJ/mol
# GULP energy per Si atom -12407.438865 kJ/mol
# Density = 2.043488 g / cm^3
# Si number density = 20.481493 Si / 1000 Ang^3
#
#
#
# Elastic Constant Matrix: (Units=GPa)
#
#
# Indices 1 2 3 4 5 6 
#
# 1 57.3017 20.1069 8.4943 0.0000 1.7942 0.0001
# 2 20.1069 115.3556 44.2171 0.0001 2.5805 -0.0001
# 3 8.4943 44.2171 107.4871 -0.0001 5.9354 0.0000
# 4 0.0000 0.0001 -0.0001 35.5906 0.0000 4.8712
# 5 1.7942 2.5805 5.9354 0.0000 42.7763 0.0000
# 6 0.0001 -0.0001 0.0000 4.8712 0.0000 35.8426
#
#
#
# Elastic Compliance Matrix: (Units=1/GPa)
#
#
# Indices 1 2 3 4 5 6 
#
# 1 0.018605 -0.003180 -0.000131 0.000000 -0.000570 0.000000
# 2 -0.003180 0.010835 -0.004210 0.000000 0.000064 0.000000
# 3 -0.000131 -0.004210 0.011116 0.000000 -0.001283 0.000000
# 4 0.000000 0.000000 0.000000 0.028630 0.000000 -0.003891
# 5 -0.000570 0.000064 -0.001283 0.000000 0.023576 0.000000
# 6 0.000000 0.000000 0.000000 -0.003891 0.000000 0.028429
#
#
# Mechanical properties :
#
#
# Convention : Reuss Voigt Hill
#
# Bulk Modulus (GPa) = 39.19139 47.30903 43.25021
# Shear Modulus (GPa) = 34.54574 36.66364 35.60469
#
# Velocity S-wave (km/s) = 4.11138 4.23553 4.17392
# Velocity P-wave (km/s) = 6.45867 6.86063 6.66268
#
# Compressibility (1/GPa) = 0.02551581
#
# Stress axis : x y z
#
# Youngs Moduli (GPa) = 53.75029 92.29114 89.95805
#
# Poissons Ratio (x) = 0.29349 0.01175
# Poissons Ratio (y) = 0.17093 0.37868
# Poissons Ratio (z) = 0.00702 0.38850
#
# Static dielectric constant tensor:
#      x y z
#    x 3.715490 0.000000 -0.077730 
#    y 0.000000 3.774350 0.000000 
#    z -0.077730 0.000000 3.932430 
# 
# 
# High freq. dielectric constant tensor:
#      x y z
#    x 1.798860 0.000000 -0.000580 
#    y 0.000000 1.810160 0.000000 
#    z -0.000580 0.000000 1.816850 
# 
# From -- ./inp_files/229654.got.cif
#   From: 2010.06.25/outbox.cif.g09.slc.cpg/sg12_115_cif.got.tgz:229654.got - 2010.06.28 00:19:55.
