data_PCOD8112864
_publ_section_title
;
Structure prediction by ZEFSAII (Michael W. Deem and Ramdas Pophale) SiO2 
 PCOD8112864
Probable space group: C 2/M
;
_chemical_formula_sum "Si O2"
_cell_formula_units_Z 56
_cell_length_a 21.559291
_cell_length_b 14.864441
_cell_length_c 13.921647
_cell_angle_alpha 90.000000
_cell_angle_beta 139.164234
_cell_angle_gamma 90.000000
_cell_volume 2917.295180
_symmetry_space_group_name_H-M "C 2/M"
_symmetry_group_IT_number 12
_symmetry_cell_setting 'monoclinic'
loop_
_space_group_symop_operation_xyz
x,y,z
-x,y,-z
-x,-y,-z
x,-y,z
1/2+x,1/2+y,z
1/2-x,1/2+y,-z
1/2-x,1/2-y,-z
1/2+x,1/2-y,z
loop_
_atom_site_type_symbol
_atom_site_label
_atom_site_fract_x
_atom_site_fract_y
_atom_site_fract_z
Si Si1 0.815333 0.104088 0.498288
Si Si2 0.856632 0.234055 0.094311
Si Si3 0.941614 0.600920 0.085107
Si Si4 0.510927 0.605463 0.625257
Si Si5 0.891022 0.904714 0.986140
Si Si6 0.120119 0.656394 0.194271
Si Si7 0.898677 0.143155 0.789452
O O1 0.911024 0.129973 0.555856
O O2 0.729298 0.158351 0.351603
O O3 0.820622 0.133191 0.615534
O O4 0.791436 0.000000 0.459863
O O5 0.911670 0.327235 0.132906
O O6 0.841318 0.177919 0.979248
O O7 0.911674 0.173192 0.237812
O O8 0.750000 0.250000 0.000000
O O9 0.916288 0.500000 0.092140
O O10 0.054224 0.602177 0.192673
O O11 0.885909 0.619117 0.920642
O O12 0.500000 0.625916 0.500000
O O13 0.538635 0.500000 0.674774
O O14 0.004056 0.898957 0.135334
O O15 0.858225 0.000000 0.993096
O O16 0.862578 0.908353 0.841160
O O17 0.079208 0.756275 0.151542
#
# Coordination Sequence:
#
# PCOD8112864 Si02
#       7
#     8   8   8   8   8   8   8
#     4  11  21  34  57  92 123 157 207 255 309 376
#     4  12  25  41  61  88 122 165 216 259 304 372
#     4  11  22  40  60  85 124 165 204 251 307 369
#     4  10  23  42  64  91 128 168 208 263 318 365
#     4  11  20  37  61  87 121 154 193 252 315 368
#     4  11  20  37  59  89 124 163 202 251 312 373
#     4  11  19  34  59  90 122 157 190 246 315 375
#
# _framework density 19.195864
#
# number of rings (size 3 to 8) (size 9 to 14) (size 15 to 20)
#    0.000    1.000    4.286    5.143    2.000    1.143 
#    0.000    0.000    0.000    0.429    0.000    0.000 
#    0.000    0.000    0.000    0.000    0.000    0.000 
#
# Total GULP energy -347098.259881 kJ/mol
# GULP energy per Si atom -12396.366424 kJ/mol
# Density = 1.915217 g / cm^3
# Si number density = 19.195864 Si / 1000 Ang^3
#
#
#
# Elastic Constant Matrix: (Units=GPa)
#
#
# Indices 1 2 3 4 5 6 
#
# 1 94.9660 39.6836 50.5040 0.0000 3.3129 0.0000
# 2 39.6836 134.2027 30.8042 0.0000 0.2496 0.0000
# 3 50.5040 30.8042 122.8358 0.0000 4.4628 0.0000
# 4 0.0000 0.0000 0.0000 25.7910 0.0000 -7.0172
# 5 3.3129 0.2496 4.4628 0.0000 23.3710 0.0000
# 6 0.0000 0.0000 0.0000 -7.0172 0.0000 16.7472
#
#
#
# Elastic Compliance Matrix: (Units=1/GPa)
#
#
# Indices 1 2 3 4 5 6 
#
# 1 0.014639 -0.003134 -0.005195 0.000000 -0.001050 0.000000
# 2 -0.003134 0.008580 -0.000882 0.000000 0.000521 0.000000
# 3 -0.005195 -0.000882 0.010544 0.000000 -0.001268 0.000000
# 4 0.000000 0.000000 0.000000 0.043762 0.000000 0.018337
# 5 -0.001050 0.000521 -0.001268 0.000000 0.043173 0.000000
# 6 0.000000 0.000000 0.000000 0.018337 0.000000 0.067395
#
#
# Mechanical properties :
#
#
# Convention : Reuss Voigt Hill
#
# Bulk Modulus (GPa) = 65.18528 65.99868 65.59198
# Shear Modulus (GPa) = 23.62631 28.58269 26.10450
#
# Velocity S-wave (km/s) = 3.51208 3.86295 3.69169
# Velocity P-wave (km/s) = 7.10479 7.37244 7.23985
#
# Compressibility (1/GPa) = 0.01534089
#
# Stress axis : x y z
#
# Youngs Moduli (GPa) = 68.31016 116.55428 94.84129
#
# Poissons Ratio (x) = 0.36533 0.49267
# Poissons Ratio (y) = 0.21411 0.08363
# Poissons Ratio (z) = 0.35485 0.10277
#
# Static dielectric constant tensor:
#      x y z
#    x 3.628710 0.000000 -0.249860 
#    y 0.000000 3.687740 0.000000 
#    z -0.249860 0.000000 3.446190 
# 
# 
# High freq. dielectric constant tensor:
#      x y z
#    x 1.728920 0.000000 -0.010030 
#    y 0.000000 1.761650 0.000000 
#    z -0.010030 0.000000 1.737340 
# 
# From -- ./inp_files/240435.got.cif
#   From: 2010.06.25/outbox.cif.g09.slc.cpg/sg12_121_cif.got.tgz:240435.got - 2010.06.28 00:19:55.
