data_PCOD8112241
_publ_section_title
;
Structure prediction by ZEFSAII (Michael W. Deem and Ramdas Pophale) SiO2 
 PCOD8112241
Probable space group: C 2/M
;
_chemical_formula_sum "Si O2"
_cell_formula_units_Z 48
_cell_length_a 14.470824
_cell_length_b 26.454192
_cell_length_c 9.365177
_cell_angle_alpha 90.000000
_cell_angle_beta 140.693853
_cell_angle_gamma 90.000000
_cell_volume 2271.044356
_symmetry_space_group_name_H-M "C 2/M"
_symmetry_group_IT_number 12
_symmetry_cell_setting 'monoclinic'
loop_
_space_group_symop_operation_xyz
x,y,z
-x,y,-z
-x,-y,-z
x,-y,z
1/2+x,1/2+y,z
1/2-x,1/2+y,-z
1/2-x,1/2-y,-z
1/2+x,1/2-y,z
loop_
_atom_site_type_symbol
_atom_site_label
_atom_site_fract_x
_atom_site_fract_y
_atom_site_fract_z
Si Si1 0.716514 0.371899 0.364171
Si Si2 0.830044 0.759334 0.748654
Si Si3 0.226789 0.058947 0.120642
Si Si4 0.761402 0.200888 0.104910
Si Si5 0.017029 0.115838 0.680528
Si Si6 0.534624 0.132508 0.693005
O O1 0.688620 0.319167 0.246125
O O2 0.668638 0.415494 0.196981
O O3 0.633845 0.375957 0.415730
O O4 0.887078 0.379963 0.601955
O O5 0.750000 0.750000 0.500000
O O6 0.733652 0.720529 0.727114
O O7 0.000000 0.747117 0.000000
O O8 0.380513 0.081514 0.250526
O O9 0.245435 0.000000 0.167648
O O10 0.106644 0.070831 0.858793
O O11 0.904632 0.170330 0.230277
O O12 0.750000 0.250000 0.000000
O O13 0.621444 0.166651 0.907045
O O14 0.000000 0.096213 0.500000
O O15 0.500000 0.160992 0.500000
#
# Coordination Sequence:
#
# PCOD8112241 Si02
#       6
#     8   8   8   8   8   8
#     4  11  22  40  64  93 126 162 213 266 317 385
#     4  12  24  39  62  93 130 174 223 271 321 385
#     4  10  22  42  67  92 120 158 208 267 328 389
#     4  11  22  37  58  85 123 168 211 258 317 380
#     4  11  24  40  59  88 127 166 207 262 324 389
#     4   9  20  38  62  92 124 159 207 266 321 385
#
# _framework density 21.135650999999999
#
# number of rings (size 3 to 8) (size 9 to 14) (size 15 to 20)
#    0.000    1.333    0.000    7.500    0.000    6.667 
#    0.000    2.500    0.000    1.000    0.000    0.000 
#    0.000    0.000    0.000    0.000    0.000    0.000 
#
# Total GULP energy -297343.186388 kJ/mol
# GULP energy per Si atom -12389.299433 kJ/mol
# Density = 2.108755 g / cm^3
# Si number density = 21.135651 Si / 1000 Ang^3
#
#
#
# Elastic Constant Matrix: (Units=GPa)
#
#
# Indices 1 2 3 4 5 6 
#
# 1 173.6108 54.0002 72.3852 0.0000 1.0568 0.0000
# 2 54.0002 142.4958 42.2946 0.0000 -13.9581 0.0000
# 3 72.3852 42.2946 130.5537 0.0000 -10.7443 0.0000
# 4 0.0000 0.0000 0.0000 13.0608 0.0000 -4.6884
# 5 1.0568 -13.9581 -10.7443 0.0000 38.0959 0.0000
# 6 0.0000 0.0000 0.0000 -4.6884 0.0000 23.3554
#
#
#
# Elastic Compliance Matrix: (Units=1/GPa)
#
#
# Indices 1 2 3 4 5 6 
#
# 1 0.008081 -0.002089 -0.003978 0.000000 -0.002111 0.000000
# 2 -0.002089 0.008486 -0.001362 0.000000 0.002783 0.000000
# 3 -0.003978 -0.001362 0.010518 0.000000 0.002578 0.000000
# 4 0.000000 0.000000 0.000000 0.082511 0.000000 0.016563
# 5 -0.002111 0.002783 0.002578 0.000000 0.028055 0.000000
# 6 0.000000 0.000000 0.000000 0.016563 0.000000 0.046142
#
#
# Mechanical properties :
#
#
# Convention : Reuss Voigt Hill
#
# Bulk Modulus (GPa) = 81.77318 87.11337 84.44328
# Shear Modulus (GPa) = 24.66390 33.43445 29.04918
#
# Velocity S-wave (km/s) = 3.41975 3.98162 3.71133
# Velocity P-wave (km/s) = 7.37337 7.90212 7.64232
#
# Compressibility (1/GPa) = 0.01222895
#
# Stress axis : x y z
#
# Youngs Moduli (GPa) = 123.74885 117.83915 95.07082
#
# Poissons Ratio (x) = 0.24611 0.37815
# Poissons Ratio (y) = 0.25845 0.12950
# Poissons Ratio (z) = 0.49222 0.16052
#
# Static dielectric constant tensor:
#      x y z
#    x 3.703590 0.000000 0.139950 
#    y 0.000000 3.331520 0.000000 
#    z 0.139950 0.000000 4.166540 
# 
# 
# High freq. dielectric constant tensor:
#      x y z
#    x 1.832160 0.000000 0.007400 
#    y 0.000000 1.807040 0.000000 
#    z 0.007400 0.000000 1.843180 
# 
# From -- ./inp_files/67433.got.cif
#   From: 2010.06.25/outbox.cif.g09.slc.cpg/sg12_34_cif.got.tgz:67433.got - 2010.06.28 00:19:55.
