data_PCOD8112989
_publ_section_title
;
Structure prediction by ZEFSAII (Michael W. Deem and Ramdas Pophale) SiO2 
 PCOD8112989
Probable space group: C 2/M
;
_chemical_formula_sum "Si O2"
_cell_formula_units_Z 48
_cell_length_a 9.747941
_cell_length_b 14.671825
_cell_length_c 17.159434
_cell_angle_alpha 90.000000
_cell_angle_beta 87.818279
_cell_angle_gamma 90.000000
_cell_volume 2452.364722
_symmetry_space_group_name_H-M "C 2/M"
_symmetry_group_IT_number 12
_symmetry_cell_setting 'monoclinic'
loop_
_space_group_symop_operation_xyz
x,y,z
-x,y,-z
-x,-y,-z
x,-y,z
1/2+x,1/2+y,z
1/2-x,1/2+y,-z
1/2-x,1/2-y,-z
1/2+x,1/2-y,z
loop_
_atom_site_type_symbol
_atom_site_label
_atom_site_fract_x
_atom_site_fract_y
_atom_site_fract_z
Si Si1 0.324947 0.604396 0.426393
Si Si2 0.241965 0.734030 0.301418
Si Si3 0.500850 0.245153 0.196253
Si Si4 0.596775 0.105278 0.927457
Si Si5 0.642545 0.395567 0.399568
Si Si6 0.086616 0.894900 0.073438
O O1 0.295967 0.500000 0.405733
O O2 0.226748 0.665555 0.374629
O O3 0.288869 0.622957 0.517556
O O4 0.482796 0.629216 0.407360
O O5 0.393102 0.724447 0.263497
O O6 0.135114 0.706923 0.236472
O O7 0.216295 0.836411 0.331925
O O8 0.438385 0.163993 0.147020
O O9 0.538325 0.334187 0.146144
O O10 0.753687 0.121977 0.949312
O O11 0.569396 0.000000 0.907361
O O12 0.500000 0.137761 0.000000
O O13 0.663556 0.500000 0.374489
O O14 0.059019 0.000000 0.096356
O O15 0.000000 0.865801 0.000000
#
# Coordination Sequence:
#
# PCOD8112989 Si02
#       6
#     8   8   8   8   8   8
#     4   9  19  38  62  87 115 156 205 244 285 349
#     4  12  23  38  58  91 123 155 196 241 299 349
#     4  12  25  38  60  89 124 160 190 241 299 353
#     4  10  23  43  64  87 118 156 197 243 294 346
#     4   9  19  38  63  85 115 160 202 241 290 350
#     4  10  23  43  65  87 115 157 203 240 284 352
#
# _framework density 19.572944
#
# number of rings (size 3 to 8) (size 9 to 14) (size 15 to 20)
#    0.000    1.667    3.333    2.000    2.333    4.000 
#    0.000    0.000    0.000    2.000    0.000    0.000 
#    0.000    0.000    0.000    0.000    0.000    0.000 
#
# Total GULP energy -297710.827595 kJ/mol
# GULP energy per Si atom -12404.617816 kJ/mol
# Density = 1.952840 g / cm^3
# Si number density = 19.572944 Si / 1000 Ang^3
#
#
#
# Elastic Constant Matrix: (Units=GPa)
#
#
# Indices 1 2 3 4 5 6 
#
# 1 70.6101 43.4803 42.3674 0.0000 -2.2296 0.0000
# 2 43.4803 74.8466 46.0575 0.0000 15.4547 0.0000
# 3 42.3674 46.0575 94.2323 0.0000 16.7274 0.0000
# 4 0.0000 0.0000 0.0000 33.3817 0.0000 -2.0100
# 5 -2.2296 15.4547 16.7274 0.0000 39.2214 0.0000
# 6 0.0000 0.0000 0.0000 -2.0100 0.0000 26.9156
#
#
#
# Elastic Compliance Matrix: (Units=1/GPa)
#
#
# Indices 1 2 3 4 5 6 
#
# 1 0.027088 -0.013168 -0.007505 0.000000 0.009929 0.000000
# 2 -0.013168 0.026057 -0.005258 0.000000 -0.008773 0.000000
# 3 -0.007505 -0.005258 0.017597 0.000000 -0.005859 0.000000
# 4 0.000000 0.000000 0.000000 0.030092 0.000000 0.002247
# 5 0.009929 -0.008773 -0.005859 0.000000 0.032017 0.000000
# 6 0.000000 0.000000 0.000000 0.002247 0.000000 0.037321
#
#
# Mechanical properties :
#
#
# Convention : Reuss Voigt Hill
#
# Bulk Modulus (GPa) = 52.96883 55.94440 54.45661
# Shear Modulus (GPa) = 21.89842 27.08933 24.49387
#
# Velocity S-wave (km/s) = 3.34849 3.72428 3.54137
# Velocity P-wave (km/s) = 6.48621 6.86573 6.67866
#
# Compressibility (1/GPa) = 0.01887903
#
# Stress axis : x y z
#
# Youngs Moduli (GPa) = 36.91734 38.37685 56.82852
#
# Poissons Ratio (x) = 0.50533 0.42652
# Poissons Ratio (y) = 0.48611 0.29882
# Poissons Ratio (z) = 0.27708 0.20180
#
# Static dielectric constant tensor:
#      x y z
#    x 3.522520 0.000000 0.074380 
#    y 0.000000 3.519250 0.000000 
#    z 0.074380 0.000000 3.599120 
# 
# 
# High freq. dielectric constant tensor:
#      x y z
#    x 1.755320 0.000000 0.006250 
#    y 0.000000 1.766090 0.000000 
#    z 0.006250 0.000000 1.770500 
# 
# From -- ./inp_files/251430.got.cif
#   From: 2010.06.25/outbox.cif.g09.slc.cpg/sg12_126_cif.got.tgz:251430.got - 2010.06.28 00:19:55.
