data_PCOD8112580
_publ_section_title
;
Structure prediction by ZEFSAII (Michael W. Deem and Ramdas Pophale) SiO2 
 PCOD8112580
Probable space group: C 2/M
;
_chemical_formula_sum "Si O2"
_cell_formula_units_Z 44
_cell_length_a 24.429597
_cell_length_b 14.347407
_cell_length_c 18.540736
_cell_angle_alpha 90.000000
_cell_angle_beta 161.379677
_cell_angle_gamma 90.000000
_cell_volume 2074.958631
_symmetry_space_group_name_H-M "C 2/M"
_symmetry_group_IT_number 12
_symmetry_cell_setting 'monoclinic'
loop_
_space_group_symop_operation_xyz
x,y,z
-x,y,-z
-x,-y,-z
x,-y,z
1/2+x,1/2+y,z
1/2-x,1/2+y,-z
1/2-x,1/2-y,-z
1/2+x,1/2-y,z
loop_
_atom_site_type_symbol
_atom_site_label
_atom_site_fract_x
_atom_site_fract_y
_atom_site_fract_z
Si Si1 0.067280 0.000000 0.859423
Si Si2 0.968112 0.847053 0.626308
Si Si3 0.150027 0.605131 0.139073
Si Si4 0.600232 0.500000 0.200378
Si Si5 0.036999 0.500000 0.629668
Si Si6 0.207083 0.393777 0.052754
Si Si7 0.897593 0.362941 0.563516
O O1 0.991316 0.092477 0.727399
O O2 0.034758 0.000000 0.903656
O O3 0.269214 0.000000 0.101887
O O4 0.831333 0.897081 0.404939
O O5 0.889553 0.747805 0.549303
O O6 0.148437 0.834802 0.809255
O O7 0.087742 0.500000 0.045854
O O8 0.175388 0.652572 0.092088
O O9 0.000000 0.654549 0.000000
O O10 0.712118 0.406071 0.349543
O O11 0.500000 0.500000 0.000000
O O12 0.000000 0.500000 0.500000
O O13 0.952669 0.406364 0.555795
O O14 0.275857 0.500000 0.144552
O O15 0.027640 0.393264 0.787957
#
# Coordination Sequence:
#
# PCOD8112580 Si02
#       7
#     4   8   8   4   4   8   8
#     4  12  24  42  72  96 133 172 228 279 341 408
#     4  12  23  41  66 105 131 170 224 283 335 401
#     4  10  23  39  63  92 133 175 212 261 332 412
#     4  11  27  51  68  92 135 182 225 280 336 403
#     4  11  23  45  68  96 129 181 231 281 327 391
#     4  11  20  41  68  93 132 176 217 270 339 392
#     4  11  24  44  68  95 134 174 225 277 340 395
#
# _framework density 21.205242999999999
#
# number of rings (size 3 to 8) (size 9 to 14) (size 15 to 20)
#    0.000    0.909    5.455    2.182    2.545    4.364 
#    3.273    0.000    0.000    0.000    0.000    0.000 
#    0.000    0.000    0.000    0.000    0.000    0.000 
#
# Total GULP energy -272833.580197 kJ/mol
# GULP energy per Si atom -12401.526373 kJ/mol
# Density = 2.115698 g / cm^3
# Si number density = 21.205243 Si / 1000 Ang^3
#
#
#
# Elastic Constant Matrix: (Units=GPa)
#
#
# Indices 1 2 3 4 5 6 
#
# 1 130.6155 17.5558 22.0225 -0.0015 -11.7455 0.0014
# 2 17.5558 106.7823 -2.0962 -0.0016 1.0723 0.0017
# 3 22.0225 -2.0962 92.5290 -0.0043 -9.4142 0.0011
# 4 -0.0015 -0.0016 -0.0043 12.0986 -0.0005 0.8173
# 5 -11.7455 1.0723 -9.4142 -0.0005 41.1367 0.0019
# 6 0.0014 0.0017 0.0011 0.8173 0.0019 12.6834
#
#
#
# Elastic Compliance Matrix: (Units=1/GPa)
#
#
# Indices 1 2 3 4 5 6 
#
# 1 0.008333 -0.001426 -0.001812 0.000000 0.002002 -0.000001
# 2 -0.001426 0.009615 0.000502 0.000001 -0.000543 -0.000001
# 3 -0.001812 0.000502 0.011463 0.000004 0.002093 -0.000001
# 4 0.000000 0.000001 0.000004 0.083015 0.000002 -0.005350
# 5 0.002002 -0.000543 0.002093 0.000002 0.025374 -0.000004
# 6 -0.000001 -0.000001 -0.000001 -0.005350 -0.000004 0.079188
#
#
# Mechanical properties :
#
#
# Convention : Reuss Voigt Hill
#
# Bulk Modulus (GPa) = 41.77253 44.98790 43.38022
# Shear Modulus (GPa) = 21.69767 32.68006 27.18886
#
# Velocity S-wave (km/s) = 3.20225 3.92998 3.58463
# Velocity P-wave (km/s) = 5.78053 6.46951 6.13470
#
# Compressibility (1/GPa) = 0.02393918
#
# Stress axis : x y z
#
# Youngs Moduli (GPa) = 120.00178 104.00902 87.23726
#
# Poissons Ratio (x) = 0.14829 0.15807
# Poissons Ratio (y) = 0.17109 -0.04379
# Poissons Ratio (z) = 0.21744 -0.05220
#
# Static dielectric constant tensor:
#      x y z
#    x 3.977970 0.000000 0.018460 
#    y 0.000000 4.240630 0.000000 
#    z 0.018460 0.000000 3.820980 
# 
# 
# High freq. dielectric constant tensor:
#      x y z
#    x 1.839940 0.000000 -0.003370 
#    y 0.000000 1.806380 0.000000 
#    z -0.003370 0.000000 1.841950 
# 
# From -- ./inp_files/290204.got.cif
#   From: 2010.06.25/outbox.cif.g09.slc.cpg/sg12_146_cif.got.tgz:290204.got - 2010.06.28 00:19:55.
