data_PCOD8112331
_publ_section_title
;
Structure prediction by ZEFSAII (Michael W. Deem and Ramdas Pophale) SiO2 
 PCOD8112331
Probable space group: C 2/M
;
_chemical_formula_sum "Si O2"
_cell_formula_units_Z 56
_cell_length_a 26.361750
_cell_length_b 13.859565
_cell_length_c 8.967130
_cell_angle_alpha 90.000000
_cell_angle_beta 58.891447
_cell_angle_gamma 90.000000
_cell_volume 2805.094118
_symmetry_space_group_name_H-M "C 2/M"
_symmetry_group_IT_number 12
_symmetry_cell_setting 'monoclinic'
loop_
_space_group_symop_operation_xyz
x,y,z
-x,y,-z
-x,-y,-z
x,-y,z
1/2+x,1/2+y,z
1/2-x,1/2+y,-z
1/2-x,1/2-y,-z
1/2+x,1/2-y,z
loop_
_atom_site_type_symbol
_atom_site_label
_atom_site_fract_x
_atom_site_fract_y
_atom_site_fract_z
Si Si1 0.645430 0.231118 0.397723
Si Si2 0.239978 0.887835 0.775511
Si Si3 0.579244 0.890388 0.020179
Si Si4 0.670357 0.608514 0.592014
Si Si5 0.365987 0.719919 0.915933
Si Si6 0.439802 0.389720 0.027792
Si Si7 0.555249 0.888700 0.718425
O O1 0.693799 0.148124 0.297189
O O2 0.674284 0.314876 0.454078
O O3 0.626238 0.280098 0.272750
O O4 0.587469 0.182278 0.555281
O O5 0.223969 0.873255 0.625852
O O6 0.234160 0.000000 0.828647
O O7 0.196584 0.827010 0.947155
O O8 0.629609 0.828456 0.026154
O O9 0.515084 0.875263 0.193097
O O10 0.599947 0.000000 0.004342
O O11 0.576251 0.859851 0.852056
O O12 0.674398 0.500000 0.519905
O O13 0.609230 0.622410 0.771797
O O14 0.420929 0.662024 0.904111
O O15 0.451146 0.500000 0.967413
O O16 0.500000 0.342154 0.000000
O O17 0.572257 0.000000 0.660124
#
# Coordination Sequence:
#
# PCOD8112331 Si02
#       7
#     8   8   8   8   8   8   8
#     4  12  23  36  58  92 125 153 190 248 312 354
#     4  10  22  43  63  81 113 161 208 245 289 358
#     4   9  20  38  59  84 118 159 203 239 285 353
#     4   9  20  37  58  84 114 152 199 247 291 344
#     4  11  23  36  59  88 120 155 198 243 309 351
#     4   9  19  38  62  83 111 161 210 241 283 347
#     4   9  19  37  60  84 114 158 202 244 285 344
#
# _framework density 19.96368
#
# number of rings (size 3 to 8) (size 9 to 14) (size 15 to 20)
#    0.000    2.143    0.000    5.143    4.000    2.857 
#    0.000    3.571    0.000    2.571    0.000    0.000 
#    0.000    0.000    0.000    0.000    0.000    0.000 
#
# Total GULP energy -347263.208549 kJ/mol
# GULP energy per Si atom -12402.257448 kJ/mol
# Density = 1.991824 g / cm^3
# Si number density = 19.963680 Si / 1000 Ang^3
#
#
#
# Elastic Constant Matrix: (Units=GPa)
#
#
# Indices 1 2 3 4 5 6 
#
# 1 82.3999 34.1605 41.5478 0.0000 3.9671 0.0000
# 2 34.1605 103.0493 56.5400 0.0000 5.8400 0.0000
# 3 41.5478 56.5400 100.3418 0.0000 12.3465 0.0000
# 4 0.0000 0.0000 0.0000 22.3585 0.0000 -12.9854
# 5 3.9671 5.8400 12.3465 0.0000 28.6959 0.0000
# 6 0.0000 0.0000 0.0000 -12.9854 0.0000 27.6990
#
#
#
# Elastic Compliance Matrix: (Units=1/GPa)
#
#
# Indices 1 2 3 4 5 6 
#
# 1 0.015739 -0.002368 -0.005252 0.000000 0.000566 0.000000
# 2 -0.002368 0.014412 -0.007201 0.000000 0.000493 0.000000
# 3 -0.005252 -0.007201 0.016819 0.000000 -0.005045 0.000000
# 4 0.000000 0.000000 0.000000 0.061459 0.000000 0.028812
# 5 0.000566 0.000493 -0.005045 0.000000 0.036840 0.000000
# 6 0.000000 0.000000 0.000000 0.028812 0.000000 0.049610
#
#
# Mechanical properties :
#
#
# Convention : Reuss Voigt Hill
#
# Bulk Modulus (GPa) = 57.71094 61.14307 59.42701
# Shear Modulus (GPa) = 21.71111 25.98687 23.84899
#
# Velocity S-wave (km/s) = 3.30135 3.61183 3.46008
# Velocity P-wave (km/s) = 6.59565 6.93451 6.76720
#
# Compressibility (1/GPa) = 0.01732774
#
# Stress axis : x y z
#
# Youngs Moduli (GPa) = 63.53836 69.38640 59.45623
#
# Poissons Ratio (x) = 0.16428 0.31228
# Poissons Ratio (y) = 0.15043 0.42815
# Poissons Ratio (z) = 0.33372 0.49966
#
# Static dielectric constant tensor:
#      x y z
#    x 3.529310 0.000000 0.009800 
#    y 0.000000 3.804210 0.000000 
#    z 0.009800 0.000000 3.364280 
# 
# 
# High freq. dielectric constant tensor:
#      x y z
#    x 1.772670 0.000000 -0.003820 
#    y 0.000000 1.796900 0.000000 
#    z -0.003820 0.000000 1.755990 
# 
# From -- ./inp_files/104447.got.cif
#   From: 2010.06.25/outbox.cif.g09.slc.cpg/sg12_53_cif.got.tgz:104447.got - 2010.06.28 00:19:55.
