data_PCOD8112456
_publ_section_title
;
Structure prediction by ZEFSAII (Michael W. Deem and Ramdas Pophale) SiO2 
 PCOD8112456
Probable space group: C 2/M
;
_chemical_formula_sum "Si O2"
_cell_formula_units_Z 44
_cell_length_a 14.616406
_cell_length_b 10.961446
_cell_length_c 16.400937
_cell_angle_alpha 90.000000
_cell_angle_beta 123.675975
_cell_angle_gamma 90.000000
_cell_volume 2186.743678
_symmetry_space_group_name_H-M "C 2/M"
_symmetry_group_IT_number 12
_symmetry_cell_setting 'monoclinic'
loop_
_space_group_symop_operation_xyz
x,y,z
-x,y,-z
-x,-y,-z
x,-y,z
1/2+x,1/2+y,z
1/2-x,1/2+y,-z
1/2-x,1/2-y,-z
1/2+x,1/2-y,z
loop_
_atom_site_type_symbol
_atom_site_label
_atom_site_fract_x
_atom_site_fract_y
_atom_site_fract_z
Si Si1 0.100678 0.642093 0.607133
Si Si2 0.668775 0.000000 0.305052
Si Si3 0.718505 0.362541 0.926758
Si Si4 0.878477 0.500000 0.905309
Si Si5 0.540110 0.701696 0.714553
Si Si6 0.088280 0.000000 0.612758
Si Si7 0.303644 0.749095 0.614546
O O1 0.122263 0.500000 0.606091
O O2 0.067801 0.667449 0.685717
O O3 0.214498 0.708765 0.637231
O O4 0.000000 0.686845 0.500000
O O5 0.616915 0.000000 0.189525
O O6 0.634955 0.877395 0.334973
O O7 0.798641 0.000000 0.378084
O O8 0.704661 0.500000 0.961508
O O9 0.814033 0.378700 0.905416
O O10 0.604416 0.321162 0.829967
O O11 0.750000 0.250000 0.000000
O O12 0.000000 0.500000 0.000000
O O13 0.586254 0.617471 0.666695
O O14 0.412786 0.665273 0.667129
O O15 0.000000 0.000000 0.500000
O O16 0.250000 0.750000 0.500000
#
# Coordination Sequence:
#
# PCOD8112456 Si02
#       7
#     8   4   8   4   8   4   8
#     4  11  24  42  58  89 138 174 214 274 329 394
#     4  12  24  44  62  98 130 167 234 271 318 417
#     4  10  23  44  69 100 131 164 223 283 345 404
#     4  10  22  44  72  96 124 174 222 283 343 410
#     4  12  23  42  64  94 132 174 218 277 329 401
#     4  12  20  40  66  89 130 174 211 267 330 387
#     4  12  26  38  65  96 129 180 226 262 334 402
#
# _framework density 20.121243
#
# number of rings (size 3 to 8) (size 9 to 14) (size 15 to 20)
#    0.545    0.182    6.364    1.636    6.364    0.727 
#    0.000    0.000    0.000    0.545    0.000    0.000 
#    0.000    0.000    0.000    0.000    0.000    0.000 
#
# Total GULP energy -272585.665731 kJ/mol
# GULP energy per Si atom -12390.257533 kJ/mol
# Density = 2.007545 g / cm^3
# Si number density = 20.121243 Si / 1000 Ang^3
#
#
#
# Elastic Constant Matrix: (Units=GPa)
#
#
# Indices 1 2 3 4 5 6 
#
# 1 93.9410 11.2739 30.1818 0.0000 17.8166 0.0000
# 2 11.2739 93.2506 41.9343 0.0000 -11.3745 0.0000
# 3 30.1818 41.9343 158.5441 0.0000 7.9432 0.0000
# 4 0.0000 0.0000 0.0000 35.8755 0.0000 3.6915
# 5 17.8166 -11.3745 7.9432 0.0000 36.8104 0.0000
# 6 0.0000 0.0000 0.0000 3.6915 0.0000 2.3018
#
#
#
# Elastic Compliance Matrix: (Units=1/GPa)
#
#
# Indices 1 2 3 4 5 6 
#
# 1 0.012536 -0.001515 -0.001677 0.000000 -0.006174 0.000000
# 2 -0.001515 0.013141 -0.003465 0.000000 0.005542 0.000000
# 3 -0.001677 -0.003465 0.007639 0.000000 -0.001908 0.000000
# 4 0.000000 0.000000 0.000000 0.033383 0.000000 -0.053539
# 5 -0.006174 0.005542 -0.001908 0.000000 0.032278 0.000000
# 6 0.000000 0.000000 0.000000 -0.053539 0.000000 0.520312
#
#
# Mechanical properties :
#
#
# Convention : Reuss Voigt Hill
#
# Bulk Modulus (GPa) = 49.99170 56.94619 53.46894
# Shear Modulus (GPa) = 7.82142 32.48726 20.15434
#
# Velocity S-wave (km/s) = 1.97372 4.02254 3.16831
# Velocity P-wave (km/s) = 5.48573 7.06664 6.32577
#
# Compressibility (1/GPa) = 0.02000332
#
# Stress axis : x y z
#
# Youngs Moduli (GPa) = 79.76789 76.09726 130.91387
#
# Poissons Ratio (x) = 0.11527 0.21948
# Poissons Ratio (y) = 0.12083 0.45362
# Poissons Ratio (z) = 0.13374 0.26368
#
# Static dielectric constant tensor:
#      x y z
#    x 3.589440 0.000000 0.262030 
#    y 0.000000 4.080400 0.000000 
#    z 0.262030 0.000000 3.378300 
# 
# 
# High freq. dielectric constant tensor:
#      x y z
#    x 1.785470 0.000000 0.014020 
#    y 0.000000 1.789900 0.000000 
#    z 0.014020 0.000000 1.776760 
# 
# From -- ./inp_files/269024.got.cif
#   From: 2010.06.25/outbox.cif.g09.slc.cpg/sg12_135_cif.got.tgz:269024.got - 2010.06.28 00:19:55.
