data_PCOD8112378
_publ_section_title
;
Structure prediction by ZEFSAII (Michael W. Deem and Ramdas Pophale) SiO2 
 PCOD8112378
Probable space group: C 2/M
;
_chemical_formula_sum "Si O2"
_cell_formula_units_Z 56
_cell_length_a 9.033715
_cell_length_b 13.535114
_cell_length_c 22.465539
_cell_angle_alpha 90.000000
_cell_angle_beta 66.306184
_cell_angle_gamma 90.000000
_cell_volume 2515.366032
_symmetry_space_group_name_H-M "C 2/M"
_symmetry_group_IT_number 12
_symmetry_cell_setting 'monoclinic'
loop_
_space_group_symop_operation_xyz
x,y,z
-x,y,-z
-x,-y,-z
x,-y,z
1/2+x,1/2+y,z
1/2-x,1/2+y,-z
1/2-x,1/2-y,-z
1/2+x,1/2-y,z
loop_
_atom_site_type_symbol
_atom_site_label
_atom_site_fract_x
_atom_site_fract_y
_atom_site_fract_z
Si Si1 0.846855 0.108771 0.483193
Si Si2 0.722828 0.609692 0.203565
Si Si3 0.803643 0.723706 0.698405
Si Si4 0.015819 0.385704 0.078911
Si Si5 0.923011 0.885862 0.178456
Si Si6 0.857689 0.796863 0.061632
Si Si7 0.859133 0.277535 0.393324
O O1 0.887726 0.171007 0.418258
O O2 0.697344 0.149366 0.545779
O O3 0.000000 0.107473 0.500000
O O4 0.799647 0.000000 0.468679
O O5 0.672266 0.500000 0.231872
O O6 0.685529 0.679380 0.263629
O O7 0.609766 0.638176 0.164577
O O8 0.913348 0.612274 0.156610
O O9 0.684270 0.644207 0.747041
O O10 0.766846 0.760198 0.638435
O O11 0.981610 0.677183 0.663758
O O12 0.043728 0.500000 0.052568
O O13 0.184345 0.326559 0.062110
O O14 0.899456 0.322171 0.052438
O O15 0.868052 0.825380 0.129353
O O16 0.894169 0.000000 0.168348
O O17 0.000000 0.850446 0.000000
#
# Coordination Sequence:
#
# PCOD8112378 Si02
#       7
#     8   8   8   8   8   8   8
#     4  10  22  43  67  94 133 176 220 265 323 398
#     4  10  23  43  68  96 131 178 224 279 350 417
#     4  12  23  41  66  97 135 169 222 282 340 404
#     4  11  25  45  71 103 137 181 235 289 354 427
#     4  11  25  44  68  97 135 180 229 290 357 419
#     4  12  26  47  73 102 142 188 235 295 361 427
#     4  11  24  40  66 100 130 173 219 274 332 395
#
# _framework density 22.263162000000001
#
# number of rings (size 3 to 8) (size 9 to 14) (size 15 to 20)
#    0.000    1.000    4.286    1.714    2.000    3.714 
#    0.000    2.857    0.000    0.000    0.000    0.000 
#    0.000    0.000    0.000    0.000    0.000    0.000 
#
# Total GULP energy -347058.829817 kJ/mol
# GULP energy per Si atom -12394.958208 kJ/mol
# Density = 2.221249 g / cm^3
# Si number density = 22.263162 Si / 1000 Ang^3
#
#
#
# Elastic Constant Matrix: (Units=GPa)
#
#
# Indices 1 2 3 4 5 6 
#
# 1 117.1005 38.5191 21.6490 0.0000 -19.4003 0.0000
# 2 38.5191 133.8833 15.5131 0.0000 -1.9661 0.0000
# 3 21.6490 15.5131 89.9001 0.0000 -17.9531 0.0000
# 4 0.0000 0.0000 0.0000 14.9880 0.0000 -3.5743
# 5 -19.4003 -1.9661 -17.9531 0.0000 48.6301 0.0000
# 6 0.0000 0.0000 0.0000 -3.5743 0.0000 25.3797
#
#
#
# Elastic Compliance Matrix: (Units=1/GPa)
#
#
# Indices 1 2 3 4 5 6 
#
# 1 0.010265 -0.002752 -0.001297 0.000000 0.003505 0.000000
# 2 -0.002752 0.008361 -0.001006 0.000000 -0.001131 0.000000
# 3 -0.001297 -0.001006 0.012413 0.000000 0.004024 0.000000
# 4 0.000000 0.000000 0.000000 0.069039 0.000000 0.009723
# 5 0.003505 -0.001131 0.004024 0.000000 0.023402 0.000000
# 6 0.000000 0.000000 0.000000 0.009723 0.000000 0.040771
#
#
# Mechanical properties :
#
#
# Convention : Reuss Voigt Hill
#
# Bulk Modulus (GPa) = 47.77930 54.69403 51.23667
# Shear Modulus (GPa) = 27.57304 35.47975 31.52640
#
# Velocity S-wave (km/s) = 3.52306 3.99639 3.76717
# Velocity P-wave (km/s) = 6.16903 6.77608 6.47967
#
# Compressibility (1/GPa) = 0.02092956
#
# Stress axis : x y z
#
# Youngs Moduli (GPa) = 97.41554 119.60576 80.55987
#
# Poissons Ratio (x) = 0.32911 0.10450
# Poissons Ratio (y) = 0.26805 0.08104
# Poissons Ratio (z) = 0.12637 0.12032
#
# Static dielectric constant tensor:
#      x y z
#    x 3.996330 0.000000 -0.167270 
#    y 0.000000 4.238850 0.000000 
#    z -0.167270 0.000000 4.049440 
# 
# 
# High freq. dielectric constant tensor:
#      x y z
#    x 1.877130 0.000000 -0.009540 
#    y 0.000000 1.873200 0.000000 
#    z -0.009540 0.000000 1.891170 
# 
# From -- ./inp_files/332848.got.cif
#   From: 2010.06.25/outbox.cif.g09.slc.cpg/sg12_167_cif.got.tgz:332848.got - 2010.06.28 00:19:55.
