data_PCOD8112307
_publ_section_title
;
Structure prediction by ZEFSAII (Michael W. Deem and Ramdas Pophale) SiO2 
 PCOD8112307
Probable space group: C 2/M
;
_chemical_formula_sum "Si O2"
_cell_formula_units_Z 64
_cell_length_a 17.208870
_cell_length_b 15.252992
_cell_length_c 16.441617
_cell_angle_alpha 90.000000
_cell_angle_beta 41.461990
_cell_angle_gamma 90.000000
_cell_volume 2857.528875
_symmetry_space_group_name_H-M "C 2/M"
_symmetry_group_IT_number 12
_symmetry_cell_setting 'monoclinic'
loop_
_space_group_symop_operation_xyz
x,y,z
-x,y,-z
-x,-y,-z
x,-y,z
1/2+x,1/2+y,z
1/2-x,1/2+y,-z
1/2-x,1/2-y,-z
1/2+x,1/2-y,z
loop_
_atom_site_type_symbol
_atom_site_label
_atom_site_fract_x
_atom_site_fract_y
_atom_site_fract_z
Si Si1 0.413136 0.299184 0.769686
Si Si2 0.222339 0.401574 0.685759
Si Si3 0.807860 0.726464 0.693701
Si Si4 0.001122 0.630300 0.756084
Si Si5 0.761141 0.903751 0.000843
Si Si6 0.640710 0.599041 0.582383
Si Si7 0.635075 0.600928 0.910664
Si Si8 0.353100 0.102021 0.518144
O O1 0.390576 0.242695 0.706308
O O2 0.480731 0.234174 0.777771
O O3 0.505028 0.376584 0.687078
O O4 0.292660 0.336584 0.903043
O O5 0.241562 0.500000 0.708731
O O6 0.251444 0.322791 0.723720
O O7 0.314132 0.384053 0.542841
O O8 0.089685 0.398511 0.757190
O O9 0.703506 0.659370 0.792678
O O10 0.882376 0.675190 0.564819
O O11 0.876109 0.586688 0.872570
O O12 0.049174 0.602044 0.629697
O O13 0.830796 0.869427 0.025263
O O14 0.807431 0.000000 0.940093
O O15 0.648898 0.500000 0.602128
O O16 0.730403 0.641645 0.577372
O O17 0.670352 0.500000 0.868848
O O18 0.500000 0.617531 0.000000
O O19 0.346726 0.000000 0.555314
#
# Coordination Sequence:
#
# PCOD8112307 Si02
#       8
#     8   8   8   8   8   8   8   8
#     4  12  25  39  63  97 132 175 219 264 334 393
#     4  10  23  42  66  93 130 179 223 271 324 385
#     4  12  25  41  64  99 141 171 214 271 338 398
#     4  11  22  43  68  94 130 173 224 271 326 395
#     4  11  24  44  67  93 129 175 224 276 325 388
#     4   9  20  41  66  93 125 169 229 278 321 380
#     4  10  24  44  66  97 132 172 221 274 336 391
#     4  10  22  42  70 101 130 171 220 277 338 391
#
# _framework density 22.396974
#
# number of rings (size 3 to 8) (size 9 to 14) (size 15 to 20)
#    0.000    1.375    1.250    4.500    3.500    5.000 
#    0.000    1.875    0.000    1.875    0.000    0.000 
#    0.000    0.000    0.000    0.000    0.000    0.000 
#
# Total GULP energy -396548.962223 kJ/mol
# GULP energy per Si atom -12392.155069 kJ/mol
# Density = 2.234600 g / cm^3
# Si number density = 22.396974 Si / 1000 Ang^3
#
#
#
# Elastic Constant Matrix: (Units=GPa)
#
#
# Indices 1 2 3 4 5 6 
#
# 1 61.7997 13.5402 37.2337 0.0000 -4.2964 0.0000
# 2 13.5402 173.1049 37.5073 0.0000 -28.2415 0.0000
# 3 37.2337 37.5073 104.1660 0.0000 -16.1259 0.0000
# 4 0.0000 0.0000 0.0000 75.0298 0.0000 -17.2193
# 5 -4.2964 -28.2415 -16.1259 0.0000 40.6240 0.0000
# 6 0.0000 0.0000 0.0000 -17.2193 0.0000 45.1617
#
#
#
# Elastic Compliance Matrix: (Units=1/GPa)
#
#
# Indices 1 2 3 4 5 6 
#
# 1 0.020649 -0.000141 -0.007466 0.000000 -0.000878 0.000000
# 2 -0.000141 0.006832 -0.001786 0.000000 0.004025 0.000000
# 3 -0.007466 -0.001786 0.013422 0.000000 0.003297 0.000000
# 4 0.000000 0.000000 0.000000 0.014606 0.000000 0.005569
# 5 -0.000878 0.004025 0.003297 0.000000 0.028630 0.000000
# 6 0.000000 0.000000 0.000000 0.005569 0.000000 0.024266
#
#
# Mechanical properties :
#
#
# Convention : Reuss Voigt Hill
#
# Bulk Modulus (GPa) = 45.21454 57.29255 51.25354
# Shear Modulus (GPa) = 37.15680 48.88239 43.01960
#
# Velocity S-wave (km/s) = 4.07751 4.67684 4.38742
# Velocity P-wave (km/s) = 6.51151 7.40269 6.97135
#
# Compressibility (1/GPa) = 0.02211678
#
# Stress axis : x y z
#
# Youngs Moduli (GPa) = 48.42739 146.37785 74.50206
#
# Poissons Ratio (x) = 0.02059 0.55625
# Poissons Ratio (y) = 0.00681 0.13310
# Poissons Ratio (z) = 0.36157 0.26150
#
# Static dielectric constant tensor:
#      x y z
#    x 3.866530 0.000000 -0.049280 
#    y 0.000000 4.197990 0.000000 
#    z -0.049280 0.000000 3.837860 
# 
# 
# High freq. dielectric constant tensor:
#      x y z
#    x 1.869270 0.000000 -0.013640 
#    y 0.000000 1.900190 0.000000 
#    z -0.013640 0.000000 1.874930 
# 
# From -- ./inp_files/278135.got.cif
#   From: 2010.06.25/outbox.cif.g09.slc.cpg/sg12_140_cif.got.tgz:278135.got - 2010.06.28 00:19:55.
