data_PCOD8112099
_publ_section_title
;
Structure prediction by ZEFSAII (Michael W. Deem and Ramdas Pophale) SiO2 
 PCOD8112099
Probable space group: C 2/M
;
_chemical_formula_sum "Si O2"
_cell_formula_units_Z 40
_cell_length_a 8.964695
_cell_length_b 24.843541
_cell_length_c 8.476227
_cell_angle_alpha 90.000000
_cell_angle_beta 89.562810
_cell_angle_gamma 90.000000
_cell_volume 1887.725972
_symmetry_space_group_name_H-M "C 2/M"
_symmetry_group_IT_number 12
_symmetry_cell_setting 'monoclinic'
loop_
_space_group_symop_operation_xyz
x,y,z
-x,y,-z
-x,-y,-z
x,-y,z
1/2+x,1/2+y,z
1/2-x,1/2+y,-z
1/2-x,1/2-y,-z
1/2+x,1/2-y,z
loop_
_atom_site_type_symbol
_atom_site_label
_atom_site_fract_x
_atom_site_fract_y
_atom_site_fract_z
Si Si1 0.108116 0.093691 0.232799
Si Si2 0.726157 0.715907 0.843625
Si Si3 0.104901 0.500000 0.265153
Si Si4 0.782528 0.094665 0.119025
Si Si5 0.069978 0.790567 0.328380
Si Si6 0.279203 0.000000 0.383626
O O1 0.150046 0.152101 0.302519
O O2 0.177758 0.051818 0.353473
O O3 0.929262 0.086516 0.226029
O O4 0.178801 0.083796 0.062089
O O5 0.783318 0.654837 0.862916
O O6 0.811382 0.742825 0.695488
O O7 0.551227 0.715240 0.808950
O O8 0.750000 0.750000 0.000000
O O9 0.155577 0.553278 0.172208
O O10 0.175696 0.500000 0.436222
O O11 0.925916 0.500000 0.272484
O O12 0.000000 0.785548 0.500000
#
# Coordination Sequence:
#
# PCOD8112099 Si02
#       6
#     8   8   4   8   8   4
#     4  10  22  41  68  95 124 168 221 262 319 383
#     4  11  22  43  66  97 133 174 217 268 324 388
#     4  11  26  45  62  96 135 166 214 265 332 384
#     4  10  22  42  68  94 127 169 218 268 310 390
#     4  11  24  41  65  99 133 170 219 271 326 389
#     4  11  26  43  62  96 134 169 208 271 328 388
#
# _framework density 21.189515
#
# number of rings (size 3 to 8) (size 9 to 14) (size 15 to 20)
#    0.000    1.400    2.000    2.400    5.600    5.600 
#    7.200    0.000    0.000    0.000    0.000    0.000 
#    0.000    0.000    0.000    0.000    0.000    0.000 
#
# Total GULP energy -248111.686516 kJ/mol
# GULP energy per Si atom -12405.584326 kJ/mol
# Density = 2.114129 g / cm^3
# Si number density = 21.189515 Si / 1000 Ang^3
#
#
#
# Elastic Constant Matrix: (Units=GPa)
#
#
# Indices 1 2 3 4 5 6 
#
# 1 61.0147 55.7084 23.3634 0.0000 -8.0259 0.0000
# 2 55.7084 174.1382 40.9011 0.0000 -5.7868 0.0000
# 3 23.3634 40.9011 83.7306 0.0000 -8.9935 0.0000
# 4 0.0000 0.0000 0.0000 31.1605 0.0000 -5.1599
# 5 -8.0259 -5.7868 -8.9935 0.0000 34.6951 0.0000
# 6 0.0000 0.0000 0.0000 -5.1599 0.0000 39.2384
#
#
#
# Elastic Compliance Matrix: (Units=1/GPa)
#
#
# Indices 1 2 3 4 5 6 
#
# 1 0.024395 -0.006976 -0.003002 0.000000 0.003702 0.000000
# 2 -0.006976 0.008484 -0.002283 0.000000 -0.000790 0.000000
# 3 -0.003002 -0.002283 0.014175 0.000000 0.002599 0.000000
# 4 0.000000 0.000000 0.000000 0.032806 0.000000 0.004314
# 5 0.003702 -0.000790 0.002599 0.000000 0.030221 0.000000
# 6 0.000000 0.000000 0.000000 0.004314 0.000000 0.026053
#
#
# Mechanical properties :
#
#
# Convention : Reuss Voigt Hill
#
# Bulk Modulus (GPa) = 44.37901 62.09213 53.23557
# Shear Modulus (GPa) = 29.73248 34.27953 32.00601
#
# Velocity S-wave (km/s) = 3.74995 4.02650 3.89069
# Velocity P-wave (km/s) = 6.30388 7.14029 6.73508
#
# Compressibility (1/GPa) = 0.02253318
#
# Stress axis : x y z
#
# Youngs Moduli (GPa) = 40.99146 117.86581 70.54741
#
# Poissons Ratio (x) = 0.82226 0.21176
# Poissons Ratio (y) = 0.28597 0.16104
# Poissons Ratio (z) = 0.12304 0.26906
#
# Static dielectric constant tensor:
#      x y z
#    x 3.861990 0.000000 -0.034920 
#    y 0.000000 3.993750 0.000000 
#    z -0.034920 0.000000 3.735490 
# 
# 
# High freq. dielectric constant tensor:
#      x y z
#    x 1.821140 0.000000 -0.003320 
#    y 0.000000 1.843390 0.000000 
#    z -0.003320 0.000000 1.838830 
# 
# From -- ./inp_files/39384.got.cif
#   From: 2010.06.25/outbox.cif.g09.slc.cpg/sg12_20_cif.got.tgz:39384.got - 2010.06.28 00:19:55.
