data_PCOD8112876
_publ_section_title
;
Structure prediction by ZEFSAII (Michael W. Deem and Ramdas Pophale) SiO2 
 PCOD8112876
Probable space group: C 2/M
;
_chemical_formula_sum "Si O2"
_cell_formula_units_Z 48
_cell_length_a 7.939378
_cell_length_b 21.731147
_cell_length_c 20.507500
_cell_angle_alpha 90.000000
_cell_angle_beta 139.171370
_cell_angle_gamma 90.000000
_cell_volume 2313.268039
_symmetry_space_group_name_H-M "C 2/M"
_symmetry_group_IT_number 12
_symmetry_cell_setting 'monoclinic'
loop_
_space_group_symop_operation_xyz
x,y,z
-x,y,-z
-x,-y,-z
x,-y,z
1/2+x,1/2+y,z
1/2-x,1/2+y,-z
1/2-x,1/2-y,-z
1/2+x,1/2-y,z
loop_
_atom_site_type_symbol
_atom_site_label
_atom_site_fract_x
_atom_site_fract_y
_atom_site_fract_z
Si Si1 0.366540 0.846686 0.900611
Si Si2 0.946469 0.872975 0.556804
Si Si3 0.295530 0.227697 0.096657
Si Si4 0.975473 0.928898 0.285621
Si Si5 0.379482 0.163221 0.372163
Si Si6 0.604617 0.782450 0.311110
O O1 0.556221 0.794888 0.924517
O O2 0.161573 0.801268 0.876179
O O3 0.266331 0.894315 0.818137
O O4 0.500000 0.883556 0.000000
O O5 0.025254 0.921240 0.636071
O O6 0.655016 0.850180 0.486664
O O7 0.000000 0.902415 0.500000
O O8 0.116275 0.812451 0.611193
O O9 0.440100 0.197325 0.200302
O O10 0.000000 0.206719 0.000000
O O11 0.234838 0.902417 0.328597
O O12 0.954970 0.000000 0.261972
O O13 0.427163 0.191783 0.315902
O O14 0.175530 0.210495 0.346519
#
# Coordination Sequence:
#
# PCOD8112876 Si02
#       6
#     8   8   8   8   8   8
#     4  11  23  40  66  97 130 160 201 256 318 382
#     4  10  23  42  64  94 128 164 207 264 319 375
#     4  11  21  36  67 100 127 157 195 256 326 380
#     4  12  26  44  64  88 124 174 220 259 303 366
#     4  11  23  37  64  93 130 164 207 255 316 381
#     4  11  20  38  64  99 130 159 198 261 331 383
#
# _framework density 20.749866000000001
#
# number of rings (size 3 to 8) (size 9 to 14) (size 15 to 20)
#    0.000    1.000    3.333    5.000    2.333    4.667 
#    0.000    2.500    0.000    0.500    0.000    0.000 
#    0.000    0.000    0.000    0.000    0.000    0.000 
#
# Total GULP energy -297352.178770 kJ/mol
# GULP energy per Si atom -12389.674115 kJ/mol
# Density = 2.070264 g / cm^3
# Si number density = 20.749866 Si / 1000 Ang^3
#
#
#
# Elastic Constant Matrix: (Units=GPa)
#
#
# Indices 1 2 3 4 5 6 
#
# 1 90.7055 57.0366 55.7557 0.0000 -3.5156 0.0000
# 2 57.0366 112.2015 42.5744 0.0000 -2.0055 0.0000
# 3 55.7557 42.5744 138.0774 0.0000 -11.4733 0.0000
# 4 0.0000 0.0000 0.0000 16.3469 0.0000 -3.0577
# 5 -3.5156 -2.0055 -11.4733 0.0000 38.6904 0.0000
# 6 0.0000 0.0000 0.0000 -3.0577 0.0000 20.4009
#
#
#
# Elastic Compliance Matrix: (Units=1/GPa)
#
#
# Indices 1 2 3 4 5 6 
#
# 1 0.019172 -0.007706 -0.005387 0.000000 -0.000255 0.000000
# 2 -0.007706 0.013198 -0.000983 0.000000 -0.000308 0.000000
# 3 -0.005387 -0.000983 0.009920 0.000000 0.002401 0.000000
# 4 0.000000 0.000000 0.000000 0.062938 0.000000 0.009433
# 5 -0.000255 -0.000308 0.002401 0.000000 0.026519 0.000000
# 6 0.000000 0.000000 0.000000 0.009433 0.000000 0.050431
#
#
# Mechanical properties :
#
#
# Convention : Reuss Voigt Hill
#
# Bulk Modulus (GPa) = 70.73456 72.41309 71.57383
# Shear Modulus (GPa) = 23.25124 27.46216 25.35670
#
# Velocity S-wave (km/s) = 3.35109 3.64192 3.49953
# Velocity P-wave (km/s) = 7.00973 7.25663 7.13425
#
# Compressibility (1/GPa) = 0.01413736
#
# Stress axis : x y z
#
# Youngs Moduli (GPa) = 52.16001 75.77178 100.80612
#
# Poissons Ratio (x) = 0.58393 0.54300
# Poissons Ratio (y) = 0.40197 0.09909
# Poissons Ratio (z) = 0.28096 0.07448
#
# Static dielectric constant tensor:
#      x y z
#    x 4.072150 0.000000 -0.152190 
#    y 0.000000 3.249410 0.000000 
#    z -0.152190 0.000000 4.185080 
# 
# 
# High freq. dielectric constant tensor:
#      x y z
#    x 1.822960 0.000000 -0.007950 
#    y 0.000000 1.754080 0.000000 
#    z -0.007950 0.000000 1.844780 
# 
# From -- ./inp_files/301843.got.cif
#   From: 2010.06.25/outbox.cif.g09.slc.cpg/sg12_151_cif.got.tgz:301843.got - 2010.06.28 00:19:55.
