data_PCOD8112411
_publ_section_title
;
Structure prediction by ZEFSAII (Michael W. Deem and Ramdas Pophale) SiO2 
 PCOD8112411
Probable space group: C 2/M
;
_chemical_formula_sum "Si O2"
_cell_formula_units_Z 56
_cell_length_a 18.482059
_cell_length_b 24.910367
_cell_length_c 11.391642
_cell_angle_alpha 90.000000
_cell_angle_beta 146.262265
_cell_angle_gamma 90.000000
_cell_volume 2912.839851
_symmetry_space_group_name_H-M "C 2/M"
_symmetry_group_IT_number 12
_symmetry_cell_setting 'monoclinic'
loop_
_space_group_symop_operation_xyz
x,y,z
-x,y,-z
-x,-y,-z
x,-y,z
1/2+x,1/2+y,z
1/2-x,1/2+y,-z
1/2-x,1/2-y,-z
1/2+x,1/2-y,z
loop_
_atom_site_type_symbol
_atom_site_label
_atom_site_fract_x
_atom_site_fract_y
_atom_site_fract_z
Si Si1 0.553201 0.704256 0.198602
Si Si2 0.634172 0.807400 0.621133
Si Si3 0.506150 0.438754 0.369024
Si Si4 0.437317 0.822034 0.737367
Si Si5 0.163043 0.843103 0.942487
Si Si6 0.219188 0.871263 0.562282
Si Si7 0.739989 0.197009 0.170057
O O1 0.614624 0.763919 0.288606
O O2 0.660690 0.659354 0.370283
O O3 0.500000 0.690242 0.000000
O O4 0.438865 0.698665 0.139623
O O5 0.500000 0.789140 0.500000
O O6 0.601873 0.831584 0.450576
O O7 0.710081 0.851768 0.802762
O O8 0.735512 0.757721 0.754182
O O9 0.500000 0.428290 0.500000
O O10 0.470196 0.500000 0.292976
O O11 0.647971 0.427614 0.497287
O O12 0.398223 0.401497 0.161993
O O13 0.372568 0.869589 0.731990
O O14 0.590554 0.821632 0.966623
O O15 0.199945 0.812153 0.875088
O O16 0.185888 0.839148 0.635727
#
# Coordination Sequence:
#
# PCOD8112411 Si02
#       7
#     8   8   8   8   8   8   8
#     4  11  21  35  54  82 122 170 205 238 288 353
#     4  12  23  35  55  86 130 172 206 236 283 363
#     4  10  22  43  70  91 111 147 204 269 316 351
#     4  12  23  36  52  82 129 169 198 237 286 361
#     4  11  22  37  59  88 122 158 201 256 298 356
#     4  11  23  35  60  85 121 155 198 251 305 359
#     4  12  22  36  53  89 127 166 203 236 294 356
#
# _framework density 19.225223
#
# number of rings (size 3 to 8) (size 9 to 14) (size 15 to 20)
#    0.000    0.714    5.714    3.857    2.000    0.000 
#    0.000    0.000    0.000   18.429    0.000    0.000 
#    0.000    0.000    0.000    0.000    0.000    0.000 
#
# Total GULP energy -347010.589238 kJ/mol
# GULP energy per Si atom -12393.235330 kJ/mol
# Density = 1.918147 g / cm^3
# Si number density = 19.225223 Si / 1000 Ang^3
#
#
#
# Elastic Constant Matrix: (Units=GPa)
#
#
# Indices 1 2 3 4 5 6 
#
# 1 91.9813 11.3419 21.4412 0.0000 5.8332 0.0000
# 2 11.3419 69.8309 25.1273 0.0000 1.0782 0.0000
# 3 21.4412 25.1273 97.3671 0.0000 -7.3669 0.0000
# 4 0.0000 0.0000 0.0000 18.8154 0.0000 2.1085
# 5 5.8332 1.0782 -7.3669 0.0000 40.7763 0.0000
# 6 0.0000 0.0000 0.0000 2.1085 0.0000 18.0237
#
#
#
# Elastic Compliance Matrix: (Units=1/GPa)
#
#
# Indices 1 2 3 4 5 6 
#
# 1 0.011704 -0.000975 -0.002485 0.000000 -0.002097 0.000000
# 2 -0.000975 0.015923 -0.003970 0.000000 -0.000999 0.000000
# 3 -0.002485 -0.003970 0.012042 0.000000 0.002636 0.000000
# 4 0.000000 0.000000 0.000000 0.053854 0.000000 -0.006300
# 5 -0.002097 -0.000999 0.002636 0.000000 0.025327 0.000000
# 6 0.000000 0.000000 0.000000 -0.006300 0.000000 0.056219
#
#
# Mechanical properties :
#
#
# Convention : Reuss Voigt Hill
#
# Bulk Modulus (GPa) = 40.30662 41.66669 40.98665
# Shear Modulus (GPa) = 25.22748 28.94101 27.08425
#
# Velocity S-wave (km/s) = 3.62637 3.88411 3.75745
# Velocity P-wave (km/s) = 6.20847 6.46801 6.33957
#
# Compressibility (1/GPa) = 0.02480982
#
# Stress axis : x y z
#
# Youngs Moduli (GPa) = 85.44005 62.80391 83.04602
#
# Poissons Ratio (x) = 0.06121 0.20633
# Poissons Ratio (y) = 0.08327 0.32970
# Poissons Ratio (z) = 0.21228 0.24934
#
# Static dielectric constant tensor:
#      x y z
#    x 3.842190 0.000000 -0.109150 
#    y 0.000000 3.024860 0.000000 
#    z -0.109150 0.000000 4.068630 
# 
# 
# High freq. dielectric constant tensor:
#      x y z
#    x 1.771870 0.000000 -0.001810 
#    y 0.000000 1.675430 0.000000 
#    z -0.001810 0.000000 1.770120 
# 
# From -- ./inp_files/170484.got.cif
#   From: 2010.06.25/outbox.cif.g09.slc.cpg/sg12_86_cif.got.tgz:170484.got - 2010.06.28 00:19:55.
