data_PCOD8112912
_publ_section_title
;
Structure prediction by ZEFSAII (Michael W. Deem and Ramdas Pophale) SiO2 
 PCOD8112912
Probable space group: C 2/M
;
_chemical_formula_sum "Si O2"
_cell_formula_units_Z 32
_cell_length_a 20.677960
_cell_length_b 7.588048
_cell_length_c 13.380337
_cell_angle_alpha 90.000000
_cell_angle_beta 132.551768
_cell_angle_gamma 90.000000
_cell_volume 1546.592169
_symmetry_space_group_name_H-M "C 2/M"
_symmetry_group_IT_number 12
_symmetry_cell_setting 'monoclinic'
loop_
_space_group_symop_operation_xyz
x,y,z
-x,y,-z
-x,-y,-z
x,-y,z
1/2+x,1/2+y,z
1/2-x,1/2+y,-z
1/2-x,1/2-y,-z
1/2+x,1/2-y,z
loop_
_atom_site_type_symbol
_atom_site_label
_atom_site_fract_x
_atom_site_fract_y
_atom_site_fract_z
Si Si1 0.401124 0.794237 0.402493
Si Si2 0.443046 0.500000 0.787334
Si Si3 0.652066 0.203961 0.429625
Si Si4 0.129242 0.000000 0.067324
Si Si5 0.253079 0.803678 0.888851
O O1 0.500000 0.719478 0.500000
O O2 0.358357 0.753097 0.464752
O O3 0.344887 0.698452 0.258500
O O4 0.400619 0.000000 0.377619
O O5 0.416263 0.322939 0.702049
O O6 0.547723 0.500000 0.906596
O O7 0.397657 0.500000 0.846636
O O8 0.750000 0.250000 0.500000
O O9 0.630569 0.000000 0.384384
O O10 0.185782 0.825769 0.109847
O O11 0.291984 0.000000 0.920223
O O12 0.250000 0.750000 0.000000
#
# Coordination Sequence:
#
# PCOD8112912 Si02
#       5
#     8   4   8   4   8
#     4  10  23  42  66 100 135 169 223 284 332 394
#     4  11  26  44  70  93 136 181 221 284 330 401
#     4  11  23  41  69  99 134 175 223 276 339 402
#     4  11  26  48  64  98 137 172 231 277 333 402
#     4  12  25  43  71  96 135 180 218 272 341 410
#
# _framework density 20.690653000000001
#
# number of rings (size 3 to 8) (size 9 to 14) (size 15 to 20)
#    0.000    1.000    3.750    1.500    5.250    4.500 
#    0.000    2.500    0.000    0.000    0.000    0.000 
#    0.000    0.000    0.000    0.000    0.000    0.000 
#
# Total GULP energy -198492.568391 kJ/mol
# GULP energy per Si atom -12405.785524 kJ/mol
# Density = 2.064356 g / cm^3
# Si number density = 20.690653 Si / 1000 Ang^3
#
#
#
# Elastic Constant Matrix: (Units=GPa)
#
#
# Indices 1 2 3 4 5 6 
#
# 1 108.4483 35.4584 49.2890 0.0000 8.9546 0.0000
# 2 35.4584 149.7282 61.7643 0.0000 4.3814 0.0000
# 3 49.2890 61.7643 156.0817 0.0000 6.9439 0.0000
# 4 0.0000 0.0000 0.0000 34.0290 0.0000 -6.8971
# 5 8.9546 4.3814 6.9439 0.0000 33.6028 0.0000
# 6 0.0000 0.0000 0.0000 -6.8971 0.0000 15.8645
#
#
#
# Elastic Compliance Matrix: (Units=1/GPa)
#
#
# Indices 1 2 3 4 5 6 
#
# 1 0.011166 -0.001393 -0.002877 0.000000 -0.002199 0.000000
# 2 -0.001393 0.008161 -0.002784 0.000000 -0.000117 0.000000
# 3 -0.002877 -0.002784 0.008444 0.000000 -0.000615 0.000000
# 4 0.000000 0.000000 0.000000 0.032226 0.000000 0.014010
# 5 -0.002199 -0.000117 -0.000615 0.000000 0.030488 0.000000
# 6 0.000000 0.000000 0.000000 0.014010 0.000000 0.069125
#
#
# Mechanical properties :
#
#
# Convention : Reuss Voigt Hill
#
# Bulk Modulus (GPa) = 73.19327 78.58685 75.89006
# Shear Modulus (GPa) = 28.04702 34.54903 31.29803
#
# Velocity S-wave (km/s) = 3.68576 4.09074 3.89352
# Velocity P-wave (km/s) = 7.31881 7.77023 7.54789
#
# Compressibility (1/GPa) = 0.01366246
#
# Stress axis : x y z
#
# Youngs Moduli (GPa) = 89.56083 122.53997 118.42045
#
# Poissons Ratio (x) = 0.17071 0.34068
# Poissons Ratio (y) = 0.12477 0.32970
# Poissons Ratio (z) = 0.25765 0.34117
#
# Static dielectric constant tensor:
#      x y z
#    x 3.889260 0.000000 0.096330 
#    y 0.000000 3.767490 0.000000 
#    z 0.096330 0.000000 3.983650 
# 
# 
# High freq. dielectric constant tensor:
#      x y z
#    x 1.814160 0.000000 -0.003230 
#    y 0.000000 1.820890 0.000000 
#    z -0.003230 0.000000 1.822700 
# 
# From -- ./inp_files/162898.got.cif
#   From: 2010.06.25/outbox.cif.g09.slc.cpg/sg12_82_cif.got.tgz:162898.got - 2010.06.28 00:19:55.
