data_PCOD8112130
_publ_section_title
;
Structure prediction by ZEFSAII (Michael W. Deem and Ramdas Pophale) SiO2 
 PCOD8112130
Probable space group: C 2/M
;
_chemical_formula_sum "Si O2"
_cell_formula_units_Z 64
_cell_length_a 11.878409
_cell_length_b 28.488214
_cell_length_c 17.913644
_cell_angle_alpha 90.000000
_cell_angle_beta 149.400951
_cell_angle_gamma 90.000000
_cell_volume 3085.662099
_symmetry_space_group_name_H-M "C 2/M"
_symmetry_group_IT_number 12
_symmetry_cell_setting 'monoclinic'
loop_
_space_group_symop_operation_xyz
x,y,z
-x,y,-z
-x,-y,-z
x,-y,z
1/2+x,1/2+y,z
1/2-x,1/2+y,-z
1/2-x,1/2-y,-z
1/2+x,1/2-y,z
loop_
_atom_site_type_symbol
_atom_site_label
_atom_site_fract_x
_atom_site_fract_y
_atom_site_fract_z
Si Si1 0.619930 0.102907 0.356219
Si Si2 0.219377 0.632061 0.156788
Si Si3 0.413392 0.316228 0.555972
Si Si4 0.057344 0.089717 0.851427
Si Si5 0.819041 0.447181 0.453093
Si Si6 0.472799 0.789241 0.564283
Si Si7 0.031152 0.445649 0.156164
Si Si8 0.189393 0.149329 0.163876
O O1 0.783219 0.146655 0.428672
O O2 0.704003 0.081428 0.482807
O O3 0.634672 0.066838 0.296066
O O4 0.365507 0.118221 0.218845
O O5 0.343924 0.665482 0.285169
O O6 0.373323 0.625618 0.173229
O O7 0.149867 0.583470 0.158101
O O8 0.000000 0.657579 0.000000
O O9 0.453729 0.266430 0.540955
O O10 0.257003 0.309837 0.538130
O O11 0.907453 0.051586 0.723156
O O12 0.918512 0.117582 0.833846
O O13 0.268515 0.064181 0.008262
O O14 0.887926 0.500000 0.514071
O O15 0.000000 0.424580 0.500000
O O16 0.500000 0.813443 0.500000
O O17 0.684068 0.804274 0.734299
O O18 0.078380 0.500000 0.166868
O O19 0.000000 0.167378 0.000000
#
# Coordination Sequence:
#
# PCOD8112130 Si02
#       8
#     8   8   8   8   8   8   8   8
#     4  11  22  40  65  90 132 164 204 259 314 380
#     4  10  23  40  64  87 121 171 215 252 300 368
#     4  10  22  42  62  93 124 160 204 253 320 365
#     4  11  21  41  64  89 124 168 208 259 310 368
#     4  11  22  35  59  95 126 162 210 261 310 368
#     4  10  23  39  69  95 123 157 202 259 313 390
#     4  11  25  42  61  90 128 174 217 256 304 365
#     4  11  22  40  66  97 125 159 202 254 330 374
#
# _framework density 20.741091000000001
#
# number of rings (size 3 to 8) (size 9 to 14) (size 15 to 20)
#    0.000    1.375    3.750    1.500    3.500    3.250 
#    0.000    1.250    0.000    5.250    0.000    0.000 
#    0.000    0.000    0.000    0.000    0.000    0.000 
#
# Total GULP energy -396676.017197 kJ/mol
# GULP energy per Si atom -12396.125537 kJ/mol
# Density = 2.069388 g / cm^3
# Si number density = 20.741091 Si / 1000 Ang^3
#
#
#
# Elastic Constant Matrix: (Units=GPa)
#
#
# Indices 1 2 3 4 5 6 
#
# 1 56.6062 6.7203 39.6450 0.0003 -6.8546 -0.0002
# 2 6.7203 79.2588 46.4616 -0.0003 2.6316 0.0016
# 3 39.6450 46.4616 135.4750 0.0015 -0.9837 0.0006
# 4 0.0003 -0.0003 0.0015 20.5513 0.0006 31.8845
# 5 -6.8546 2.6316 -0.9837 0.0006 32.1003 -0.0005
# 6 -0.0002 0.0016 0.0006 31.8845 -0.0005 -68.0738
#
#
#
# Elastic Compliance Matrix: (Units=1/GPa)
#
#
# Indices 1 2 3 4 5 6 
#
# 1 0.023235 0.002310 -0.007559 0.000000 0.004541 0.000000
# 2 0.002310 0.016090 -0.006202 0.000000 -0.001016 0.000000
# 3 -0.007559 -0.006202 0.011715 0.000000 -0.000747 0.000000
# 4 0.000000 0.000000 0.000000 0.028181 0.000000 0.013199
# 5 0.004541 -0.001016 -0.000747 0.000000 0.032182 0.000000
# 6 0.000000 0.000000 0.000000 0.013199 0.000000 -0.008508
#
#
# Mechanical properties :
#
#
# Convention : Reuss Voigt Hill
#
# Bulk Modulus (GPa) = 35.53679 50.77710 43.15695
# Shear Modulus (GPa) = 36.98873 8.81643 22.90258
#
# Velocity S-wave (km/s) = 4.22756 2.06396 3.32657
# Velocity P-wave (km/s) = 6.40316 5.49677 5.96720
#
# Compressibility (1/GPa) = 0.02813985
#
# Stress axis : x y z
#
# Youngs Moduli (GPa) = 43.03768 62.14998 85.36165
#
# Poissons Ratio (x) = -0.14357 0.64524
# Poissons Ratio (y) = -0.09942 0.52938
# Poissons Ratio (z) = 0.32532 0.38543
#
# Static dielectric constant tensor:
#      x y z
#    x 3.764700 0.000000 0.143000 
#    y 0.000000 3.558980 0.000000 
#    z 0.143000 0.000000 3.984440 
# 
# 
# High freq. dielectric constant tensor:
#      x y z
#    x 1.822150 0.000000 0.003570 
#    y 0.000000 1.794310 0.000000 
#    z 0.003570 0.000000 1.821750 
# 
# From -- ./inp_files/266304.got.cif
#   From: 2010.06.25/outbox.cif.g09.slc.cpg/sg12_134_cif.got.tgz:266304.got - 2010.06.28 00:19:55.
