data_PCOD8112053
_publ_section_title
;
Structure prediction by ZEFSAII (Michael W. Deem and Ramdas Pophale) SiO2 
 PCOD8112053
Probable space group: C 2/M
;
_chemical_formula_sum "Si O2"
_cell_formula_units_Z 52
_cell_length_a 25.112757
_cell_length_b 11.055030
_cell_length_c 11.204838
_cell_angle_alpha 90.000000
_cell_angle_beta 52.418775
_cell_angle_gamma 90.000000
_cell_volume 2465.207262
_symmetry_space_group_name_H-M "C 2/M"
_symmetry_group_IT_number 12
_symmetry_cell_setting 'monoclinic'
loop_
_space_group_symop_operation_xyz
x,y,z
-x,y,-z
-x,-y,-z
x,-y,z
1/2+x,1/2+y,z
1/2-x,1/2+y,-z
1/2-x,1/2-y,-z
1/2+x,1/2-y,z
loop_
_atom_site_type_symbol
_atom_site_label
_atom_site_fract_x
_atom_site_fract_y
_atom_site_fract_z
Si Si1 0.951489 0.000000 0.916227
Si Si2 0.313626 0.364592 0.750510
Si Si3 0.338991 0.134947 0.097585
Si Si4 0.596037 0.293494 0.177736
Si Si5 0.500000 0.190746 0.500000
Si Si6 0.329294 0.250854 0.364661
Si Si7 0.624780 0.133837 0.468947
Si Si8 0.393433 0.500000 0.237175
O O1 0.944611 0.117730 0.848231
O O2 0.027280 0.000000 0.855254
O O3 0.890980 0.000000 0.096387
O O4 0.336613 0.500000 0.672027
O O5 0.234234 0.358849 0.858365
O O6 0.336515 0.350712 0.857156
O O7 0.339111 0.249579 0.639464
O O8 0.344718 0.215311 0.207890
O O9 0.359958 0.000000 0.104263
O O10 0.388284 0.177280 0.924624
O O11 0.548779 0.270811 0.354508
O O12 0.548219 0.117347 0.525422
O O13 0.250000 0.250000 0.500000
O O14 0.369988 0.160181 0.396443
O O15 0.356736 0.385876 0.346438
O O16 0.658461 0.000000 0.399269
#
# Coordination Sequence:
#
# PCOD8112053 Si02
#       8
#     4   8   8   8   4   8   8   4
#     4  11  22  45  70  98 142 171 237 283 343 412
#     4  10  22  41  66  98 135 177 226 278 336 401
#     4  11  24  42  64  98 139 178 222 280 340 407
#     4  11  22  44  67 100 128 179 224 279 341 407
#     4  10  25  45  70  94 135 172 225 278 337 412
#     4  12  25  42  69 100 137 179 228 284 343 412
#     4  11  24  42  66 100 135 177 225 274 339 403
#     4  11  26  42  70 102 136 184 228 290 345 405
#
# _framework density 21.09356
#
# number of rings (size 3 to 8) (size 9 to 14) (size 15 to 20)
#    0.000    1.077    3.846    2.077    3.231    3.385 
#    2.769    0.000    0.000    2.769    0.000    0.000 
#    0.000    0.000    0.000    0.000    0.000    0.000 
#
# Total GULP energy -322161.656806 kJ/mol
# GULP energy per Si atom -12390.832954 kJ/mol
# Density = 2.104555 g / cm^3
# Si number density = 21.093560 Si / 1000 Ang^3
#
#
#
# Elastic Constant Matrix: (Units=GPa)
#
#
# Indices 1 2 3 4 5 6 
#
# 1 104.1533 34.8677 36.7274 0.0000 6.8988 0.0000
# 2 34.8677 168.3808 46.4294 0.0000 -1.9818 0.0000
# 3 36.7274 46.4294 96.4604 0.0000 7.2757 0.0000
# 4 0.0000 0.0000 0.0000 25.9823 0.0000 -3.2303
# 5 6.8988 -1.9818 7.2757 0.0000 27.6813 0.0000
# 6 0.0000 0.0000 0.0000 -3.2303 0.0000 22.8399
#
#
#
# Elastic Compliance Matrix: (Units=1/GPa)
#
#
# Indices 1 2 3 4 5 6 
#
# 1 0.011455 -0.001425 -0.003523 0.000000 -0.002031 0.000000
# 2 -0.001425 0.007077 -0.002988 0.000000 0.001647 0.000000
# 3 -0.003523 -0.002988 0.013361 0.000000 -0.002848 0.000000
# 4 0.000000 0.000000 0.000000 0.039177 0.000000 0.005541
# 5 -0.002031 0.001647 -0.002848 0.000000 0.037498 0.000000
# 6 0.000000 0.000000 0.000000 0.005541 0.000000 0.044567
#
#
# Mechanical properties :
#
#
# Convention : Reuss Voigt Hill
#
# Bulk Modulus (GPa) = 62.41229 67.22706 64.81967
# Shear Modulus (GPa) = 28.67847 32.03202 30.35525
#
# Velocity S-wave (km/s) = 3.69125 3.90111 3.79763
# Velocity P-wave (km/s) = 6.91518 7.22714 7.07288
#
# Compressibility (1/GPa) = 0.01602249
#
# Stress axis : x y z
#
# Youngs Moduli (GPa) = 87.29941 141.29635 74.84274
#
# Poissons Ratio (x) = 0.20129 0.26364
# Poissons Ratio (y) = 0.12437 0.22366
# Poissons Ratio (z) = 0.30751 0.42224
#
# Static dielectric constant tensor:
#      x y z
#    x 4.401110 0.000000 0.277100 
#    y 0.000000 3.904020 0.000000 
#    z 0.277100 0.000000 3.677140 
# 
# 
# High freq. dielectric constant tensor:
#      x y z
#    x 1.847800 0.000000 0.013280 
#    y 0.000000 1.836220 0.000000 
#    z 0.013280 0.000000 1.807000 
# 
# From -- ./inp_files/175223.got.cif
#   From: 2010.06.25/outbox.cif.g09.slc.cpg/sg12_88_cif.got.tgz:175223.got - 2010.06.28 00:19:55.
