data_PCOD8112096
_publ_section_title
;
Structure prediction by ZEFSAII (Michael W. Deem and Ramdas Pophale) SiO2 
 PCOD8112096
Probable space group: C 2/M
;
_chemical_formula_sum "Si O2"
_cell_formula_units_Z 64
_cell_length_a 15.618383
_cell_length_b 17.561696
_cell_length_c 11.760468
_cell_angle_alpha 90.000000
_cell_angle_beta 89.683925
_cell_angle_gamma 90.000000
_cell_volume 3225.674343
_symmetry_space_group_name_H-M "C 2/M"
_symmetry_group_IT_number 12
_symmetry_cell_setting 'monoclinic'
loop_
_space_group_symop_operation_xyz
x,y,z
-x,y,-z
-x,-y,-z
x,-y,z
1/2+x,1/2+y,z
1/2-x,1/2+y,-z
1/2-x,1/2-y,-z
1/2+x,1/2-y,z
loop_
_atom_site_type_symbol
_atom_site_label
_atom_site_fract_x
_atom_site_fract_y
_atom_site_fract_z
Si Si1 0.703672 0.659285 0.117284
Si Si2 0.770633 0.836971 0.471973
Si Si3 0.258630 0.172742 0.872169
Si Si4 0.139765 0.589011 0.306349
Si Si5 0.206143 0.589210 0.680123
Si Si6 0.029638 0.336879 0.628226
Si Si7 0.599077 0.317393 0.717021
Si Si8 0.976510 0.910090 0.873891
O O1 0.686364 0.749994 0.115303
O O2 0.778287 0.633809 0.202708
O O3 0.618392 0.616353 0.156029
O O4 0.731843 0.634753 0.991005
O O5 0.750000 0.750000 0.500000
O O6 0.689528 0.867250 0.404062
O O7 0.778534 0.884723 0.588549
O O8 0.859332 0.846853 0.402051
O O9 0.315545 0.107904 0.813479
O O10 0.176306 0.199410 0.801896
O O11 0.144141 0.500000 0.330656
O O12 0.042192 0.616636 0.303147
O O13 0.211440 0.500000 0.701919
O O14 0.114565 0.612081 0.629175
O O15 0.044167 0.257790 0.693501
O O16 0.000000 0.321147 0.500000
O O17 0.539168 0.380116 0.775177
O O18 0.982974 0.000000 0.870629
O O19 0.000000 0.879170 0.000000
#
# Coordination Sequence:
#
# PCOD8112096 Si02
#       8
#     8   8   8   8   8   8   8   8
#     4  11  22  44  66  92 128 172 219 264 320 390
#     4  11  21  41  63  90 129 170 218 264 316 377
#     4  10  22  41  68  93 124 169 221 266 320 389
#     4  11  23  38  62  96 129 166 211 267 325 382
#     4  12  24  39  64  95 132 171 211 262 328 391
#     4  12  23  41  64  94 132 170 215 266 321 393
#     4  11  22  41  68  95 125 167 221 271 316 385
#     4  11  24  41  64  96 132 169 212 268 330 387
#
# _framework density 19.840812
#
# number of rings (size 3 to 8) (size 9 to 14) (size 15 to 20)
#    0.000    0.875    5.000    2.625    0.000    5.000 
#    0.000    0.625    0.000    3.375    0.000    0.000 
#    0.000    0.000    0.000    0.000    0.000    0.000 
#
# Total GULP energy -396897.349413 kJ/mol
# GULP energy per Si atom -12403.042169 kJ/mol
# Density = 1.979565 g / cm^3
# Si number density = 19.840812 Si / 1000 Ang^3
#
#
#
# Elastic Constant Matrix: (Units=GPa)
#
#
# Indices 1 2 3 4 5 6 
#
# 1 98.5293 55.0560 63.2928 0.0000 -20.0557 0.0000
# 2 55.0560 105.1458 34.7612 0.0000 -13.4844 0.0000
# 3 63.2928 34.7612 106.5091 0.0000 -8.2997 0.0000
# 4 0.0000 0.0000 0.0000 27.7713 0.0000 -3.9786
# 5 -20.0557 -13.4844 -8.2997 0.0000 27.5502 0.0000
# 6 0.0000 0.0000 0.0000 -3.9786 0.0000 24.7652
#
#
#
# Elastic Compliance Matrix: (Units=1/GPa)
#
#
# Indices 1 2 3 4 5 6 
#
# 1 0.023021 -0.007291 -0.010519 0.000000 0.010021 0.000000
# 2 -0.007291 0.013484 0.000033 0.000000 0.001302 0.000000
# 3 -0.010519 0.000033 0.015395 0.000000 -0.003004 0.000000
# 4 0.000000 0.000000 0.000000 0.036857 0.000000 0.005921
# 5 0.010021 0.001302 -0.003004 0.000000 0.043325 0.000000
# 6 0.000000 0.000000 0.000000 0.005921 0.000000 0.041331
#
#
# Mechanical properties :
#
#
# Convention : Reuss Voigt Hill
#
# Bulk Modulus (GPa) = 61.17891 68.48937 64.83414
# Shear Modulus (GPa) = 23.31931 26.48895 24.90413
#
# Velocity S-wave (km/s) = 3.43201 3.65783 3.54672
# Velocity P-wave (km/s) = 6.82692 7.24113 7.03707
#
# Compressibility (1/GPa) = 0.01634550
#
# Stress axis : x y z
#
# Youngs Moduli (GPa) = 43.43950 74.16017 64.95579
#
# Poissons Ratio (x) = 0.54071 0.68330
# Poissons Ratio (y) = 0.31672 -0.00217
# Poissons Ratio (z) = 0.45696 -0.00247
#
# Static dielectric constant tensor:
#      x y z
#    x 3.676760 0.000000 -0.095750 
#    y 0.000000 3.526660 0.000000 
#    z -0.095750 0.000000 3.830590 
# 
# 
# High freq. dielectric constant tensor:
#      x y z
#    x 1.771870 0.000000 -0.007050 
#    y 0.000000 1.773160 0.000000 
#    z -0.007050 0.000000 1.784300 
# 
# From -- ./inp_files/146161.got.cif
#   From: 2010.06.25/outbox.cif.g09.slc.cpg/sg12_74_cif.got.tgz:146161.got - 2010.06.28 00:19:55.
