data_PCOD8112249
_publ_section_title
;
Structure prediction by ZEFSAII (Michael W. Deem and Ramdas Pophale) SiO2 
 PCOD8112249
Probable space group: C 2/M
;
_chemical_formula_sum "Si O2"
_cell_formula_units_Z 64
_cell_length_a 23.976398
_cell_length_b 15.040900
_cell_length_c 17.516012
_cell_angle_alpha 90.000000
_cell_angle_beta 150.508887
_cell_angle_gamma 90.000000
_cell_volume 3109.658778
_symmetry_space_group_name_H-M "C 2/M"
_symmetry_group_IT_number 12
_symmetry_cell_setting 'monoclinic'
loop_
_space_group_symop_operation_xyz
x,y,z
-x,y,-z
-x,-y,-z
x,-y,z
1/2+x,1/2+y,z
1/2-x,1/2+y,-z
1/2-x,1/2-y,-z
1/2+x,1/2-y,z
loop_
_atom_site_type_symbol
_atom_site_label
_atom_site_fract_x
_atom_site_fract_y
_atom_site_fract_z
Si Si1 0.435105 0.095607 0.843789
Si Si2 0.709938 0.257281 0.867451
Si Si3 0.025313 0.899098 0.615038
Si Si4 0.590838 0.396791 0.264799
Si Si5 0.870606 0.600880 0.326180
Si Si6 0.315496 0.347723 0.463244
Si Si7 0.920751 0.754780 0.017588
Si Si8 0.222468 0.177547 0.283767
O O1 0.300989 0.103209 0.695215
O O2 0.482273 0.180432 0.854238
O O3 0.457719 0.000000 0.829177
O O4 0.500000 0.093645 0.000000
O O5 0.621143 0.336772 0.762931
O O6 0.657041 0.164002 0.777777
O O7 0.750000 0.250000 0.000000
O O8 0.813884 0.281164 0.936732
O O9 0.000000 0.864516 0.500000
O O10 0.913286 0.895442 0.532377
O O11 0.070652 0.000000 0.667664
O O12 0.564274 0.500000 0.248133
O O13 0.658236 0.354176 0.415735
O O14 0.470597 0.346735 0.110713
O O15 0.666820 0.387445 0.279476
O O16 0.848132 0.500000 0.273574
O O17 0.793071 0.621010 0.307164
O O18 0.000000 0.617304 0.500000
O O19 0.306477 0.245028 0.427133
O O20 0.879916 0.769248 0.881080
#
# Coordination Sequence:
#
# PCOD8112249 Si02
#       8
#     8   8   8   8   8   8   8   8
#     4  11  22  38  62  91 127 169 209 257 324 393
#     4  11  24  42  65  93 130 169 214 267 332 382
#     4  11  24  42  67  96 125 168 221 267 318 390
#     4  12  25  40  63  97 133 172 217 271 334 392
#     4  10  22  42  67  94 125 169 221 268 318 382
#     4  12  23  43  64  94 134 167 208 273 332 389
#     4  11  23  42  63  92 127 170 217 267 322 389
#     4  11  22  40  66  91 129 169 220 266 322 390
#
# _framework density 20.581036000000001
#
# number of rings (size 3 to 8) (size 9 to 14) (size 15 to 20)
#    0.000    0.875    2.500    5.625    0.000    4.000 
#    0.000    0.000    0.000    0.000    0.000    0.000 
#    0.000    0.000    0.000    0.000    0.000    0.000 
#
# Total GULP energy -396885.401565 kJ/mol
# GULP energy per Si atom -12402.668799 kJ/mol
# Density = 2.053419 g / cm^3
# Si number density = 20.581036 Si / 1000 Ang^3
#
#
#
# Elastic Constant Matrix: (Units=GPa)
#
#
# Indices 1 2 3 4 5 6 
#
# 1 93.3731 35.2421 60.5903 0.0000 -5.1691 0.0000
# 2 35.2421 136.1406 66.9859 0.0000 0.8013 0.0000
# 3 60.5903 66.9859 135.3794 0.0000 -2.2580 0.0000
# 4 0.0000 0.0000 0.0000 -11.3541 0.0000 4.5482
# 5 -5.1691 0.8013 -2.2580 0.0000 41.1124 0.0000
# 6 0.0000 0.0000 0.0000 4.5482 0.0000 24.2219
#
#
#
# Elastic Compliance Matrix: (Units=1/GPa)
#
#
# Indices 1 2 3 4 5 6 
#
# 1 0.015257 -0.000809 -0.006402 0.000000 0.001582 0.000000
# 2 -0.000809 0.009760 -0.004476 0.000000 -0.000538 0.000000
# 3 -0.006402 -0.004476 0.012466 0.000000 -0.000033 0.000000
# 4 0.000000 0.000000 0.000000 -0.081913 0.000000 0.015381
# 5 0.001582 -0.000538 -0.000033 0.000000 0.024531 0.000000
# 6 0.000000 0.000000 0.000000 0.015381 0.000000 0.038397
#
#
# Mechanical properties :
#
#
# Convention : Reuss Voigt Hill
#
# Bulk Modulus (GPa) = 70.87490 76.72551 73.80021
# Shear Modulus (GPa) = 107.35161 24.26767 65.80964
#
# Velocity S-wave (km/s) = 7.23005 3.43757 5.66086
# Velocity P-wave (km/s) = 10.20833 7.28811 8.86923
#
# Compressibility (1/GPa) = 0.01410937
#
# Stress axis : x y z
#
# Youngs Moduli (GPa) = 65.54502 102.45412 80.21726
#
# Poissons Ratio (x) = 0.08288 0.51352
# Poissons Ratio (y) = 0.05302 0.35909
# Poissons Ratio (z) = 0.41959 0.45863
#
# Static dielectric constant tensor:
#      x y z
#    x 3.609080 0.000000 0.056210 
#    y 0.000000 3.807230 0.000000 
#    z 0.056210 0.000000 3.860490 
# 
# 
# High freq. dielectric constant tensor:
#      x y z
#    x 1.799790 0.000000 0.006520 
#    y 0.000000 1.815770 0.000000 
#    z 0.006520 0.000000 1.814230 
# 
# From -- ./inp_files/290157.got.cif
#   From: 2010.06.25/outbox.cif.g09.slc.cpg/sg12_146_cif.got.tgz:290157.got - 2010.06.28 00:19:55.
