data_PCOD8112181
_publ_section_title
;
Structure prediction by ZEFSAII (Michael W. Deem and Ramdas Pophale) SiO2 
 PCOD8112181
Probable space group: C 2/M
;
_chemical_formula_sum "Si O2"
_cell_formula_units_Z 28
_cell_length_a 20.284305
_cell_length_b 14.258183
_cell_length_c 5.110913
_cell_angle_alpha 90.000000
_cell_angle_beta 104.593511
_cell_angle_gamma 90.000000
_cell_volume 1430.475653
_symmetry_space_group_name_H-M "C 2/M"
_symmetry_group_IT_number 12
_symmetry_cell_setting 'monoclinic'
loop_
_space_group_symop_operation_xyz
x,y,z
-x,y,-z
-x,-y,-z
x,-y,z
1/2+x,1/2+y,z
1/2-x,1/2+y,-z
1/2-x,1/2-y,-z
1/2+x,1/2-y,z
loop_
_atom_site_type_symbol
_atom_site_label
_atom_site_fract_x
_atom_site_fract_y
_atom_site_fract_z
Si Si1 0.294376 0.000000 0.074619
Si Si2 0.130470 0.807119 0.390469
Si Si3 0.630469 0.192882 0.870467
Si Si4 0.294374 0.500000 0.514129
Si Si5 0.500000 0.250001 0.500000
O O1 0.340977 0.089566 0.071690
O O2 0.267691 0.000000 0.344156
O O3 0.232310 0.000000 0.808775
O O4 0.166021 0.749998 0.666016
O O5 0.159024 0.910434 0.389741
O O6 0.048864 0.814333 0.365581
O O7 0.146441 0.750002 0.146436
O O8 0.548863 0.185669 0.732147
#
# Coordination Sequence:
#
# PCOD8112181 Si02
#       5
#     4   8   8   4   4
#     4  12  26  41  63  97 125 166 210 244 316 374
#     4  10  22  42  65  92 126 162 204 262 305 364
#     4  10  22  42  65  92 126 162 204 262 305 364
#     4  12  26  41  63  97 125 166 210 244 316 374
#     4   8  22  42  66  92 120 164 206 256 318 352
#
# _framework density 19.573906999999998
#
# number of rings (size 3 to 8) (size 9 to 14) (size 15 to 20)
#    1.714    0.000    0.000    4.286    0.000    8.000 
#    0.000    2.857    0.000    0.000    0.000    0.000 
#    0.000    0.000    0.000    0.000    0.000    0.000 
#
# Total GULP energy -173509.779626 kJ/mol
# GULP energy per Si atom -12393.555688 kJ/mol
# Density = 1.952936 g / cm^3
# Si number density = 19.573907 Si / 1000 Ang^3
#
#
#
# Elastic Constant Matrix: (Units=GPa)
#
#
# Indices 1 2 3 4 5 6 
#
# 1 77.9280 68.1883 38.3988 0.0000 10.1282 0.0000
# 2 68.1883 187.1104 63.2008 0.0000 1.8744 0.0000
# 3 38.3988 63.2008 126.0619 0.0000 -28.1455 0.0000
# 4 0.0000 0.0000 0.0000 22.5649 0.0000 14.9304
# 5 10.1282 1.8744 -28.1455 0.0000 20.5768 0.0000
# 6 0.0000 0.0000 0.0000 14.9304 0.0000 62.4032
#
#
#
# Elastic Compliance Matrix: (Units=1/GPa)
#
#
# Indices 1 2 3 4 5 6 
#
# 1 0.027737 -0.005651 -0.012308 0.000000 -0.029972 0.000000
# 2 -0.005651 0.008421 -0.002953 0.000000 -0.002025 0.000000
# 3 -0.012308 -0.002953 0.020982 0.000000 0.035027 0.000000
# 4 0.000000 0.000000 0.000000 0.052652 0.000000 -0.012597
# 5 -0.029972 -0.002025 0.035027 0.000000 0.111447 0.000000
# 6 0.000000 0.000000 0.000000 -0.012597 0.000000 0.019039
#
#
# Mechanical properties :
#
#
# Convention : Reuss Voigt Hill
#
# Bulk Modulus (GPa) = 65.28171 81.18623 73.23397
# Shear Modulus (GPa) = 17.40910 35.86315 26.63612
#
# Velocity S-wave (km/s) = 2.98552 4.28505 3.69290
# Velocity P-wave (km/s) = 6.73114 8.12706 7.46181
#
# Compressibility (1/GPa) = 0.01531823
#
# Stress axis : x y z
#
# Youngs Moduli (GPa) = 36.05326 118.74525 47.65893
#
# Poissons Ratio (x) = 0.67098 0.58657
# Poissons Ratio (y) = 0.20372 0.14073
# Poissons Ratio (z) = 0.44373 0.35065
#
# Static dielectric constant tensor:
#      x y z
#    x 3.467590 0.000000 -0.079360 
#    y 0.000000 3.485200 0.000000 
#    z -0.079360 0.000000 3.679530 
# 
# 
# High freq. dielectric constant tensor:
#      x y z
#    x 1.759050 0.000000 -0.007230 
#    y 0.000000 1.751310 0.000000 
#    z -0.007230 0.000000 1.778350 
# 
# From -- ./inp_files/19516.got.cif
#   From: 2010.06.25/outbox.cif.g09.slc.cpg/sg12_10_cif.got.tgz:19516.got - 2010.06.28 00:19:55.
