data_PCOD8112668
_publ_section_title
;
Structure prediction by ZEFSAII (Michael W. Deem and Ramdas Pophale) SiO2 
 PCOD8112668
Probable space group: C 2/M
;
_chemical_formula_sum "Si O2"
_cell_formula_units_Z 48
_cell_length_a 11.127742
_cell_length_b 19.984214
_cell_length_c 15.327242
_cell_angle_alpha 90.000000
_cell_angle_beta 38.657682
_cell_angle_gamma 90.000000
_cell_volume 2129.148978
_symmetry_space_group_name_H-M "C 2/M"
_symmetry_group_IT_number 12
_symmetry_cell_setting 'monoclinic'
loop_
_space_group_symop_operation_xyz
x,y,z
-x,y,-z
-x,-y,-z
x,-y,z
1/2+x,1/2+y,z
1/2-x,1/2+y,-z
1/2-x,1/2-y,-z
1/2+x,1/2-y,z
loop_
_atom_site_type_symbol
_atom_site_label
_atom_site_fract_x
_atom_site_fract_y
_atom_site_fract_z
Si Si1 0.208920 0.270893 0.246355
Si Si2 0.636750 0.687035 0.531134
Si Si3 0.649311 0.830168 0.975151
Si Si4 0.427474 0.634496 0.249942
Si Si5 0.316056 0.000000 0.874446
Si Si6 0.092707 0.000000 0.821620
Si Si7 0.014553 0.359060 0.756369
O O1 0.316160 0.236502 0.103384
O O2 0.349484 0.302379 0.238831
O O3 0.085764 0.331124 0.273989
O O4 0.075664 0.215976 0.373276
O O5 0.750000 0.750000 0.500000
O O6 0.621481 0.637091 0.621128
O O7 0.753284 0.647528 0.389150
O O8 0.842251 0.868305 0.890955
O O9 0.500000 0.874224 0.000000
O O10 0.539870 0.813456 0.128350
O O11 0.336886 0.565814 0.268211
O O12 0.206582 0.000000 0.845976
O O13 0.452007 0.064607 0.809358
O O14 0.139952 0.000000 0.042268
#
# Coordination Sequence:
#
# PCOD8112668 Si02
#       7
#     8   8   8   8   4   4   8
#     4  10  23  40  67  94 137 176 227 287 353 410
#     4   9  23  42  62  95 140 180 217 281 349 415
#     4  11  26  39  65 100 133 182 231 289 346 406
#     4  11  23  45  66 103 138 185 230 286 349 418
#     4  11  22  39  69 105 134 180 229 300 338 410
#     4  11  22  41  69 103 144 176 231 292 344 411
#     4  11  22  43  62 101 137 177 230 278 359 403
#
# _framework density 22.544218999999998
#
# number of rings (size 3 to 8) (size 9 to 14) (size 15 to 20)
#    0.000    1.500    3.333    0.500    9.333    3.333 
#    3.000    2.500    0.000    0.000    0.000    3.500 
#    0.000    0.000    0.000    0.000    0.000    0.000 
#
# Total GULP energy -297384.126853 kJ/mol
# GULP energy per Si atom -12391.005286 kJ/mol
# Density = 2.249291 g / cm^3
# Si number density = 22.544219 Si / 1000 Ang^3
#
#
#
# Elastic Constant Matrix: (Units=GPa)
#
#
# Indices 1 2 3 4 5 6 
#
# 1 99.6270 23.2496 31.8577 0.0017 -12.6861 -0.0077
# 2 23.2496 109.2533 43.8821 -0.0010 -10.7793 -0.0011
# 3 31.8577 43.8821 165.2251 -0.0119 -10.3579 0.0042
# 4 0.0017 -0.0010 -0.0119 24.3769 -0.0006 -8.2066
# 5 -12.6861 -10.7793 -10.3579 -0.0006 17.5868 0.0002
# 6 -0.0077 -0.0011 0.0042 -8.2066 0.0002 6.2737
#
#
#
# Elastic Compliance Matrix: (Units=1/GPa)
#
#
# Indices 1 2 3 4 5 6 
#
# 1 0.011664 -0.001209 -0.001502 0.000006 0.006788 0.000023
# 2 -0.001209 0.010787 -0.002359 0.000000 0.004350 0.000002
# 3 -0.001502 -0.002359 0.007071 0.000002 0.001635 -0.000004
# 4 0.000006 0.000000 0.000002 0.073304 0.000007 0.095889
# 5 0.006788 0.004350 0.001635 0.000007 0.065387 0.000016
# 6 0.000023 0.000002 -0.000004 0.095889 0.000016 0.284829
#
#
# Mechanical properties :
#
#
# Convention : Reuss Voigt Hill
#
# Bulk Modulus (GPa) = 51.59578 63.56489 57.58034
# Shear Modulus (GPa) = 10.64637 27.98853 19.31745
#
# Velocity S-wave (km/s) = 2.17547 3.52731 2.93041
# Velocity P-wave (km/s) = 5.40800 6.69672 6.08656
#
# Compressibility (1/GPa) = 0.01938143
#
# Stress axis : x y z
#
# Youngs Moduli (GPa) = 85.73098 92.70352 141.42120
#
# Poissons Ratio (x) = 0.11208 0.21247
# Poissons Ratio (y) = 0.10365 0.33363
# Poissons Ratio (z) = 0.12880 0.21870
#
# Static dielectric constant tensor:
#      x y z
#    x 4.334330 0.000000 -0.468200 
#    y 0.000000 3.752520 0.000020 
#    z -0.468200 0.000020 4.273600 
# 
# 
# High freq. dielectric constant tensor:
#      x y z
#    x 1.899070 0.000000 -0.002980 
#    y 0.000000 1.854820 0.000000 
#    z -0.002980 0.000000 1.901090 
# 
# From -- ./inp_files/207968.got.cif
#   From: 2010.06.25/outbox.cif.g09.slc.cpg/sg12_104_cif.got.tgz:207968.got - 2010.06.28 00:19:55.
