data_PCOD8112867
_publ_section_title
;
Structure prediction by ZEFSAII (Michael W. Deem and Ramdas Pophale) SiO2 
 PCOD8112867
Probable space group: C 2/M
;
_chemical_formula_sum "Si O2"
_cell_formula_units_Z 56
_cell_length_a 24.945208
_cell_length_b 8.702364
_cell_length_c 14.479278
_cell_angle_alpha 90.000000
_cell_angle_beta 59.920102
_cell_angle_gamma 90.000000
_cell_volume 2719.892232
_symmetry_space_group_name_H-M "C 2/M"
_symmetry_group_IT_number 12
_symmetry_cell_setting 'monoclinic'
loop_
_space_group_symop_operation_xyz
x,y,z
-x,y,-z
-x,-y,-z
x,-y,z
1/2+x,1/2+y,z
1/2-x,1/2+y,-z
1/2-x,1/2-y,-z
1/2+x,1/2-y,z
loop_
_atom_site_type_symbol
_atom_site_label
_atom_site_fract_x
_atom_site_fract_y
_atom_site_fract_z
Si Si1 0.554299 0.677659 0.381268
Si Si2 0.270920 0.676885 0.387114
Si Si3 0.768511 0.679550 0.080401
Si Si4 0.602177 0.318501 0.977134
Si Si5 0.398680 0.181156 0.214376
Si Si6 0.509640 0.680974 0.217732
Si Si7 0.818049 0.324752 0.703158
O O1 0.500000 0.706982 0.500000
O O2 0.574608 0.500000 0.362094
O O3 0.533475 0.731408 0.297487
O O4 0.610315 0.782058 0.367843
O O5 0.288765 0.500000 0.386740
O O6 0.250000 0.750000 0.500000
O O7 0.329796 0.762412 0.294423
O O8 0.213101 0.696720 0.369122
O O9 0.781456 0.500000 0.059183
O O10 0.828447 0.762590 0.067996
O O11 0.711980 0.708534 0.198098
O O12 0.750000 0.750000 0.000000
O O13 0.602204 0.500000 0.967359
O O14 0.576436 0.248772 0.904080
O O15 0.559879 0.264186 0.098844
O O16 0.444726 0.234803 0.255427
O O17 0.397739 0.000000 0.208585
O O18 0.498036 0.500000 0.222590
O O19 0.810639 0.500000 0.744224
#
# Coordination Sequence:
#
# PCOD8112867 Si02
#       7
#     8   8   8   8   8   8   8
#     4  10  23  43  67  96 128 170 219 267 324 387
#     4  11  25  44  68  97 132 171 217 268 326 387
#     4  12  24  39  64  95 131 172 215 265 323 385
#     4  11  22  40  64  93 130 171 217 266 325 388
#     4  12  25  41  65  97 131 170 216 267 325 387
#     4  10  23  42  64  92 129 173 216 267 326 384
#     4  11  24  43  67  96 131 170 214 268 325 382
#
# _framework density 20.589051999999999
#
# number of rings (size 3 to 8) (size 9 to 14) (size 15 to 20)
#    0.000    1.000    1.429    5.143    2.000    6.571 
#    0.000    0.000    0.000    0.000    0.000    0.000 
#    0.000    0.000    0.000    0.000    0.000    0.000 
#
# Total GULP energy -347413.981680 kJ/mol
# GULP energy per Si atom -12407.642203 kJ/mol
# Density = 2.054219 g / cm^3
# Si number density = 20.589052 Si / 1000 Ang^3
#
#
#
# Elastic Constant Matrix: (Units=GPa)
#
#
# Indices 1 2 3 4 5 6 
#
# 1 132.4724 52.5906 51.5704 0.0000 -1.4248 0.0000
# 2 52.5906 100.0846 42.9361 0.0000 6.2993 0.0001
# 3 51.5704 42.9361 128.7842 0.0000 14.1350 0.0000
# 4 0.0000 0.0000 0.0000 30.9219 0.0000 -0.5975
# 5 -1.4248 6.2993 14.1350 0.0000 29.0239 0.0000
# 6 0.0000 0.0001 0.0000 -0.5975 0.0000 34.4786
#
#
#
# Elastic Compliance Matrix: (Units=1/GPa)
#
#
# Indices 1 2 3 4 5 6 
#
# 1 0.010523 -0.004398 -0.003073 0.000000 0.002968 0.000000
# 2 -0.004398 0.013509 -0.002533 0.000000 -0.001914 0.000000
# 3 -0.003073 -0.002533 0.010350 0.000000 -0.004641 0.000000
# 4 0.000000 0.000000 0.000000 0.032350 0.000000 0.000561
# 5 0.002968 -0.001914 -0.004641 0.000000 0.037276 0.000000
# 6 0.000000 0.000000 0.000000 0.000561 0.000000 0.029013
#
#
# Mechanical properties :
#
#
# Convention : Reuss Voigt Hill
#
# Bulk Modulus (GPa) = 69.56993 72.83728 71.20361
# Shear Modulus (GPa) = 31.68152 33.16784 32.42468
#
# Velocity S-wave (km/s) = 3.92695 4.01801 3.97274
# Velocity P-wave (km/s) = 7.37729 7.54847 7.46337
#
# Compressibility (1/GPa) = 0.01437403
#
# Stress axis : x y z
#
# Youngs Moduli (GPa) = 95.03022 74.02220 96.62292
#
# Poissons Ratio (x) = 0.32553 0.29696
# Poissons Ratio (y) = 0.41792 0.24473
# Poissons Ratio (z) = 0.29206 0.18749
#
# Static dielectric constant tensor:
#      x y z
#    x 3.831640 0.000000 0.058280 
#    y 0.000000 3.785780 0.000000 
#    z 0.058280 0.000000 3.841450 
# 
# 
# High freq. dielectric constant tensor:
#      x y z
#    x 1.820130 0.000000 0.003040 
#    y 0.000000 1.809800 0.000000 
#    z 0.003040 0.000000 1.813790 
# 
# From -- ./inp_files/238248.got.cif
#   From: 2010.06.25/outbox.cif.g09.slc.cpg/sg12_120_cif.got.tgz:238248.got - 2010.06.28 00:19:55.
