data_PCOD8112530
_publ_section_title
;
Structure prediction by ZEFSAII (Michael W. Deem and Ramdas Pophale) SiO2 
 PCOD8112530
Probable space group: C 2/M
;
_chemical_formula_sum "Si O2"
_cell_formula_units_Z 56
_cell_length_a 18.186620
_cell_length_b 20.890434
_cell_length_c 9.536105
_cell_angle_alpha 90.000000
_cell_angle_beta 50.880543
_cell_angle_gamma 90.000000
_cell_volume 2810.853917
_symmetry_space_group_name_H-M "C 2/M"
_symmetry_group_IT_number 12
_symmetry_cell_setting 'monoclinic'
loop_
_space_group_symop_operation_xyz
x,y,z
-x,y,-z
-x,-y,-z
x,-y,z
1/2+x,1/2+y,z
1/2-x,1/2+y,-z
1/2-x,1/2-y,-z
1/2+x,1/2-y,z
loop_
_atom_site_type_symbol
_atom_site_label
_atom_site_fract_x
_atom_site_fract_y
_atom_site_fract_z
Si Si1 0.277650 0.928996 0.575325
Si Si2 0.382932 0.927733 0.723361
Si Si3 0.172858 0.696442 0.626196
Si Si4 0.913012 0.072666 0.017528
Si Si5 0.292230 0.646237 0.985438
Si Si6 0.314466 0.225994 0.079308
Si Si7 0.013973 0.305743 0.327879
O O1 0.364864 0.920595 0.578432
O O2 0.284951 0.874576 0.448286
O O3 0.179734 0.921712 0.776210
O O4 0.281642 0.000000 0.501019
O O5 0.285331 0.909770 0.916887
O O6 0.467161 0.881818 0.673738
O O7 0.412185 0.000000 0.727510
O O8 0.250000 0.750000 0.500000
O O9 0.144497 0.702499 0.823059
O O10 0.079834 0.708145 0.647176
O O11 0.894256 0.112896 0.895383
O O12 0.937612 0.000000 0.945933
O O13 0.000000 0.103069 0.000000
O O14 0.277659 0.700460 0.126116
O O15 0.276481 0.681740 0.855342
O O16 0.396222 0.223870 0.861541
O O17 0.000000 0.274592 0.500000
#
# Coordination Sequence:
#
# PCOD8112530 Si02
#       7
#     8   8   8   8   8   8   8
#     4   9  18  34  56  85 119 154 195 242 301 358
#     4   9  17  34  61  89 114 151 194 244 294 351
#     4  12  24  38  60  87 121 161 199 243 301 354
#     4   9  17  31  57  87 112 146 197 250 291 346
#     4   9  18  35  59  80 115 147 194 240 294 345
#     4  10  23  38  59  83 120 156 192 244 292 353
#     4  11  23  39  60  89 119 153 197 247 292 356
#
# _framework density 19.922771000000001
#
# number of rings (size 3 to 8) (size 9 to 14) (size 15 to 20)
#    0.000    2.143    1.429    3.429    4.000    3.143 
#    0.000    3.571    0.000    4.286    0.000    3.000 
#    0.000    0.000    0.000    0.000    0.000    0.000 
#
# Total GULP energy -346891.369795 kJ/mol
# GULP energy per Si atom -12388.977493 kJ/mol
# Density = 1.987743 g / cm^3
# Si number density = 19.922771 Si / 1000 Ang^3
#
#
#
# Elastic Constant Matrix: (Units=GPa)
#
#
# Indices 1 2 3 4 5 6 
#
# 1 158.7286 39.7312 26.0753 0.0000 9.5346 0.0000
# 2 39.7312 94.5977 21.2458 0.0000 6.5759 0.0000
# 3 26.0753 21.2458 68.5523 0.0000 13.4923 0.0000
# 4 0.0000 0.0000 0.0000 20.4184 0.0000 5.0334
# 5 9.5346 6.5759 13.4923 0.0000 31.2453 0.0000
# 6 0.0000 0.0000 0.0000 5.0334 0.0000 38.4674
#
#
#
# Elastic Compliance Matrix: (Units=1/GPa)
#
#
# Indices 1 2 3 4 5 6 
#
# 1 0.007300 -0.002600 -0.001792 0.000000 -0.000906 0.000000
# 2 -0.002600 0.012314 -0.002703 0.000000 -0.000631 0.000000
# 3 -0.001792 -0.002703 0.017363 0.000000 -0.006382 0.000000
# 4 0.000000 0.000000 0.000000 0.050608 0.000000 -0.006622
# 5 -0.000906 -0.000631 -0.006382 0.000000 0.035170 0.000000
# 6 0.000000 0.000000 0.000000 -0.006622 0.000000 0.026862
#
#
# Mechanical properties :
#
#
# Convention : Reuss Voigt Hill
#
# Bulk Modulus (GPa) = 43.88808 55.10924 49.49866
# Shear Modulus (GPa) = 29.17081 33.68130 31.42606
#
# Velocity S-wave (km/s) = 3.83063 4.11614 3.97595
# Velocity P-wave (km/s) = 6.45305 7.09307 6.78062
#
# Compressibility (1/GPa) = 0.02278523
#
# Stress axis : x y z
#
# Youngs Moduli (GPa) = 136.98913 81.20698 57.59378
#
# Poissons Ratio (x) = 0.21117 0.10323
# Poissons Ratio (y) = 0.35623 0.15568
# Poissons Ratio (z) = 0.24553 0.21951
#
# Static dielectric constant tensor:
#      x y z
#    x 3.882930 0.000000 0.030750 
#    y 0.000000 3.844410 0.000000 
#    z 0.030750 0.000000 3.304740 
# 
# 
# High freq. dielectric constant tensor:
#      x y z
#    x 1.791340 0.000000 -0.009460 
#    y 0.000000 1.785600 0.000000 
#    z -0.009460 0.000000 1.726960 
# 
# From -- ./inp_files/77343.got.cif
#   From: 2010.06.25/outbox.cif.g09.slc.cpg/sg12_39_cif.got.tgz:77343.got - 2010.06.28 00:19:55.
