data_PCOD8112065
_publ_section_title
;
Structure prediction by ZEFSAII (Michael W. Deem and Ramdas Pophale) SiO2 
 PCOD8112065
Probable space group: C 2/M
;
_chemical_formula_sum "Si O2"
_cell_formula_units_Z 28
_cell_length_a 23.246761
_cell_length_b 12.355321
_cell_length_c 5.816149
_cell_angle_alpha 90.000000
_cell_angle_beta 52.134853
_cell_angle_gamma 90.000000
_cell_volume 1318.805720
_symmetry_space_group_name_H-M "C 2/M"
_symmetry_group_IT_number 12
_symmetry_cell_setting 'monoclinic'
loop_
_space_group_symop_operation_xyz
x,y,z
-x,y,-z
-x,-y,-z
x,-y,z
1/2+x,1/2+y,z
1/2-x,1/2+y,-z
1/2-x,1/2-y,-z
1/2+x,1/2-y,z
loop_
_atom_site_type_symbol
_atom_site_label
_atom_site_fract_x
_atom_site_fract_y
_atom_site_fract_z
Si Si1 0.082556 0.292516 0.743521
Si Si2 0.693255 0.216613 0.829080
Si Si3 0.041168 0.500000 0.644495
Si Si4 0.177752 0.876053 0.251305
O O1 0.121815 0.334807 0.882431
O O2 0.087809 0.388756 0.539159
O O3 0.124104 0.186087 0.556769
O O4 0.000000 0.259963 0.000000
O O5 0.750000 0.250000 0.500000
O O6 0.736388 0.133326 0.889375
O O7 0.667975 0.324261 0.024866
O O8 0.000000 0.500000 0.500000
O O9 0.000000 0.500000 0.000000
O O10 0.153686 0.000000 0.302325
#
# Coordination Sequence:
#
# PCOD8112065 Si02
#       4
#     8   8   4   8
#     4  10  23  41  66  97 134 170 219 280 339 409
#     4   9  21  42  59  92 127 172 219 271 331 401
#     4  10  24  42  68 100 138 180 219 278 339 407
#     4  10  22  41  67  93 131 173 221 278 337 408
#
# _framework density 21.23133
#
# number of rings (size 3 to 8) (size 9 to 14) (size 15 to 20)
#    0.000    2.286    0.000    0.000   10.000    5.143 
#   20.571    1.429    0.000    0.000    0.000    0.000 
#    0.000    0.000    0.000    0.000    0.000    0.000 
#
# Total GULP energy -173453.979317 kJ/mol
# GULP energy per Si atom -12389.569951 kJ/mol
# Density = 2.118301 g / cm^3
# Si number density = 21.231330 Si / 1000 Ang^3
#
#
#
# Elastic Constant Matrix: (Units=GPa)
#
#
# Indices 1 2 3 4 5 6 
#
# 1 190.0884 52.4675 43.7024 0.0000 10.4224 0.0000
# 2 52.4675 158.0560 27.2016 0.0000 3.1636 0.0000
# 3 43.7024 27.2016 73.8842 0.0000 2.1051 0.0000
# 4 0.0000 0.0000 0.0000 33.2139 0.0000 2.3420
# 5 10.4224 3.1636 2.1051 0.0000 41.0496 0.0000
# 6 0.0000 0.0000 0.0000 2.3420 0.0000 23.0602
#
#
#
# Elastic Compliance Matrix: (Units=1/GPa)
#
#
# Indices 1 2 3 4 5 6 
#
# 1 0.006515 -0.001579 -0.003233 0.000000 -0.001367 0.000000
# 2 -0.001579 0.007144 -0.001694 0.000000 -0.000063 0.000000
# 3 -0.003233 -0.001694 0.016067 0.000000 0.000128 0.000000
# 4 0.000000 0.000000 0.000000 0.030325 0.000000 -0.003080
# 5 -0.001367 -0.000063 0.000128 0.000000 0.024706 0.000000
# 6 0.000000 0.000000 0.000000 -0.003080 0.000000 0.043678
#
#
# Mechanical properties :
#
#
# Convention : Reuss Voigt Hill
#
# Bulk Modulus (GPa) = 59.83402 74.30795 67.07098
# Shear Modulus (GPa) = 34.00927 39.37521 36.69224
#
# Velocity S-wave (km/s) = 4.00665 4.31116 4.16169
# Velocity P-wave (km/s) = 7.04609 7.73670 7.39946
#
# Compressibility (1/GPa) = 0.01671290
#
# Stress axis : x y z
#
# Youngs Moduli (GPa) = 153.49757 139.98075 62.23787
#
# Poissons Ratio (x) = 0.22100 0.20123
# Poissons Ratio (y) = 0.24234 0.10546
# Poissons Ratio (z) = 0.49630 0.23719
#
# Static dielectric constant tensor:
#      x y z
#    x 5.124260 0.000000 0.372650 
#    y 0.000000 3.757980 0.000000 
#    z 0.372650 0.000000 3.791040 
# 
# 
# High freq. dielectric constant tensor:
#      x y z
#    x 1.845930 0.000000 0.011900 
#    y 0.000000 1.812560 0.000000 
#    z 0.011900 0.000000 1.832920 
# 
# From -- ./inp_files/18951.got.cif
#   From: 2010.06.25/outbox.cif.g09.slc.cpg/sg12_10_cif.got.tgz:18951.got - 2010.06.28 00:19:55.
