data_PCOD8112498
_publ_section_title
;
Structure prediction by ZEFSAII (Michael W. Deem and Ramdas Pophale) SiO2 
 PCOD8112498
Probable space group: C 2/M
;
_chemical_formula_sum "Si O2"
_cell_formula_units_Z 64
_cell_length_a 15.060002
_cell_length_b 22.818495
_cell_length_c 13.554942
_cell_angle_alpha 90.000000
_cell_angle_beta 43.018717
_cell_angle_gamma 90.000000
_cell_volume 3177.935733
_symmetry_space_group_name_H-M "C 2/M"
_symmetry_group_IT_number 12
_symmetry_cell_setting 'monoclinic'
loop_
_space_group_symop_operation_xyz
x,y,z
-x,y,-z
-x,-y,-z
x,-y,z
1/2+x,1/2+y,z
1/2-x,1/2+y,-z
1/2-x,1/2-y,-z
1/2+x,1/2-y,z
loop_
_atom_site_type_symbol
_atom_site_label
_atom_site_fract_x
_atom_site_fract_y
_atom_site_fract_z
Si Si1 0.770875 0.766037 0.308773
Si Si2 0.376294 0.332161 0.048682
Si Si3 0.474565 0.730608 0.784454
Si Si4 0.262107 0.065468 0.445347
Si Si5 0.495240 0.067149 0.890979
Si Si6 0.417169 0.334388 0.480761
Si Si7 0.404374 0.124090 0.492608
Si Si8 0.621587 0.148163 0.167269
O O1 0.841596 0.775489 0.145275
O O2 0.877800 0.752634 0.305402
O O3 0.679650 0.709793 0.384240
O O4 0.691598 0.825829 0.391233
O O5 0.245532 0.370515 0.135267
O O6 0.500000 0.365768 0.000000
O O7 0.419357 0.316576 0.904304
O O8 0.484567 0.701866 0.668596
O O9 0.372100 0.784366 0.872868
O O10 0.364608 0.074584 0.273488
O O11 0.151526 0.114332 0.524754
O O12 0.324796 0.071873 0.504020
O O13 0.203016 0.000000 0.487208
O O14 0.388603 0.104540 0.917297
O O15 0.448368 0.000000 0.925925
O O16 0.500000 0.089831 0.000000
O O17 0.500000 0.364884 0.500000
O O18 0.500000 0.099025 0.500000
O O19 0.491467 0.151349 0.336504
#
# Coordination Sequence:
#
# PCOD8112498 Si02
#       8
#     8   8   8   8   8   8   8   8
#     4  11  19  37  58  88 118 152 189 232 302 352
#     4  10  23  36  53  83 125 153 185 239 292 357
#     4  11  22  35  55  86 124 156 186 239 296 345
#     4  10  23  40  57  86 116 149 201 251 287 335
#     4   9  20  38  60  84 114 152 194 246 295 339
#     4  12  23  36  59  85 118 161 200 234 285 357
#     4  11  19  34  64  87 113 147 186 243 298 348
#     4  11  20  34  59  87 115 151 198 237 287 355
#
# _framework density 20.138860000000001
#
# number of rings (size 3 to 8) (size 9 to 14) (size 15 to 20)
#    0.000    1.375    3.750    3.375    0.000    4.000 
#    0.000    0.000    0.000    1.125    0.000    0.000 
#    0.000    0.000    0.000    0.000    0.000    0.000 
#
# Total GULP energy -396609.494508 kJ/mol
# GULP energy per Si atom -12394.046703 kJ/mol
# Density = 2.009302 g / cm^3
# Si number density = 20.138860 Si / 1000 Ang^3
#
#
#
# Elastic Constant Matrix: (Units=GPa)
#
#
# Indices 1 2 3 4 5 6 
#
# 1 145.6789 43.3719 31.8269 0.0015 6.8379 -0.0005
# 2 43.3719 81.3601 21.0118 0.0006 -0.4476 -0.0003
# 3 31.8269 21.0118 54.9913 0.0032 -0.2218 -0.0021
# 4 0.0015 0.0006 0.0032 12.8089 -0.0014 5.8013
# 5 6.8379 -0.4476 -0.2218 -0.0014 28.3790 0.0006
# 6 -0.0005 -0.0003 -0.0021 5.8013 0.0006 20.8817
#
#
#
# Elastic Compliance Matrix: (Units=1/GPa)
#
#
# Indices 1 2 3 4 5 6 
#
# 1 0.008914 -0.003805 -0.003714 0.000000 -0.002237 0.000000
# 2 -0.003805 0.015262 -0.003625 0.000001 0.001129 -0.000001
# 3 -0.003714 -0.003625 0.021723 -0.000006 0.001007 0.000004
# 4 0.000000 0.000001 -0.000006 0.089308 0.000005 -0.024811
# 5 -0.002237 0.001129 0.001007 0.000005 0.035802 -0.000002
# 6 0.000000 -0.000001 0.000004 -0.024811 -0.000002 0.054782
#
#
# Mechanical properties :
#
#
# Convention : Reuss Voigt Hill
#
# Bulk Modulus (GPa) = 42.35261 52.71684 47.53472
# Shear Modulus (GPa) = 19.53522 24.80191 22.16857
#
# Velocity S-wave (km/s) = 3.11790 3.51314 3.32141
# Velocity P-wave (km/s) = 5.83418 6.53374 6.19385
#
# Compressibility (1/GPa) = 0.02361130
#
# Stress axis : x y z
#
# Youngs Moduli (GPa) = 112.18795 65.52369 46.03354
#
# Poissons Ratio (x) = 0.24931 0.17097
# Poissons Ratio (y) = 0.42686 0.16686
# Poissons Ratio (z) = 0.41668 0.23750
#
# Static dielectric constant tensor:
#      x y z
#    x 4.049350 0.000000 -0.037490 
#    y 0.000000 3.299990 0.000000 
#    z -0.037490 0.000000 3.740680 
# 
# 
# High freq. dielectric constant tensor:
#      x y z
#    x 1.803710 0.000000 0.007060 
#    y 0.000000 1.739400 0.000000 
#    z 0.007060 0.000000 1.788360 
# 
# From -- ./inp_files/218504.got.cif
#   From: 2010.06.25/outbox.cif.g09.slc.cpg/sg12_110_cif.got.tgz:218504.got - 2010.06.28 00:19:55.
