data_PCOD8112888
_publ_section_title
;
Structure prediction by ZEFSAII (Michael W. Deem and Ramdas Pophale) SiO2 
 PCOD8112888
Probable space group: C 2/M
;
_chemical_formula_sum "Si O2"
_cell_formula_units_Z 56
_cell_length_a 15.132014
_cell_length_b 8.445154
_cell_length_c 24.118504
_cell_angle_alpha 90.000000
_cell_angle_beta 61.201369
_cell_angle_gamma 90.000000
_cell_volume 2700.949729
_symmetry_space_group_name_H-M "C 2/M"
_symmetry_group_IT_number 12
_symmetry_cell_setting 'monoclinic'
loop_
_space_group_symop_operation_xyz
x,y,z
-x,y,-z
-x,-y,-z
x,-y,z
1/2+x,1/2+y,z
1/2-x,1/2+y,-z
1/2-x,1/2-y,-z
1/2+x,1/2-y,z
loop_
_atom_site_type_symbol
_atom_site_label
_atom_site_fract_x
_atom_site_fract_y
_atom_site_fract_z
Si Si1 0.843638 0.683979 0.505067
Si Si2 0.234202 0.815525 0.065889
Si Si3 0.799185 0.820101 0.633955
Si Si4 0.995337 0.181476 0.376945
Si Si5 0.519589 0.181865 0.148010
Si Si6 0.420961 0.685264 0.070838
Si Si7 0.912317 0.182877 0.284173
O O1 0.828832 0.500000 0.522036
O O2 0.750000 0.750000 0.500000
O O3 0.851465 0.776282 0.560268
O O4 0.944410 0.710586 0.439216
O O5 0.119402 0.788835 0.118763
O O6 0.308182 0.727877 0.086207
O O7 0.259476 0.000000 0.058941
O O8 0.250000 0.750000 0.000000
O O9 0.884083 0.800926 0.655603
O O10 0.707642 0.705104 0.676442
O O11 0.759275 0.000000 0.643309
O O12 0.961736 0.240234 0.326677
O O13 0.960996 0.000000 0.396652
O O14 0.446930 0.222922 0.118915
O O15 0.457634 0.209407 0.222512
O O16 0.552539 0.000000 0.133841
O O17 0.429079 0.500000 0.080416
O O18 0.500000 0.738366 0.000000
O O19 0.936426 0.000000 0.264587
#
# Coordination Sequence:
#
# PCOD8112888 Si02
#       7
#     8   8   8   8   8   8   8
#     4  12  23  37  62  94 127 165 212 266 325 379
#     4  12  24  41  67  99 133 169 212 262 322 383
#     4  11  23  41  65  94 128 167 214 265 323 384
#     4  10  23  42  65  92 127 168 211 263 323 379
#     4  12  26  44  67  96 133 174 218 266 323 385
#     4  11  23  41  68  99 131 167 212 264 321 382
#     4  11  24  44  66  90 127 173 218 264 318 381
#
# _framework density 20.733447000000002
#
# number of rings (size 3 to 8) (size 9 to 14) (size 15 to 20)
#    0.000    0.714    2.857    5.571    0.000    5.143 
#    0.000    4.286    0.000    0.000    0.000    0.000 
#    0.000    0.000    0.000    0.000    0.000    0.000 
#
# Total GULP energy -347435.539823 kJ/mol
# GULP energy per Si atom -12408.412137 kJ/mol
# Density = 2.068626 g / cm^3
# Si number density = 20.733447 Si / 1000 Ang^3
#
#
#
# Elastic Constant Matrix: (Units=GPa)
#
#
# Indices 1 2 3 4 5 6 
#
# 1 128.5131 11.2630 42.3644 0.0000 -4.8287 0.0000
# 2 11.2630 72.4858 15.8172 0.0000 -2.4311 0.0001
# 3 42.3644 15.8172 113.7082 0.0000 2.8291 0.0000
# 4 0.0000 0.0000 0.0000 30.3854 0.0000 -4.9299
# 5 -4.8287 -2.4311 2.8291 0.0000 7.8219 0.0000
# 6 0.0000 0.0001 0.0000 -4.9299 0.0000 32.0961
#
#
#
# Elastic Compliance Matrix: (Units=1/GPa)
#
#
# Indices 1 2 3 4 5 6 
#
# 1 0.009249 -0.000431 -0.003557 0.000000 0.006862 0.000000
# 2 -0.000431 0.014459 -0.001974 0.000000 0.004942 0.000000
# 3 -0.003557 -0.001974 0.010559 0.000000 -0.006628 0.000000
# 4 0.000000 0.000000 0.000000 0.033752 0.000000 0.005184
# 5 0.006862 0.004942 -0.006628 0.000000 0.136016 0.000000
# 6 0.000000 0.000000 0.000000 0.005184 0.000000 0.031953
#
#
# Mechanical properties :
#
#
# Convention : Reuss Voigt Hill
#
# Bulk Modulus (GPa) = 44.75328 50.39958 47.57643
# Shear Modulus (GPa) = 19.58026 30.41152 24.99589
#
# Velocity S-wave (km/s) = 3.07641 3.83402 3.47592
# Velocity P-wave (km/s) = 5.85244 6.63029 6.25347
#
# Compressibility (1/GPa) = 0.02234473
#
# Stress axis : x y z
#
# Youngs Moduli (GPa) = 108.11466 69.16011 94.70513
#
# Poissons Ratio (x) = 0.02980 0.33685
# Poissons Ratio (y) = 0.04659 0.18692
# Poissons Ratio (z) = 0.38455 0.13650
#
# Static dielectric constant tensor:
#      x y z
#    x 3.940790 0.000000 0.004540 
#    y 0.000000 3.849550 0.000000 
#    z 0.004540 0.000000 3.708310 
# 
# 
# High freq. dielectric constant tensor:
#      x y z
#    x 1.826480 0.000000 0.002450 
#    y 0.000000 1.819880 0.000000 
#    z 0.002450 0.000000 1.803900 
# 
# From -- ./inp_files/338572.got.cif
#   From: 2010.06.25/outbox.cif.g09.slc.cpg/sg12_170_cif.got.tgz:338572.got - 2010.06.28 00:19:55.
