data_PCOD8112246
_publ_section_title
;
Structure prediction by ZEFSAII (Michael W. Deem and Ramdas Pophale) SiO2 
 PCOD8112246
Probable space group: C 2/M
;
_chemical_formula_sum "Si O2"
_cell_formula_units_Z 64
_cell_length_a 22.233426
_cell_length_b 27.876350
_cell_length_c 15.617752
_cell_angle_alpha 90.000000
_cell_angle_beta 162.090482
_cell_angle_gamma 90.000000
_cell_volume 2976.642588
_symmetry_space_group_name_H-M "C 2/M"
_symmetry_group_IT_number 12
_symmetry_cell_setting 'monoclinic'
loop_
_space_group_symop_operation_xyz
x,y,z
-x,y,-z
-x,-y,-z
x,-y,z
1/2+x,1/2+y,z
1/2-x,1/2+y,-z
1/2-x,1/2-y,-z
1/2+x,1/2-y,z
loop_
_atom_site_type_symbol
_atom_site_label
_atom_site_fract_x
_atom_site_fract_y
_atom_site_fract_z
Si Si1 0.506006 0.255606 0.261089
Si Si2 0.795486 0.093052 0.206249
Si Si3 0.917466 0.553852 0.614853
Si Si4 0.119112 0.907628 0.336010
Si Si5 0.886839 0.192498 0.758192
Si Si6 0.200174 0.443419 0.723659
Si Si7 0.280302 0.053942 0.723377
Si Si8 0.884122 0.198489 0.263648
O O1 0.703117 0.225100 0.533181
O O2 0.482336 0.280877 0.136540
O O3 0.502608 0.294098 0.334865
O O4 0.329918 0.219549 0.035916
O O5 0.701501 0.090837 0.172585
O O6 0.858877 0.143136 0.251814
O O7 0.000000 0.063506 0.500000
O O8 0.636393 0.072204 0.926536
O O9 0.954511 0.500000 0.637766
O O10 0.762101 0.555232 0.481421
O O11 0.822225 0.578158 0.402299
O O12 0.181781 0.856541 0.380671
O O13 0.162204 0.914861 0.494078
O O14 0.888187 0.916178 0.014884
O O15 0.000000 0.182569 0.000000
O O16 0.243031 0.500000 0.787038
O O17 0.000000 0.429381 0.500000
O O18 0.186722 0.000000 0.611868
O O19 0.500000 0.043120 0.000000
O O20 0.000000 0.223285 0.500000
#
# Coordination Sequence:
#
# PCOD8112246 Si02
#       8
#     8   8   8   8   8   8   8   8
#     4  10  23  43  67  95 129 170 211 274 346 413
#     4  11  25  40  64  99 134 176 222 281 338 410
#     4  11  22  40  62  89 128 174 226 273 329 395
#     4  12  24  41  67  94 130 177 228 282 332 404
#     4  11  24  42  66 100 130 165 223 282 341 401
#     4  10  23  40  61  90 126 174 223 274 333 396
#     4  11  24  43  66  99 138 182 234 285 343 404
#     4  10  22  42  67  93 130 171 215 261 337 416
#
# _framework density 21.500734000000001
#
# number of rings (size 3 to 8) (size 9 to 14) (size 15 to 20)
#    0.000    1.250    1.250    4.125    5.250    2.000 
#    0.000    1.875    0.000    0.000    0.000    0.000 
#    0.000    0.000    0.000    0.000    0.000    0.000 
#
# Total GULP energy -396472.353519 kJ/mol
# GULP energy per Si atom -12389.761047 kJ/mol
# Density = 2.145180 g / cm^3
# Si number density = 21.500734 Si / 1000 Ang^3
#
#
#
# Elastic Constant Matrix: (Units=GPa)
#
#
# Indices 1 2 3 4 5 6 
#
# 1 112.9038 48.8057 33.6000 0.0005 -8.0934 0.0000
# 2 48.8057 81.2746 31.5845 -0.0004 -4.8566 -0.0002
# 3 33.6000 31.5845 115.1308 0.0017 -6.6339 0.0006
# 4 0.0005 -0.0004 0.0017 28.1592 0.0011 2.0071
# 5 -8.0934 -4.8566 -6.6339 0.0011 45.5083 0.0001
# 6 0.0000 -0.0002 0.0006 2.0071 0.0001 45.0611
#
#
#
# Elastic Compliance Matrix: (Units=1/GPa)
#
#
# Indices 1 2 3 4 5 6 
#
# 1 0.012336 -0.006674 -0.001698 0.000000 0.001234 0.000000
# 2 -0.006674 0.017422 -0.002817 0.000001 0.000262 0.000000
# 3 -0.001698 -0.002817 0.010003 -0.000001 0.000856 0.000000
# 4 0.000000 0.000001 -0.000001 0.035625 -0.000001 -0.001587
# 5 0.001234 0.000262 0.000856 -0.000001 0.022346 0.000000
# 6 0.000000 0.000000 0.000000 -0.001587 0.000000 0.022263
#
#
# Mechanical properties :
#
#
# Convention : Reuss Voigt Hill
#
# Bulk Modulus (GPa) = 57.52527 59.69883 58.61205
# Shear Modulus (GPa) = 33.74548 36.76700 35.25624
#
# Velocity S-wave (km/s) = 3.96599 4.13974 4.05380
# Velocity P-wave (km/s) = 6.91269 7.11872 7.01646
#
# Compressibility (1/GPa) = 0.01738366
#
# Stress axis : x y z
#
# Youngs Moduli (GPa) = 81.06362 57.39856 99.96654
#
# Poissons Ratio (x) = 0.38309 0.16975
# Poissons Ratio (y) = 0.54103 0.28157
# Poissons Ratio (z) = 0.13765 0.16167
#
# Static dielectric constant tensor:
#      x y z
#    x 4.049350 0.000000 -0.242850 
#    y 0.000000 3.733890 0.000000 
#    z -0.242850 0.000000 4.307450 
# 
# 
# High freq. dielectric constant tensor:
#      x y z
#    x 1.857830 0.000000 -0.004840 
#    y 0.000000 1.828210 0.000000 
#    z -0.004840 0.000000 1.858710 
# 
# From -- ./inp_files/236014.got.cif
#   From: 2010.06.25/outbox.cif.g09.slc.cpg/sg12_119_cif.got.tgz:236014.got - 2010.06.28 00:19:55.
