data_PCOD8112645
_publ_section_title
;
Structure prediction by ZEFSAII (Michael W. Deem and Ramdas Pophale) SiO2 
 PCOD8112645
Probable space group: C 2/M
;
_chemical_formula_sum "Si O2"
_cell_formula_units_Z 52
_cell_length_a 15.702236
_cell_length_b 15.212001
_cell_length_c 18.215633
_cell_angle_alpha 90.000000
_cell_angle_beta 38.900925
_cell_angle_gamma 90.000000
_cell_volume 2732.340994
_symmetry_space_group_name_H-M "C 2/M"
_symmetry_group_IT_number 12
_symmetry_cell_setting 'monoclinic'
loop_
_space_group_symop_operation_xyz
x,y,z
-x,y,-z
-x,-y,-z
x,-y,z
1/2+x,1/2+y,z
1/2-x,1/2+y,-z
1/2-x,1/2-y,-z
1/2+x,1/2-y,z
loop_
_atom_site_type_symbol
_atom_site_label
_atom_site_fract_x
_atom_site_fract_y
_atom_site_fract_z
Si Si1 0.253137 0.399887 0.164245
Si Si2 0.160224 0.670093 0.378013
Si Si3 0.598249 0.500000 0.546197
Si Si4 0.655381 0.174098 0.775751
Si Si5 0.500000 0.723160 0.000000
Si Si6 0.243692 0.647888 0.480995
Si Si7 0.799748 0.000000 0.687083
Si Si8 0.485340 0.900757 0.265255
O O1 0.297837 0.500000 0.122291
O O2 0.201085 0.391558 0.282855
O O3 0.376563 0.338264 0.058556
O O4 0.136160 0.372407 0.185851
O O5 0.209794 0.768255 0.326327
O O6 0.243199 0.636963 0.393501
O O7 0.000000 0.671566 0.500000
O O8 0.634271 0.589456 0.566488
O O9 0.438720 0.500000 0.638928
O O10 0.679671 0.500000 0.414798
O O11 0.710822 0.083159 0.770810
O O12 0.574823 0.165135 0.753931
O O13 0.545495 0.215587 0.903211
O O14 0.250000 0.750000 0.500000
O O15 0.103541 0.605667 0.601757
O O16 0.482455 0.000000 0.236378
#
# Coordination Sequence:
#
# PCOD8112645 Si02
#       8
#     8   8   4   8   4   8   4   8
#     4  10  23  40  64  85 118 162 200 251 302 362
#     4  11  23  34  59  94 127 157 198 243 301 366
#     4  11  24  36  59  94 130 162 198 236 303 381
#     4  11  22  41  62  87 118 159 205 255 300 357
#     4  10  25  43  62  86 114 156 214 259 301 354
#     4  12  21  35  56  89 134 166 190 243 298 369
#     4  11  22  39  64  88 122 162 201 245 304 364
#     4  11  20  37  59  88 118 157 202 242 304 365
#
# _framework density 19.031299000000001
#
# number of rings (size 3 to 8) (size 9 to 14) (size 15 to 20)
#    0.000    1.077    6.154    0.231    5.385    1.231 
#    0.000    0.000    0.000    0.000    0.000    0.000 
#    0.000    0.000    0.000    0.000    0.000    0.000 
#
# Total GULP energy -322418.643648 kJ/mol
# GULP energy per Si atom -12400.717063 kJ/mol
# Density = 1.898798 g / cm^3
# Si number density = 19.031299 Si / 1000 Ang^3
#
#
#
# Elastic Constant Matrix: (Units=GPa)
#
#
# Indices 1 2 3 4 5 6 
#
# 1 97.2107 52.2943 36.4900 -0.0002 -12.5947 0.0001
# 2 52.2943 104.1315 37.8860 0.0000 -9.6259 0.0000
# 3 36.4900 37.8860 102.2868 -0.0003 -14.5640 0.0001
# 4 -0.0002 0.0000 -0.0003 24.2893 0.0002 2.9001
# 5 -12.5947 -9.6259 -14.5640 0.0002 25.7195 0.0000
# 6 0.0001 0.0000 0.0001 2.9001 0.0000 27.4948
#
#
#
# Elastic Compliance Matrix: (Units=1/GPa)
#
#
# Indices 1 2 3 4 5 6 
#
# 1 0.015111 -0.006335 -0.002533 0.000000 0.003595 0.000000
# 2 -0.006335 0.013849 -0.002799 0.000000 0.000496 0.000000
# 3 -0.002533 -0.002799 0.012390 0.000000 0.004728 0.000000
# 4 0.000000 0.000000 0.000000 0.041696 0.000000 -0.004398
# 5 0.003595 0.000496 0.004728 0.000000 0.043504 0.000000
# 6 0.000000 0.000000 0.000000 -0.004398 0.000000 0.036834
#
#
# Mechanical properties :
#
#
# Convention : Reuss Voigt Hill
#
# Bulk Modulus (GPa) = 55.50330 61.88549 58.69440
# Shear Modulus (GPa) = 25.94399 27.29796 26.62098
#
# Velocity S-wave (km/s) = 3.69620 3.79142 3.74411
# Velocity P-wave (km/s) = 6.88791 7.19408 7.04266
#
# Compressibility (1/GPa) = 0.01801695
#
# Stress axis : x y z
#
# Youngs Moduli (GPa) = 66.17586 72.20817 80.71167
#
# Poissons Ratio (x) = 0.45745 0.20440
# Poissons Ratio (y) = 0.41923 0.22590
# Poissons Ratio (z) = 0.16759 0.20210
#
# Static dielectric constant tensor:
#      x y z
#    x 3.594960 0.000000 -0.048280 
#    y 0.000000 3.585230 0.000000 
#    z -0.048280 0.000000 3.330000 
# 
# 
# High freq. dielectric constant tensor:
#      x y z
#    x 1.749750 0.000000 -0.009000 
#    y 0.000000 1.750880 0.000000 
#    z -0.009000 0.000000 1.718880 
# 
# From -- ./inp_files/155458.got.cif
#   From: 2010.06.25/outbox.cif.g09.slc.cpg/sg12_78_cif.got.tgz:155458.got - 2010.06.28 00:19:55.
