data_PCOD8112272
_publ_section_title
;
Structure prediction by ZEFSAII (Michael W. Deem and Ramdas Pophale) SiO2 
 PCOD8112272
Probable space group: C 2/M
;
_chemical_formula_sum "Si O2"
_cell_formula_units_Z 40
_cell_length_a 14.768736
_cell_length_b 22.341876
_cell_length_c 16.942897
_cell_angle_alpha 90.000000
_cell_angle_beta 161.179935
_cell_angle_gamma 90.000000
_cell_volume 1803.479534
_symmetry_space_group_name_H-M "C 2/M"
_symmetry_group_IT_number 12
_symmetry_cell_setting 'monoclinic'
loop_
_space_group_symop_operation_xyz
x,y,z
-x,y,-z
-x,-y,-z
x,-y,z
1/2+x,1/2+y,z
1/2-x,1/2+y,-z
1/2-x,1/2-y,-z
1/2+x,1/2-y,z
loop_
_atom_site_type_symbol
_atom_site_label
_atom_site_fract_x
_atom_site_fract_y
_atom_site_fract_z
Si Si1 0.441982 0.227697 0.262723
Si Si2 0.234568 0.432782 0.330206
Si Si3 0.663684 0.126276 0.717393
Si Si4 0.230765 0.345042 0.027475
Si Si5 0.715459 0.433261 0.443071
O O1 0.399423 0.195920 0.312024
O O2 0.371502 0.175951 0.142077
O O3 0.750000 0.250000 0.500000
O O4 0.250165 0.286503 0.098810
O O5 0.500000 0.409587 0.500000
O O6 0.152098 0.500000 0.235612
O O7 0.299991 0.430232 0.476012
O O8 0.979007 0.388989 0.099672
O O9 0.500000 0.114250 0.500000
O O10 0.526741 0.080562 0.667587
O O11 0.000000 0.114396 0.000000
O O12 0.516232 0.381075 0.245270
O O13 0.623686 0.500000 0.339471
#
# Coordination Sequence:
#
# PCOD8112272 Si02
#       5
#     8   8   8   8   8
#     4  11  23  44  69  96 137 189 236 299 359 423
#     4  10  22  42  68 101 139 180 237 304 367 432
#     4  12  27  48  72 110 151 191 247 301 359 430
#     4  11  21  42  71  97 138 185 240 291 367 437
#     4  11  24  45  72 101 141 191 240 301 367 431
#
# _framework density 22.179348000000001
#
# number of rings (size 3 to 8) (size 9 to 14) (size 15 to 20)
#    0.000    1.000    4.000    1.800    2.800    1.600 
#    7.200    3.000    0.000    0.000    0.000    0.000 
#    0.000    0.000    0.000    0.000    0.000    0.000 
#
# Total GULP energy -247935.463899 kJ/mol
# GULP energy per Si atom -12396.773195 kJ/mol
# Density = 2.212887 g / cm^3
# Si number density = 22.179348 Si / 1000 Ang^3
#
#
#
# Elastic Constant Matrix: (Units=GPa)
#
#
# Indices 1 2 3 4 5 6 
#
# 1 104.6831 41.0841 57.6711 -0.0015 17.7522 0.0010
# 2 41.0841 116.9646 28.4675 0.0066 15.0207 -0.0036
# 3 57.6711 28.4675 115.3919 0.0231 21.7587 -0.0068
# 4 -0.0015 0.0066 0.0231 52.1229 0.0095 2.3742
# 5 17.7522 15.0207 21.7587 0.0095 39.1583 0.0010
# 6 0.0010 -0.0036 -0.0068 2.3742 0.0010 21.2455
#
#
#
# Elastic Compliance Matrix: (Units=1/GPa)
#
#
# Indices 1 2 3 4 5 6 
#
# 1 0.014556 -0.003387 -0.006076 0.000004 -0.001923 -0.000004
# 2 -0.003387 0.010109 -0.000402 -0.000001 -0.002119 0.000002
# 3 -0.006076 -0.000402 0.012571 -0.000005 -0.004076 0.000005
# 4 0.000004 -0.000001 -0.000005 0.019284 -0.000003 -0.002155
# 5 -0.001923 -0.002119 -0.004076 -0.000003 0.029487 -0.000003
# 6 -0.000004 0.000002 0.000005 -0.002155 -0.000003 0.047310
#
#
# Mechanical properties :
#
#
# Convention : Reuss Voigt Hill
#
# Bulk Modulus (GPa) = 57.12474 65.72055 61.42265
# Shear Modulus (GPa) = 31.47014 36.49315 33.98164
#
# Velocity S-wave (km/s) = 3.77091 4.06071 3.91849
# Velocity P-wave (km/s) = 6.69114 7.18899 6.94453
#
# Compressibility (1/GPa) = 0.01750555
#
# Stress axis : x y z
#
# Youngs Moduli (GPa) = 68.70234 98.92061 79.54958
#
# Poissons Ratio (x) = 0.33502 0.48338
# Poissons Ratio (y) = 0.23268 0.03195
# Poissons Ratio (z) = 0.41747 0.03974
#
# Static dielectric constant tensor:
#      x y z
#    x 3.972140 -0.000230 0.162980 
#    y -0.000230 4.626280 0.000360 
#    z 0.162980 0.000360 4.149820 
# 
# 
# High freq. dielectric constant tensor:
#      x y z
#    x 1.860570 0.000000 0.006960 
#    y 0.000000 1.891100 0.000000 
#    z 0.006960 0.000000 1.875030 
# 
# From -- ./inp_files/272463.got.cif
#   From: 2010.06.25/outbox.cif.g09.slc.cpg/sg12_137_cif.got.tgz:272463.got - 2010.06.28 00:19:55.
