data_PCOD8112718
_publ_section_title
;
Structure prediction by ZEFSAII (Michael W. Deem and Ramdas Pophale) SiO2 
 PCOD8112718
Probable space group: C 2/M
;
_chemical_formula_sum "Si O2"
_cell_formula_units_Z 56
_cell_length_a 8.224068
_cell_length_b 21.932056
_cell_length_c 14.337391
_cell_angle_alpha 90.000000
_cell_angle_beta 97.170737
_cell_angle_gamma 90.000000
_cell_volume 2565.818999
_symmetry_space_group_name_H-M "C 2/M"
_symmetry_group_IT_number 12
_symmetry_cell_setting 'monoclinic'
loop_
_space_group_symop_operation_xyz
x,y,z
-x,y,-z
-x,-y,-z
x,-y,z
1/2+x,1/2+y,z
1/2-x,1/2+y,-z
1/2-x,1/2-y,-z
1/2+x,1/2-y,z
loop_
_atom_site_type_symbol
_atom_site_label
_atom_site_fract_x
_atom_site_fract_y
_atom_site_fract_z
Si Si1 0.414508 0.641034 0.398529
Si Si2 0.441202 0.291068 0.098333
Si Si3 0.424868 0.932701 0.217845
Si Si4 0.861584 0.274883 0.426864
Si Si5 0.653774 0.354059 0.266008
Si Si6 0.428533 0.161644 0.902227
Si Si7 0.399667 0.932918 0.581752
O O1 0.500000 0.622605 0.500000
O O2 0.424394 0.713951 0.378305
O O3 0.517330 0.611948 0.320268
O O4 0.231990 0.616070 0.392503
O O5 0.565899 0.309985 0.187498
O O6 0.444851 0.217698 0.104684
O O7 0.258465 0.315537 0.104396
O O8 0.500000 0.313209 0.000000
O O9 0.244525 0.903075 0.207154
O O10 0.556628 0.888882 0.176960
O O11 0.469909 0.939468 0.327991
O O12 0.419762 0.000000 0.170066
O O13 0.750000 0.250000 0.500000
O O14 0.780570 0.318974 0.344824
O O15 0.000000 0.309062 0.500000
O O16 0.500000 0.129218 0.000000
O O17 0.500000 0.909247 0.500000
O O18 0.319939 0.000000 0.556354
#
# Coordination Sequence:
#
# PCOD8112718 Si02
#       7
#     8   8   8   8   8   8   8
#     4  11  23  38  59  92 127 166 218 272 324 389
#     4  11  24  43  69 108 137 167 217 268 339 404
#     4  11  26  44  65  93 128 176 228 269 319 391
#     4  11  24  39  58  95 133 168 215 268 330 395
#     4  12  25  40  66  96 133 180 210 274 335 383
#     4  11  23  44  71  98 137 170 211 272 331 399
#     4  10  23  41  62  86 121 173 221 269 320 381
#
# _framework density 21.825391
#
# number of rings (size 3 to 8) (size 9 to 14) (size 15 to 20)
#    0.000    1.000    2.857    5.143    8.000    1.143 
#    0.000    0.714    0.000    1.714    0.000    0.000 
#    0.000    0.000    0.000    0.000    0.000    0.000 
#
# Total GULP energy -346983.605472 kJ/mol
# GULP energy per Si atom -12392.271624 kJ/mol
# Density = 2.177572 g / cm^3
# Si number density = 21.825391 Si / 1000 Ang^3
#
#
#
# Elastic Constant Matrix: (Units=GPa)
#
#
# Indices 1 2 3 4 5 6 
#
# 1 121.6102 50.8133 43.5939 0.0000 -12.5236 0.0000
# 2 50.8133 101.2041 39.4347 0.0000 -16.8620 0.0000
# 3 43.5939 39.4347 116.8760 0.0000 -0.6889 0.0000
# 4 0.0000 0.0000 0.0000 0.6399 0.0000 -10.2595
# 5 -12.5236 -16.8620 -0.6889 0.0000 48.2478 0.0000
# 6 0.0000 0.0000 0.0000 -10.2595 0.0000 16.2936
#
#
#
# Elastic Compliance Matrix: (Units=1/GPa)
#
#
# Indices 1 2 3 4 5 6 
#
# 1 0.011128 -0.004317 -0.002686 0.000000 0.001341 0.000000
# 2 -0.004317 0.013845 -0.003040 0.000000 0.003675 0.000000
# 3 -0.002686 -0.003040 0.010574 0.000000 -0.001609 0.000000
# 4 0.000000 0.000000 0.000000 -0.171817 0.000000 -0.108187
# 5 0.001341 0.003675 -0.001609 0.000000 0.022336 0.000000
# 6 0.000000 0.000000 0.000000 -0.108187 0.000000 -0.006748
#
#
# Mechanical properties :
#
#
# Convention : Reuss Voigt Hill
#
# Bulk Modulus (GPa) = 64.67594 67.48601 66.08098
# Shear Modulus (GPa) = -52.38732 26.75951 -12.81391
#
# Velocity S-wave (km/s) = -4.90459 3.50533 -2.42566
# Velocity P-wave (km/s) = 1.54133 6.88267 4.74317
#
# Compressibility (1/GPa) = 0.01546170
#
# Stress axis : x y z
#
# Youngs Moduli (GPa) = 89.86476 72.22719 94.57101
#
# Poissons Ratio (x) = 0.31181 0.25403
# Poissons Ratio (y) = 0.38795 0.28746
# Poissons Ratio (z) = 0.24139 0.21954
#
# Static dielectric constant tensor:
#      x y z
#    x 5.322130 0.000000 -0.024160 
#    y 0.000000 2.420950 0.000000 
#    z -0.024160 0.000000 4.113310 
# 
# 
# High freq. dielectric constant tensor:
#      x y z
#    x 1.865610 0.000000 -0.005640 
#    y 0.000000 1.839040 0.000000 
#    z -0.005640 0.000000 1.863750 
# 
# From -- ./inp_files/197552.got.cif
#   From: 2010.06.25/outbox.cif.g09.slc.cpg/sg12_99_cif.got.tgz:197552.got - 2010.06.28 00:19:55.
