data_PCOD8112454
_publ_section_title
;
Structure prediction by ZEFSAII (Michael W. Deem and Ramdas Pophale) SiO2 
 PCOD8112454
Probable space group: C 2/M
;
_chemical_formula_sum "Si O2"
_cell_formula_units_Z 64
_cell_length_a 9.056445
_cell_length_b 28.828318
_cell_length_c 18.856240
_cell_angle_alpha 90.000000
_cell_angle_beta 142.183275
_cell_angle_gamma 90.000000
_cell_volume 3018.492914
_symmetry_space_group_name_H-M "C 2/M"
_symmetry_group_IT_number 12
_symmetry_cell_setting 'monoclinic'
loop_
_space_group_symop_operation_xyz
x,y,z
-x,y,-z
-x,-y,-z
x,-y,z
1/2+x,1/2+y,z
1/2-x,1/2+y,-z
1/2-x,1/2-y,-z
1/2+x,1/2-y,z
loop_
_atom_site_type_symbol
_atom_site_label
_atom_site_fract_x
_atom_site_fract_y
_atom_site_fract_z
Si Si1 0.746894 0.779175 0.368266
Si Si2 0.203183 0.696144 0.710804
Si Si3 0.925341 0.388627 0.547204
Si Si4 0.628289 0.297633 0.975190
Si Si5 0.116154 0.129124 0.658074
Si Si6 0.745175 0.947423 0.922949
Si Si7 0.504128 0.125704 0.917703
Si Si8 0.850977 0.446785 0.656399
O O1 0.684169 0.735370 0.296400
O O2 0.529627 0.781810 0.340650
O O3 0.757098 0.827653 0.331201
O O4 0.000000 0.768229 0.500000
O O5 0.422396 0.683001 0.845126
O O6 0.125726 0.649799 0.640631
O O7 0.667636 0.362976 0.441768
O O8 0.914711 0.428506 0.602282
O O9 0.000000 0.411337 0.500000
O O10 0.500000 0.289001 0.000000
O O11 0.750000 0.250000 0.000000
O O12 0.842659 0.334516 0.062480
O O13 0.236618 0.124281 0.781681
O O14 0.149109 0.083878 0.619955
O O15 0.629014 0.922970 0.946940
O O16 0.590175 0.942538 0.793368
O O17 0.780870 0.000000 0.960923
O O18 0.000000 0.924217 0.000000
O O19 0.500000 0.133688 0.000000
O O20 0.760288 0.500000 0.617229
#
# Coordination Sequence:
#
# PCOD8112454 Si02
#       8
#     8   8   8   8   8   8   8   8
#     4  12  23  42  64  96 128 173 220 266 325 388
#     4  12  26  41  67  94 134 170 220 273 327 390
#     4  12  27  41  63 100 135 171 216 279 335 389
#     4  12  26  45  65  94 130 177 225 272 326 396
#     4  11  23  45  66  93 133 172 227 268 321 400
#     4   9  20  39  68  99 129 170 221 269 324 394
#     4  11  25  40  66  96 131 175 212 270 333 392
#     4  10  22  44  71  98 130 176 225 272 330 399
#
# _framework density 21.202634
#
# number of rings (size 3 to 8) (size 9 to 14) (size 15 to 20)
#    0.000    0.875    2.500    4.125    7.000    1.500 
#    0.000    0.000    0.000    0.000    0.000    0.000 
#    0.000    0.000    0.000    0.000    0.000    0.000 
#
# Total GULP energy -396889.377818 kJ/mol
# GULP energy per Si atom -12402.793057 kJ/mol
# Density = 2.115438 g / cm^3
# Si number density = 21.202634 Si / 1000 Ang^3
#
#
#
# Elastic Constant Matrix: (Units=GPa)
#
#
# Indices 1 2 3 4 5 6 
#
# 1 94.5879 24.1442 32.2189 0.0000 -19.0136 -0.0005
# 2 24.1442 104.5583 28.2450 0.0000 -12.6017 -0.0005
# 3 32.2189 28.2450 94.2785 0.0000 0.4883 -0.0018
# 4 0.0000 0.0000 0.0000 32.1851 0.0000 -1.3113
# 5 -19.0136 -12.6017 0.4883 0.0000 39.8756 -0.0006
# 6 -0.0005 -0.0005 -0.0018 -1.3113 -0.0006 30.6328
#
#
#
# Elastic Compliance Matrix: (Units=1/GPa)
#
#
# Indices 1 2 3 4 5 6 
#
# 1 0.013589 -0.001234 -0.004306 0.000000 0.006142 0.000000
# 2 -0.001234 0.010979 -0.002883 0.000000 0.002916 0.000000
# 3 -0.004306 -0.002883 0.012958 0.000000 -0.003123 0.000001
# 4 0.000000 0.000000 0.000000 0.031125 0.000000 0.001332
# 5 0.006142 0.002916 -0.003123 0.000000 0.028966 0.000001
# 6 0.000000 0.000000 0.000001 0.001332 0.000001 0.032702
#
#
# Mechanical properties :
#
#
# Convention : Reuss Voigt Hill
#
# Bulk Modulus (GPa) = 48.35488 51.40456 49.87972
# Shear Modulus (GPa) = 32.45536 34.45980 33.45758
#
# Velocity S-wave (km/s) = 3.91669 4.03583 3.97670
# Velocity P-wave (km/s) = 6.58100 6.78338 6.68295
#
# Compressibility (1/GPa) = 0.02068043
#
# Stress axis : x y z
#
# Youngs Moduli (GPa) = 73.59140 91.08073 77.17182
#
# Poissons Ratio (x) = 0.11243 0.33228
# Poissons Ratio (y) = 0.09084 0.22245
# Poissons Ratio (z) = 0.31687 0.26254
#
# Static dielectric constant tensor:
#      x y z
#    x 3.804400 0.000000 0.009620 
#    y 0.000000 3.943710 0.000000 
#    z 0.009620 0.000000 4.129720 
# 
# 
# High freq. dielectric constant tensor:
#      x y z
#    x 1.827590 0.000000 0.005030 
#    y 0.000000 1.829670 0.000000 
#    z 0.005030 0.000000 1.851730 
# 
# From -- ./inp_files/260392.got.cif
#   From: 2010.06.25/outbox.cif.g09.slc.cpg/sg12_131_cif.got.tgz:260392.got - 2010.06.28 00:19:55.
