data_PCOD8112127
_publ_section_title
;
Structure prediction by ZEFSAII (Michael W. Deem and Ramdas Pophale) SiO2 
 PCOD8112127
Probable space group: C 2/M
;
_chemical_formula_sum "Si O2"
_cell_formula_units_Z 56
_cell_length_a 14.656999
_cell_length_b 25.487361
_cell_length_c 8.407219
_cell_angle_alpha 90.000000
_cell_angle_beta 60.248916
_cell_angle_gamma 90.000000
_cell_volume 2726.696378
_symmetry_space_group_name_H-M "C 2/M"
_symmetry_group_IT_number 12
_symmetry_cell_setting 'monoclinic'
loop_
_space_group_symop_operation_xyz
x,y,z
-x,y,-z
-x,-y,-z
x,-y,z
1/2+x,1/2+y,z
1/2-x,1/2+y,-z
1/2-x,1/2-y,-z
1/2+x,1/2-y,z
loop_
_atom_site_type_symbol
_atom_site_label
_atom_site_fract_x
_atom_site_fract_y
_atom_site_fract_z
Si Si1 0.882386 0.500000 0.556050
Si Si2 0.756411 0.404733 0.657186
Si Si3 0.614444 0.000000 0.824044
Si Si4 0.730677 0.310315 0.917739
Si Si5 0.295382 0.889874 0.280784
Si Si6 0.970031 0.939878 0.202099
Si Si7 0.087691 0.143311 0.309230
Si Si8 0.882407 0.711359 0.048911
O O1 0.826232 0.449296 0.681248
O O2 0.879424 0.500000 0.369870
O O3 0.000000 0.500000 0.500000
O O4 0.733954 0.360664 0.804897
O O5 0.818225 0.384170 0.449124
O O6 0.653712 0.432007 0.673514
O O7 0.670860 0.945655 0.827506
O O8 0.500000 0.000000 0.000000
O O9 0.692356 0.261214 0.841977
O O10 0.643143 0.317818 0.134315
O O11 0.846831 0.299573 0.894040
O O12 0.173703 0.881525 0.350261
O O13 0.363666 0.842517 0.154671
O O14 0.032798 0.905033 0.270937
O O15 0.000747 0.000000 0.208221
O O16 0.000000 0.921824 0.000000
O O17 0.000000 0.171679 0.500000
O O18 0.000000 0.728085 0.000000
#
# Coordination Sequence:
#
# PCOD8112127 Si02
#       8
#     4   8   4   8   8   8   8   8
#     4  10  24  40  60  92 123 161 200 253 300 356
#     4  11  21  40  62  89 128 157 208 251 304 378
#     4  10  22  42  62  83 120 159 200 248 307 362
#     4  10  24  42  64  92 119 165 209 253 319 374
#     4  10  23  38  61  94 121 160 209 254 305 371
#     4  11  22  36  58  92 130 166 201 243 312 370
#     4  11  22  36  60  92 126 161 204 247 304 374
#     4  10  23  44  64  87 124 158 208 265 311 369
#
# _framework density 20.537673000000002
#
# number of rings (size 3 to 8) (size 9 to 14) (size 15 to 20)
#    0.000    1.571    3.571    0.429    3.000    5.429 
#    0.000    2.857    0.000    0.857    0.000    0.000 
#    0.000    0.000    0.000    0.000    0.000    0.000 
#
# Total GULP energy -346908.073113 kJ/mol
# GULP energy per Si atom -12389.574040 kJ/mol
# Density = 2.049093 g / cm^3
# Si number density = 20.537673 Si / 1000 Ang^3
#
#
#
# Elastic Constant Matrix: (Units=GPa)
#
#
# Indices 1 2 3 4 5 6 
#
# 1 117.7114 37.0058 6.6450 0.0000 -8.1264 0.0000
# 2 37.0058 135.4327 41.9086 0.0000 0.1670 0.0000
# 3 6.6450 41.9086 65.7662 0.0000 -0.4564 0.0000
# 4 0.0000 0.0000 0.0000 11.1063 0.0000 6.0684
# 5 -8.1264 0.1670 -0.4564 0.0000 22.8651 0.0000
# 6 0.0000 0.0000 0.0000 6.0684 0.0000 21.9945
#
#
#
# Elastic Compliance Matrix: (Units=1/GPa)
#
#
# Indices 1 2 3 4 5 6 
#
# 1 0.009596 -0.002907 0.000907 0.000000 0.003450 0.000000
# 2 -0.002907 0.010079 -0.006137 0.000000 -0.001229 0.000000
# 3 0.000907 -0.006137 0.019030 0.000000 0.000747 0.000000
# 4 0.000000 0.000000 0.000000 0.106022 0.000000 -0.029252
# 5 0.003450 -0.001229 0.000747 0.000000 0.044985 0.000000
# 6 0.000000 0.000000 0.000000 -0.029252 0.000000 0.053537
#
#
# Mechanical properties :
#
#
# Convention : Reuss Voigt Hill
#
# Bulk Modulus (GPa) = 44.58365 54.44770 49.51567
# Shear Modulus (GPa) = 18.72657 26.74988 22.73822
#
# Velocity S-wave (km/s) = 3.02290 3.61290 3.33099
# Velocity P-wave (km/s) = 5.82574 6.63120 6.24148
#
# Compressibility (1/GPa) = 0.02242975
#
# Stress axis : x y z
#
# Youngs Moduli (GPa) = 104.20779 99.21923 52.54899
#
# Poissons Ratio (x) = 0.28842 -0.04765
# Poissons Ratio (y) = 0.30292 0.32251
# Poissons Ratio (z) = -0.09449 0.60894
#
# Static dielectric constant tensor:
#      x y z
#    x 3.813430 0.000000 -0.106600 
#    y 0.000000 3.851300 0.000000 
#    z -0.106600 0.000000 3.834350 
# 
# 
# High freq. dielectric constant tensor:
#      x y z
#    x 1.807250 0.000000 -0.000910 
#    y 0.000000 1.813360 0.000000 
#    z -0.000910 0.000000 1.787620 
# 
# From -- ./inp_files/65822.got.cif
#   From: 2010.06.25/outbox.cif.g09.slc.cpg/sg12_33_cif.got.tgz:65822.got - 2010.06.28 00:19:55.
