data_PCOD8112000
_publ_section_title
;
Structure prediction by ZEFSAII (Michael W. Deem and Ramdas Pophale) SiO2 
 PCOD8112000
Probable space group: C 2/M
;
_chemical_formula_sum "Si O2"
_cell_formula_units_Z 40
_cell_length_a 8.428143
_cell_length_b 13.140909
_cell_length_c 23.568519
_cell_angle_alpha 90.000000
_cell_angle_beta 140.821175
_cell_angle_gamma 90.000000
_cell_volume 1649.035250
_symmetry_space_group_name_H-M "C 2/M"
_symmetry_group_IT_number 12
_symmetry_cell_setting 'monoclinic'
loop_
_space_group_symop_operation_xyz
x,y,z
-x,y,-z
-x,-y,-z
x,-y,z
1/2+x,1/2+y,z
1/2-x,1/2+y,-z
1/2-x,1/2-y,-z
1/2+x,1/2-y,z
loop_
_atom_site_type_symbol
_atom_site_label
_atom_site_fract_x
_atom_site_fract_y
_atom_site_fract_z
Si Si1 0.586930 0.198810 0.200678
Si Si2 0.931064 0.616887 0.571493
Si Si3 0.355834 0.384540 0.845743
Si Si4 0.367628 0.314702 0.615851
Si Si5 0.595243 0.884677 0.966890
O O1 0.610989 0.322426 0.204278
O O2 0.376384 0.161721 0.184566
O O3 0.526225 0.174209 0.118530
O O4 0.849848 0.149707 0.292390
O O5 0.949626 0.500000 0.597815
O O6 0.726322 0.622269 0.464491
O O7 0.847938 0.692239 0.599334
O O8 0.197567 0.659532 0.622918
O O9 0.297196 0.500000 0.812368
O O10 0.603527 0.377938 0.953593
O O11 0.499055 0.000000 0.936633
O O12 0.500000 0.836182 0.000000
#
# Coordination Sequence:
#
# PCOD8112000 Si02
#       5
#     8   8   8   8   8
#     4  12  23  41  66  92 128 167 211 268 312 364
#     4  10  22  43  66  91 132 169 200 259 322 372
#     4  11  25  42  62  92 127 166 212 260 316 374
#     4  10  22  41  65  97 126 163 217 255 308 388
#     4  10  22  41  65  93 127 170 216 260 315 376
#
# _framework density 24.256608
#
# number of rings (size 3 to 8) (size 9 to 14) (size 15 to 20)
#    0.000    1.400    0.000    5.400    0.000    5.600 
#    0.000   12.000    0.000    0.000    0.000    0.000 
#    0.000    0.000    0.000    0.000    0.000    0.000 
#
# Total GULP energy -248016.574722 kJ/mol
# GULP energy per Si atom -12400.828736 kJ/mol
# Density = 2.420140 g / cm^3
# Si number density = 24.256608 Si / 1000 Ang^3
#
#
#
# Elastic Constant Matrix: (Units=GPa)
#
#
# Indices 1 2 3 4 5 6 
#
# 1 83.0748 61.0323 41.5051 0.0000 22.8744 0.0000
# 2 61.0323 153.6207 30.0480 0.0000 18.7359 0.0000
# 3 41.5051 30.0480 97.8953 0.0000 32.9077 0.0000
# 4 0.0000 0.0000 0.0000 10.8421 0.0000 3.1348
# 5 22.8744 18.7359 32.9077 0.0000 32.7067 0.0000
# 6 0.0000 0.0000 0.0000 3.1348 0.0000 39.0718
#
#
#
# Elastic Compliance Matrix: (Units=1/GPa)
#
#
# Indices 1 2 3 4 5 6 
#
# 1 0.021007 -0.006667 -0.004843 0.000000 -0.006000 0.000000
# 2 -0.006667 0.009210 0.000311 0.000000 -0.000926 0.000000
# 3 -0.004843 0.000311 0.016764 0.000000 -0.013658 0.000000
# 4 0.000000 0.000000 0.000000 0.094424 0.000000 -0.007576
# 5 -0.006000 -0.000926 -0.013658 0.000000 0.049043 0.000000
# 6 0.000000 0.000000 0.000000 -0.007576 0.000000 0.026202
#
#
# Mechanical properties :
#
#
# Convention : Reuss Voigt Hill
#
# Bulk Modulus (GPa) = 40.67832 66.64020 53.65926
# Shear Modulus (GPa) = 20.22300 29.99113 25.10707
#
# Velocity S-wave (km/s) = 2.89054 3.52008 3.22073
# Velocity P-wave (km/s) = 5.28646 6.63731 6.00002
#
# Compressibility (1/GPa) = 0.02458312
#
# Stress axis : x y z
#
# Youngs Moduli (GPa) = 47.60307 108.57308 59.65101
#
# Poissons Ratio (x) = 0.72384 0.28891
# Poissons Ratio (y) = 0.31736 -0.01855
# Poissons Ratio (z) = 0.23056 -0.03376
#
# Static dielectric constant tensor:
#      x y z
#    x 4.233130 0.000000 0.149630 
#    y 0.000000 4.626730 0.000000 
#    z 0.149630 0.000000 4.481500 
# 
# 
# High freq. dielectric constant tensor:
#      x y z
#    x 1.952570 0.000000 0.012390 
#    y 0.000000 1.966340 0.000000 
#    z 0.012390 0.000000 1.974190 
# 
# From -- ./inp_files/356036.got.cif
#   From: 2010.06.25/outbox.cif.g09.slc.cpg/sg12_179_cif.got.tgz:356036.got - 2010.06.28 00:19:55.
