data_PCOD8112583
_publ_section_title
;
Structure prediction by ZEFSAII (Michael W. Deem and Ramdas Pophale) SiO2 
 PCOD8112583
Probable space group: C 2/M
;
_chemical_formula_sum "Si O2"
_cell_formula_units_Z 32
_cell_length_a 10.446961
_cell_length_b 8.108840
_cell_length_c 22.185368
_cell_angle_alpha 90.000000
_cell_angle_beta 48.707327
_cell_angle_gamma 90.000000
_cell_volume 1412.071806
_symmetry_space_group_name_H-M "C 2/M"
_symmetry_group_IT_number 12
_symmetry_cell_setting 'monoclinic'
loop_
_space_group_symop_operation_xyz
x,y,z
-x,y,-z
-x,-y,-z
x,-y,z
1/2+x,1/2+y,z
1/2-x,1/2+y,-z
1/2-x,1/2-y,-z
1/2+x,1/2-y,z
loop_
_atom_site_type_symbol
_atom_site_label
_atom_site_fract_x
_atom_site_fract_y
_atom_site_fract_z
Si Si1 0.635660 0.000000 0.541216
Si Si2 0.761967 0.308919 0.181906
Si Si3 0.576847 0.178709 0.671729
Si Si4 0.354753 0.194453 0.910046
Si Si5 0.254762 0.000000 0.619667
O O1 0.646753 0.161774 0.581120
O O2 0.450507 0.000000 0.570512
O O3 0.773842 0.000000 0.444714
O O4 0.739314 0.500000 0.203864
O O5 0.626140 0.207490 0.264052
O O6 0.728034 0.281013 0.121830
O O7 0.949760 0.247796 0.142181
O O8 0.669601 0.334402 0.674034
O O9 0.612373 0.000000 0.693941
O O10 0.342859 0.000000 0.905609
O O11 0.250000 0.250000 0.000000
#
# Coordination Sequence:
#
# PCOD8112583 Si02
#       5
#     4   8   8   8   4
#     4   9  24  40  65  95 124 172 220 258 335 395
#     4  11  24  42  65  93 133 173 213 273 329 384
#     4  10  23  39  63  95 125 169 216 263 324 388
#     4  11  25  43  66  96 128 170 219 268 328 392
#     4  11  20  46  63  89 136 166 210 282 319 383
#
# _framework density 22.661736999999999
#
# number of rings (size 3 to 8) (size 9 to 14) (size 15 to 20)
#    0.750    0.750    1.250    3.000    3.500    7.000 
#    2.250    1.250    0.000    0.000    0.000    0.000 
#    0.000    0.000    0.000    0.000    0.000    0.000 
#
# Total GULP energy -198254.028538 kJ/mol
# GULP energy per Si atom -12390.876784 kJ/mol
# Density = 2.261016 g / cm^3
# Si number density = 22.661737 Si / 1000 Ang^3
#
#
#
# Elastic Constant Matrix: (Units=GPa)
#
#
# Indices 1 2 3 4 5 6 
#
# 1 61.6196 22.7163 -16.9362 0.0000 -6.3368 0.0000
# 2 22.7163 142.6620 9.9292 0.0000 -20.7091 0.0000
# 3 -16.9362 9.9292 46.4153 0.0000 -7.8319 0.0000
# 4 0.0000 0.0000 0.0000 51.8725 0.0000 -10.9465
# 5 -6.3368 -20.7091 -7.8319 0.0000 34.4977 0.0000
# 6 0.0000 0.0000 0.0000 -10.9465 0.0000 24.7589
#
#
#
# Elastic Compliance Matrix: (Units=1/GPa)
#
#
# Indices 1 2 3 4 5 6 
#
# 1 0.020215 -0.003285 0.008706 0.000000 0.003718 0.000000
# 2 -0.003285 0.008249 -0.002318 0.000000 0.003822 0.000000
# 3 0.008706 -0.002318 0.026258 0.000000 0.006169 0.000000
# 4 0.000000 0.000000 0.000000 0.021262 0.000000 0.009400
# 5 0.003718 0.003822 0.006169 0.000000 0.033365 0.000000
# 6 0.000000 0.000000 0.000000 0.009400 0.000000 0.044546
#
#
# Mechanical properties :
#
#
# Convention : Reuss Voigt Hill
#
# Bulk Modulus (GPa) = 16.41303 31.34619 23.87961
# Shear Modulus (GPa) = 29.76221 37.89167 33.82694
#
# Velocity S-wave (km/s) = 3.62791 4.09351 3.86773
# Velocity P-wave (km/s) = 4.98070 6.01703 5.52323
#
# Compressibility (1/GPa) = 0.06092722
#
# Stress axis : x y z
#
# Youngs Moduli (GPa) = 49.46847 121.22909 38.08333
#
# Poissons Ratio (x) = 0.39825 -0.33156
# Poissons Ratio (y) = 0.16251 0.08829
# Poissons Ratio (z) = -0.43068 0.28106
#
# Static dielectric constant tensor:
#      x y z
#    x 3.884870 0.000000 0.025710 
#    y 0.000000 3.640660 0.000000 
#    z 0.025710 0.000000 4.243170 
# 
# 
# High freq. dielectric constant tensor:
#      x y z
#    x 1.873820 0.000000 -0.000530 
#    y 0.000000 1.904220 0.000000 
#    z -0.000530 0.000000 1.904900 
# 
# From -- ./inp_files/334571.got.cif
#   From: 2010.06.25/outbox.cif.g09.slc.cpg/sg12_168_cif.got.tgz:334571.got - 2010.06.28 00:19:55.
