data_PCOD8112541
_publ_section_title
;
Structure prediction by ZEFSAII (Michael W. Deem and Ramdas Pophale) SiO2 
 PCOD8112541
Probable space group: C 2/M
;
_chemical_formula_sum "Si O2"
_cell_formula_units_Z 48
_cell_length_a 9.231331
_cell_length_b 26.593043
_cell_length_c 14.865440
_cell_angle_alpha 90.000000
_cell_angle_beta 37.473912
_cell_angle_gamma 90.000000
_cell_volume 2220.237478
_symmetry_space_group_name_H-M "C 2/M"
_symmetry_group_IT_number 12
_symmetry_cell_setting 'monoclinic'
loop_
_space_group_symop_operation_xyz
x,y,z
-x,y,-z
-x,-y,-z
x,-y,z
1/2+x,1/2+y,z
1/2-x,1/2+y,-z
1/2-x,1/2-y,-z
1/2+x,1/2-y,z
loop_
_atom_site_type_symbol
_atom_site_label
_atom_site_fract_x
_atom_site_fract_y
_atom_site_fract_z
Si Si1 0.073428 0.124394 0.066944
Si Si2 0.545742 0.616556 0.579107
Si Si3 0.090164 0.228517 0.856840
Si Si4 0.589925 0.797243 0.558469
Si Si5 0.726255 0.558271 0.646158
Si Si6 0.951475 0.337966 0.127402
O O1 0.040809 0.180890 0.124860
O O2 0.917989 0.086605 0.203618
O O3 0.361968 0.120090 0.926398
O O4 0.000000 0.117892 0.000000
O O5 0.500000 0.598941 0.500000
O O6 0.773287 0.653049 0.476389
O O7 0.595842 0.567666 0.615411
O O8 0.314270 0.643426 0.729924
O O9 0.362137 0.211292 0.732214
O O10 0.040985 0.281658 0.829806
O O11 0.000000 0.235265 0.000000
O O12 0.500000 0.800905 0.500000
O O13 0.750000 0.750000 0.500000
O O14 0.717030 0.500000 0.675918
O O15 0.000000 0.576778 0.500000
O O16 0.000000 0.331746 0.000000
#
# Coordination Sequence:
#
# PCOD8112541 Si02
#       6
#     8   8   8   8   8   8
#     4  11  24  42  69 101 139 181 226 283 349 412
#     4  12  26  44  70  99 142 178 234 291 351 412
#     4  10  23  38  63  93 141 181 232 262 332 401
#     4  12  25  41  62  95 140 187 234 284 338 408
#     4  11  26  51  76  99 131 179 236 296 355 413
#     4  11  23  42  63 100 142 186 224 281 339 417
#
# _framework density 21.619308
#
# number of rings (size 3 to 8) (size 9 to 14) (size 15 to 20)
#    0.000    0.833    3.333    3.500    7.000    0.667 
#    0.000    1.667    0.000    0.000    0.000    0.000 
#    0.000    0.000    0.000    0.000    0.000    0.000 
#
# Total GULP energy -297389.692275 kJ/mol
# GULP energy per Si atom -12391.237178 kJ/mol
# Density = 2.157010 g / cm^3
# Si number density = 21.619308 Si / 1000 Ang^3
#
#
#
# Elastic Constant Matrix: (Units=GPa)
#
#
# Indices 1 2 3 4 5 6 
#
# 1 137.2783 37.0836 49.8273 0.0000 2.2729 0.0000
# 2 37.0836 87.5317 38.9228 0.0000 -3.3167 0.0000
# 3 49.8273 38.9228 144.1677 0.0000 -14.9670 0.0000
# 4 0.0000 0.0000 0.0000 33.2726 0.0000 -11.6725
# 5 2.2729 -3.3167 -14.9670 0.0000 27.2247 0.0000
# 6 0.0000 0.0000 0.0000 -11.6725 0.0000 122.0194
#
#
#
# Elastic Compliance Matrix: (Units=1/GPa)
#
#
# Indices 1 2 3 4 5 6 
#
# 1 0.009027 -0.002746 -0.002643 0.000000 -0.002541 0.000000
# 2 -0.002746 0.013822 -0.002740 0.000000 0.000407 0.000000
# 3 -0.002643 -0.002740 0.009097 0.000000 0.004888 0.000000
# 4 0.000000 0.000000 0.000000 0.031098 0.000000 0.002975
# 5 -0.002541 0.000407 0.004888 0.000000 0.039680 0.000000
# 6 0.000000 0.000000 0.000000 0.002975 0.000000 0.008480
#
#
# Mechanical properties :
#
#
# Convention : Reuss Voigt Hill
#
# Bulk Modulus (GPa) = 63.74037 68.96056 66.35046
# Shear Modulus (GPa) = 37.68136 52.71296 45.19716
#
# Velocity S-wave (km/s) = 4.17939 4.94321 4.57726
# Velocity P-wave (km/s) = 7.26890 8.03413 7.66108
#
# Compressibility (1/GPa) = 0.01568864
#
# Stress axis : x y z
#
# Youngs Moduli (GPa) = 110.77357 72.35011 109.92639
#
# Poissons Ratio (x) = 0.19866 0.29049
# Poissons Ratio (y) = 0.30416 0.30124
# Poissons Ratio (z) = 0.29272 0.19827
#
# Static dielectric constant tensor:
#      x y z
#    x 3.654540 0.000000 1.117940 
#    y 0.000000 3.689180 0.000000 
#    z 1.117940 0.000000 -0.588950 
# 
# 
# High freq. dielectric constant tensor:
#      x y z
#    x 1.858020 0.000000 -0.012880 
#    y 0.000000 1.817430 0.000000 
#    z -0.012880 0.000000 1.873850 
# 
# From -- ./inp_files/200121.got.cif
#   From: 2010.06.25/outbox.cif.g09.slc.cpg/sg12_101_cif.got.tgz:200121.got - 2010.06.28 00:19:55.
