data_PCOD8112472
_publ_section_title
;
Structure prediction by ZEFSAII (Michael W. Deem and Ramdas Pophale) SiO2 
 PCOD8112472
Probable space group: C 2/M
;
_chemical_formula_sum "Si O2"
_cell_formula_units_Z 40
_cell_length_a 17.870538
_cell_length_b 14.160294
_cell_length_c 14.350714
_cell_angle_alpha 90.000000
_cell_angle_beta 148.386478
_cell_angle_gamma 90.000000
_cell_volume 1903.573156
_symmetry_space_group_name_H-M "C 2/M"
_symmetry_group_IT_number 12
_symmetry_cell_setting 'monoclinic'
loop_
_space_group_symop_operation_xyz
x,y,z
-x,y,-z
-x,-y,-z
x,-y,z
1/2+x,1/2+y,z
1/2-x,1/2+y,-z
1/2-x,1/2-y,-z
1/2+x,1/2-y,z
loop_
_atom_site_type_symbol
_atom_site_label
_atom_site_fract_x
_atom_site_fract_y
_atom_site_fract_z
Si Si1 0.561686 0.610487 0.735800
Si Si2 0.000000 0.820504 0.000000
Si Si3 0.627469 0.894684 0.876423
Si Si4 0.000000 0.758697 0.500000
Si Si5 0.211702 0.395696 0.752888
Si Si6 0.089765 0.760155 0.291527
O O1 0.529436 0.500000 0.686943
O O2 0.503791 0.672998 0.591228
O O3 0.480803 0.643511 0.743838
O O4 0.730605 0.631460 0.915793
O O5 0.119519 0.886434 0.080873
O O6 0.074218 0.759399 0.162039
O O7 0.670378 0.884383 0.815590
O O8 0.497252 0.828370 0.762394
O O9 0.577029 0.000000 0.847216
O O10 0.132428 0.689450 0.616202
O O11 0.165550 0.500000 0.666882
O O12 0.250000 0.750000 0.500000
#
# Coordination Sequence:
#
# PCOD8112472 Si02
#       6
#     8   4   8   4   8   8
#     4  11  23  42  67  93 130 176 227 277 336 405
#     4  12  25  40  67 100 142 182 223 278 347 406
#     4  10  22  45  71  92 127 181 230 277 334 403
#     4  12  22  40  66 100 130 170 226 280 336 402
#     4  11  23  41  67  99 132 174 222 277 339 403
#     4  12  25  44  65 102 139 181 225 287 344 401
#
# _framework density 21.013114000000002
#
# number of rings (size 3 to 8) (size 9 to 14) (size 15 to 20)
#    0.000    0.800    4.000    3.900    0.000    1.600 
#    0.000    0.500    0.000    0.000    0.000    0.000 
#    0.000    0.000    0.000    0.000    0.000    0.000 
#
# Total GULP energy -247938.063816 kJ/mol
# GULP energy per Si atom -12396.903191 kJ/mol
# Density = 2.096529 g / cm^3
# Si number density = 21.013114 Si / 1000 Ang^3
#
#
#
# Elastic Constant Matrix: (Units=GPa)
#
#
# Indices 1 2 3 4 5 6 
#
# 1 97.3587 49.6579 66.0290 -0.0002 4.7924 -0.0002
# 2 49.6579 152.3852 83.9037 -0.0002 7.1303 -0.0001
# 3 66.0290 83.9037 134.7435 -0.0004 -6.0452 -0.0003
# 4 -0.0002 -0.0002 -0.0004 -11.2774 -0.0003 -34.6967
# 5 4.7924 7.1303 -6.0452 -0.0003 33.4950 -0.0002
# 6 -0.0002 -0.0001 -0.0003 -34.6967 -0.0002 -7.3322
#
#
#
# Elastic Compliance Matrix: (Units=1/GPa)
#
#
# Indices 1 2 3 4 5 6 
#
# 1 0.015919 -0.000989 -0.007337 0.000000 -0.003391 0.000000
# 2 -0.000989 0.010417 -0.006145 0.000000 -0.003185 0.000000
# 3 -0.007337 -0.006145 0.015071 0.000000 0.005078 0.000000
# 4 0.000000 0.000000 0.000000 0.006540 0.000000 -0.030947
# 5 -0.003391 -0.003185 0.005078 0.000000 0.031935 0.000000
# 6 0.000000 0.000000 0.000000 -0.030947 0.000000 0.010059
#
#
# Mechanical properties :
#
#
# Convention : Reuss Voigt Hill
#
# Bulk Modulus (GPa) = 80.22430 87.07428 83.64929
# Shear Modulus (GPa) = 40.63831 15.30354 27.97092
#
# Velocity S-wave (km/s) = 4.40244 2.70160 3.65241
# Velocity P-wave (km/s) = 8.00644 7.15958 7.59482
#
# Compressibility (1/GPa) = 0.01246505
#
# Stress axis : x y z
#
# Youngs Moduli (GPa) = 62.81942 95.99701 66.35233
#
# Poissons Ratio (x) = 0.09494 0.48683
# Poissons Ratio (y) = 0.06213 0.40772
# Poissons Ratio (z) = 0.46091 0.58989
#
# Static dielectric constant tensor:
#      x y z
#    x 3.242400 0.000000 -0.245750 
#    y 0.000000 4.064090 0.000000 
#    z -0.245750 0.000000 3.953540 
# 
# 
# High freq. dielectric constant tensor:
#      x y z
#    x 1.819020 0.000000 -0.000400 
#    y 0.000000 1.830440 0.000000 
#    z -0.000400 0.000000 1.835640 
# 
# From -- ./inp_files/225577.got.cif
#   From: 2010.06.25/outbox.cif.g09.slc.cpg/sg12_113_cif.got.tgz:225577.got - 2010.06.28 00:19:55.
