data_PCOD8112304
_publ_section_title
;
Structure prediction by ZEFSAII (Michael W. Deem and Ramdas Pophale) SiO2 
 PCOD8112304
Probable space group: C 2/M
;
_chemical_formula_sum "Si O2"
_cell_formula_units_Z 48
_cell_length_a 14.352400
_cell_length_b 12.011088
_cell_length_c 20.349487
_cell_angle_alpha 90.000000
_cell_angle_beta 41.261476
_cell_angle_gamma 90.000000
_cell_volume 2313.517383
_symmetry_space_group_name_H-M "C 2/M"
_symmetry_group_IT_number 12
_symmetry_cell_setting 'monoclinic'
loop_
_space_group_symop_operation_xyz
x,y,z
-x,y,-z
-x,-y,-z
x,-y,z
1/2+x,1/2+y,z
1/2-x,1/2+y,-z
1/2-x,1/2-y,-z
1/2+x,1/2-y,z
loop_
_atom_site_type_symbol
_atom_site_label
_atom_site_fract_x
_atom_site_fract_y
_atom_site_fract_z
Si Si1 0.513069 0.500000 0.297967
Si Si2 0.875743 0.784418 0.689478
Si Si3 0.927097 0.628579 0.179801
Si Si4 0.000000 0.682796 0.500000
Si Si5 0.732544 0.000000 0.383441
Si Si6 0.920054 0.194847 0.976600
Si Si7 0.365666 0.128640 0.816278
Si Si8 0.507658 0.500000 0.836010
O O1 0.567987 0.392505 0.305065
O O2 0.341442 0.500000 0.387208
O O3 0.572947 0.500000 0.191603
O O4 0.718400 0.803977 0.746034
O O5 0.880440 0.680361 0.736468
O O6 0.979331 0.760203 0.574154
O O7 0.905211 0.500000 0.172020
O O8 0.035726 0.681299 0.069419
O O9 0.987851 0.640141 0.221498
O O10 0.138715 0.609567 0.437313
O O11 0.822417 0.000000 0.267420
O O12 0.962891 0.110268 0.897091
O O13 0.753050 0.192856 0.078463
O O14 0.000000 0.158525 0.000000
O O15 0.321493 0.000000 0.831682
#
# Coordination Sequence:
#
# PCOD8112304 Si02
#       8
#     4   8   8   4   4   8   8   4
#     4  10  25  46  71  96 138 186 216 278 347 419
#     4  12  25  48  70 102 136 182 231 282 352 406
#     4  11  25  47  64  99 145 182 224 283 341 408
#     4  11  26  43  76 102 134 173 231 302 340 408
#     4   9  24  47  68 104 131 178 225 286 348 393
#     4  12  22  39  69 101 135 187 231 277 335 405
#     4  11  26  44  68 101 137 184 232 284 335 401
#     4  10  22  42  69  98 140 174 227 279 335 399
#
# _framework density 20.747630000000001
#
# number of rings (size 3 to 8) (size 9 to 14) (size 15 to 20)
#    0.500    0.500    3.333    2.750    4.667    1.333 
#    1.500    0.000    0.000    0.000    0.000    0.000 
#    0.000    0.000    0.000    0.000    0.000    0.000 
#
# Total GULP energy -297691.125264 kJ/mol
# GULP energy per Si atom -12403.796886 kJ/mol
# Density = 2.070041 g / cm^3
# Si number density = 20.747630 Si / 1000 Ang^3
#
#
#
# Elastic Constant Matrix: (Units=GPa)
#
#
# Indices 1 2 3 4 5 6 
#
# 1 122.2689 40.0283 48.7683 0.0000 5.2736 0.0000
# 2 40.0283 88.0624 39.6295 0.0000 22.5998 0.0000
# 3 48.7683 39.6295 123.2062 -0.0001 26.3743 0.0001
# 4 0.0000 0.0000 -0.0001 22.5216 0.0000 -2.5416
# 5 5.2736 22.5998 26.3743 0.0000 35.2039 0.0000
# 6 0.0000 0.0000 0.0001 -2.5416 0.0000 31.2523
#
#
#
# Elastic Compliance Matrix: (Units=1/GPa)
#
#
# Indices 1 2 3 4 5 6 
#
# 1 0.010919 -0.004269 -0.003794 0.000000 0.003947 0.000000
# 2 -0.004269 0.016252 -0.001716 0.000000 -0.008508 0.000000
# 3 -0.003794 -0.001716 0.011687 0.000000 -0.007086 0.000000
# 4 0.000000 0.000000 0.000000 0.044813 0.000000 0.003644
# 5 0.003947 -0.008508 -0.007086 0.000000 0.038585 0.000000
# 6 0.000000 0.000000 0.000000 0.003644 0.000000 0.032294
#
#
# Mechanical properties :
#
#
# Convention : Reuss Voigt Hill
#
# Bulk Modulus (GPa) = 51.81493 65.59884 58.70689
# Shear Modulus (GPa) = 27.69437 31.46965 29.58201
#
# Velocity S-wave (km/s) = 3.65748 3.89881 3.78008
# Velocity P-wave (km/s) = 6.54709 7.20790 6.88543
#
# Compressibility (1/GPa) = 0.01929946
#
# Stress axis : x y z
#
# Youngs Moduli (GPa) = 91.58117 61.53163 85.56422
#
# Poissons Ratio (x) = 0.26267 0.32463
# Poissons Ratio (y) = 0.39095 0.14687
# Poissons Ratio (z) = 0.34746 0.10562
#
# Static dielectric constant tensor:
#      x y z
#    x 3.866090 0.000000 -0.043240 
#    y 0.000000 4.485780 0.000000 
#    z -0.043240 0.000000 3.688750 
# 
# 
# High freq. dielectric constant tensor:
#      x y z
#    x 1.824320 0.000000 -0.002600 
#    y 0.000000 1.823090 0.000000 
#    z -0.002600 0.000000 1.800130 
# 
# From -- ./inp_files/310250.got.cif
#   From: 2010.06.25/outbox.cif.g09.slc.cpg/sg12_156_cif.got.tgz:310250.got - 2010.06.28 00:19:55.
