data_PCOD8112031
_publ_section_title
;
Structure prediction by ZEFSAII (Michael W. Deem and Ramdas Pophale) SiO2 
 PCOD8112031
Probable space group: C 2/M
;
_chemical_formula_sum "Si O2"
_cell_formula_units_Z 60
_cell_length_a 27.859435
_cell_length_b 20.449368
_cell_length_c 15.144091
_cell_angle_alpha 90.000000
_cell_angle_beta 160.825292
_cell_angle_gamma 90.000000
_cell_volume 2833.768235
_symmetry_space_group_name_H-M "C 2/M"
_symmetry_group_IT_number 12
_symmetry_cell_setting 'monoclinic'
loop_
_space_group_symop_operation_xyz
x,y,z
-x,y,-z
-x,-y,-z
x,-y,z
1/2+x,1/2+y,z
1/2-x,1/2+y,-z
1/2-x,1/2-y,-z
1/2+x,1/2-y,z
loop_
_atom_site_type_symbol
_atom_site_label
_atom_site_fract_x
_atom_site_fract_y
_atom_site_fract_z
Si Si1 0.227389 0.310255 0.720768
Si Si2 0.400607 0.926162 0.957942
Si Si3 0.500000 0.342869 0.500000
Si Si4 0.285315 0.926157 0.563754
Si Si5 0.836053 0.199778 0.711473
Si Si6 0.544358 0.073226 0.480585
Si Si7 0.432818 0.740773 0.222774
Si Si8 0.705036 0.124217 0.052612
O O1 0.270735 0.308153 0.694725
O O2 0.161126 0.380135 0.635114
O O3 0.107086 0.253002 0.520994
O O4 0.370037 0.297815 0.028925
O O5 0.329635 0.913386 0.740794
O O6 0.368816 0.000000 0.933732
O O7 0.574360 0.914233 0.255094
O O8 0.326505 0.875729 0.897215
O O9 0.589206 0.300046 0.726175
O O10 0.622905 0.387847 0.666389
O O11 0.162656 0.873145 0.327628
O O12 0.225215 0.000000 0.446466
O O13 0.750000 0.250000 0.500000
O O14 0.000000 0.226637 0.000000
O O15 0.500000 0.100547 0.500000
O O16 0.394684 0.068258 0.164265
O O17 0.611156 0.000000 0.603182
O O18 0.345756 0.808079 0.079481
#
# Coordination Sequence:
#
# PCOD8112031 Si02
#       8
#     8   8   4   8   8   8   8   8
#     4  11  24  42  67  96 127 176 216 268 328 395
#     4   9  19  38  66  96 121 164 221 264 311 385
#     4  12  24  38  57  94 129 172 214 264 324 388
#     4   9  20  41  70  95 123 168 222 270 319 387
#     4  12  28  43  65  97 141 176 214 278 343 399
#     4  10  22  41  66  94 127 168 221 274 324 389
#     4  11  23  39  63  92 127 166 221 266 321 384
#     4  11  22  34  61  86 128 166 209 269 313 386
#
# _framework density 21.173221000000002
#
# number of rings (size 3 to 8) (size 9 to 14) (size 15 to 20)
#    0.000    1.467    1.333    4.800    7.467    2.933 
#    0.000    1.333    0.000    4.800    0.000    0.000 
#    0.000    0.000    0.000    0.000    0.000    0.000 
#
# Total GULP energy -371955.443464 kJ/mol
# GULP energy per Si atom -12398.514782 kJ/mol
# Density = 2.112503 g / cm^3
# Si number density = 21.173221 Si / 1000 Ang^3
#
#
#
# Elastic Constant Matrix: (Units=GPa)
#
#
# Indices 1 2 3 4 5 6 
#
# 1 139.5535 41.0132 43.7018 0.0000 -0.9769 0.0000
# 2 41.0132 83.1041 38.5684 0.0000 -7.7948 0.0000
# 3 43.7018 38.5684 105.5252 0.0000 -6.3489 0.0000
# 4 0.0000 0.0000 0.0000 24.6627 0.0000 -3.9942
# 5 -0.9769 -7.7948 -6.3489 0.0000 33.3736 0.0000
# 6 0.0000 0.0000 0.0000 -3.9942 0.0000 25.7945
#
#
#
# Elastic Compliance Matrix: (Units=1/GPa)
#
#
# Indices 1 2 3 4 5 6 
#
# 1 0.008932 -0.003320 -0.002545 0.000000 -0.000998 0.000000
# 2 -0.003320 0.015919 -0.004274 0.000000 0.002808 0.000000
# 3 -0.002545 -0.004274 0.012167 0.000000 0.001242 0.000000
# 4 0.000000 0.000000 0.000000 0.041590 0.000000 0.006440
# 5 -0.000998 0.002808 0.001242 0.000000 0.030827 0.000000
# 6 0.000000 0.000000 0.000000 0.006440 0.000000 0.039765
#
#
# Mechanical properties :
#
#
# Convention : Reuss Voigt Hill
#
# Bulk Modulus (GPa) = 59.74402 63.86106 61.80254
# Shear Modulus (GPa) = 28.56187 30.42612 29.49400
#
# Velocity S-wave (km/s) = 3.67681 3.79490 3.73632
# Velocity P-wave (km/s) = 6.80465 7.03054 6.91851
#
# Compressibility (1/GPa) = 0.01673808
#
# Stress axis : x y z
#
# Youngs Moduli (GPa) = 111.96193 62.81942 82.18642
#
# Poissons Ratio (x) = 0.20857 0.20920
# Poissons Ratio (y) = 0.37173 0.35128
# Poissons Ratio (z) = 0.28500 0.26850
#
# Static dielectric constant tensor:
#      x y z
#    x 3.843990 0.000000 -0.102400 
#    y 0.000000 3.742100 0.000000 
#    z -0.102400 0.000000 3.852460 
# 
# 
# High freq. dielectric constant tensor:
#      x y z
#    x 1.842760 0.000000 -0.012770 
#    y 0.000000 1.820780 0.000000 
#    z -0.012770 0.000000 1.819800 
# 
# From -- ./inp_files/247456.got.cif
#   From: 2010.06.25/outbox.cif.g09.slc.cpg/sg12_124_cif.got.tgz:247456.got - 2010.06.28 00:19:55.
