data_PCOD8112683
_publ_section_title
;
Structure prediction by ZEFSAII (Michael W. Deem and Ramdas Pophale) SiO2 
 PCOD8112683
Probable space group: C 2/M
;
_chemical_formula_sum "Si O2"
_cell_formula_units_Z 40
_cell_length_a 27.108634
_cell_length_b 13.748866
_cell_length_c 14.547588
_cell_angle_alpha 90.000000
_cell_angle_beta 21.294989
_cell_angle_gamma 90.000000
_cell_volume 1969.133529
_symmetry_space_group_name_H-M "C 2/M"
_symmetry_group_IT_number 12
_symmetry_cell_setting 'monoclinic'
loop_
_space_group_symop_operation_xyz
x,y,z
-x,y,-z
-x,-y,-z
x,-y,z
1/2+x,1/2+y,z
1/2-x,1/2+y,-z
1/2-x,1/2-y,-z
1/2+x,1/2-y,z
loop_
_atom_site_type_symbol
_atom_site_label
_atom_site_fract_x
_atom_site_fract_y
_atom_site_fract_z
Si Si1 0.799037 0.393659 0.294534
Si Si2 0.932685 0.888426 0.714044
Si Si3 0.381782 0.250000 0.500000
Si Si4 0.646730 0.111574 0.285956
Si Si5 0.406429 0.893659 0.294534
O O1 0.727345 0.500000 0.410876
O O2 0.734306 0.318585 0.336968
O O3 0.797022 0.359947 0.405957
O O4 0.952268 0.405342 0.000000
O O5 0.000000 0.859490 0.500000
O O6 0.992775 0.816709 0.686138
O O7 0.970075 0.000000 0.673009
O O8 0.767955 0.875262 0.000000
O O9 0.321087 0.183292 0.686138
O O10 0.428727 0.181415 0.336967
O O11 0.500000 0.140509 0.500000
O O12 0.643086 0.000000 0.326989
O O13 0.361779 0.000000 0.410876
#
# Coordination Sequence:
#
# PCOD8112683 Si02
#       5
#     8   8   8   8   8
#     4   9  19  35  53  77 111 147 182 221 267 323
#     4  10  23  41  58  80 113 149 185 229 281 336
#     4  12  20  32  58  86 108 138 186 234 276 320
#     4  10  23  41  58  80 113 149 185 229 281 336
#     4   9  19  35  53  77 111 147 182 221 267 323
#
# _framework density 20.313503000000001
#
# number of rings (size 3 to 8) (size 9 to 14) (size 15 to 20)
#    0.000    2.000    0.000    4.800    0.000    4.800 
#    0.000    4.000    0.000    0.000    0.000   16.800 
#    0.000    0.000    0.000    0.000    0.000    0.000 
#
# Total GULP energy -247818.222028 kJ/mol
# GULP energy per Si atom -12390.911101 kJ/mol
# Density = 2.026727 g / cm^3
# Si number density = 20.313503 Si / 1000 Ang^3
#
#
#
# Elastic Constant Matrix: (Units=GPa)
#
#
# Indices 1 2 3 4 5 6 
#
# 1 139.3416 88.1519 53.7860 0.0000 -1.6125 -0.0001
# 2 88.1519 131.3900 39.2580 0.0000 -2.8106 -0.0001
# 3 53.7860 39.2580 98.8210 0.0001 -0.7164 -0.0002
# 4 0.0000 0.0000 0.0001 16.0254 -0.0001 -0.4048
# 5 -1.6125 -2.8106 -0.7164 -0.0001 28.8030 0.0001
# 6 -0.0001 -0.0001 -0.0002 -0.4048 0.0001 23.0451
#
#
#
# Elastic Compliance Matrix: (Units=1/GPa)
#
#
# Indices 1 2 3 4 5 6 
#
# 1 0.013977 -0.008064 -0.004405 0.000000 -0.000114 0.000000
# 2 -0.008064 0.013305 -0.000891 0.000000 0.000825 0.000000
# 3 -0.004405 -0.000891 0.012870 0.000000 -0.000013 0.000000
# 4 0.000000 0.000000 0.000000 0.062428 0.000000 0.001096
# 5 -0.000114 0.000825 -0.000013 0.000000 0.034792 0.000000
# 6 0.000000 0.000000 0.000000 0.001096 0.000000 0.043412
#
#
# Mechanical properties :
#
#
# Convention : Reuss Voigt Hill
#
# Bulk Modulus (GPa) = 74.43815 81.32716 77.88266
# Shear Modulus (GPa) = 23.58699 26.13181 24.85940
#
# Velocity S-wave (km/s) = 3.41126 3.59057 3.50206
# Velocity P-wave (km/s) = 7.22771 7.57050 7.40109
#
# Compressibility (1/GPa) = 0.01343397
#
# Stress axis : x y z
#
# Youngs Moduli (GPa) = 71.54696 75.16116 77.69759
#
# Poissons Ratio (x) = 0.60607 0.34223
# Poissons Ratio (y) = 0.57693 0.06920
# Poissons Ratio (z) = 0.31514 0.06694
#
# Static dielectric constant tensor:
#      x y z
#    x 3.721680 0.000000 -0.018990 
#    y 0.000000 4.060790 0.000000 
#    z -0.018990 0.000000 3.391120 
# 
# 
# High freq. dielectric constant tensor:
#      x y z
#    x 1.792230 0.000000 -0.001370 
#    y 0.000000 1.817570 0.000000 
#    z -0.001370 0.000000 1.768410 
# 
# From -- ./inp_files/194664.got.cif
#   From: 2010.06.25/outbox.cif.g09.slc.cpg/sg12_98_cif.got.tgz:194664.got - 2010.06.28 00:19:55.
