data_PCOD8112891
_publ_section_title
;
Structure prediction by ZEFSAII (Michael W. Deem and Ramdas Pophale) SiO2 
 PCOD8112891
Probable space group: C 2/M
;
_chemical_formula_sum "Si O2"
_cell_formula_units_Z 64
_cell_length_a 19.007738
_cell_length_b 8.672751
_cell_length_c 30.350562
_cell_angle_alpha 90.000000
_cell_angle_beta 38.634477
_cell_angle_gamma 90.000000
_cell_volume 3123.791198
_symmetry_space_group_name_H-M "C 2/M"
_symmetry_group_IT_number 12
_symmetry_cell_setting 'monoclinic'
loop_
_space_group_symop_operation_xyz
x,y,z
-x,y,-z
-x,-y,-z
x,-y,z
1/2+x,1/2+y,z
1/2-x,1/2+y,-z
1/2-x,1/2-y,-z
1/2+x,1/2-y,z
loop_
_atom_site_type_symbol
_atom_site_label
_atom_site_fract_x
_atom_site_fract_y
_atom_site_fract_z
Si Si1 0.469532 0.677522 0.712201
Si Si2 0.782924 0.179668 0.293009
Si Si3 0.228466 0.675340 0.791306
Si Si4 0.625946 0.183336 0.564818
Si Si5 0.126459 0.818289 0.064943
Si Si6 0.505726 0.180699 0.208907
Si Si7 0.965936 0.316577 0.564517
Si Si8 0.461594 0.680686 0.067125
O O1 0.499906 0.500000 0.706674
O O2 0.359754 0.694955 0.736066
O O3 0.572887 0.756838 0.636274
O O4 0.440332 0.763161 0.771882
O O5 0.807761 0.209024 0.229659
O O6 0.659483 0.245228 0.364725
O O7 0.874284 0.272888 0.276459
O O8 0.794865 0.000000 0.298119
O O9 0.200550 0.500000 0.791431
O O10 0.153988 0.725601 0.869329
O O11 0.750000 0.250000 0.500000
O O12 0.552265 0.244500 0.559391
O O13 0.630440 0.000000 0.563532
O O14 0.066983 0.760815 0.138252
O O15 0.054592 0.767487 0.057436
O O16 0.136710 0.000000 0.062634
O O17 0.250000 0.750000 0.000000
O O18 0.521246 0.000000 0.196171
O O19 0.966054 0.500000 0.565059
O O20 0.000000 0.252088 0.500000
O O21 0.436440 0.500000 0.082454
O O22 0.500000 0.729556 0.000000
#
# Coordination Sequence:
#
# PCOD8112891 Si02
#       8
#     8   8   8   8   8   8   8   8
#     4  11  25  44  65  93 128 169 216 268 322 380
#     4  11  21  39  67  93 125 167 211 261 317 379
#     4  11  23  40  65  94 125 162 211 266 317 370
#     4  11  23  41  64  93 129 171 214 262 319 380
#     4  11  24  43  65  93 130 171 211 260 317 377
#     4  12  26  43  65  95 129 167 214 267 321 381
#     4   9  20  38  62  92 124 165 211 254 310 378
#     4  10  23  42  65  93 125 166 211 254 313 381
#
# _framework density 20.487925000000001
#
# number of rings (size 3 to 8) (size 9 to 14) (size 15 to 20)
#    0.000    1.250    2.500    3.000    3.500    2.250 
#    0.000    0.000    0.000    3.000    0.000    0.000 
#    0.000    0.000    0.000    0.000    0.000    0.000 
#
# Total GULP energy -396950.667126 kJ/mol
# GULP energy per Si atom -12404.708348 kJ/mol
# Density = 2.044129 g / cm^3
# Si number density = 20.487925 Si / 1000 Ang^3
#
#
#
# Elastic Constant Matrix: (Units=GPa)
#
#
# Indices 1 2 3 4 5 6 
#
# 1 76.6668 23.3243 38.6773 0.0035 10.0776 -0.0041
# 2 23.3243 64.8478 35.0061 0.0069 -3.1610 0.0072
# 3 38.6773 35.0061 131.2799 -0.0006 0.0881 0.0008
# 4 0.0035 0.0069 -0.0006 35.0698 -0.0011 -3.0414
# 5 10.0776 -3.1610 0.0881 -0.0011 41.8817 0.0020
# 6 -0.0041 0.0072 0.0008 -3.0414 0.0020 28.4931
#
#
#
# Elastic Compliance Matrix: (Units=1/GPa)
#
#
# Indices 1 2 3 4 5 6 
#
# 1 0.016828 -0.004194 -0.003836 -0.000001 -0.004358 0.000004
# 2 -0.004194 0.019138 -0.003869 -0.000004 0.002462 -0.000006
# 3 -0.003836 -0.003869 0.009779 0.000001 0.000611 0.000000
# 4 -0.000001 -0.000004 0.000001 0.028781 0.000000 0.003072
# 5 -0.004358 0.002462 0.000611 0.000000 0.025110 -0.000003
# 6 0.000004 -0.000006 0.000000 0.003072 -0.000003 0.035424
#
#
# Mechanical properties :
#
#
# Convention : Reuss Voigt Hill
#
# Bulk Modulus (GPa) = 45.56804 51.86777 48.71791
# Shear Modulus (GPa) = 30.08901 32.80803 31.44852
#
# Velocity S-wave (km/s) = 3.83642 4.00601 3.92213
# Velocity P-wave (km/s) = 6.47409 6.83876 6.65892
#
# Compressibility (1/GPa) = 0.02194520
#
# Stress axis : x y z
#
# Youngs Moduli (GPa) = 59.42616 52.25248 102.26078
#
# Poissons Ratio (x) = 0.21914 0.39232
# Poissons Ratio (y) = 0.24923 0.39567
# Poissons Ratio (z) = 0.22799 0.20218
#
# Static dielectric constant tensor:
#      x y z
#    x 3.877090 -0.000030 -0.039360 
#    y -0.000030 3.618350 0.000000 
#    z -0.039360 0.000000 3.823130 
# 
# 
# High freq. dielectric constant tensor:
#      x y z
#    x 1.807960 0.000000 -0.001690 
#    y 0.000000 1.794950 0.000000 
#    z -0.001690 0.000000 1.813870 
# 
# From -- ./inp_files/377957.got.cif
#   From: 2010.06.25/outbox.cif.g09.slc.cpg/sg12_189_cif.got.tgz:377957.got - 2010.06.28 00:19:55.
