data_PCOD8112884
_publ_section_title
;
Structure prediction by ZEFSAII (Michael W. Deem and Ramdas Pophale) SiO2 
 PCOD8112884
Probable space group: C 2/M
;
_chemical_formula_sum "Si O2"
_cell_formula_units_Z 48
_cell_length_a 15.211301
_cell_length_b 17.977248
_cell_length_c 8.407675
_cell_angle_alpha 90.000000
_cell_angle_beta 70.980869
_cell_angle_gamma 90.000000
_cell_volume 2173.629866
_symmetry_space_group_name_H-M "C 2/M"
_symmetry_group_IT_number 12
_symmetry_cell_setting 'monoclinic'
loop_
_space_group_symop_operation_xyz
x,y,z
-x,y,-z
-x,-y,-z
x,-y,z
1/2+x,1/2+y,z
1/2-x,1/2+y,-z
1/2-x,1/2-y,-z
1/2+x,1/2-y,z
loop_
_atom_site_type_symbol
_atom_site_label
_atom_site_fract_x
_atom_site_fract_y
_atom_site_fract_z
Si Si1 0.465774 0.324308 0.843392
Si Si2 0.020003 0.659400 0.811037
Si Si3 0.293282 0.831190 0.458652
Si Si4 0.125569 0.414934 0.297298
Si Si5 0.624121 0.416569 0.636780
Si Si6 0.690804 0.582329 0.959649
O O1 0.467255 0.237158 0.807527
O O2 0.531275 0.366520 0.677173
O O3 0.500000 0.342494 0.000000
O O4 0.360783 0.357309 0.897538
O O5 0.977458 0.600860 0.710485
O O6 0.131486 0.667517 0.727997
O O7 0.000000 0.631331 0.000000
O O8 0.250000 0.750000 0.500000
O O9 0.350466 0.855909 0.580432
O O10 0.206596 0.886095 0.474076
O O11 0.129771 0.500000 0.359636
O O12 0.198094 0.404487 0.107065
O O13 0.599255 0.500000 0.599648
O O14 0.661819 0.411571 0.792864
O O15 0.665210 0.500000 0.039077
#
# Coordination Sequence:
#
# PCOD8112884 Si02
#       6
#     8   8   8   8   8   8
#     4   9  16  29  50  84 122 151 191 244 308 367
#     4  11  24  39  59  92 127 166 206 261 317 365
#     4  11  21  39  61  90 124 159 207 259 311 371
#     4  10  23  42  65  91 120 165 219 260 304 373
#     4   9  16  29  54  83 111 153 200 247 301 365
#     4   8  15  29  52  83 116 149 194 248 300 359
#
# _framework density 22.082875999999999
#
# number of rings (size 3 to 8) (size 9 to 14) (size 15 to 20)
#    0.000    2.333    1.667    2.500    2.333    5.000 
#    0.000    0.000    0.000    0.000    0.000    1.167 
#    0.000    0.000    0.000    0.000    0.000    0.000 
#
# Total GULP energy -297505.396107 kJ/mol
# GULP energy per Si atom -12396.058171 kJ/mol
# Density = 2.203261 g / cm^3
# Si number density = 22.082876 Si / 1000 Ang^3
#
#
#
# Elastic Constant Matrix: (Units=GPa)
#
#
# Indices 1 2 3 4 5 6 
#
# 1 53.5698 20.7400 29.2660 0.0000 -21.5891 0.0000
# 2 20.7400 97.2128 29.1045 0.0000 -0.7775 0.0000
# 3 29.2660 29.1045 82.7393 0.0000 -28.2335 0.0000
# 4 0.0000 0.0000 0.0000 32.0026 0.0000 -8.7873
# 5 -21.5891 -0.7775 -28.2335 0.0000 38.1922 0.0000
# 6 0.0000 0.0000 0.0000 -8.7873 0.0000 33.3502
#
#
#
# Elastic Compliance Matrix: (Units=1/GPa)
#
#
# Indices 1 2 3 4 5 6 
#
# 1 0.027688 -0.004667 -0.003803 0.000000 0.012745 0.000000
# 2 -0.004667 0.012685 -0.004846 0.000000 -0.005962 0.000000
# 3 -0.003803 -0.004846 0.019216 0.000000 0.011957 0.000000
# 4 0.000000 0.000000 0.000000 0.033684 0.000000 0.008875
# 5 0.012745 -0.005962 0.011957 0.000000 0.042106 0.000000
# 6 0.000000 0.000000 0.000000 0.008875 0.000000 0.032323
#
#
# Mechanical properties :
#
#
# Convention : Reuss Voigt Hill
#
# Bulk Modulus (GPa) = 30.34151 43.52696 36.93424
# Shear Modulus (GPa) = 24.35215 31.00309 27.67762
#
# Velocity S-wave (km/s) = 3.32439 3.75099 3.54411
# Velocity P-wave (km/s) = 5.33901 6.20592 5.78872
#
# Compressibility (1/GPa) = 0.03295814
#
# Stress axis : x y z
#
# Youngs Moduli (GPa) = 36.11680 78.83017 52.03941
#
# Poissons Ratio (x) = 0.36787 0.19791
# Poissons Ratio (y) = 0.16854 0.25219
# Poissons Ratio (z) = 0.13735 0.38202
#
# Static dielectric constant tensor:
#      x y z
#    x 3.859220 0.000000 -0.657760 
#    y 0.000000 3.938630 0.000000 
#    z -0.657760 0.000000 3.880700 
# 
# 
# High freq. dielectric constant tensor:
#      x y z
#    x 1.848070 0.000000 -0.046940 
#    y 0.000000 1.870470 0.000000 
#    z -0.046940 0.000000 1.845050 
# 
# From -- ./inp_files/75069.got.cif
#   From: 2010.06.25/outbox.cif.g09.slc.cpg/sg12_38_cif.got.tgz:75069.got - 2010.06.28 00:19:55.
