data_PCOD8112731
_publ_section_title
;
Structure prediction by ZEFSAII (Michael W. Deem and Ramdas Pophale) SiO2 
 PCOD8112731
Probable space group: C 2/M
;
_chemical_formula_sum "Si O2"
_cell_formula_units_Z 40
_cell_length_a 14.071755
_cell_length_b 7.838577
_cell_length_c 23.130446
_cell_angle_alpha 90.000000
_cell_angle_beta 52.523751
_cell_angle_gamma 90.000000
_cell_volume 2024.763194
_symmetry_space_group_name_H-M "C 2/M"
_symmetry_group_IT_number 12
_symmetry_cell_setting 'monoclinic'
loop_
_space_group_symop_operation_xyz
x,y,z
-x,y,-z
-x,-y,-z
x,-y,z
1/2+x,1/2+y,z
1/2-x,1/2+y,-z
1/2-x,1/2-y,-z
1/2+x,1/2-y,z
loop_
_atom_site_type_symbol
_atom_site_label
_atom_site_fract_x
_atom_site_fract_y
_atom_site_fract_z
Si Si1 0.305662 0.500000 0.588462
Si Si2 0.446508 0.797582 0.933285
Si Si3 0.970715 0.000000 0.416025
Si Si4 0.436397 0.805715 0.808883
Si Si5 0.816366 0.701948 0.092100
Si Si6 0.626540 0.684135 0.649865
O O1 0.385790 0.500000 0.502436
O O2 0.390388 0.500000 0.614230
O O3 0.223294 0.332741 0.617571
O O4 0.433380 0.720963 0.874008
O O5 0.573695 0.734612 0.910023
O O6 0.444597 0.000000 0.931286
O O7 0.341380 0.737864 0.016239
O O8 0.940484 0.169286 0.388294
O O9 0.299822 0.792716 0.837821
O O10 0.524119 0.703039 0.735437
O O11 0.481114 0.000000 0.792850
O O12 0.800525 0.500000 0.101464
O O13 0.690658 0.500000 0.637717
#
# Coordination Sequence:
#
# PCOD8112731 Si02
#       6
#     4   8   4   8   8   8
#     4  11  20  48  69  95 132 163 201 265 299 368
#     4   8  17  32  52  74 103 152 200 249 303 351
#     4   9  24  42  71  99 126 165 209 247 315 366
#     4  11  20  34  52  81 119 155 195 247 308 356
#     4   9  17  33  53  74 103 147 206 251 295 359
#     4  10  23  41  62  97 128 165 209 250 311 374
#
# _framework density 19.755395
#
# number of rings (size 3 to 8) (size 9 to 14) (size 15 to 20)
#    0.600    1.800    1.000    3.000    0.000    1.600 
#    1.800    8.000    0.000    0.000    0.000    0.000 
#    0.000    0.000    0.000    0.000    0.000    0.000 
#
# Total GULP energy -247809.977238 kJ/mol
# GULP energy per Si atom -12390.498862 kJ/mol
# Density = 1.971043 g / cm^3
# Si number density = 19.755395 Si / 1000 Ang^3
#
#
#
# Elastic Constant Matrix: (Units=GPa)
#
#
# Indices 1 2 3 4 5 6 
#
# 1 91.3829 40.4290 47.4185 0.0000 -11.2069 0.0003
# 2 40.4290 91.6639 36.4895 0.0000 -8.1454 0.0005
# 3 47.4185 36.4895 109.7788 0.0000 -5.3094 0.0000
# 4 0.0000 0.0000 0.0000 31.0894 0.0000 -4.3721
# 5 -11.2069 -8.1454 -5.3094 0.0000 23.9827 -0.0001
# 6 0.0003 0.0005 0.0000 -4.3721 -0.0001 23.3237
#
#
#
# Elastic Compliance Matrix: (Units=1/GPa)
#
#
# Indices 1 2 3 4 5 6 
#
# 1 0.016346 -0.004678 -0.005269 0.000000 0.004883 0.000000
# 2 -0.004678 0.014189 -0.002596 0.000000 0.002058 0.000000
# 3 -0.005269 -0.002596 0.012217 0.000000 -0.000639 0.000000
# 4 0.000000 0.000000 0.000000 0.033036 0.000000 0.006193
# 5 0.004883 0.002058 -0.000639 0.000000 0.044536 0.000000
# 6 0.000000 0.000000 0.000000 0.006193 0.000000 0.044036
#
#
# Mechanical properties :
#
#
# Convention : Reuss Voigt Hill
#
# Bulk Modulus (GPa) = 56.60853 60.16662 58.38758
# Shear Modulus (GPa) = 25.59706 26.91173 26.25440
#
# Velocity S-wave (km/s) = 3.60349 3.69487 3.64946
# Velocity P-wave (km/s) = 6.78457 6.98030 6.88313
#
# Compressibility (1/GPa) = 0.01766518
#
# Stress axis : x y z
#
# Youngs Moduli (GPa) = 61.17862 70.47717 81.85083
#
# Poissons Ratio (x) = 0.32968 0.43130
# Poissons Ratio (y) = 0.28618 0.21250
# Poissons Ratio (z) = 0.32237 0.18297
#
# Static dielectric constant tensor:
#      x y z
#    x 3.781420 0.000000 0.124380 
#    y 0.000000 3.323380 0.000000 
#    z 0.124380 0.000000 3.635780 
# 
# 
# High freq. dielectric constant tensor:
#      x y z
#    x 1.765950 0.000000 -0.000660 
#    y 0.000000 1.751210 0.000000 
#    z -0.000660 0.000000 1.773250 
# 
# From -- ./inp_files/359547.got.cif
#   From: 2010.06.25/outbox.cif.g09.slc.cpg/sg12_180_cif.got.tgz:359547.got - 2010.06.28 00:19:55.
