data_PCOD8112883
_publ_section_title
;
Structure prediction by ZEFSAII (Michael W. Deem and Ramdas Pophale) SiO2 
 PCOD8112883
Probable space group: C 2/M
;
_chemical_formula_sum "Si O2"
_cell_formula_units_Z 56
_cell_length_a 21.107549
_cell_length_b 18.259033
_cell_length_c 22.412367
_cell_angle_alpha 90.000000
_cell_angle_beta 160.380975
_cell_angle_gamma 90.000000
_cell_volume 2900.266467
_symmetry_space_group_name_H-M "C 2/M"
_symmetry_group_IT_number 12
_symmetry_cell_setting 'monoclinic'
loop_
_space_group_symop_operation_xyz
x,y,z
-x,y,-z
-x,-y,-z
x,-y,z
1/2+x,1/2+y,z
1/2-x,1/2+y,-z
1/2-x,1/2-y,-z
1/2+x,1/2-y,z
loop_
_atom_site_type_symbol
_atom_site_label
_atom_site_fract_x
_atom_site_fract_y
_atom_site_fract_z
Si Si1 0.032601 0.916188 0.294431
Si Si2 0.660789 0.415847 0.999861
Si Si3 0.942889 0.583698 0.703970
Si Si4 0.818714 0.676094 0.700758
Si Si5 0.204239 0.413858 0.204505
Si Si6 0.581688 0.323352 0.698893
Si Si7 0.075745 0.217089 0.000413
O O1 0.917040 0.864119 0.236455
O O2 0.256478 0.903582 0.498979
O O3 0.977659 0.000000 0.260701
O O4 0.971796 0.896344 0.173768
O O5 0.636208 0.500000 0.997433
O O6 0.597060 0.366682 0.998935
O O7 0.877439 0.397451 0.176879
O O8 0.954376 0.500000 0.737187
O O9 0.946020 0.636419 0.763967
O O10 0.765262 0.615939 0.702436
O O11 0.626484 0.706564 0.501049
O O12 0.929112 0.743845 0.826439
O O13 0.226256 0.500000 0.225299
O O14 0.361392 0.382074 0.300398
O O15 0.000000 0.387889 0.000000
O O16 0.721344 0.255108 0.823967
O O17 0.000000 0.219128 0.000000
#
# Coordination Sequence:
#
# PCOD8112883 Si02
#       7
#     8   8   8   8   8   8   8
#     4   9  19  36  59  89 120 149 189 233 275 339
#     4  10  23  42  65  82 105 147 189 245 311 351
#     4   9  19  36  59  89 120 149 189 233 275 339
#     4  11  21  36  58  85 120 161 191 225 281 337
#     4  11  21  33  53  84 123 166 204 230 258 317
#     4  11  21  36  58  85 120 161 191 225 281 337
#     4  12  25  42  57  83 116 146 196 249 288 341
#
# _framework density 19.30857
#
# number of rings (size 3 to 8) (size 9 to 14) (size 15 to 20)
#    0.000    1.571    2.857    2.143    0.000    6.000 
#    0.000    2.857    0.000    0.000    0.000    6.000 
#    0.000    0.000    0.000    0.000    0.000    0.000 
#
# Total GULP energy -347307.013298 kJ/mol
# GULP energy per Si atom -12403.821903 kJ/mol
# Density = 1.926462 g / cm^3
# Si number density = 19.308570 Si / 1000 Ang^3
#
#
#
# Elastic Constant Matrix: (Units=GPa)
#
#
# Indices 1 2 3 4 5 6 
#
# 1 62.1667 60.0132 36.0428 -0.0082 0.0777 0.0049
# 2 60.0132 107.2511 50.0138 -0.0346 -2.8388 -0.0127
# 3 36.0428 50.0138 103.0627 0.0438 0.2329 0.0373
# 4 -0.0082 -0.0346 0.0438 10.1182 -0.0010 -2.9594
# 5 0.0777 -2.8388 0.2329 -0.0010 21.3213 -0.0027
# 6 0.0049 -0.0127 0.0373 -2.9594 -0.0027 35.4486
#
#
#
# Elastic Compliance Matrix: (Units=1/GPa)
#
#
# Indices 1 2 3 4 5 6 
#
# 1 0.036148 -0.018615 -0.003602 -0.000022 -0.002571 -0.000010
# 2 -0.018615 0.021697 -0.004026 0.000083 0.003001 0.000022
# 3 -0.003602 -0.004026 0.012918 -0.000079 -0.000664 -0.000021
# 4 -0.000022 0.000083 -0.000079 0.101307 0.000018 0.008458
# 5 -0.002571 0.003001 -0.000664 0.000018 0.047318 0.000007
# 6 -0.000010 0.000022 -0.000021 0.008458 0.000007 0.028916
#
#
# Mechanical properties :
#
#
# Convention : Reuss Voigt Hill
#
# Bulk Modulus (GPa) = 54.71586 62.73557 58.72572
# Shear Modulus (GPa) = 16.29300 21.80500 19.04900
#
# Velocity S-wave (km/s) = 2.90801 3.36414 3.14436
# Velocity P-wave (km/s) = 6.29877 6.90301 6.60780
#
# Compressibility (1/GPa) = 0.01827623
#
# Stress axis : x y z
#
# Youngs Moduli (GPa) = 27.66441 46.08976 77.41280
#
# Poissons Ratio (x) = 0.85796 0.27886
# Poissons Ratio (y) = 0.51497 0.31165
# Poissons Ratio (z) = 0.09965 0.18555
#
# Static dielectric constant tensor:
#      x y z
#    x 3.367550 -0.000030 0.030090 
#    y -0.000030 3.358600 -0.000060 
#    z 0.030090 -0.000060 3.750980 
# 
# 
# High freq. dielectric constant tensor:
#      x y z
#    x 1.738840 -0.000010 0.002440 
#    y -0.000010 1.739530 -0.000010 
#    z 0.002440 -0.000010 1.767420 
# 
# From -- ./inp_files/286068.got.cif
#   From: 2010.06.25/outbox.cif.g09.slc.cpg/sg12_144_cif.got.tgz:286068.got - 2010.06.28 00:19:55.
