data_PCOD8112513
_publ_section_title
;
Structure prediction by ZEFSAII (Michael W. Deem and Ramdas Pophale) SiO2 
 PCOD8112513
Probable space group: C 2/M
;
_chemical_formula_sum "Si O2"
_cell_formula_units_Z 56
_cell_length_a 14.209581
_cell_length_b 18.335981
_cell_length_c 19.512843
_cell_angle_alpha 90.000000
_cell_angle_beta 31.895461
_cell_angle_gamma 90.000000
_cell_volume 2686.241220
_symmetry_space_group_name_H-M "C 2/M"
_symmetry_group_IT_number 12
_symmetry_cell_setting 'monoclinic'
loop_
_space_group_symop_operation_xyz
x,y,z
-x,y,-z
-x,-y,-z
x,-y,z
1/2+x,1/2+y,z
1/2-x,1/2+y,-z
1/2-x,1/2-y,-z
1/2+x,1/2-y,z
loop_
_atom_site_type_symbol
_atom_site_label
_atom_site_fract_x
_atom_site_fract_y
_atom_site_fract_z
Si Si1 0.623291 0.418111 0.484230
Si Si2 0.532482 0.198458 0.368952
Si Si3 0.983311 0.157877 0.698634
Si Si4 0.980951 0.416684 0.733828
Si Si5 0.285890 0.712313 0.333438
Si Si6 0.657088 0.921508 0.953200
Si Si7 0.104503 0.687426 0.104940
O O1 0.500000 0.382965 0.500000
O O2 0.552896 0.500000 0.540542
O O3 0.608262 0.371565 0.561973
O O4 0.833462 0.418557 0.338100
O O5 0.572704 0.258651 0.285269
O O6 0.495835 0.120815 0.355269
O O7 0.700271 0.184172 0.315664
O O8 0.366209 0.229289 0.516015
O O9 0.815264 0.106705 0.807937
O O10 0.083505 0.154140 0.710456
O O11 0.911232 0.500000 0.767080
O O12 0.844499 0.366696 0.863096
O O13 0.405838 0.782509 0.242069
O O14 0.707931 0.000000 0.956312
O O15 0.500000 0.937302 0.000000
O O16 0.595170 0.861540 0.044341
O O17 0.250000 0.750000 0.000000
#
# Coordination Sequence:
#
# PCOD8112513 Si02
#       7
#     8   8   8   8   8   8   8
#     4  10  23  37  60  97 131 165 203 258 330 387
#     4  11  23  40  66  97 129 161 212 264 317 379
#     4  12  21  40  64  91 128 167 214 260 317 376
#     4  11  23  42  64  92 130 168 209 258 321 381
#     4  11  23  39  66  97 124 163 215 259 316 370
#     4  11  25  41  60  91 128 168 210 259 320 380
#     4  12  23  42  65  90 122 167 217 261 310 368
#
# _framework density 20.846972999999998
#
# number of rings (size 3 to 8) (size 9 to 14) (size 15 to 20)
#    0.000    0.857    4.286    3.000    6.000    0.000 
#    0.000    2.857    0.000    0.857    0.000    0.000 
#    0.000    0.000    0.000    0.000    0.000    0.000 
#
# Total GULP energy -347027.093200 kJ/mol
# GULP energy per Si atom -12393.824757 kJ/mol
# Density = 2.079952 g / cm^3
# Si number density = 20.846973 Si / 1000 Ang^3
#
#
#
# Elastic Constant Matrix: (Units=GPa)
#
#
# Indices 1 2 3 4 5 6 
#
# 1 123.2945 52.6286 29.1552 -0.0176 -4.0101 0.0024
# 2 52.6286 152.0243 58.2721 -0.0372 8.2533 0.0088
# 3 29.1552 58.2721 78.9533 -0.0551 4.8632 0.0040
# 4 -0.0176 -0.0372 -0.0551 5.6156 0.0160 2.7550
# 5 -4.0101 8.2533 4.8632 0.0160 28.7116 -0.0036
# 6 0.0024 0.0088 0.0040 2.7550 -0.0036 29.3804
#
#
#
# Elastic Compliance Matrix: (Units=1/GPa)
#
#
# Indices 1 2 3 4 5 6 
#
# 1 0.009819 -0.002908 -0.001632 -0.000012 0.002484 0.000002
# 2 -0.002908 0.010099 -0.006241 0.000004 -0.002252 -0.000003
# 3 -0.001632 -0.006241 0.017966 0.000141 -0.001477 -0.000014
# 4 -0.000012 0.000004 0.000141 0.186666 -0.000133 -0.017504
# 5 0.002484 -0.002252 -0.001477 -0.000133 0.036074 0.000018
# 6 0.000002 -0.000003 -0.000014 -0.017504 0.000018 0.035678
#
#
# Mechanical properties :
#
#
# Convention : Reuss Voigt Hill
#
# Bulk Modulus (GPa) = 61.27292 70.48713 65.88002
# Shear Modulus (GPa) = 15.46528 27.02260 21.24394
#
# Velocity S-wave (km/s) = 2.72664 3.60423 3.19571
# Velocity P-wave (km/s) = 6.27442 7.15582 6.72957
#
# Compressibility (1/GPa) = 0.01632042
#
# Stress axis : x y z
#
# Youngs Moduli (GPa) = 101.84483 99.01704 55.66101
#
# Poissons Ratio (x) = 0.28797 0.09086
# Poissons Ratio (y) = 0.29620 0.34739
# Poissons Ratio (z) = 0.16624 0.61798
#
# Static dielectric constant tensor:
#      x y z
#    x 3.755910 0.000560 0.064140 
#    y 0.000560 4.942270 -0.000120 
#    z 0.064140 -0.000120 3.810210 
# 
# 
# High freq. dielectric constant tensor:
#      x y z
#    x 1.809740 0.000000 0.010390 
#    y 0.000000 1.821230 0.000000 
#    z 0.010390 0.000000 1.807560 
# 
# From -- ./inp_files/311697.got.cif
#   From: 2010.06.25/outbox.cif.g09.slc.cpg/sg12_156_cif.got.tgz:311697.got - 2010.06.28 00:19:55.
