data_PCOD8112345
_publ_section_title
;
Structure prediction by ZEFSAII (Michael W. Deem and Ramdas Pophale) SiO2 
 PCOD8112345
Probable space group: C 2/M
;
_chemical_formula_sum "Si O2"
_cell_formula_units_Z 64
_cell_length_a 14.359631
_cell_length_b 18.821342
_cell_length_c 21.436358
_cell_angle_alpha 90.000000
_cell_angle_beta 146.906565
_cell_angle_gamma 90.000000
_cell_volume 3163.313681
_symmetry_space_group_name_H-M "C 2/M"
_symmetry_group_IT_number 12
_symmetry_cell_setting 'monoclinic'
loop_
_space_group_symop_operation_xyz
x,y,z
-x,y,-z
-x,-y,-z
x,-y,z
1/2+x,1/2+y,z
1/2-x,1/2+y,-z
1/2-x,1/2-y,-z
1/2+x,1/2-y,z
loop_
_atom_site_type_symbol
_atom_site_label
_atom_site_fract_x
_atom_site_fract_y
_atom_site_fract_z
Si Si1 0.432411 0.919440 0.571568
Si Si2 0.494108 0.310907 0.143768
Si Si3 0.684948 0.808778 0.757259
Si Si4 0.408129 0.348034 0.307450
Si Si5 0.324082 0.578944 0.465942
Si Si6 0.353932 0.828061 0.121843
Si Si7 0.647789 0.080598 0.239521
Si Si8 0.103781 0.083105 0.307760
O O1 0.590284 0.865006 0.658497
O O2 0.350666 0.910824 0.594074
O O3 0.293056 0.900042 0.440455
O O4 0.499503 0.000000 0.598653
O O5 0.626614 0.293380 0.163039
O O6 0.463456 0.243469 0.171532
O O7 0.573518 0.375697 0.226875
O O8 0.316291 0.332305 0.013819
O O9 0.582137 0.735198 0.700704
O O10 0.694862 0.837389 0.833278
O O11 0.539264 0.362832 0.437183
O O12 0.218328 0.372714 0.221449
O O13 0.460566 0.392511 0.276313
O O14 0.397609 0.500000 0.522268
O O15 0.287183 0.587336 0.372627
O O16 0.465112 0.893909 0.160754
O O17 0.627123 0.000000 0.205584
O O18 0.082069 0.000000 0.282803
#
# Coordination Sequence:
#
# PCOD8112345 Si02
#       8
#     8   8   8   8   8   8   8   8
#     4   9  20  38  62  92 129 167 200 252 311 368
#     4  11  25  44  64  87 121 169 208 258 311 365
#     4  12  23  40  67  96 122 163 209 255 313 372
#     4  11  21  35  60  97 128 164 205 250 310 377
#     4   9  18  34  57  88 131 169 196 247 314 368
#     4  11  24  44  64  86 125 162 211 261 309 360
#     4  11  21  38  63  93 127 164 209 256 311 369
#     4  10  22  43  65  91 130 168 205 253 315 372
#
# _framework density 20.231949
#
# number of rings (size 3 to 8) (size 9 to 14) (size 15 to 20)
#    0.000    1.500    3.750    2.625    0.000    5.500 
#    2.250    1.875    0.000    3.750    0.000    0.000 
#    0.000    0.000    0.000    0.000    0.000    0.000 
#
# Total GULP energy -396875.202415 kJ/mol
# GULP energy per Si atom -12402.350075 kJ/mol
# Density = 2.018590 g / cm^3
# Si number density = 20.231949 Si / 1000 Ang^3
#
#
#
# Elastic Constant Matrix: (Units=GPa)
#
#
# Indices 1 2 3 4 5 6 
#
# 1 78.0632 19.1535 36.4074 -0.0005 7.7779 -0.0003
# 2 19.1535 96.1039 36.2721 -0.0003 -5.0214 -0.0005
# 3 36.4074 36.2721 54.7078 -0.0005 -2.1176 -0.0014
# 4 -0.0005 -0.0003 -0.0005 26.5994 -0.0010 -1.2385
# 5 7.7779 -5.0214 -2.1176 -0.0010 23.9603 -0.0008
# 6 -0.0003 -0.0005 -0.0014 -1.2385 -0.0008 28.4804
#
#
#
# Elastic Compliance Matrix: (Units=1/GPa)
#
#
# Indices 1 2 3 4 5 6 
#
# 1 0.019952 0.001003 -0.014234 0.000000 -0.007525 -0.000001
# 2 0.001003 0.014035 -0.009905 0.000000 0.001740 0.000000
# 3 -0.014234 -0.009905 0.034536 0.000001 0.005597 0.000002
# 4 0.000000 0.000000 0.000001 0.037671 0.000002 0.001638
# 5 -0.007525 0.001740 0.005597 0.000002 0.045038 0.000002
# 6 -0.000001 0.000000 0.000002 0.001638 0.000002 0.035183
#
#
# Mechanical properties :
#
#
# Convention : Reuss Voigt Hill
#
# Bulk Modulus (GPa) = 44.94497 45.83789 45.39143
# Shear Modulus (GPa) = 20.82418 24.94414 22.88416
#
# Velocity S-wave (km/s) = 3.21171 3.51509 3.36682
# Velocity P-wave (km/s) = 6.00137 6.25938 6.13173
#
# Compressibility (1/GPa) = 0.02224943
#
# Stress axis : x y z
#
# Youngs Moduli (GPa) = 50.11906 71.25023 28.95556
#
# Poissons Ratio (x) = -0.07144 0.41216
# Poissons Ratio (y) = -0.05025 0.28681
# Poissons Ratio (z) = 0.71341 0.70576
#
# Static dielectric constant tensor:
#      x y z
#    x 3.697060 0.000000 0.055750 
#    y 0.000000 3.679560 0.000000 
#    z 0.055750 0.000000 3.433920 
# 
# 
# High freq. dielectric constant tensor:
#      x y z
#    x 1.800520 0.000000 0.007380 
#    y 0.000000 1.789810 0.000000 
#    z 0.007380 0.000000 1.771300 
# 
# From -- ./inp_files/340882.got.cif
#   From: 2010.06.25/outbox.cif.g09.slc.cpg/sg12_171_cif.got.tgz:340882.got - 2010.06.28 00:19:55.
