data_PCOD8112643
_publ_section_title
;
Structure prediction by ZEFSAII (Michael W. Deem and Ramdas Pophale) SiO2 
 PCOD8112643
Probable space group: C 2/M
;
_chemical_formula_sum "Si O2"
_cell_formula_units_Z 56
_cell_length_a 13.593254
_cell_length_b 20.226740
_cell_length_c 9.842786
_cell_angle_alpha 90.000000
_cell_angle_beta 86.271585
_cell_angle_gamma 90.000000
_cell_volume 2700.518799
_symmetry_space_group_name_H-M "C 2/M"
_symmetry_group_IT_number 12
_symmetry_cell_setting 'monoclinic'
loop_
_space_group_symop_operation_xyz
x,y,z
-x,y,-z
-x,-y,-z
x,-y,z
1/2+x,1/2+y,z
1/2-x,1/2+y,-z
1/2-x,1/2-y,-z
1/2+x,1/2-y,z
loop_
_atom_site_type_symbol
_atom_site_label
_atom_site_fract_x
_atom_site_fract_y
_atom_site_fract_z
Si Si1 0.406540 0.155305 0.776706
Si Si2 0.601174 0.924904 0.710840
Si Si3 0.980204 0.205487 0.840446
Si Si4 0.307915 0.926356 0.010639
Si Si5 0.408708 0.427832 0.907568
Si Si6 0.298399 0.151860 0.516992
Si Si7 0.400641 0.714142 0.423905
O O1 0.510201 0.125242 0.721533
O O2 0.412526 0.234100 0.796536
O O3 0.326020 0.139382 0.670622
O O4 0.372166 0.124816 0.921007
O O5 0.669927 0.913259 0.834191
O O6 0.669941 0.911292 0.574271
O O7 0.561834 0.000000 0.706312
O O8 0.924019 0.136213 0.810318
O O9 0.079141 0.206322 0.739931
O O10 0.000000 0.211972 0.000000
O O11 0.191348 0.916735 0.997594
O O12 0.341041 0.000000 0.964240
O O13 0.402295 0.500000 0.831760
O O14 0.500000 0.429906 0.000000
O O15 0.358229 0.213467 0.452028
O O16 0.180642 0.161035 0.520807
O O17 0.500000 0.702484 0.500000
#
# Coordination Sequence:
#
# PCOD8112643 Si02
#       7
#     8   8   8   8   8   8   8
#     4  12  23  40  63  98 127 164 214 269 321 378
#     4  11  23  42  65  92 131 171 212 264 321 383
#     4  11  23  39  67  98 124 161 213 262 319 372
#     4  10  23  40  63  94 129 171 212 263 329 374
#     4   9  21  41  62  89 130 167 203 259 320 377
#     4  11  25  41  65  91 129 175 214 252 322 386
#     4  11  23  45  62  91 132 169 203 266 326 372
#
# _framework density 20.736756
#
# number of rings (size 3 to 8) (size 9 to 14) (size 15 to 20)
#    0.000    1.286    2.857    2.143    6.000    3.429 
#    0.000    0.714    0.000    0.857    0.000    0.000 
#    0.000    0.000    0.000    0.000    0.000    0.000 
#
# Total GULP energy -347147.874029 kJ/mol
# GULP energy per Si atom -12398.138358 kJ/mol
# Density = 2.068956 g / cm^3
# Si number density = 20.736756 Si / 1000 Ang^3
#
#
#
# Elastic Constant Matrix: (Units=GPa)
#
#
# Indices 1 2 3 4 5 6 
#
# 1 124.9324 37.1094 34.0677 0.0000 -1.4164 0.0000
# 2 37.1094 130.8579 37.7510 0.0000 -7.7646 0.0000
# 3 34.0677 37.7510 109.8621 0.0000 -7.5935 0.0000
# 4 0.0000 0.0000 0.0000 24.6008 0.0000 -4.8830
# 5 -1.4164 -7.7646 -7.5935 0.0000 20.6614 0.0000
# 6 0.0000 0.0000 0.0000 -4.8830 0.0000 20.0943
#
#
#
# Elastic Compliance Matrix: (Units=1/GPa)
#
#
# Indices 1 2 3 4 5 6 
#
# 1 0.009201 -0.002024 -0.002223 0.000000 -0.000947 0.000000
# 2 -0.002024 0.009024 -0.002307 0.000000 0.002405 0.000000
# 3 -0.002223 -0.002307 0.010788 0.000000 0.002945 0.000000
# 4 0.000000 0.000000 0.000000 0.042709 0.000000 0.010378
# 5 -0.000947 0.002405 0.002945 0.000000 0.050321 0.000000
# 6 0.000000 0.000000 0.000000 0.010378 0.000000 0.052287
#
#
# Mechanical properties :
#
#
# Convention : Reuss Voigt Hill
#
# Bulk Modulus (GPa) = 62.87452 64.83427 63.85439
# Shear Modulus (GPa) = 25.94162 30.18625 28.06393
#
# Velocity S-wave (km/s) = 3.54078 3.81949 3.68277
# Velocity P-wave (km/s) = 6.86311 7.12633 6.99596
#
# Compressibility (1/GPa) = 0.01590469
#
# Stress axis : x y z
#
# Youngs Moduli (GPa) = 108.68324 110.81419 92.69536
#
# Poissons Ratio (x) = 0.22430 0.20607
# Poissons Ratio (y) = 0.21999 0.21385
# Poissons Ratio (z) = 0.24162 0.25565
#
# Static dielectric constant tensor:
#      x y z
#    x 3.841580 0.000000 -0.134110 
#    y 0.000000 4.203650 0.000000 
#    z -0.134110 0.000000 3.730070 
# 
# 
# High freq. dielectric constant tensor:
#      x y z
#    x 1.814050 0.000000 -0.005660 
#    y 0.000000 1.817630 0.000000 
#    z -0.005660 0.000000 1.801460 
# 
# From -- ./inp_files/64053.got.cif
#   From: 2010.06.25/outbox.cif.g09.slc.cpg/sg12_33_cif.got.tgz:64053.got - 2010.06.28 00:19:55.
