data_PCOD8112705
_publ_section_title
;
Structure prediction by ZEFSAII (Michael W. Deem and Ramdas Pophale) SiO2 
 PCOD8112705
Probable space group: C 2/M
;
_chemical_formula_sum "Si O2"
_cell_formula_units_Z 48
_cell_length_a 29.804326
_cell_length_b 8.793231
_cell_length_c 8.701700
_cell_angle_alpha 90.000000
_cell_angle_beta 89.794964
_cell_angle_gamma 90.000000
_cell_volume 2280.494940
_symmetry_space_group_name_H-M "C 2/M"
_symmetry_group_IT_number 12
_symmetry_cell_setting 'monoclinic'
loop_
_space_group_symop_operation_xyz
x,y,z
-x,y,-z
-x,-y,-z
x,-y,z
1/2+x,1/2+y,z
1/2-x,1/2+y,-z
1/2-x,1/2-y,-z
1/2+x,1/2-y,z
loop_
_atom_site_type_symbol
_atom_site_label
_atom_site_fract_x
_atom_site_fract_y
_atom_site_fract_z
Si Si1 0.072552 0.821810 0.824690
Si Si2 0.264098 0.323914 0.157692
Si Si3 0.173924 0.676410 0.325180
Si Si4 0.407226 0.322097 0.826388
Si Si5 0.010190 0.322033 0.324682
Si Si6 0.344731 0.820917 0.329717
O O1 0.105268 0.732071 0.710050
O O2 0.022077 0.771959 0.787748
O O3 0.078530 0.000000 0.797089
O O4 0.082946 0.776124 0.998969
O O5 0.272576 0.500000 0.128494
O O6 0.225754 0.294373 0.284549
O O7 0.310468 0.252934 0.211663
O O8 0.250000 0.250000 0.000000
O O9 0.160902 0.500000 0.305403
O O10 0.143656 0.775850 0.210963
O O11 0.166545 0.733294 0.498463
O O12 0.414706 0.500000 0.798421
O O13 0.439203 0.227418 0.712569
O O14 0.003704 0.500000 0.294338
O O15 0.000000 0.279119 0.500000
O O16 0.341055 0.000000 0.313800
#
# Coordination Sequence:
#
# PCOD8112705 Si02
#       6
#     8   8   8   8   8   8
#     4  11  24  41  61  89 122 156 198 245 294 350
#     4  11  23  40  62  89 121 158 199 245 297 351
#     4  10  23  41  61  87 120 157 198 244 295 352
#     4  11  24  40  61  89 120 155 197 244 293 350
#     4  11  24  41  62  89 120 155 197 244 295 352
#     4  11  23  40  62  89 120 156 199 245 295 352
#
# _framework density 21.048062999999999
#
# number of rings (size 3 to 8) (size 9 to 14) (size 15 to 20)
#    0.000    1.167    0.000    5.500    0.000   15.333 
#    0.000    0.000    0.000    0.000    0.000    0.000 
#    0.000    0.000    0.000    0.000    0.000    0.000 
#
# Total GULP energy -297834.059665 kJ/mol
# GULP energy per Si atom -12409.752486 kJ/mol
# Density = 2.100016 g / cm^3
# Si number density = 21.048063 Si / 1000 Ang^3
#
#
#
# Elastic Constant Matrix: (Units=GPa)
#
#
# Indices 1 2 3 4 5 6 
#
# 1 65.9518 14.7240 -4.4964 0.0000 4.6712 0.0000
# 2 14.7240 72.4225 36.8893 0.0000 1.2264 0.0000
# 3 -4.4964 36.8893 75.8317 0.0000 1.2242 0.0000
# 4 0.0000 0.0000 0.0000 32.3454 0.0000 1.0032
# 5 4.6712 1.2264 1.2242 0.0000 44.6272 0.0000
# 6 0.0000 0.0000 0.0000 1.0032 0.0000 40.6464
#
#
#
# Elastic Compliance Matrix: (Units=1/GPa)
#
#
# Indices 1 2 3 4 5 6 
#
# 1 0.016675 -0.005157 0.003525 0.000000 -0.001700 0.000000
# 2 -0.005157 0.019954 -0.010017 0.000000 0.000266 0.000000
# 3 0.003525 -0.010017 0.018279 0.000000 -0.000595 0.000000
# 4 0.000000 0.000000 0.000000 0.030940 0.000000 -0.000764
# 5 -0.001700 0.000266 -0.000595 0.000000 0.022595 0.000000
# 6 0.000000 0.000000 0.000000 -0.000764 0.000000 0.024621
#
#
# Mechanical properties :
#
#
# Convention : Reuss Voigt Hill
#
# Bulk Modulus (GPa) = 31.63619 34.27107 32.95363
# Shear Modulus (GPa) = 29.95856 34.66308 32.31082
#
# Velocity S-wave (km/s) = 3.77681 4.06255 3.92228
# Velocity P-wave (km/s) = 5.83799 6.19059 6.01687
#
# Compressibility (1/GPa) = 0.03160937
#
# Stress axis : x y z
#
# Youngs Moduli (GPa) = 59.97171 50.11539 54.70899
#
# Poissons Ratio (x) = 0.25842 -0.19283
# Poissons Ratio (y) = 0.30925 0.54801
# Poissons Ratio (z) = -0.21138 0.50200
#
# Static dielectric constant tensor:
#      x y z
#    x 3.884830 0.000000 -0.071130 
#    y 0.000000 3.789400 0.000000 
#    z -0.071130 0.000000 3.896160 
# 
# 
# High freq. dielectric constant tensor:
#      x y z
#    x 1.838120 0.000000 -0.001600 
#    y 0.000000 1.830760 0.000000 
#    z -0.001600 0.000000 1.836460 
# 
# From -- ./inp_files/108576.got.cif
#   From: 2010.06.25/outbox.cif.g09.slc.cpg/sg12_55_cif.got.tgz:108576.got - 2010.06.28 00:19:55.
