data_PCOD8112449
_publ_section_title
;
Structure prediction by ZEFSAII (Michael W. Deem and Ramdas Pophale) SiO2 
 PCOD8112449
Probable space group: C 2/M
;
_chemical_formula_sum "Si O2"
_cell_formula_units_Z 64
_cell_length_a 18.028931
_cell_length_b 29.055591
_cell_length_c 12.501382
_cell_angle_alpha 90.000000
_cell_angle_beta 29.082859
_cell_angle_gamma 90.000000
_cell_volume 3183.171716
_symmetry_space_group_name_H-M "C 2/M"
_symmetry_group_IT_number 12
_symmetry_cell_setting 'monoclinic'
loop_
_space_group_symop_operation_xyz
x,y,z
-x,y,-z
-x,-y,-z
x,-y,z
1/2+x,1/2+y,z
1/2-x,1/2+y,-z
1/2-x,1/2-y,-z
1/2+x,1/2-y,z
loop_
_atom_site_type_symbol
_atom_site_label
_atom_site_fract_x
_atom_site_fract_y
_atom_site_fract_z
Si Si1 0.179353 0.917261 0.300927
Si Si2 0.611212 0.775154 0.121656
Si Si3 0.861375 0.127859 0.253377
Si Si4 0.562960 0.051144 0.163595
Si Si5 0.350578 0.289744 0.420683
Si Si6 0.749963 0.052565 0.549581
Si Si7 0.658273 0.827331 0.853808
Si Si8 0.475526 0.864135 0.406507
O O1 0.206002 0.936357 0.385172
O O2 0.258121 0.867624 0.186744
O O3 0.000000 0.916045 0.500000
O O4 0.270689 0.948798 0.101687
O O5 0.494230 0.734565 0.289590
O O6 0.558875 0.822412 0.241722
O O7 0.750000 0.750000 0.000000
O O8 0.634699 0.784921 0.965350
O O9 0.900942 0.173891 0.268049
O O10 0.849853 0.084357 0.346249
O O11 0.704468 0.135988 0.388114
O O12 0.000000 0.117172 0.000000
O O13 0.430493 0.061751 0.242729
O O14 0.552118 0.088083 0.272483
O O15 0.539353 0.000000 0.242169
O O16 0.250000 0.250000 0.500000
O O17 0.265946 0.315561 0.620934
O O18 0.792857 0.000000 0.470054
O O19 0.500000 0.843623 0.000000
O O20 0.500000 0.857775 0.500000
#
# Coordination Sequence:
#
# PCOD8112449 Si02
#       8
#     8   8   8   8   8   8   8   8
#     4  12  25  39  66 103 139 168 210 271 335 384
#     4  12  29  42  67  98 134 173 215 271 328 383
#     4  11  25  43  67  96 128 170 222 273 320 385
#     4  10  22  44  72  96 127 175 223 262 321 398
#     4  12  25  42  67  97 126 171 224 263 319 384
#     4  10  22  44  70  97 129 174 220 264 323 397
#     4  12  24  45  69  94 132 177 220 270 318 387
#     4  11  25  45  64  95 134 169 217 273 327 384
#
# _framework density 20.105734000000002
#
# number of rings (size 3 to 8) (size 9 to 14) (size 15 to 20)
#    0.000    0.750    5.000    1.500    7.000    3.500 
#    0.000    0.000    0.000    0.000    0.000    0.000 
#    0.000    0.000    0.000    0.000    0.000    0.000 
#
# Total GULP energy -396817.323623 kJ/mol
# GULP energy per Si atom -12400.541363 kJ/mol
# Density = 2.005997 g / cm^3
# Si number density = 20.105734 Si / 1000 Ang^3
#
#
#
# Elastic Constant Matrix: (Units=GPa)
#
#
# Indices 1 2 3 4 5 6 
#
# 1 74.6853 19.4468 31.9610 0.0023 -10.1669 0.0011
# 2 19.4468 112.0956 40.4477 -0.0001 -8.9438 0.0013
# 3 31.9610 40.4477 123.6709 0.0043 -9.4550 0.0007
# 4 0.0023 -0.0001 0.0043 -54.0321 -0.0035 -27.8080
# 5 -10.1669 -8.9438 -9.4550 -0.0035 39.5964 -0.0017
# 6 0.0011 0.0013 0.0007 -27.8080 -0.0017 13.8875
#
#
#
# Elastic Compliance Matrix: (Units=1/GPa)
#
#
# Indices 1 2 3 4 5 6 
#
# 1 0.015561 -0.001244 -0.003393 0.000000 0.002904 0.000000
# 2 -0.001244 0.010305 -0.002949 0.000000 0.001304 -0.000001
# 3 -0.003393 -0.002949 0.009992 0.000000 0.000849 0.000001
# 4 0.000000 0.000000 0.000000 -0.009115 -0.000001 -0.018251
# 5 0.002904 0.001304 0.000849 -0.000001 0.026498 0.000000
# 6 0.000000 -0.000001 0.000001 -0.018251 0.000000 0.035462
#
#
# Mechanical properties :
#
#
# Convention : Reuss Voigt Hill
#
# Bulk Modulus (GPa) = 48.34007 54.90698 51.62353
# Shear Modulus (GPa) = 45.13876 14.46346 29.80111
#
# Velocity S-wave (km/s) = 4.74336 2.68502 3.85414
# Velocity P-wave (km/s) = 7.35489 6.08119 6.74815
#
# Compressibility (1/GPa) = 0.02068677
#
# Stress axis : x y z
#
# Youngs Moduli (GPa) = 64.26507 97.04095 100.07788
#
# Poissons Ratio (x) = 0.12068 0.33953
# Poissons Ratio (y) = 0.07992 0.29515
# Poissons Ratio (z) = 0.21803 0.28620
#
# Static dielectric constant tensor:
#      x y z
#    x 3.603550 0.000000 -0.118500 
#    y 0.000000 3.833870 -0.000020 
#    z -0.118500 -0.000020 5.543880 
# 
# 
# High freq. dielectric constant tensor:
#      x y z
#    x 1.781160 0.000000 -0.002570 
#    y 0.000000 1.802720 0.000000 
#    z -0.002570 0.000000 1.790160 
# 
# From -- ./inp_files/80772.got.cif
#   From: 2010.06.25/outbox.cif.g09.slc.cpg/sg12_41_cif.got.tgz:80772.got - 2010.06.28 00:19:55.
