data_PCOD8112480
_publ_section_title
;
Structure prediction by ZEFSAII (Michael W. Deem and Ramdas Pophale) SiO2 
 PCOD8112480
Probable space group: C 2/M
;
_chemical_formula_sum "Si O2"
_cell_formula_units_Z 52
_cell_length_a 17.202223
_cell_length_b 12.893960
_cell_length_c 14.175099
_cell_angle_alpha 90.000000
_cell_angle_beta 52.432810
_cell_angle_gamma 90.000000
_cell_volume 2492.139677
_symmetry_space_group_name_H-M "C 2/M"
_symmetry_group_IT_number 12
_symmetry_cell_setting 'monoclinic'
loop_
_space_group_symop_operation_xyz
x,y,z
-x,y,-z
-x,-y,-z
x,-y,z
1/2+x,1/2+y,z
1/2-x,1/2+y,-z
1/2-x,1/2-y,-z
1/2+x,1/2-y,z
loop_
_atom_site_type_symbol
_atom_site_label
_atom_site_fract_x
_atom_site_fract_y
_atom_site_fract_z
Si Si1 0.190058 0.215549 0.136381
Si Si2 0.498254 0.623608 0.815556
Si Si3 0.857823 0.383367 0.680012
Si Si4 0.583395 0.114920 0.560512
Si Si5 0.326309 0.758248 0.359560
Si Si6 0.317992 0.119625 0.187051
Si Si7 0.500000 0.257986 0.000000
O O1 0.079940 0.175777 0.198449
O O2 0.195459 0.312205 0.204605
O O3 0.244753 0.123456 0.151975
O O4 0.250000 0.250000 0.000000
O O5 0.488776 0.500000 0.817815
O O6 0.612892 0.653732 0.711753
O O7 0.467021 0.666290 0.940597
O O8 0.815291 0.500000 0.722620
O O9 0.845661 0.343337 0.579247
O O10 0.972571 0.383860 0.610889
O O11 0.588143 0.173288 0.655906
O O12 0.620952 0.000000 0.551908
O O13 0.250000 0.750000 0.500000
O O14 0.276346 0.819880 0.309783
O O15 0.339157 0.000000 0.195388
O O16 0.415976 0.180012 0.091063
#
# Coordination Sequence:
#
# PCOD8112480 Si02
#       7
#     8   8   8   8   8   8   4
#     4  12  23  42  61  93 134 171 216 259 319 384
#     4  11  24  43  66  91 128 171 214 265 321 382
#     4   9  19  35  60  92 118 156 208 258 313 367
#     4   9  17  35  62  87 117 153 201 261 315 367
#     4  11  23  41  64  92 127 168 214 263 320 386
#     4  11  24  41  65  95 129 167 212 267 324 381
#     4  10  22  46  64  92 124 166 218 268 312 382
#
# _framework density 20.865604999999999
#
# number of rings (size 3 to 8) (size 9 to 14) (size 15 to 20)
#    0.000    1.538    3.077    3.231    0.000    2.462 
#    0.000    2.308    0.000    2.769    0.000    0.000 
#    0.000    0.000    0.000    0.000    0.000    0.000 
#
# Total GULP energy -322152.872129 kJ/mol
# GULP energy per Si atom -12390.495082 kJ/mol
# Density = 2.081811 g / cm^3
# Si number density = 20.865605 Si / 1000 Ang^3
#
#
#
# Elastic Constant Matrix: (Units=GPa)
#
#
# Indices 1 2 3 4 5 6 
#
# 1 63.6659 17.8029 12.8691 0.0000 21.7637 0.0000
# 2 17.8029 113.1519 42.5272 0.0000 6.9121 0.0000
# 3 12.8691 42.5272 108.5349 0.0000 13.0853 0.0000
# 4 0.0000 0.0000 0.0000 23.3877 0.0000 3.5569
# 5 21.7637 6.9121 13.0853 0.0000 33.6978 0.0000
# 6 0.0000 0.0000 0.0000 3.5569 0.0000 25.4172
#
#
#
# Elastic Compliance Matrix: (Units=1/GPa)
#
#
# Indices 1 2 3 4 5 6 
#
# 1 0.020826 -0.002514 0.000079 0.000000 -0.012966 0.000000
# 2 -0.002514 0.010678 -0.004005 0.000000 0.000989 0.000000
# 3 0.000079 -0.004005 0.011205 0.000000 -0.003581 0.000000
# 4 0.000000 0.000000 0.000000 0.043687 0.000000 -0.006114
# 5 -0.012966 0.000989 -0.003581 0.000000 0.039237 0.000000
# 6 0.000000 0.000000 0.000000 -0.006114 0.000000 0.040199
#
#
# Mechanical properties :
#
#
# Convention : Reuss Voigt Hill
#
# Bulk Modulus (GPa) = 33.52474 47.97233 40.74853
# Shear Modulus (GPa) = 26.50315 30.64411 28.57363
#
# Velocity S-wave (km/s) = 3.56783 3.83644 3.70457
# Velocity P-wave (km/s) = 5.75104 6.53188 6.15385
#
# Compressibility (1/GPa) = 0.02982872
#
# Stress axis : x y z
#
# Youngs Moduli (GPa) = 48.01619 93.64905 89.24375
#
# Poissons Ratio (x) = 0.23547 -0.00705
# Poissons Ratio (y) = 0.12073 0.35743
# Poissons Ratio (z) = -0.00379 0.37507
#
# Static dielectric constant tensor:
#      x y z
#    x 4.264900 0.000000 0.614100 
#    y 0.000000 3.908450 0.000000 
#    z 0.614100 0.000000 4.383120 
# 
# 
# High freq. dielectric constant tensor:
#      x y z
#    x 1.828880 0.000000 0.013280 
#    y 0.000000 1.812250 0.000000 
#    z 0.013280 0.000000 1.821570 
# 
# From -- ./inp_files/232316.got.cif
#   From: 2010.06.25/outbox.cif.g09.slc.cpg/sg12_117_cif.got.tgz:232316.got - 2010.06.28 00:19:55.
