data_PCOD8112170
_publ_section_title
;
Structure prediction by ZEFSAII (Michael W. Deem and Ramdas Pophale) SiO2 
 PCOD8112170
Probable space group: C 2/M
;
_chemical_formula_sum "Si O2"
_cell_formula_units_Z 64
_cell_length_a 19.852125
_cell_length_b 8.486577
_cell_length_c 23.872249
_cell_angle_alpha 90.000000
_cell_angle_beta 128.333822
_cell_angle_gamma 90.000000
_cell_volume 3154.831889
_symmetry_space_group_name_H-M "C 2/M"
_symmetry_group_IT_number 12
_symmetry_cell_setting 'monoclinic'
loop_
_space_group_symop_operation_xyz
x,y,z
-x,y,-z
-x,-y,-z
x,-y,z
1/2+x,1/2+y,z
1/2-x,1/2+y,-z
1/2-x,1/2-y,-z
1/2+x,1/2-y,z
loop_
_atom_site_type_symbol
_atom_site_label
_atom_site_fract_x
_atom_site_fract_y
_atom_site_fract_z
Si Si1 0.211357 0.315661 0.191626
Si Si2 0.073327 0.815652 0.197077
Si Si3 0.957450 0.817388 0.604968
Si Si4 0.732155 0.186085 0.076667
Si Si5 0.357712 0.817384 0.654462
Si Si6 0.161024 0.815367 0.558956
Si Si7 0.618644 0.686230 0.926288
Si Si8 0.632752 0.181518 0.662247
O O1 0.189218 0.500000 0.180169
O O2 0.129298 0.219052 0.170950
O O3 0.231732 0.251147 0.139945
O O4 0.292977 0.288018 0.273145
O O5 0.112121 0.714008 0.267191
O O6 0.976877 0.755708 0.136564
O O7 0.076159 0.000000 0.213491
O O8 0.912854 0.789009 0.641297
O O9 0.893479 0.763450 0.522912
O O10 0.043630 0.715717 0.647258
O O11 0.981844 0.000000 0.611800
O O12 0.817636 0.250267 0.089498
O O13 0.732845 0.000000 0.076911
O O14 0.647289 0.245175 0.000928
O O15 0.258827 0.766404 0.597744
O O16 0.370080 0.000000 0.645724
O O17 0.122956 0.721662 0.591847
O O18 0.152710 0.000000 0.567297
O O19 0.622224 0.500000 0.932146
O O20 0.657682 0.000000 0.683002
#
# Coordination Sequence:
#
# PCOD8112170 Si02
#       8
#     8   8   8   8   8   8   8   8
#     4  11  23  40  62  87 121 162 203 251 302 359
#     4  11  23  39  61  89 122 163 204 246 302 360
#     4  11  24  41  63  89 121 161 204 252 308 366
#     4   9  20  39  63  90 118 156 199 242 297 355
#     4  11  23  40  62  91 124 159 205 254 303 360
#     4  10  22  42  65  88 120 162 202 249 309 365
#     4   9  20  39  62  90 122 156 196 243 296 355
#     4  12  25  40  61  91 123 159 206 255 305 363
#
# _framework density 20.286342000000001
#
# number of rings (size 3 to 8) (size 9 to 14) (size 15 to 20)
#    0.000    1.500    1.250    3.375    1.750    5.500 
#    0.000    2.500    0.000    0.000    0.000    0.000 
#    0.000    0.000    0.000    0.000    0.000    0.000 
#
# Total GULP energy -397018.914816 kJ/mol
# GULP energy per Si atom -12406.841088 kJ/mol
# Density = 2.024017 g / cm^3
# Si number density = 20.286342 Si / 1000 Ang^3
#
#
#
# Elastic Constant Matrix: (Units=GPa)
#
#
# Indices 1 2 3 4 5 6 
#
# 1 117.7805 17.8894 47.2229 0.0000 4.5607 0.0000
# 2 17.8894 34.2916 15.1013 0.0000 0.1244 0.0000
# 3 47.2229 15.1013 100.4109 0.0000 3.7848 0.0000
# 4 0.0000 0.0000 0.0000 30.9245 0.0000 -0.7330
# 5 4.5607 0.1244 3.7848 0.0000 42.5035 0.0000
# 6 0.0000 0.0000 0.0000 -0.7330 0.0000 34.2673
#
#
#
# Elastic Compliance Matrix: (Units=1/GPa)
#
#
# Indices 1 2 3 4 5 6 
#
# 1 0.010901 -0.003683 -0.004544 0.000000 -0.000754 0.000000
# 2 -0.003683 0.032479 -0.003175 0.000000 0.000583 0.000000
# 3 -0.004544 -0.003175 0.012597 0.000000 -0.000625 0.000000
# 4 0.000000 0.000000 0.000000 0.032353 0.000000 0.000692
# 5 -0.000754 0.000583 -0.000625 0.000000 0.023662 0.000000
# 6 0.000000 0.000000 0.000000 0.000692 0.000000 0.029197
#
#
# Mechanical properties :
#
#
# Convention : Reuss Voigt Hill
#
# Bulk Modulus (GPa) = 30.14461 45.87891 38.01176
# Shear Modulus (GPa) = 28.56305 33.02369 30.79337
#
# Velocity S-wave (km/s) = 3.75640 4.03907 3.90030
# Velocity P-wave (km/s) = 5.80567 6.66460 6.24991
#
# Compressibility (1/GPa) = 0.03317343
#
# Stress axis : x y z
#
# Youngs Moduli (GPa) = 91.73486 30.78927 79.38222
#
# Poissons Ratio (x) = 0.11339 0.36074
# Poissons Ratio (y) = 0.33785 0.25200
# Poissons Ratio (z) = 0.41688 0.09774
#
# Static dielectric constant tensor:
#      x y z
#    x 3.884950 0.000000 0.021990 
#    y 0.000000 3.519290 0.000000 
#    z 0.021990 0.000000 3.731400 
# 
# 
# High freq. dielectric constant tensor:
#      x y z
#    x 1.803020 0.000000 0.000610 
#    y 0.000000 1.787640 0.000000 
#    z 0.000610 0.000000 1.796730 
# 
# From -- ./inp_files/346149.got.cif
#   From: 2010.06.25/outbox.cif.g09.slc.cpg/sg12_174_cif.got.tgz:346149.got - 2010.06.28 00:19:55.
