data_PCOD8112819
_publ_section_title
;
Structure prediction by ZEFSAII (Michael W. Deem and Ramdas Pophale) SiO2 
 PCOD8112819
Probable space group: C 2/M
;
_chemical_formula_sum "Si O2"
_cell_formula_units_Z 64
_cell_length_a 19.501893
_cell_length_b 18.731279
_cell_length_c 8.296016
_cell_angle_alpha 90.000000
_cell_angle_beta 95.349289
_cell_angle_gamma 90.000000
_cell_volume 3017.298259
_symmetry_space_group_name_H-M "C 2/M"
_symmetry_group_IT_number 12
_symmetry_cell_setting 'monoclinic'
loop_
_space_group_symop_operation_xyz
x,y,z
-x,y,-z
-x,-y,-z
x,-y,z
1/2+x,1/2+y,z
1/2-x,1/2+y,-z
1/2-x,1/2-y,-z
1/2+x,1/2-y,z
loop_
_atom_site_type_symbol
_atom_site_label
_atom_site_fract_x
_atom_site_fract_y
_atom_site_fract_z
Si Si1 0.983648 0.323200 0.668037
Si Si2 0.423926 0.920060 0.910919
Si Si3 0.648063 0.309309 0.052532
Si Si4 0.248953 0.313511 0.631474
Si Si5 0.462260 0.331115 0.730432
Si Si6 0.869218 0.324539 0.157328
Si Si7 0.100600 0.080615 0.816342
Si Si8 0.650475 0.420929 0.474323
O O1 0.051303 0.315274 0.788878
O O2 0.000000 0.360891 0.500000
O O3 0.926387 0.369523 0.751943
O O4 0.960852 0.241965 0.627020
O O5 0.399938 0.000000 0.857568
O O6 0.500000 0.923831 0.000000
O O7 0.367502 0.889513 0.026968
O O8 0.703320 0.297681 0.204450
O O9 0.570798 0.308819 0.106330
O O10 0.660241 0.246786 0.928543
O O11 0.652505 0.385525 0.960675
O O12 0.250000 0.250000 0.500000
O O13 0.173732 0.334530 0.685917
O O14 0.277945 0.382402 0.547862
O O15 0.535349 0.367677 0.777367
O O16 0.415739 0.385734 0.621455
O O17 0.143366 0.077923 0.663179
O O18 0.078400 0.000000 0.863102
O O19 0.655303 0.500000 0.403682
#
# Coordination Sequence:
#
# PCOD8112819 Si02
#       8
#     8   8   8   8   8   8   8   8
#     4  11  22  35  64  98 132 164 206 263 320 389
#     4   9  20  39  61  88 121 156 200 260 326 378
#     4  11  23  38  60  88 126 160 210 265 310 371
#     4  11  26  42  64  88 120 168 221 266 313 377
#     4  11  21  35  62  97 134 175 213 254 313 389
#     4  11  22  40  63  89 121 166 212 261 321 372
#     4  11  22  37  61  95 135 175 212 256 320 383
#     4  10  23  42  62  92 134 175 219 266 312 375
#
# _framework density 21.211027999999999
#
# number of rings (size 3 to 8) (size 9 to 14) (size 15 to 20)
#    0.000    1.375    2.500    3.000    3.500    4.750 
#    0.000    0.000    0.000    3.750    0.000    0.000 
#    0.000    0.000    0.000    0.000    0.000    0.000 
#
# Total GULP energy -396627.197864 kJ/mol
# GULP energy per Si atom -12394.599933 kJ/mol
# Density = 2.116275 g / cm^3
# Si number density = 21.211028 Si / 1000 Ang^3
#
#
#
# Elastic Constant Matrix: (Units=GPa)
#
#
# Indices 1 2 3 4 5 6 
#
# 1 62.8525 39.5662 27.4566 0.0000 -22.5415 0.0000
# 2 39.5662 166.3440 57.6844 0.0000 -13.0485 0.0000
# 3 27.4566 57.6844 105.4854 0.0000 -15.7402 0.0000
# 4 0.0000 0.0000 0.0000 33.4281 0.0000 -4.8410
# 5 -22.5415 -13.0485 -15.7402 0.0000 35.6197 0.0000
# 6 0.0000 0.0000 0.0000 -4.8410 0.0000 23.6868
#
#
#
# Elastic Compliance Matrix: (Units=1/GPa)
#
#
# Indices 1 2 3 4 5 6 
#
# 1 0.023898 -0.003933 -0.002171 0.000000 0.012723 0.000000
# 2 -0.003933 0.008099 -0.003569 0.000000 -0.001100 0.000000
# 3 -0.002171 -0.003569 0.012415 0.000000 0.002805 0.000000
# 4 0.000000 0.000000 0.000000 0.030827 0.000000 0.006300
# 5 0.012723 -0.001100 0.002805 0.000000 0.036963 0.000000
# 6 0.000000 0.000000 0.000000 0.006300 0.000000 0.043505
#
#
# Mechanical properties :
#
#
# Convention : Reuss Voigt Hill
#
# Bulk Modulus (GPa) = 39.89589 64.89960 52.39775
# Shear Modulus (GPa) = 27.26157 32.54524 29.90341
#
# Velocity S-wave (km/s) = 3.58893 3.92133 3.75881
# Velocity P-wave (km/s) = 6.00198 7.15304 6.60264
#
# Compressibility (1/GPa) = 0.02506524
#
# Stress axis : x y z
#
# Youngs Moduli (GPa) = 41.84500 123.47778 80.54605
#
# Poissons Ratio (x) = 0.48569 0.17485
# Poissons Ratio (y) = 0.16459 0.28747
# Poissons Ratio (z) = 0.09084 0.44069
#
# Static dielectric constant tensor:
#      x y z
#    x 3.696590 0.000000 -0.286540 
#    y 0.000000 4.126770 0.000000 
#    z -0.286540 0.000000 4.017660 
# 
# 
# High freq. dielectric constant tensor:
#      x y z
#    x 1.809640 0.000000 -0.017980 
#    y 0.000000 1.831350 0.000000 
#    z -0.017980 0.000000 1.843860 
# 
# From -- ./inp_files/87942.got.cif
#   From: 2010.06.25/outbox.cif.g09.slc.cpg/sg12_44_cif.got.tgz:87942.got - 2010.06.28 00:19:55.
