data_PCOD8112715
_publ_section_title
;
Structure prediction by ZEFSAII (Michael W. Deem and Ramdas Pophale) SiO2 
 PCOD8112715
Probable space group: C 2/M
;
_chemical_formula_sum "Si O2"
_cell_formula_units_Z 48
_cell_length_a 24.116625
_cell_length_b 8.832064
_cell_length_c 11.519338
_cell_angle_alpha 90.000000
_cell_angle_beta 110.834903
_cell_angle_gamma 90.000000
_cell_volume 2293.170269
_symmetry_space_group_name_H-M "C 2/M"
_symmetry_group_IT_number 12
_symmetry_cell_setting 'monoclinic'
loop_
_space_group_symop_operation_xyz
x,y,z
-x,y,-z
-x,-y,-z
x,-y,z
1/2+x,1/2+y,z
1/2-x,1/2+y,-z
1/2-x,1/2-y,-z
1/2+x,1/2-y,z
loop_
_atom_site_type_symbol
_atom_site_label
_atom_site_fract_x
_atom_site_fract_y
_atom_site_fract_z
Si Si1 0.225503 0.321651 0.279307
Si Si2 0.305234 0.321760 0.977123
Si Si3 0.522230 0.174208 0.142452
Si Si4 0.362382 0.324234 0.386985
Si Si5 0.370059 0.324396 0.654047
Si Si6 0.094416 0.325975 0.803257
O O1 0.219916 0.500000 0.263468
O O2 0.190510 0.242799 0.148483
O O3 0.293896 0.271344 0.331457
O O4 0.191278 0.265270 0.368496
O O5 0.297161 0.500000 0.968574
O O6 0.250000 0.250000 0.000000
O O7 0.364650 0.280498 0.088763
O O8 0.578219 0.272667 0.221472
O O9 0.472341 0.195866 0.202966
O O10 0.542483 0.000000 0.148172
O O11 0.500000 0.231225 0.000000
O O12 0.367562 0.500000 0.356306
O O13 0.388281 0.293577 0.534309
O O14 0.401242 0.225301 0.327343
O O15 0.356942 0.500000 0.664586
O O16 0.114741 0.500000 0.830537
#
# Coordination Sequence:
#
# PCOD8112715 Si02
#       6
#     8   8   8   8   8   8
#     4  11  22  39  63  90 125 168 208 254 311 367
#     4  12  23  37  60  92 127 161 203 252 306 365
#     4  10  23  44  66  89 121 161 206 257 313 374
#     4  10  23  41  61  89 127 167 206 253 312 375
#     4  11  24  41  63  92 123 163 211 257 312 370
#     4  11  23  39  64  94 124 164 211 258 310 366
#
# _framework density 20.931721
#
# number of rings (size 3 to 8) (size 9 to 14) (size 15 to 20)
#    0.000    1.167    1.667    4.500    0.000    5.667 
#    0.000    3.333    0.000    0.000    0.000    0.000 
#    0.000    0.000    0.000    0.000    0.000    0.000 
#
# Total GULP energy -297740.643332 kJ/mol
# GULP energy per Si atom -12405.860139 kJ/mol
# Density = 2.088408 g / cm^3
# Si number density = 20.931721 Si / 1000 Ang^3
#
#
#
# Elastic Constant Matrix: (Units=GPa)
#
#
# Indices 1 2 3 4 5 6 
#
# 1 93.6261 41.9446 32.0387 0.0000 -15.9546 0.0000
# 2 41.9446 106.7308 37.6703 0.0000 -9.3242 0.0000
# 3 32.0387 37.6703 108.5114 0.0000 -8.7976 0.0000
# 4 0.0000 0.0000 0.0000 35.5036 0.0000 -5.0721
# 5 -15.9546 -9.3242 -8.7976 0.0000 30.5333 0.0000
# 6 0.0000 0.0000 0.0000 -5.0721 0.0000 32.3237
#
#
#
# Elastic Compliance Matrix: (Units=1/GPa)
#
#
# Indices 1 2 3 4 5 6 
#
# 1 0.014350 -0.004354 -0.002279 0.000000 0.005512 0.000000
# 2 -0.004354 0.012151 -0.002884 0.000000 0.000605 0.000000
# 3 -0.002279 -0.002884 0.010978 0.000000 0.001092 0.000000
# 4 0.000000 0.000000 0.000000 0.028812 0.000000 0.004521
# 5 0.005512 0.000605 0.001092 0.000000 0.036131 0.000000
# 6 0.000000 0.000000 0.000000 0.004521 0.000000 0.031646
#
#
# Mechanical properties :
#
#
# Convention : Reuss Voigt Hill
#
# Bulk Modulus (GPa) = 54.20942 59.13063 56.67002
# Shear Modulus (GPa) = 31.39712 32.81979 32.10845
#
# Velocity S-wave (km/s) = 3.87716 3.96402 3.92083
# Velocity P-wave (km/s) = 6.78215 7.01868 6.90143
#
# Compressibility (1/GPa) = 0.01844698
#
# Stress axis : x y z
#
# Youngs Moduli (GPa) = 69.68441 82.29752 91.09082
#
# Poissons Ratio (x) = 0.35831 0.20757
# Poissons Ratio (y) = 0.30339 0.26269
# Poissons Ratio (z) = 0.15879 0.23733
#
# Static dielectric constant tensor:
#      x y z
#    x 4.027880 0.000000 -0.061800 
#    y 0.000000 3.953580 0.000000 
#    z -0.061800 0.000000 3.980160 
# 
# 
# High freq. dielectric constant tensor:
#      x y z
#    x 1.822480 0.000000 -0.011920 
#    y 0.000000 1.822520 0.000000 
#    z -0.011920 0.000000 1.827300 
# 
# From -- ./inp_files/173078.got.cif
#   From: 2010.06.25/outbox.cif.g09.slc.cpg/sg12_87_cif.got.tgz:173078.got - 2010.06.28 00:19:55.
