data_PCOD8112131
_publ_section_title
;
Structure prediction by ZEFSAII (Michael W. Deem and Ramdas Pophale) SiO2 
 PCOD8112131
Probable space group: C 2/M
;
_chemical_formula_sum "Si O2"
_cell_formula_units_Z 28
_cell_length_a 27.627096
_cell_length_b 9.484536
_cell_length_c 13.100837
_cell_angle_alpha 90.000000
_cell_angle_beta 21.434884
_cell_angle_gamma 90.000000
_cell_volume 1254.500121
_symmetry_space_group_name_H-M "C 2/M"
_symmetry_group_IT_number 12
_symmetry_cell_setting 'monoclinic'
loop_
_space_group_symop_operation_xyz
x,y,z
-x,y,-z
-x,-y,-z
x,-y,z
1/2+x,1/2+y,z
1/2-x,1/2+y,-z
1/2-x,1/2-y,-z
1/2+x,1/2-y,z
loop_
_atom_site_type_symbol
_atom_site_label
_atom_site_fract_x
_atom_site_fract_y
_atom_site_fract_z
Si Si1 0.500000 0.746469 0.000000
Si Si2 0.966488 0.500000 0.400252
Si Si3 0.561923 0.000000 0.761064
Si Si4 0.306701 0.500000 0.427115
Si Si5 0.770119 0.000000 0.740617
Si Si6 0.877483 0.222803 0.680056
O O1 0.517986 0.851663 0.063442
O O2 0.374713 0.643993 0.256174
O O3 0.877195 0.500000 0.472202
O O4 0.936869 0.369351 0.528294
O O5 0.114793 0.500000 0.066420
O O6 0.667644 0.000000 0.644430
O O7 0.297568 0.500000 0.567131
O O8 0.837446 0.864547 0.659558
O O9 0.000000 0.147944 0.500000
O O10 0.750000 0.250000 0.000000
#
# Coordination Sequence:
#
# PCOD8112131 Si02
#       6
#     4   4   4   4   4   8
#     4  10  22  42  62  94 138 174 228 278 328 390
#     4  12  26  45  70 107 137 181 233 284 346 416
#     4  11  23  42  70  94 139 183 218 277 345 401
#     4  11  24  43  66  99 142 176 226 283 329 414
#     4  12  25  44  72 103 138 185 230 281 352 409
#     4  12  25  49  74 100 140 180 230 294 348 407
#
# _framework density 22.319647
#
# number of rings (size 3 to 8) (size 9 to 14) (size 15 to 20)
#    0.000    0.571    2.857    6.000    0.000    2.286 
#   10.286    0.000    0.000    0.000    0.000    0.000 
#    0.000    0.000    0.000    0.000    0.000    0.000 
#
# Total GULP energy -173499.164419 kJ/mol
# GULP energy per Si atom -12392.797459 kJ/mol
# Density = 2.226885 g / cm^3
# Si number density = 22.319647 Si / 1000 Ang^3
#
#
#
# Elastic Constant Matrix: (Units=GPa)
#
#
# Indices 1 2 3 4 5 6 
#
# 1 148.2042 31.0640 48.9522 0.0000 10.4849 0.0000
# 2 31.0640 155.1311 44.3018 0.0000 6.3325 0.0000
# 3 48.9522 44.3018 129.8006 0.0000 3.5829 0.0000
# 4 0.0000 0.0000 0.0000 7.4160 0.0000 -18.0532
# 5 10.4849 6.3325 3.5829 0.0000 32.5730 0.0000
# 6 0.0000 0.0000 0.0000 -18.0532 0.0000 13.0430
#
#
#
# Elastic Compliance Matrix: (Units=1/GPa)
#
#
# Indices 1 2 3 4 5 6 
#
# 1 0.007938 -0.000737 -0.002684 0.000000 -0.002117 0.000000
# 2 -0.000737 0.007252 -0.002172 0.000000 -0.000934 0.000000
# 3 -0.002684 -0.002172 0.009451 0.000000 0.000247 0.000000
# 4 0.000000 0.000000 0.000000 -0.056909 0.000000 -0.078769
# 5 -0.002117 -0.000934 0.000247 0.000000 0.031536 0.000000
# 6 0.000000 0.000000 0.000000 -0.078769 0.000000 -0.032357
#
#
# Mechanical properties :
#
#
# Convention : Reuss Voigt Hill
#
# Bulk Modulus (GPa) = 74.31339 75.75244 75.03291
# Shear Modulus (GPa) = -287.03479 31.19426 -127.92026
#
# Velocity S-wave (km/s) = -11.35258 3.74252 -7.57874
# Velocity P-wave (km/s) = 11.76750 7.25870 6.54925
#
# Compressibility (1/GPa) = 0.01345653
#
# Stress axis : x y z
#
# Youngs Moduli (GPa) = 125.97471 137.89415 105.81280
#
# Poissons Ratio (x) = 0.10159 0.28399
# Poissons Ratio (y) = 0.09281 0.22978
# Poissons Ratio (z) = 0.33810 0.29944
#
# Static dielectric constant tensor:
#      x y z
#    x 4.350500 0.000000 0.261230 
#    y 0.000000 4.408890 0.000000 
#    z 0.261230 0.000000 4.599630 
# 
# 
# High freq. dielectric constant tensor:
#      x y z
#    x 1.885100 0.000000 0.004580 
#    y 0.000000 1.899130 0.000000 
#    z 0.004580 0.000000 1.888020 
# 
# From -- ./inp_files/179585.got.cif
#   From: 2010.06.25/outbox.cif.g09.slc.cpg/sg12_90_cif.got.tgz:179585.got - 2010.06.28 00:19:55.
