data_PCOD8112485
_publ_section_title
;
Structure prediction by ZEFSAII (Michael W. Deem and Ramdas Pophale) SiO2 
 PCOD8112485
Probable space group: C 2/M
;
_chemical_formula_sum "Si O2"
_cell_formula_units_Z 36
_cell_length_a 7.709111
_cell_length_b 14.460255
_cell_length_c 13.847912
_cell_angle_alpha 90.000000
_cell_angle_beta 73.311729
_cell_angle_gamma 90.000000
_cell_volume 1478.686952
_symmetry_space_group_name_H-M "C 2/M"
_symmetry_group_IT_number 12
_symmetry_cell_setting 'monoclinic'
loop_
_space_group_symop_operation_xyz
x,y,z
-x,y,-z
-x,-y,-z
x,-y,z
1/2+x,1/2+y,z
1/2-x,1/2+y,-z
1/2-x,1/2-y,-z
1/2+x,1/2-y,z
loop_
_atom_site_type_symbol
_atom_site_label
_atom_site_fract_x
_atom_site_fract_y
_atom_site_fract_z
Si Si1 0.128913 0.000000 0.717954
Si Si2 0.258250 0.500000 0.852862
Si Si3 0.572183 0.819402 0.891020
Si Si4 0.871318 0.330898 0.437864
Si Si5 0.834432 0.325504 0.758669
Si Si6 0.312888 0.500000 0.631895
O O1 0.249642 0.909538 0.711931
O O2 0.976140 0.000000 0.826345
O O3 0.028113 0.000000 0.628129
O O4 0.184138 0.407116 0.913866
O O5 0.196109 0.500000 0.749531
O O6 0.690624 0.755051 0.802125
O O7 0.406573 0.856107 0.852266
O O8 0.500000 0.768222 0.000000
O O9 0.750000 0.250000 0.500000
O O10 0.736696 0.409087 0.419917
O O11 0.000000 0.373964 0.500000
O O12 0.999743 0.287884 0.333377
#
# Coordination Sequence:
#
# PCOD8112485 Si02
#       6
#     4   4   8   8   8   4
#     4  10  24  46  80  98 141 204 230 294 367 423
#     4  10  22  46  73  99 143 191 237 295 364 417
#     4  12  25  44  74 109 147 192 244 301 367 435
#     4  12  27  47  78 111 144 194 243 297 364 437
#     4  12  24  47  71 107 151 189 240 305 364 425
#     4  10  24  52  73 107 146 192 243 301 360 423
#
# _framework density 24.345924
#
# number of rings (size 3 to 8) (size 9 to 14) (size 15 to 20)
#    0.667    0.000    2.222    5.333    0.000    1.778 
#    0.000    4.444    0.000    0.000    0.000    0.000 
#    0.000    0.000    0.000    0.000    0.000    0.000 
#
# Total GULP energy -223140.097525 kJ/mol
# GULP energy per Si atom -12396.672085 kJ/mol
# Density = 2.429051 g / cm^3
# Si number density = 24.345924 Si / 1000 Ang^3
#
#
#
# Elastic Constant Matrix: (Units=GPa)
#
#
# Indices 1 2 3 4 5 6 
#
# 1 145.0929 61.0846 65.6488 0.0000 8.0095 0.0000
# 2 61.0846 155.9474 54.0045 0.0000 -13.2259 0.0000
# 3 65.6488 54.0045 142.8112 0.0000 -1.6847 0.0000
# 4 0.0000 0.0000 0.0000 32.2529 0.0000 -2.2488
# 5 8.0095 -13.2259 -1.6847 0.0000 35.9624 0.0000
# 6 0.0000 0.0000 0.0000 -2.2488 0.0000 28.8973
#
#
#
# Elastic Compliance Matrix: (Units=1/GPa)
#
#
# Indices 1 2 3 4 5 6 
#
# 1 0.009904 -0.002971 -0.003470 0.000000 -0.003461 0.000000
# 2 -0.002971 0.008518 -0.001812 0.000000 0.003710 0.000000
# 3 -0.003470 -0.001812 0.009289 0.000000 0.000542 0.000000
# 4 0.000000 0.000000 0.000000 0.031174 0.000000 0.002426
# 5 -0.003461 0.003710 0.000542 0.000000 0.029967 0.000000
# 6 0.000000 0.000000 0.000000 0.002426 0.000000 0.034794
#
#
# Mechanical properties :
#
#
# Convention : Reuss Voigt Hill
#
# Bulk Modulus (GPa) = 89.24280 89.48081 89.36180
# Shear Modulus (GPa) = 34.74928 36.96344 35.85636
#
# Velocity S-wave (km/s) = 3.78208 3.90071 3.84185
# Velocity P-wave (km/s) = 7.47047 7.55785 7.51429
#
# Compressibility (1/GPa) = 0.01120539
#
# Stress axis : x y z
#
# Youngs Moduli (GPa) = 100.96711 117.39509 107.65611
#
# Poissons Ratio (x) = 0.34882 0.37357
# Poissons Ratio (y) = 0.30001 0.19502
# Poissons Ratio (z) = 0.35036 0.21267
#
# Static dielectric constant tensor:
#      x y z
#    x 4.632640 0.000000 0.002210 
#    y 0.000000 4.017360 0.000000 
#    z 0.002210 0.000000 4.378790 
# 
# 
# High freq. dielectric constant tensor:
#      x y z
#    x 1.980010 0.000000 0.000250 
#    y 0.000000 1.950750 0.000000 
#    z 0.000250 0.000000 1.973670 
# 
# From -- ./inp_files/194003.got.cif
#   From: 2010.06.25/outbox.cif.g09.slc.cpg/sg12_98_cif.got.tgz:194003.got - 2010.06.28 00:19:55.
