data_PCOD8112966
_publ_section_title
;
Structure prediction by ZEFSAII (Michael W. Deem and Ramdas Pophale) SiO2 
 PCOD8112966
Probable space group: C 2/M
;
_chemical_formula_sum "Si O2"
_cell_formula_units_Z 20
_cell_length_a 9.987460
_cell_length_b 16.942102
_cell_length_c 5.325366
_cell_angle_alpha 90.000000
_cell_angle_beta 105.981189
_cell_angle_gamma 90.000000
_cell_volume 866.272052
_symmetry_space_group_name_H-M "C 2/M"
_symmetry_group_IT_number 12
_symmetry_cell_setting 'monoclinic'
loop_
_space_group_symop_operation_xyz
x,y,z
-x,y,-z
-x,-y,-z
x,-y,z
1/2+x,1/2+y,z
1/2-x,1/2+y,-z
1/2-x,1/2-y,-z
1/2+x,1/2-y,z
loop_
_atom_site_type_symbol
_atom_site_label
_atom_site_fract_x
_atom_site_fract_y
_atom_site_fract_z
Si Si1 0.500000 0.202470 0.000000
Si Si2 0.924900 0.146259 0.715731
Si Si3 0.360250 0.911145 0.269843
O O1 0.432208 0.258075 0.748155
O O2 0.624819 0.147728 0.958954
O O3 0.766998 0.116277 0.621566
O O4 0.000000 0.118697 0.500000
O O5 0.000000 0.107547 0.000000
O O6 0.500000 0.905692 0.500000
O O7 0.336517 0.000000 0.158026
#
# Coordination Sequence:
#
# PCOD8112966 Si02
#       3
#     4   8   8
#     4  10  23  42  73  96 136 176 230 274 331 400
#     4  10  25  45  72  99 133 179 229 274 331 399
#     4  11  25  43  68 101 139 177 222 280 340 398
#
# _framework density 23.087434999999999
#
# number of rings (size 3 to 8) (size 9 to 14) (size 15 to 20)
#    1.200    0.400    0.000    3.000    5.600    4.800 
#    0.000    0.000    0.000    0.000    0.000    0.000 
#    0.000    0.000    0.000    0.000    0.000    0.000 
#
# Total GULP energy -123981.359800 kJ/mol
# GULP energy per Si atom -12398.135980 kJ/mol
# Density = 2.303489 g / cm^3
# Si number density = 23.087435 Si / 1000 Ang^3
#
#
#
# Elastic Constant Matrix: (Units=GPa)
#
#
# Indices 1 2 3 4 5 6 
#
# 1 220.3003 60.4008 64.8264 0.0000 -14.6840 0.0000
# 2 60.4008 107.8088 21.6882 0.0000 12.0983 0.0000
# 3 64.8264 21.6882 103.3572 0.0000 -20.3611 0.0000
# 4 0.0000 0.0000 0.0000 13.4242 0.0000 1.6704
# 5 -14.6840 12.0983 -20.3611 0.0000 33.5409 0.0000
# 6 0.0000 0.0000 0.0000 1.6704 0.0000 16.2346
#
#
#
# Elastic Compliance Matrix: (Units=1/GPa)
#
#
# Indices 1 2 3 4 5 6 
#
# 1 0.006443 -0.003274 -0.002914 0.000000 0.002233 0.000000
# 2 -0.003274 0.012282 -0.001907 0.000000 -0.007021 0.000000
# 3 -0.002914 -0.001907 0.013388 0.000000 0.007539 0.000000
# 4 0.000000 0.000000 0.000000 0.075459 0.000000 -0.007764
# 5 0.002233 -0.007021 0.007539 0.000000 0.037901 0.000000
# 6 0.000000 0.000000 0.000000 -0.007764 0.000000 0.062396
#
#
# Mechanical properties :
#
#
# Convention : Reuss Voigt Hill
#
# Bulk Modulus (GPa) = 62.80290 80.58855 71.69573
# Shear Modulus (GPa) = 21.79915 31.61001 26.70458
#
# Velocity S-wave (km/s) = 3.07612 3.70421 3.40468
# Velocity P-wave (km/s) = 6.31490 7.29907 6.82475
#
# Compressibility (1/GPa) = 0.01592283
#
# Stress axis : x y z
#
# Youngs Moduli (GPa) = 155.19742 81.42313 74.69122
#
# Poissons Ratio (x) = 0.26660 0.21769
# Poissons Ratio (y) = 0.50815 0.14241
# Poissons Ratio (z) = 0.45232 0.15524
#
# Static dielectric constant tensor:
#      x y z
#    x 4.143010 0.000000 -0.205860 
#    y 0.000000 4.247000 0.000000 
#    z -0.205860 0.000000 3.764370 
# 
# 
# High freq. dielectric constant tensor:
#      x y z
#    x 1.918160 0.000000 -0.009140 
#    y 0.000000 1.911280 0.000000 
#    z -0.009140 0.000000 1.889520 
# 
# From -- ./inp_files/1769.got.cif
#   From: 2010.06.25/outbox.cif.g09.slc.cpg/sg12_1_cif.got.tgz:1769.got - 2010.06.28 00:19:55.
