data_PCOD8112086
_publ_section_title
;
Structure prediction by ZEFSAII (Michael W. Deem and Ramdas Pophale) SiO2 
 PCOD8112086
Probable space group: C 2/M
;
_chemical_formula_sum "Si O2"
_cell_formula_units_Z 36
_cell_length_a 25.215273
_cell_length_b 10.643369
_cell_length_c 6.527918
_cell_angle_alpha 90.000000
_cell_angle_beta 64.017269
_cell_angle_gamma 90.000000
_cell_volume 1574.858320
_symmetry_space_group_name_H-M "C 2/M"
_symmetry_group_IT_number 12
_symmetry_cell_setting 'monoclinic'
loop_
_space_group_symop_operation_xyz
x,y,z
-x,y,-z
-x,-y,-z
x,-y,z
1/2+x,1/2+y,z
1/2-x,1/2+y,-z
1/2-x,1/2-y,-z
1/2+x,1/2-y,z
loop_
_atom_site_type_symbol
_atom_site_label
_atom_site_fract_x
_atom_site_fract_y
_atom_site_fract_z
Si Si1 0.580656 0.859902 0.687348
Si Si2 0.500000 0.251715 0.500000
Si Si3 0.290403 0.206476 0.617736
Si Si4 0.925071 0.147028 0.979800
Si Si5 0.814287 0.135504 0.945237
O O1 0.550152 0.836331 0.518675
O O2 0.651920 0.867520 0.550694
O O3 0.561862 0.000000 0.798519
O O4 0.558124 0.745736 0.869790
O O5 0.529172 0.342307 0.282727
O O6 0.250000 0.250000 0.500000
O O7 0.312767 0.323664 0.712382
O O8 0.250518 0.127652 0.844415
O O9 0.861378 0.203365 0.013751
O O10 0.924661 0.000000 0.058741
O O11 0.843059 0.000000 0.879757
#
# Coordination Sequence:
#
# PCOD8112086 Si02
#       5
#     8   4   8   8   8
#     4  12  27  46  71 105 142 183 229 283 347 414
#     4  12  26  48  70 100 136 190 234 288 334 406
#     4  11  22  43  67 101 135 180 223 283 344 414
#     4  11  25  47  73 101 136 180 233 288 343 407
#     4  10  22  41  67  99 134 175 227 282 343 409
#
# _framework density 22.859200000000001
#
# number of rings (size 3 to 8) (size 9 to 14) (size 15 to 20)
#    0.000    0.889    4.444    2.000    0.000    8.000 
#    0.000    0.000    0.000    0.000    0.000    0.000 
#    0.000    0.000    0.000    0.000    0.000    0.000 
#
# Total GULP energy -222999.475034 kJ/mol
# GULP energy per Si atom -12388.859724 kJ/mol
# Density = 2.280717 g / cm^3
# Si number density = 22.859200 Si / 1000 Ang^3
#
#
#
# Elastic Constant Matrix: (Units=GPa)
#
#
# Indices 1 2 3 4 5 6 
#
# 1 141.0357 31.1073 27.8489 0.0000 16.7668 0.0000
# 2 31.1073 142.4671 52.9242 0.0000 16.6095 0.0000
# 3 27.8489 52.9242 99.1294 0.0000 2.7984 0.0000
# 4 0.0000 0.0000 0.0000 16.3419 0.0000 9.5074
# 5 16.7668 16.6095 2.7984 0.0000 54.0937 0.0000
# 6 0.0000 0.0000 0.0000 9.5074 0.0000 0.2521
#
#
#
# Elastic Compliance Matrix: (Units=1/GPa)
#
#
# Indices 1 2 3 4 5 6 
#
# 1 0.007860 -0.000841 -0.001700 0.000000 -0.002090 0.000000
# 2 -0.000841 0.009182 -0.004601 0.000000 -0.002321 0.000000
# 3 -0.001700 -0.004601 0.012986 0.000000 0.001268 0.000000
# 4 0.000000 0.000000 0.000000 -0.002923 0.000000 0.110205
# 5 -0.002090 -0.002321 0.001268 0.000000 0.019781 0.000000
# 6 0.000000 0.000000 0.000000 0.110205 0.000000 -0.189425
#
#
# Mechanical properties :
#
#
# Convention : Reuss Voigt Hill
#
# Bulk Modulus (GPa) = 63.51282 67.37701 65.44492
# Shear Modulus (GPa) = -40.64825 32.18766 -4.23029
#
# Velocity S-wave (km/s) = -4.22145 3.75651 -1.36184
# Velocity P-wave (km/s) = 2.02086 6.95370 5.12044
#
# Compressibility (1/GPa) = 0.01574485
#
# Stress axis : x y z
#
# Youngs Moduli (GPa) = 127.22505 108.90383 77.00658
#
# Poissons Ratio (x) = 0.09158 0.13093
# Poissons Ratio (y) = 0.10699 0.35428
# Poissons Ratio (z) = 0.21631 0.50103
#
# Static dielectric constant tensor:
#      x y z
#    x 4.447960 0.000000 0.000270 
#    y 0.000000 3.889700 0.000000 
#    z 0.000270 0.000000 3.972820 
# 
# 
# High freq. dielectric constant tensor:
#      x y z
#    x 1.934070 0.000000 -0.000720 
#    y 0.000000 1.883710 0.000000 
#    z -0.000720 0.000000 1.894880 
# 
# From -- ./inp_files/23652.got.cif
#   From: 2010.06.25/outbox.cif.g09.slc.cpg/sg12_12_cif.got.tgz:23652.got - 2010.06.28 00:19:55.
