data_PCOD8112012
_publ_section_title
;
Structure prediction by ZEFSAII (Michael W. Deem and Ramdas Pophale) SiO2 
 PCOD8112012
Probable space group: C 2/M
;
_chemical_formula_sum "Si O2"
_cell_formula_units_Z 40
_cell_length_a 13.862162
_cell_length_b 13.032757
_cell_length_c 10.328936
_cell_angle_alpha 90.000000
_cell_angle_beta 118.004333
_cell_angle_gamma 90.000000
_cell_volume 1647.556498
_symmetry_space_group_name_H-M "C 2/M"
_symmetry_group_IT_number 12
_symmetry_cell_setting 'monoclinic'
loop_
_space_group_symop_operation_xyz
x,y,z
-x,y,-z
-x,-y,-z
x,-y,z
1/2+x,1/2+y,z
1/2-x,1/2+y,-z
1/2-x,1/2-y,-z
1/2+x,1/2-y,z
loop_
_atom_site_type_symbol
_atom_site_label
_atom_site_fract_x
_atom_site_fract_y
_atom_site_fract_z
Si Si1 0.131941 0.116166 0.716600
Si Si2 0.288903 0.617411 0.799552
Si Si3 0.329254 0.118254 0.014632
Si Si4 0.351605 0.218975 0.481822
Si Si5 0.514918 0.739899 0.202324
O O1 0.107815 0.184733 0.576802
O O2 0.054869 0.143973 0.789218
O O3 0.108347 0.000000 0.661101
O O4 0.258654 0.130708 0.839345
O O5 0.329053 0.500000 0.830201
O O6 0.244008 0.656670 0.909512
O O7 0.186458 0.625720 0.634592
O O8 0.388798 0.692184 0.824594
O O9 0.440039 0.183889 0.070849
O O10 0.361859 0.000000 0.057484
O O11 0.250000 0.250000 0.500000
O O12 0.445268 0.193539 0.646183
#
# Coordination Sequence:
#
# PCOD8112012 Si02
#       5
#     8   8   8   8   8
#     4  11  23  41  66  97 134 174 217 273 331 391
#     4  10  22  41  65  97 131 170 220 272 326 390
#     4  10  23  43  68  98 135 175 216 270 334 391
#     4  10  23  40  61  95 131 172 220 271 328 386
#     4  11  22  40  69  99 130 176 222 270 326 392
#
# _framework density 24.278379999999999
#
# number of rings (size 3 to 8) (size 9 to 14) (size 15 to 20)
#    0.000    1.600    2.000    1.800    0.000    6.400 
#    3.600    8.000    0.000    9.600    0.000    0.000 
#    0.000    0.000    0.000    0.000    0.000    0.000 
#
# Total GULP energy -247961.201229 kJ/mol
# GULP energy per Si atom -12398.060061 kJ/mol
# Density = 2.422312 g / cm^3
# Si number density = 24.278380 Si / 1000 Ang^3
#
#
#
# Elastic Constant Matrix: (Units=GPa)
#
#
# Indices 1 2 3 4 5 6 
#
# 1 101.5914 50.3201 20.7051 0.0000 6.2095 0.0000
# 2 50.3201 61.3463 -4.0373 0.0000 0.0682 0.0000
# 3 20.7051 -4.0373 76.2850 0.0000 9.5943 0.0000
# 4 0.0000 0.0000 0.0000 15.9037 0.0000 -4.6085
# 5 6.2095 0.0682 9.5943 0.0000 37.7271 0.0000
# 6 0.0000 0.0000 0.0000 -4.6085 0.0000 26.5253
#
#
#
# Elastic Compliance Matrix: (Units=1/GPa)
#
#
# Indices 1 2 3 4 5 6 
#
# 1 0.019062 -0.016017 -0.005816 0.000000 -0.001629 0.000000
# 2 -0.016017 0.029818 0.005786 0.000000 0.001111 0.000000
# 3 -0.005816 0.005786 0.015366 0.000000 -0.002961 0.000000
# 4 0.000000 0.000000 0.000000 0.066212 0.000000 0.011504
# 5 -0.001629 0.001111 -0.002961 0.000000 0.027525 0.000000
# 6 0.000000 0.000000 0.000000 0.011504 0.000000 0.039698
#
#
# Mechanical properties :
#
#
# Convention : Reuss Voigt Hill
#
# Bulk Modulus (GPa) = 31.10322 41.46652 36.28487
# Shear Modulus (GPa) = 20.79057 27.51353 24.15205
#
# Velocity S-wave (km/s) = 2.92951 3.37003 3.15746
# Velocity P-wave (km/s) = 4.92763 5.67975 5.31700
#
# Compressibility (1/GPa) = 0.03215101
#
# Stress axis : x y z
#
# Youngs Moduli (GPa) = 52.46125 33.53649 65.07874
#
# Poissons Ratio (x) = 0.53714 0.37853
# Poissons Ratio (y) = 0.84025 -0.37652
# Poissons Ratio (z) = 0.30514 -0.19403
#
# Static dielectric constant tensor:
#      x y z
#    x 4.269470 0.000000 0.359860 
#    y 0.000000 4.388970 0.000000 
#    z 0.359860 0.000000 5.718960 
# 
# 
# High freq. dielectric constant tensor:
#      x y z
#    x 1.969010 0.000000 0.002230 
#    y 0.000000 1.945730 0.000000 
#    z 0.002230 0.000000 1.981830 
# 
# From -- ./inp_files/142215.got.cif
#   From: 2010.06.25/outbox.cif.g09.slc.cpg/sg12_72_cif.got.tgz:142215.got - 2010.06.28 00:19:55.
