data_PCOD8112006
_publ_section_title
;
Structure prediction by ZEFSAII (Michael W. Deem and Ramdas Pophale) SiO2 
 PCOD8112006
Probable space group: C 2/M
;
_chemical_formula_sum "Si O2"
_cell_formula_units_Z 40
_cell_length_a 8.873183
_cell_length_b 18.369102
_cell_length_c 11.029467
_cell_angle_alpha 90.000000
_cell_angle_beta 81.862262
_cell_angle_gamma 90.000000
_cell_volume 1779.617450
_symmetry_space_group_name_H-M "C 2/M"
_symmetry_group_IT_number 12
_symmetry_cell_setting 'monoclinic'
loop_
_space_group_symop_operation_xyz
x,y,z
-x,y,-z
-x,-y,-z
x,-y,z
1/2+x,1/2+y,z
1/2-x,1/2+y,-z
1/2-x,1/2-y,-z
1/2+x,1/2-y,z
loop_
_atom_site_type_symbol
_atom_site_label
_atom_site_fract_x
_atom_site_fract_y
_atom_site_fract_z
Si Si1 0.271373 0.203183 0.618321
Si Si2 0.445366 0.810874 0.261448
Si Si3 0.208891 0.329760 0.050107
Si Si4 0.380281 0.414155 0.240449
Si Si5 0.235858 0.083552 0.193394
O O1 0.250000 0.250000 0.500000
O O2 0.449262 0.200347 0.632158
O O3 0.203445 0.120632 0.630205
O O4 0.171799 0.242935 0.735837
O O5 0.543679 0.820267 0.129471
O O6 0.335578 0.881243 0.291218
O O7 0.323521 0.371435 0.128048
O O8 0.250000 0.250000 0.000000
O O9 0.201062 0.381549 0.935988
O O10 0.341642 0.500000 0.235911
O O11 0.559057 0.400651 0.234627
O O12 0.274401 0.000000 0.185122
#
# Coordination Sequence:
#
# PCOD8112006 Si02
#       5
#     8   8   8   8   8
#     4  11  23  43  68  91 119 160 214 272 329 381
#     4  11  24  38  61  92 125 163 211 270 318 379
#     4  11  22  37  62  95 133 176 217 257 308 377
#     4  10  22  41  65  94 131 172 217 264 313 379
#     4  11  23  39  61  94 135 174 209 252 312 383
#
# _framework density 22.476739999999999
#
# number of rings (size 3 to 8) (size 9 to 14) (size 15 to 20)
#    0.000    1.200    0.000    7.200    0.000    9.600 
#    0.000    1.000    0.000   10.800    0.000    0.000 
#    0.000    0.000    0.000    0.000    0.000    0.000 
#
# Total GULP energy -247816.217350 kJ/mol
# GULP energy per Si atom -12390.810867 kJ/mol
# Density = 2.242558 g / cm^3
# Si number density = 22.476740 Si / 1000 Ang^3
#
#
#
# Elastic Constant Matrix: (Units=GPa)
#
#
# Indices 1 2 3 4 5 6 
#
# 1 145.9691 95.6441 35.0538 0.0000 24.3946 0.0000
# 2 95.6441 176.3156 52.2001 0.0000 19.0972 0.0000
# 3 35.0538 52.2001 79.9422 0.0000 16.6727 0.0000
# 4 0.0000 0.0000 0.0000 36.6276 0.0000 -0.4723
# 5 24.3946 19.0972 16.6727 0.0000 27.6786 0.0000
# 6 0.0000 0.0000 0.0000 -0.4723 0.0000 47.2735
#
#
#
# Elastic Compliance Matrix: (Units=1/GPa)
#
#
# Indices 1 2 3 4 5 6 
#
# 1 0.011576 -0.005559 -0.000135 0.000000 -0.006286 0.000000
# 2 -0.005559 0.009840 -0.004110 0.000000 0.000585 0.000000
# 3 -0.000135 -0.004110 0.016739 0.000000 -0.007128 0.000000
# 4 0.000000 0.000000 0.000000 0.027305 0.000000 0.000273
# 5 -0.006286 0.000585 -0.007128 0.000000 0.045559 0.000000
# 6 0.000000 0.000000 0.000000 0.000273 0.000000 0.021156
#
#
# Mechanical properties :
#
#
# Convention : Reuss Voigt Hill
#
# Bulk Modulus (GPa) = 53.91764 85.33587 69.62676
# Shear Modulus (GPa) = 31.65240 36.93788 34.29514
#
# Velocity S-wave (km/s) = 3.75671 4.05826 3.91039
# Velocity P-wave (km/s) = 6.54656 7.74649 7.17166
#
# Compressibility (1/GPa) = 0.01854680
#
# Stress axis : x y z
#
# Youngs Moduli (GPa) = 86.38617 101.62167 59.74129
#
# Poissons Ratio (x) = 0.56487 0.00809
# Poissons Ratio (y) = 0.48018 0.24555
# Poissons Ratio (z) = 0.01169 0.41769
#
# Static dielectric constant tensor:
#      x y z
#    x 4.292330 0.000000 -0.103510 
#    y 0.000000 4.498720 0.000000 
#    z -0.103510 0.000000 3.893280 
# 
# 
# High freq. dielectric constant tensor:
#      x y z
#    x 1.911820 0.000000 0.001120 
#    y 0.000000 1.896910 0.000000 
#    z 0.001120 0.000000 1.865710 
# 
# From -- ./inp_files/119037.got.cif
#   From: 2010.06.25/outbox.cif.g09.slc.cpg/sg12_60_cif.got.tgz:119037.got - 2010.06.28 00:19:55.
