data_PCOD8112815
_publ_section_title
;
Structure prediction by ZEFSAII (Michael W. Deem and Ramdas Pophale) SiO2 
 PCOD8112815
Probable space group: C 2/M
;
_chemical_formula_sum "Si O2"
_cell_formula_units_Z 60
_cell_length_a 14.853521
_cell_length_b 16.738531
_cell_length_c 12.910581
_cell_angle_alpha 90.000000
_cell_angle_beta 72.982382
_cell_angle_gamma 90.000000
_cell_volume 3069.361261
_symmetry_space_group_name_H-M "C 2/M"
_symmetry_group_IT_number 12
_symmetry_cell_setting 'monoclinic'
loop_
_space_group_symop_operation_xyz
x,y,z
-x,y,-z
-x,-y,-z
x,-y,z
1/2+x,1/2+y,z
1/2-x,1/2+y,-z
1/2-x,1/2-y,-z
1/2+x,1/2-y,z
loop_
_atom_site_type_symbol
_atom_site_label
_atom_site_fract_x
_atom_site_fract_y
_atom_site_fract_z
Si Si1 0.661848 0.653824 0.678245
Si Si2 0.040416 0.589862 0.656747
Si Si3 0.805949 0.092082 0.740060
Si Si4 0.632088 0.864326 0.413692
Si Si5 0.870539 0.691224 0.193598
Si Si6 0.500000 0.282761 0.000000
Si Si7 0.892781 0.816960 0.533464
Si Si8 0.474958 0.591130 0.836128
O O1 0.761466 0.607670 0.647195
O O2 0.677335 0.732114 0.740411
O O3 0.642044 0.685152 0.570993
O O4 0.578468 0.598809 0.750752
O O5 0.056834 0.500000 0.691104
O O6 0.108309 0.606236 0.536868
O O7 0.060657 0.648590 0.746201
O O8 0.933353 0.598327 0.653203
O O9 0.712900 0.133909 0.817145
O O10 0.826851 0.121455 0.617059
O O11 0.897096 0.111089 0.777349
O O12 0.781667 0.000000 0.743981
O O13 0.616973 0.769551 0.412084
O O14 0.925393 0.721988 0.074254
O O15 0.544304 0.343021 0.069526
O O16 0.000000 0.846954 0.500000
O O17 0.464210 0.500000 0.881632
#
# Coordination Sequence:
#
# PCOD8112815 Si02
#       8
#     8   8   8   8   8   4   8   8
#     4  11  21  34  60  90 122 164 202 241 288 354
#     4  11  23  38  58  87 128 163 195 244 298 351
#     4  11  24  39  61  91 127 161 193 242 305 360
#     4  11  20  34  59  90 125 164 206 234 283 354
#     4  11  22  42  63  89 115 155 206 250 306 352
#     4  10  25  42  69  88 108 152 208 258 307 358
#     4  12  19  34  59  90 130 165 203 240 279 352
#     4  10  23  42  62  89 122 153 196 254 308 357
#
# _framework density 19.548041000000001
#
# number of rings (size 3 to 8) (size 9 to 14) (size 15 to 20)
#    0.000    1.067    5.333    2.600    1.867    2.400 
#    0.000    2.667    0.000    3.200    0.000    0.000 
#    0.000    0.000    0.000    0.000    0.000    0.000 
#
# Total GULP energy -372014.029676 kJ/mol
# GULP energy per Si atom -12400.467656 kJ/mol
# Density = 1.950355 g / cm^3
# Si number density = 19.548041 Si / 1000 Ang^3
#
#
#
# Elastic Constant Matrix: (Units=GPa)
#
#
# Indices 1 2 3 4 5 6 
#
# 1 131.6539 37.3352 47.7161 0.0000 -19.1633 0.0000
# 2 37.3352 98.8665 39.8245 0.0000 -13.4942 0.0000
# 3 47.7161 39.8245 93.7647 0.0000 -19.8811 0.0000
# 4 0.0000 0.0000 0.0000 23.5627 0.0000 -1.7252
# 5 -19.1633 -13.4942 -19.8811 0.0000 18.0231 0.0000
# 6 0.0000 0.0000 0.0000 -1.7252 0.0000 22.9740
#
#
#
# Elastic Compliance Matrix: (Units=1/GPa)
#
#
# Indices 1 2 3 4 5 6 
#
# 1 0.010093 -0.001734 -0.003132 0.000000 0.005978 0.000000
# 2 -0.001734 0.012781 -0.003796 0.000000 0.003539 0.000000
# 3 -0.003132 -0.003796 0.016398 0.000000 0.011916 0.000000
# 4 0.000000 0.000000 0.000000 0.042675 0.000000 0.003205
# 5 0.005978 0.003539 0.011916 0.000000 0.077634 0.000000
# 6 0.000000 0.000000 0.000000 0.003205 0.000000 0.043768
#
#
# Mechanical properties :
#
#
# Convention : Reuss Voigt Hill
#
# Bulk Modulus (GPa) = 45.56207 63.78183 54.67195
# Shear Modulus (GPa) = 21.93090 26.20592 24.06841
#
# Velocity S-wave (km/s) = 3.35311 3.66538 3.51272
# Velocity P-wave (km/s) = 6.19269 7.11424 6.66940
#
# Compressibility (1/GPa) = 0.02194808
#
# Stress axis : x y z
#
# Youngs Moduli (GPa) = 99.08141 78.23839 60.98413
#
# Poissons Ratio (x) = 0.13564 0.19101
# Poissons Ratio (y) = 0.17178 0.23150
# Poissons Ratio (z) = 0.31034 0.29699
#
# Static dielectric constant tensor:
#      x y z
#    x 3.818440 0.000000 -0.151860 
#    y 0.000000 3.619190 0.000000 
#    z -0.151860 0.000000 3.557000 
# 
# 
# High freq. dielectric constant tensor:
#      x y z
#    x 1.771450 0.000000 0.001240 
#    y 0.000000 1.768300 0.000000 
#    z 0.001240 0.000000 1.739240 
# 
# From -- ./inp_files/145535.got.cif
#   From: 2010.06.25/outbox.cif.g09.slc.cpg/sg12_73_cif.got.tgz:145535.got - 2010.06.28 00:19:55.
