data_PCOD8112002
_publ_section_title
;
Structure prediction by ZEFSAII (Michael W. Deem and Ramdas Pophale) SiO2 
 PCOD8112002
Probable space group: C 2/M
;
_chemical_formula_sum "Si O2"
_cell_formula_units_Z 60
_cell_length_a 31.359220
_cell_length_b 19.829153
_cell_length_c 14.905742
_cell_angle_alpha 90.000000
_cell_angle_beta 18.422486
_cell_angle_gamma 90.000000
_cell_volume 2929.135842
_symmetry_space_group_name_H-M "C 2/M"
_symmetry_group_IT_number 12
_symmetry_cell_setting 'monoclinic'
loop_
_space_group_symop_operation_xyz
x,y,z
-x,y,-z
-x,-y,-z
x,-y,z
1/2+x,1/2+y,z
1/2-x,1/2+y,-z
1/2-x,1/2-y,-z
1/2+x,1/2-y,z
loop_
_atom_site_type_symbol
_atom_site_label
_atom_site_fract_x
_atom_site_fract_y
_atom_site_fract_z
Si Si1 0.960203 0.344343 0.709746
Si Si2 0.322573 0.386957 0.779887
Si Si3 0.021501 0.116267 0.233795
Si Si4 0.000000 0.228889 0.500000
Si Si5 0.903773 0.924277 0.107764
Si Si6 0.267514 0.924462 0.854560
Si Si7 0.239475 0.211294 0.612706
Si Si8 0.497077 0.759321 0.213406
O O1 0.092599 0.384178 0.410848
O O2 0.935861 0.275787 0.703907
O O3 0.975718 0.325634 0.782493
O O4 0.825389 0.387668 0.968602
O O5 0.422416 0.419038 0.504862
O O6 0.379665 0.314505 0.696875
O O7 0.312882 0.429986 0.890656
O O8 0.972467 0.193678 0.324489
O O9 0.013879 0.082051 0.150747
O O10 0.174942 0.112512 0.964822
O O11 0.785015 0.869021 0.349973
O O12 0.843281 0.000000 0.234888
O O13 0.000000 0.909960 0.000000
O O14 0.299082 0.000000 0.757707
O O15 0.250000 0.250000 0.500000
O O16 0.372321 0.222556 0.402307
O O17 0.119564 0.245787 0.904249
#
# Coordination Sequence:
#
# PCOD8112002 Si02
#       8
#     8   8   8   4   8   8   8   8
#     4  12  24  38  62  88 128 167 206 266 315 385
#     4  12  23  39  62  92 124 163 212 268 317 373
#     4  11  22  39  64  92 122 159 210 268 313 380
#     4  12  22  38  64  90 122 156 212 260 326 368
#     4  10  22  41  65  93 128 171 213 257 320 392
#     4  12  26  43  59  86 126 176 216 255 319 385
#     4  11  22  40  66  98 131 162 205 272 325 384
#     4  11  22  37  63  96 127 156 208 256 328 377
#
# _framework density 20.483857
#
# number of rings (size 3 to 8) (size 9 to 14) (size 15 to 20)
#    0.000    0.667    4.000    5.200    1.867    2.667 
#    0.000    0.000    0.000    2.400    0.000    0.000 
#    0.000    0.000    0.000    0.000    0.000    0.000 
#
# Total GULP energy -371941.775590 kJ/mol
# GULP energy per Si atom -12398.059186 kJ/mol
# Density = 2.043723 g / cm^3
# Si number density = 20.483857 Si / 1000 Ang^3
#
#
#
# Elastic Constant Matrix: (Units=GPa)
#
#
# Indices 1 2 3 4 5 6 
#
# 1 146.7014 37.3418 52.9564 0.0002 -9.5251 -0.0002
# 2 37.3418 112.8623 37.3794 -0.0008 -8.3003 0.0003
# 3 52.9564 37.3794 116.7805 -0.0011 -11.4454 0.0003
# 4 0.0002 -0.0008 -0.0011 18.2570 0.0005 -2.3251
# 5 -9.5251 -8.3003 -11.4454 0.0005 43.5250 -0.0001
# 6 -0.0002 0.0003 0.0003 -2.3251 -0.0001 19.3330
#
#
#
# Elastic Compliance Matrix: (Units=1/GPa)
#
#
# Indices 1 2 3 4 5 6 
#
# 1 0.008454 -0.001677 -0.003230 0.000000 0.000681 0.000000
# 2 -0.001677 0.010294 -0.002441 0.000000 0.000954 0.000000
# 3 -0.003230 -0.002441 0.010977 0.000001 0.001714 0.000000
# 4 0.000000 0.000000 0.000001 0.055625 0.000000 0.006690
# 5 0.000681 0.000954 0.001714 0.000000 0.023757 0.000000
# 6 0.000000 0.000000 0.000000 0.006690 0.000000 0.052530
#
#
# Mechanical properties :
#
#
# Convention : Reuss Voigt Hill
#
# Bulk Modulus (GPa) = 66.53946 70.18882 68.36414
# Shear Modulus (GPa) = 27.57224 32.80079 30.18652
#
# Velocity S-wave (km/s) = 3.67283 4.00597 3.84301
# Velocity P-wave (km/s) = 7.10919 7.46571 7.28963
#
# Compressibility (1/GPa) = 0.01502868
#
# Stress axis : x y z
#
# Youngs Moduli (GPa) = 118.29262 97.14556 91.09956
#
# Poissons Ratio (x) = 0.16293 0.29424
# Poissons Ratio (y) = 0.19840 0.22236
# Poissons Ratio (z) = 0.38207 0.23711
#
# Static dielectric constant tensor:
#      x y z
#    x 4.040340 0.000000 0.041550 
#    y 0.000000 3.568980 0.000000 
#    z 0.041550 0.000000 3.691690 
# 
# 
# High freq. dielectric constant tensor:
#      x y z
#    x 1.824470 0.000000 -0.001850 
#    y 0.000000 1.787900 0.000000 
#    z -0.001850 0.000000 1.790210 
# 
# From -- ./inp_files/251838.got.cif
#   From: 2010.06.25/outbox.cif.g09.slc.cpg/sg12_126_cif.got.tgz:251838.got - 2010.06.28 00:19:55.
