data_PCOD8112690
_publ_section_title
;
Structure prediction by ZEFSAII (Michael W. Deem and Ramdas Pophale) SiO2 
 PCOD8112690
Probable space group: C 2/M
;
_chemical_formula_sum "Si O2"
_cell_formula_units_Z 48
_cell_length_a 11.998071
_cell_length_b 13.793238
_cell_length_c 20.531402
_cell_angle_alpha 90.000000
_cell_angle_beta 138.996007
_cell_angle_gamma 90.000000
_cell_volume 2229.328129
_symmetry_space_group_name_H-M "C 2/M"
_symmetry_group_IT_number 12
_symmetry_cell_setting 'monoclinic'
loop_
_space_group_symop_operation_xyz
x,y,z
-x,y,-z
-x,-y,-z
x,-y,z
1/2+x,1/2+y,z
1/2-x,1/2+y,-z
1/2-x,1/2-y,-z
1/2+x,1/2-y,z
loop_
_atom_site_type_symbol
_atom_site_label
_atom_site_fract_x
_atom_site_fract_y
_atom_site_fract_z
Si Si1 0.488542 0.385360 0.263153
Si Si2 0.224749 0.388312 0.774894
Si Si3 0.607273 0.388175 0.918449
Si Si4 0.228744 0.889172 0.706293
Si Si5 0.886230 0.386713 0.136808
Si Si6 0.834887 0.704448 0.387885
O O1 0.520859 0.500000 0.268929
O O2 0.403030 0.342384 0.159050
O O3 0.368939 0.362001 0.270876
O O4 0.671344 0.335391 0.354264
O O5 0.177210 0.500000 0.743535
O O6 0.426301 0.374621 0.873474
O O7 0.134553 0.343345 0.799326
O O8 0.154829 0.333869 0.681119
O O9 0.656003 0.500000 0.931425
O O10 0.753980 0.338394 0.027319
O O11 0.426327 0.867904 0.808038
O O12 0.169217 0.821722 0.620205
O O13 0.197516 0.000000 0.671311
O O14 0.843042 0.500000 0.124426
O O15 0.000000 0.671132 0.500000
#
# Coordination Sequence:
#
# PCOD8112690 Si02
#       6
#     8   8   8   8   8   8
#     4   9  20  40  62  89 124 154 189 240 291 347
#     4   9  18  34  58  92 125 149 189 249 293 338
#     4   8  14  29  58  89 118 157 194 229 282 343
#     4  10  23  41  59  84 122 158 193 241 293 348
#     4   9  17  32  58  88 120 158 194 230 285 350
#     4  11  24  40  65  84 111 153 204 247 298 348
#
# _framework density 21.531151000000001
#
# number of rings (size 3 to 8) (size 9 to 14) (size 15 to 20)
#    0.000    2.667    0.000    2.000    2.333    5.000 
#    0.000    6.667    7.333    0.000    0.000    0.000 
#    0.000    0.000    0.000    0.000    0.000    0.000 
#
# Total GULP energy -297575.957219 kJ/mol
# GULP energy per Si atom -12398.998217 kJ/mol
# Density = 2.148214 g / cm^3
# Si number density = 21.531151 Si / 1000 Ang^3
#
#
#
# Elastic Constant Matrix: (Units=GPa)
#
#
# Indices 1 2 3 4 5 6 
#
# 1 150.8325 38.8215 59.7901 0.0000 16.1459 0.0000
# 2 38.8215 47.0033 27.1765 0.0000 -1.5977 0.0000
# 3 59.7901 27.1765 151.1853 0.0001 14.6646 0.0001
# 4 0.0000 0.0000 0.0001 21.9874 0.0000 -7.3761
# 5 16.1459 -1.5977 14.6646 0.0000 16.5778 0.0000
# 6 0.0000 0.0000 0.0001 -7.3761 0.0000 12.7524
#
#
#
# Elastic Compliance Matrix: (Units=1/GPa)
#
#
# Indices 1 2 3 4 5 6 
#
# 1 0.010341 -0.007822 -0.001787 0.000000 -0.009245 0.000000
# 2 -0.007822 0.030346 -0.003702 0.000000 0.013817 0.000000
# 3 -0.001787 -0.003702 0.008589 0.000000 -0.006214 0.000000
# 4 0.000000 0.000000 0.000000 0.056430 0.000000 0.032640
# 5 -0.009245 0.013817 -0.006214 0.000000 0.076154 0.000000
# 6 0.000000 0.000000 0.000000 0.032640 0.000000 0.097295
#
#
# Mechanical properties :
#
#
# Convention : Reuss Voigt Hill
#
# Bulk Modulus (GPa) = 44.14098 66.73305 55.43701
# Shear Modulus (GPa) = 15.95769 25.14573 20.55171
#
# Velocity S-wave (km/s) = 2.72535 3.42113 3.09287
# Velocity P-wave (km/s) = 5.51805 6.83129 6.20948
#
# Compressibility (1/GPa) = 0.02265469
#
# Stress axis : x y z
#
# Youngs Moduli (GPa) = 96.70178 32.95379 116.42525
#
# Poissons Ratio (x) = 0.25777 0.20803
# Poissons Ratio (y) = 0.75642 0.43096
# Poissons Ratio (z) = 0.17279 0.12198
#
# Static dielectric constant tensor:
#      x y z
#    x 3.864470 0.000000 -0.052050 
#    y 0.000000 3.938720 0.000000 
#    z -0.052050 0.000000 3.677990 
# 
# 
# High freq. dielectric constant tensor:
#      x y z
#    x 1.846180 0.000000 0.000840 
#    y 0.000000 1.852870 0.000000 
#    z 0.000840 0.000000 1.822670 
# 
# From -- ./inp_files/204280.got.cif
#   From: 2010.06.25/outbox.cif.g09.slc.cpg/sg12_103_cif.got.tgz:204280.got - 2010.06.28 00:19:55.
