data_PCOD8112934
_publ_section_title
;
Structure prediction by ZEFSAII (Michael W. Deem and Ramdas Pophale) SiO2 
 PCOD8112934
Probable space group: C 2/M
;
_chemical_formula_sum "Si O2"
_cell_formula_units_Z 40
_cell_length_a 13.698074
_cell_length_b 16.899301
_cell_length_c 18.942351
_cell_angle_alpha 90.000000
_cell_angle_beta 155.539353
_cell_angle_gamma 90.000000
_cell_volume 1815.657604
_symmetry_space_group_name_H-M "C 2/M"
_symmetry_group_IT_number 12
_symmetry_cell_setting 'monoclinic'
loop_
_space_group_symop_operation_xyz
x,y,z
-x,y,-z
-x,-y,-z
x,-y,z
1/2+x,1/2+y,z
1/2-x,1/2+y,-z
1/2-x,1/2-y,-z
1/2+x,1/2-y,z
loop_
_atom_site_type_symbol
_atom_site_label
_atom_site_fract_x
_atom_site_fract_y
_atom_site_fract_z
Si Si1 0.474931 0.408443 0.757829
Si Si2 0.643584 0.836319 0.430097
Si Si3 0.535637 0.161996 0.941282
Si Si4 0.713704 0.808143 0.691332
Si Si5 0.250660 0.911152 0.642922
O O1 0.555553 0.500000 0.815522
O O2 0.313064 0.397324 0.582337
O O3 0.328263 0.385674 0.731221
O O4 0.687732 0.345493 0.892405
O O5 0.750000 0.750000 0.500000
O O6 0.386738 0.832995 0.298069
O O7 0.619019 0.862990 0.333223
O O8 0.416977 0.242525 0.834421
O O9 0.412882 0.089990 0.819065
O O10 0.500000 0.150334 0.000000
O O11 0.500000 0.777238 0.500000
O O12 0.000000 0.873029 0.500000
O O13 0.213408 0.000000 0.591804
#
# Coordination Sequence:
#
# PCOD8112934 Si02
#       5
#     8   8   8   8   8
#     4  11  24  41  65  97 131 165 204 258 321 376
#     4  11  22  41  66  93 124 164 214 259 305 370
#     4  12  24  41  63  91 126 165 212 262 313 369
#     4  10  23  42  67  93 125 167 212 258 307 373
#     4  11  23  39  61  90 126 167 209 255 311 375
#
# _framework density 22.030584999999999
#
# number of rings (size 3 to 8) (size 9 to 14) (size 15 to 20)
#    0.000    1.000    0.000    8.400    0.000    9.200 
#    0.000    0.000    0.000    3.000    0.000    0.000 
#    0.000    0.000    0.000    0.000    0.000    0.000 
#
# Total GULP energy -247991.803731 kJ/mol
# GULP energy per Si atom -12399.590187 kJ/mol
# Density = 2.198044 g / cm^3
# Si number density = 22.030585 Si / 1000 Ang^3
#
#
#
# Elastic Constant Matrix: (Units=GPa)
#
#
# Indices 1 2 3 4 5 6 
#
# 1 164.5305 51.5791 43.4651 0.0463 -2.7911 0.0359
# 2 51.5791 109.9154 34.0351 -0.0508 0.8617 0.0534
# 3 43.4651 34.0351 91.4674 -0.0131 8.0824 0.0715
# 4 0.0463 -0.0508 -0.0131 29.9940 0.0497 -0.4883
# 5 -2.7911 0.8617 8.0824 0.0497 36.0343 0.0289
# 6 0.0359 0.0534 0.0715 -0.4883 0.0289 23.7346
#
#
#
# Elastic Compliance Matrix: (Units=1/GPa)
#
#
# Indices 1 2 3 4 5 6 
#
# 1 0.007691 -0.002772 -0.002736 -0.000020 0.001276 0.000001
# 2 -0.002772 0.011296 -0.002900 0.000022 0.000166 -0.000012
# 3 -0.002736 -0.002900 0.013594 0.000010 -0.003192 -0.000026
# 4 -0.000020 0.000022 0.000010 0.033351 -0.000051 0.000686
# 5 0.001276 0.000166 -0.003192 -0.000051 0.028562 -0.000028
# 6 0.000001 -0.000012 -0.000026 0.000686 -0.000028 0.042147
#
#
# Mechanical properties :
#
#
# Convention : Reuss Voigt Hill
#
# Bulk Modulus (GPa) = 63.43569 69.34131 66.38850
# Shear Modulus (GPa) = 31.50326 33.74151 32.62238
#
# Velocity S-wave (km/s) = 3.78561 3.91778 3.85226
# Velocity P-wave (km/s) = 6.92565 7.21171 7.07013
#
# Compressibility (1/GPa) = 0.01576400
#
# Stress axis : x y z
#
# Youngs Moduli (GPa) = 130.01538 88.53038 73.55962
#
# Poissons Ratio (x) = 0.24541 0.20127
# Poissons Ratio (y) = 0.36041 0.21336
# Poissons Ratio (z) = 0.35575 0.25678
#
# Static dielectric constant tensor:
#      x y z
#    x 4.501930 -0.000140 0.381740 
#    y -0.000140 3.691080 -0.000160 
#    z 0.381740 -0.000160 4.417240 
# 
# 
# High freq. dielectric constant tensor:
#      x y z
#    x 1.881800 0.000000 0.004420 
#    y 0.000000 1.859430 -0.000010 
#    z 0.004420 -0.000010 1.860360 
# 
# From -- ./inp_files/60842.got.cif
#   From: 2010.06.25/outbox.cif.g09.slc.cpg/sg12_31_cif.got.tgz:60842.got - 2010.06.28 00:19:55.
