data_PCOD8112499
_publ_section_title
;
Structure prediction by ZEFSAII (Michael W. Deem and Ramdas Pophale) SiO2 
 PCOD8112499
Probable space group: C 2/M
;
_chemical_formula_sum "Si O2"
_cell_formula_units_Z 56
_cell_length_a 9.183904
_cell_length_b 26.695737
_cell_length_c 10.718288
_cell_angle_alpha 90.000000
_cell_angle_beta 61.881320
_cell_angle_gamma 90.000000
_cell_volume 2317.661941
_symmetry_space_group_name_H-M "C 2/M"
_symmetry_group_IT_number 12
_symmetry_cell_setting 'monoclinic'
loop_
_space_group_symop_operation_xyz
x,y,z
-x,y,-z
-x,-y,-z
x,-y,z
1/2+x,1/2+y,z
1/2-x,1/2+y,-z
1/2-x,1/2-y,-z
1/2+x,1/2-y,z
loop_
_atom_site_type_symbol
_atom_site_label
_atom_site_fract_x
_atom_site_fract_y
_atom_site_fract_z
Si Si1 0.518158 0.292389 0.308195
Si Si2 0.691029 0.616285 0.336984
Si Si3 0.340456 0.332963 0.000341
Si Si4 0.191676 0.303435 0.301267
Si Si5 0.039500 0.406716 0.114830
Si Si6 0.882307 0.417879 0.656442
Si Si7 0.902876 0.057284 0.384203
O O1 0.590370 0.331855 0.378753
O O2 0.322066 0.298087 0.362400
O O3 0.549460 0.238591 0.360129
O O4 0.615213 0.301400 0.139494
O O5 0.875637 0.625553 0.214370
O O6 0.588568 0.577814 0.288136
O O7 0.689958 0.591493 0.474836
O O8 0.279727 0.295007 0.132302
O O9 0.197196 0.372164 0.024686
O O10 0.500000 0.360566 0.000000
O O11 0.104612 0.357643 0.341713
O O12 0.071554 0.440858 0.225307
O O13 0.000000 0.436129 0.000000
O O14 0.696488 0.435867 0.704074
O O15 0.000000 0.439509 0.500000
O O16 0.907712 0.000000 0.426167
#
# Coordination Sequence:
#
# PCOD8112499 Si02
#       7
#     8   8   8   8   8   8   8
#     4  11  21  37  59  92 139 184 229 273 335 404
#     4  11  22  42  68 102 133 172 231 286 343 401
#     4   9  20  37  57  91 138 190 238 272 324 403
#     4  10  23  36  58  93 135 189 233 278 327 398
#     4  11  22  37  69 104 140 183 220 278 347 412
#     4  11  23  45  66 101 139 179 236 286 344 411
#     4  11  25  49  78  98 126 175 234 294 354 422
#
# _framework density 24.162281
#
# number of rings (size 3 to 8) (size 9 to 14) (size 15 to 20)
#    0.000    1.429    4.286    1.286    4.000    0.286 
#    2.571    1.429    0.000    4.714    0.000    0.000 
#    0.000    0.000    0.000    0.000    0.000    0.000 
#
# Total GULP energy -346883.004859 kJ/mol
# GULP energy per Si atom -12388.678745 kJ/mol
# Density = 2.410729 g / cm^3
# Si number density = 24.162281 Si / 1000 Ang^3
#
#
#
# Elastic Constant Matrix: (Units=GPa)
#
#
# Indices 1 2 3 4 5 6 
#
# 1 153.9972 6.5250 48.8418 0.0000 22.1244 0.0000
# 2 6.5250 83.7545 -1.3793 0.0000 4.0383 0.0000
# 3 48.8418 -1.3793 64.1082 0.0000 11.3850 0.0000
# 4 0.0000 0.0000 0.0000 -23.3084 0.0000 -16.0155
# 5 22.1244 4.0383 11.3850 0.0000 45.0430 0.0000
# 6 0.0000 0.0000 0.0000 -16.0155 0.0000 -2.6467
#
#
#
# Elastic Compliance Matrix: (Units=1/GPa)
#
#
# Indices 1 2 3 4 5 6 
#
# 1 0.008919 -0.000668 -0.006326 0.000000 -0.002722 0.000000
# 2 -0.000668 0.012055 0.000944 0.000000 -0.000991 0.000000
# 3 -0.006326 0.000944 0.020837 0.000000 -0.002244 0.000000
# 4 0.000000 0.000000 0.000000 0.013586 0.000000 -0.082213
# 5 -0.002722 -0.000991 -0.002244 0.000000 0.024194 0.000000
# 6 0.000000 0.000000 0.000000 -0.082213 0.000000 0.119650
#
#
# Mechanical properties :
#
#
# Convention : Reuss Voigt Hill
#
# Bulk Modulus (GPa) = 33.65657 45.53722 39.59689
# Shear Modulus (GPa) = 22.59926 20.34241 21.47083
#
# Velocity S-wave (km/s) = 3.06160 2.90471 2.98419
# Velocity P-wave (km/s) = 5.14369 5.48973 5.31952
#
# Compressibility (1/GPa) = 0.02971188
#
# Stress axis : x y z
#
# Youngs Moduli (GPa) = 112.11395 82.95286 47.99082
#
# Poissons Ratio (x) = 0.05540 0.30361
# Poissons Ratio (y) = 0.07487 -0.04531
# Poissons Ratio (z) = 0.70928 -0.07833
#
# Static dielectric constant tensor:
#      x y z
#    x 4.817840 0.000000 0.236090 
#    y 0.000000 3.764010 0.000000 
#    z 0.236090 0.000000 4.547880 
# 
# 
# High freq. dielectric constant tensor:
#      x y z
#    x 1.989430 0.000000 0.013200 
#    y 0.000000 1.902730 0.000000 
#    z 0.013200 0.000000 1.960730 
# 
# From -- ./inp_files/124272.got.cif
#   From: 2010.06.25/outbox.cif.g09.slc.cpg/sg12_63_cif.got.tgz:124272.got - 2010.06.28 00:19:55.
