data_PCOD8112328
_publ_section_title
;
Structure prediction by ZEFSAII (Michael W. Deem and Ramdas Pophale) SiO2 
 PCOD8112328
Probable space group: C 2/M
;
_chemical_formula_sum "Si O2"
_cell_formula_units_Z 44
_cell_length_a 10.232518
_cell_length_b 21.937565
_cell_length_c 10.098928
_cell_angle_alpha 90.000000
_cell_angle_beta 103.291812
_cell_angle_gamma 90.000000
_cell_volume 2206.244055
_symmetry_space_group_name_H-M "C 2/M"
_symmetry_group_IT_number 12
_symmetry_cell_setting 'monoclinic'
loop_
_space_group_symop_operation_xyz
x,y,z
-x,y,-z
-x,-y,-z
x,-y,z
1/2+x,1/2+y,z
1/2-x,1/2+y,-z
1/2-x,1/2-y,-z
1/2+x,1/2-y,z
loop_
_atom_site_type_symbol
_atom_site_label
_atom_site_fract_x
_atom_site_fract_y
_atom_site_fract_z
Si Si1 0.754442 0.626951 0.003824
Si Si2 0.368118 0.000000 0.370074
Si Si3 0.726787 0.375683 0.303410
Si Si4 0.538436 0.313052 0.787387
Si Si5 0.356898 0.760843 0.412210
Si Si6 0.500000 0.783302 0.000000
Si Si7 0.627397 0.000000 0.942058
O O1 0.619300 0.638594 0.892239
O O2 0.870039 0.674772 0.991663
O O3 0.712272 0.629389 0.144640
O O4 0.793378 0.557955 0.987020
O O5 0.500000 0.000000 0.500000
O O6 0.270648 0.058381 0.371534
O O7 0.410768 0.000000 0.224389
O O8 0.581666 0.349308 0.318779
O O9 0.847776 0.331267 0.370477
O O10 0.650888 0.284646 0.714746
O O11 0.476619 0.258896 0.864877
O O12 0.500000 0.746984 0.500000
O O13 0.250000 0.750000 0.500000
O O14 0.500000 0.000000 0.000000
#
# Coordination Sequence:
#
# PCOD8112328 Si02
#       7
#     8   4   8   8   8   4   4
#     4  11  22  37  65  93 129 163 209 272 329 385
#     4  10  24  45  69  90 123 181 223 268 323 398
#     4  11  22  42  64  93 130 165 220 269 322 392
#     4  12  23  38  63  97 130 166 209 268 338 388
#     4  12  25  41  62  93 134 175 217 263 322 391
#     4  12  20  35  64  93 130 160 206 264 322 384
#     4  10  22  43  61  93 126 163 222 270 319 387
#
# _framework density 19.943394999999999
#
# number of rings (size 3 to 8) (size 9 to 14) (size 15 to 20)
#    0.000    0.727    6.364    2.182    0.000    0.727 
#    3.273    2.727    0.000    2.182    0.000    0.000 
#    0.000    0.000    0.000    0.000    0.000    0.000 
#
# Total GULP energy -272585.913132 kJ/mol
# GULP energy per Si atom -12390.268779 kJ/mol
# Density = 1.989800 g / cm^3
# Si number density = 19.943395 Si / 1000 Ang^3
#
#
#
# Elastic Constant Matrix: (Units=GPa)
#
#
# Indices 1 2 3 4 5 6 
#
# 1 105.2619 58.7049 30.6468 0.0000 0.0863 0.0000
# 2 58.7049 165.4081 50.4945 0.0000 6.1597 0.0000
# 3 30.6468 50.4945 67.6739 0.0000 3.9633 0.0000
# 4 0.0000 0.0000 0.0000 26.8572 0.0000 8.6178
# 5 0.0863 6.1597 3.9633 0.0000 37.8231 0.0000
# 6 0.0000 0.0000 0.0000 8.6178 0.0000 35.7576
#
#
#
# Elastic Compliance Matrix: (Units=1/GPa)
#
#
# Indices 1 2 3 4 5 6 
#
# 1 0.012323 -0.003479 -0.003035 0.000000 0.000856 0.000000
# 2 -0.003479 0.008828 -0.004958 0.000000 -0.000910 0.000000
# 3 -0.003035 -0.004958 0.019925 0.000000 -0.001273 0.000000
# 4 0.000000 0.000000 0.000000 0.040355 0.000000 -0.009726
# 5 0.000856 -0.000910 -0.001273 0.000000 0.026719 0.000000
# 6 0.000000 0.000000 0.000000 -0.009726 0.000000 0.030310
#
#
# Mechanical properties :
#
#
# Convention : Reuss Voigt Hill
#
# Bulk Modulus (GPa) = 55.15067 68.67069 61.91068
# Shear Modulus (GPa) = 29.86005 33.32077 31.59041
#
# Velocity S-wave (km/s) = 3.87362 4.09194 3.98427
# Velocity P-wave (km/s) = 6.90798 7.53875 7.23025
#
# Compressibility (1/GPa) = 0.01813214
#
# Stress axis : x y z
#
# Youngs Moduli (GPa) = 81.14687 113.27795 50.18778
#
# Poissons Ratio (x) = 0.39410 0.15232
# Poissons Ratio (y) = 0.28231 0.24883
# Poissons Ratio (z) = 0.24628 0.56163
#
# Static dielectric constant tensor:
#      x y z
#    x 3.590340 0.000000 0.141810 
#    y 0.000000 3.881120 0.000000 
#    z 0.141810 0.000000 3.925230 
# 
# 
# High freq. dielectric constant tensor:
#      x y z
#    x 1.782670 0.000000 0.002350 
#    y 0.000000 1.784720 0.000000 
#    z 0.002350 0.000000 1.775890 
# 
# From -- ./inp_files/49419.got.cif
#   From: 2010.06.25/outbox.cif.g09.slc.cpg/sg12_25_cif.got.tgz:49419.got - 2010.06.28 00:19:55.
