data_PCOD8112920
_publ_section_title
;
Structure prediction by ZEFSAII (Michael W. Deem and Ramdas Pophale) SiO2 
 PCOD8112920
Probable space group: C 2/M
;
_chemical_formula_sum "Si O2"
_cell_formula_units_Z 32
_cell_length_a 10.818624
_cell_length_b 19.070491
_cell_length_c 12.850447
_cell_angle_alpha 90.000000
_cell_angle_beta 31.013952
_cell_angle_gamma 90.000000
_cell_volume 1366.052621
_symmetry_space_group_name_H-M "C 2/M"
_symmetry_group_IT_number 12
_symmetry_cell_setting 'monoclinic'
loop_
_space_group_symop_operation_xyz
x,y,z
-x,y,-z
-x,-y,-z
x,-y,z
1/2+x,1/2+y,z
1/2-x,1/2+y,-z
1/2-x,1/2-y,-z
1/2+x,1/2-y,z
loop_
_atom_site_type_symbol
_atom_site_label
_atom_site_fract_x
_atom_site_fract_y
_atom_site_fract_z
Si Si1 0.608299 0.500000 0.302742
Si Si2 0.970920 0.500000 0.851777
Si Si3 0.925721 0.141647 0.356928
Si Si4 0.153963 0.107884 0.975828
Si Si5 0.048625 0.717113 0.343889
O O1 0.445546 0.569634 0.408152
O O2 0.744993 0.500000 0.318158
O O3 0.814000 0.500000 0.068702
O O4 0.895147 0.567364 0.838170
O O5 0.100687 0.201741 0.276301
O O6 0.668544 0.177838 0.558526
O O7 0.984138 0.125590 0.195201
O O8 0.217766 0.178082 0.866483
O O9 0.000000 0.064033 0.000000
O O10 0.000000 0.709062 0.500000
#
# Coordination Sequence:
#
# PCOD8112920 Si02
#       5
#     4   4   8   8   8
#     4   9  20  43  65  92 125 168 210 263 319 370
#     4   9  21  39  65  97 126 163 215 259 312 380
#     4  10  23  42  66  93 129 162 213 264 312 375
#     4  11  21  41  65  95 127 169 208 257 320 372
#     4  11  23  41  62  97 127 166 212 260 312 377
#
# _framework density 23.425158
#
# number of rings (size 3 to 8) (size 9 to 14) (size 15 to 20)
#    0.000    1.750    2.500    1.125    0.000    5.000 
#    9.000    3.125    0.000    0.000    0.000    0.000 
#    0.000    0.000    0.000    0.000    0.000    0.000 
#
# Total GULP energy -198258.703983 kJ/mol
# GULP energy per Si atom -12391.168999 kJ/mol
# Density = 2.337184 g / cm^3
# Si number density = 23.425158 Si / 1000 Ang^3
#
#
#
# Elastic Constant Matrix: (Units=GPa)
#
#
# Indices 1 2 3 4 5 6 
#
# 1 150.5084 68.1869 31.6232 0.0758 -4.1538 0.0446
# 2 68.1869 184.8580 33.0125 0.1894 -2.8365 0.0641
# 3 31.6232 33.0125 41.9567 0.3913 10.0409 0.1316
# 4 0.0758 0.1894 0.3913 2.4297 -0.0313 -25.3429
# 5 -4.1538 -2.8365 10.0409 -0.0313 47.3830 -0.0461
# 6 0.0446 0.0641 0.1316 -25.3429 -0.0461 -12.8411
#
#
#
# Elastic Compliance Matrix: (Units=1/GPa)
#
#
# Indices 1 2 3 4 5 6 
#
# 1 0.008840 -0.002291 -0.005281 0.000016 0.001757 -0.000073
# 2 -0.002291 0.006991 -0.004030 0.000000 0.001072 -0.000018
# 3 -0.005281 -0.004030 0.032817 -0.000070 -0.007658 0.000464
# 4 0.000016 0.000000 -0.000070 0.019067 -0.000008 -0.037632
# 5 0.001757 0.001072 -0.007658 -0.000008 0.022945 -0.000134
# 6 -0.000073 -0.000018 0.000464 -0.037632 -0.000134 -0.003601
#
#
# Mechanical properties :
#
#
# Convention : Reuss Voigt Hill
#
# Bulk Modulus (GPa) = 39.30140 71.44094 55.37117
# Shear Modulus (GPa) = 42.10702 23.69436 32.90069
#
# Velocity S-wave (km/s) = 4.24431 3.18385 3.75174
# Velocity P-wave (km/s) = 6.39005 6.63924 6.51584
#
# Compressibility (1/GPa) = 0.02544439
#
# Stress axis : x y z
#
# Youngs Moduli (GPa) = 113.12268 143.04695 30.47175
#
# Poissons Ratio (x) = 0.32768 0.16091
# Poissons Ratio (y) = 0.25913 0.12281
# Poissons Ratio (z) = 0.59737 0.57653
#
# Static dielectric constant tensor:
#      x y z
#    x 4.461900 -0.000020 -0.106070 
#    y -0.000020 4.337780 0.000110 
#    z -0.106070 0.000110 3.921460 
# 
# 
# High freq. dielectric constant tensor:
#      x y z
#    x 1.939050 0.000000 0.006100 
#    y 0.000000 1.929840 0.000010 
#    z 0.006100 0.000010 1.927880 
# 
# From -- ./inp_files/206470.got.cif
#   From: 2010.06.25/outbox.cif.g09.slc.cpg/sg12_104_cif.got.tgz:206470.got - 2010.06.28 00:19:55.
