data_PCOD8112097
_publ_section_title
;
Structure prediction by ZEFSAII (Michael W. Deem and Ramdas Pophale) SiO2 
 PCOD8112097
Probable space group: C 2/M
;
_chemical_formula_sum "Si O2"
_cell_formula_units_Z 48
_cell_length_a 18.003758
_cell_length_b 29.755056
_cell_length_c 8.916391
_cell_angle_alpha 90.000000
_cell_angle_beta 150.019681
_cell_angle_gamma 90.000000
_cell_volume 2386.846879
_symmetry_space_group_name_H-M "C 2/M"
_symmetry_group_IT_number 12
_symmetry_cell_setting 'monoclinic'
loop_
_space_group_symop_operation_xyz
x,y,z
-x,y,-z
-x,-y,-z
x,-y,z
1/2+x,1/2+y,z
1/2-x,1/2+y,-z
1/2-x,1/2-y,-z
1/2+x,1/2-y,z
loop_
_atom_site_type_symbol
_atom_site_label
_atom_site_fract_x
_atom_site_fract_y
_atom_site_fract_z
Si Si1 0.453563 0.795622 0.753092
Si Si2 0.616958 0.373280 0.833572
Si Si3 0.877875 0.052749 0.910268
Si Si4 0.953047 0.548889 0.749295
Si Si5 0.078916 0.624315 0.785535
Si Si6 0.612143 0.704057 0.068377
O O1 0.501627 0.831129 0.712996
O O2 0.275980 0.787975 0.426314
O O3 0.500000 0.813498 0.000000
O O4 0.545306 0.750058 0.884094
O O5 0.500000 0.371257 0.500000
O O6 0.603044 0.419624 0.902172
O O7 0.755557 0.366597 0.968868
O O8 0.612626 0.331884 0.938530
O O9 0.717061 0.065711 0.561641
O O10 0.892940 0.000000 0.974868
O O11 0.000000 0.066984 0.000000
O O12 0.968110 0.500000 0.696486
O O13 0.068752 0.583781 0.884136
O O14 0.000000 0.543655 0.000000
O O15 0.000000 0.606525 0.500000
O O16 0.500000 0.686278 0.000000
#
# Coordination Sequence:
#
# PCOD8112097 Si02
#       6
#     8   8   8   8   8   8
#     4  11  24  42  69  92 123 166 207 258 306 364
#     4  12  28  41  62  94 128 168 204 255 316 369
#     4  10  22  43  66  91 126 165 209 256 304 366
#     4  10  22  41  68  94 121 165 211 254 305 367
#     4  12  24  43  61  93 130 162 206 257 313 368
#     4  11  24  44  66  93 124 163 213 255 304 368
#
# _framework density 20.110213000000002
#
# number of rings (size 3 to 8) (size 9 to 14) (size 15 to 20)
#    0.000    1.000    3.333    3.000    7.000    2.667 
#    0.000    0.000    0.000    0.000    0.000    0.000 
#    0.000    0.000    0.000    0.000    0.000    0.000 
#
# Total GULP energy -297504.394921 kJ/mol
# GULP energy per Si atom -12396.016455 kJ/mol
# Density = 2.006444 g / cm^3
# Si number density = 20.110213 Si / 1000 Ang^3
#
#
#
# Elastic Constant Matrix: (Units=GPa)
#
#
# Indices 1 2 3 4 5 6 
#
# 1 122.1599 72.1433 50.0834 0.0000 19.8187 0.0000
# 2 72.1433 105.8456 44.5097 0.0000 4.5692 0.0000
# 3 50.0834 44.5097 150.0498 0.0000 2.9843 0.0000
# 4 0.0000 0.0000 0.0000 20.8204 0.0000 21.7887
# 5 19.8187 4.5692 2.9843 0.0000 34.3803 0.0000
# 6 0.0000 0.0000 0.0000 21.7887 0.0000 130.7532
#
#
#
# Elastic Compliance Matrix: (Units=1/GPa)
#
#
# Indices 1 2 3 4 5 6 
#
# 1 0.016127 -0.009662 -0.002361 0.000000 -0.007807 0.000000
# 2 -0.009662 0.016629 -0.001778 0.000000 0.003514 0.000000
# 3 -0.002361 -0.001778 0.007962 0.000000 0.000906 0.000000
# 4 0.000000 0.000000 0.000000 0.058175 0.000000 -0.009694
# 5 -0.007807 0.003514 0.000906 0.000000 0.033041 0.000000
# 6 0.000000 0.000000 0.000000 -0.009694 0.000000 0.009263
#
#
# Mechanical properties :
#
#
# Convention : Reuss Voigt Hill
#
# Bulk Modulus (GPa) = 76.24412 79.05868 77.65140
# Shear Modulus (GPa) = 28.87324 51.27872 40.07598
#
# Velocity S-wave (km/s) = 3.79324 5.05512 4.46894
# Velocity P-wave (km/s) = 7.56177 8.57148 8.08241
#
# Compressibility (1/GPa) = 0.01311577
#
# Stress axis : x y z
#
# Youngs Moduli (GPa) = 62.00926 60.13623 125.59726
#
# Poissons Ratio (x) = 0.58102 0.29659
# Poissons Ratio (y) = 0.59911 0.22327
# Poissons Ratio (z) = 0.14643 0.10690
#
# Static dielectric constant tensor:
#      x y z
#    x 3.153020 0.000000 -0.200810 
#    y 0.000000 3.789640 0.000000 
#    z -0.200810 0.000000 3.737290 
# 
# 
# High freq. dielectric constant tensor:
#      x y z
#    x 1.791190 0.000000 0.005440 
#    y 0.000000 1.796030 0.000000 
#    z 0.005440 0.000000 1.799170 
# 
# From -- ./inp_files/80825.got.cif
#   From: 2010.06.25/outbox.cif.g09.slc.cpg/sg12_41_cif.got.tgz:80825.got - 2010.06.28 00:19:55.
