data_PCOD8112950
_publ_section_title
;
Structure prediction by ZEFSAII (Michael W. Deem and Ramdas Pophale) SiO2 
 PCOD8112950
Probable space group: C 2/M
;
_chemical_formula_sum "Si O2"
_cell_formula_units_Z 64
_cell_length_a 17.913993
_cell_length_b 13.789769
_cell_length_c 19.465510
_cell_angle_alpha 90.000000
_cell_angle_beta 138.152062
_cell_angle_gamma 90.000000
_cell_volume 3208.060481
_symmetry_space_group_name_H-M "C 2/M"
_symmetry_group_IT_number 12
_symmetry_cell_setting 'monoclinic'
loop_
_space_group_symop_operation_xyz
x,y,z
-x,y,-z
-x,-y,-z
x,-y,z
1/2+x,1/2+y,z
1/2-x,1/2+y,-z
1/2-x,1/2-y,-z
1/2+x,1/2-y,z
loop_
_atom_site_type_symbol
_atom_site_label
_atom_site_fract_x
_atom_site_fract_y
_atom_site_fract_z
Si Si1 0.833360 0.612674 0.189494
Si Si2 0.742681 0.891612 0.175054
Si Si3 0.471262 0.229538 0.172372
Si Si4 0.989605 0.608599 0.573953
Si Si5 0.107773 0.220747 0.029554
Si Si6 0.837925 0.216808 0.505577
Si Si7 0.985883 0.887036 0.289263
Si Si8 0.808511 0.610490 0.702974
O O1 0.836318 0.500000 0.172320
O O2 0.885379 0.670500 0.161015
O O3 0.705419 0.644376 0.113098
O O4 0.898097 0.633496 0.305725
O O5 0.643949 0.828052 0.076436
O O6 0.863245 0.855413 0.231481
O O7 0.741190 0.886402 0.255511
O O8 0.719957 0.000000 0.133109
O O9 0.518462 0.322322 0.245898
O O10 0.570263 0.158811 0.217568
O O11 0.413131 0.275082 0.065926
O O12 0.950670 0.500000 0.567103
O O13 0.894654 0.681826 0.529066
O O14 0.000000 0.617851 0.500000
O O15 0.000000 0.188585 0.000000
O O16 0.750000 0.250000 0.500000
O O17 0.779893 0.171215 0.400346
O O18 0.924903 0.135670 0.590477
O O19 0.991272 0.000000 0.273461
O O20 0.818694 0.500000 0.683040
#
# Coordination Sequence:
#
# PCOD8112950 Si02
#       8
#     8   8   8   8   8   8   8   8
#     4  11  24  44  67  94 128 168 217 267 317 383
#     4  10  23  43  66  93 129 166 209 267 321 383
#     4  12  23  43  67  94 127 173 212 266 321 382
#     4  10  23  42  68  97 129 172 217 260 316 385
#     4  12  25  42  67  93 130 165 218 267 324 381
#     4  12  23  39  65  95 133 169 209 262 321 376
#     4  11  24  43  65  95 131 166 211 262 322 385
#     4  11  24  41  65  98 129 168 216 262 323 385
#
# _framework density 19.949748
#
# number of rings (size 3 to 8) (size 9 to 14) (size 15 to 20)
#    0.000    0.875    5.000    1.125    3.500    4.000 
#    0.000    1.875    0.000    0.000    0.000    0.000 
#    0.000    0.000    0.000    0.000    0.000    0.000 
#
# Total GULP energy -396863.322670 kJ/mol
# GULP energy per Si atom -12401.978833 kJ/mol
# Density = 1.990434 g / cm^3
# Si number density = 19.949748 Si / 1000 Ang^3
#
#
#
# Elastic Constant Matrix: (Units=GPa)
#
#
# Indices 1 2 3 4 5 6 
#
# 1 78.1533 47.0167 30.8334 0.0000 -2.1929 0.0000
# 2 47.0167 112.3085 39.5814 0.0000 6.2860 0.0000
# 3 30.8334 39.5814 93.8608 0.0000 -4.3215 0.0000
# 4 0.0000 0.0000 0.0000 90.6038 0.0000 38.0725
# 5 -2.1929 6.2860 -4.3215 0.0000 31.9658 0.0000
# 6 0.0000 0.0000 0.0000 38.0725 0.0000 51.7520
#
#
#
# Elastic Compliance Matrix: (Units=1/GPa)
#
#
# Indices 1 2 3 4 5 6 
#
# 1 0.018020 -0.006590 -0.003043 0.000000 0.002121 0.000000
# 2 -0.006590 0.013100 -0.003521 0.000000 -0.003504 0.000000
# 3 -0.003043 -0.003521 0.013243 0.000000 0.002274 0.000000
# 4 0.000000 0.000000 0.000000 0.015976 0.000000 -0.011753
# 5 0.002121 -0.003504 0.002274 0.000000 0.032425 0.000000
# 6 0.000000 0.000000 0.000000 -0.011753 0.000000 0.027969
#
#
# Mechanical properties :
#
#
# Convention : Reuss Voigt Hill
#
# Bulk Modulus (GPa) = 55.38493 57.68727 56.53610
# Shear Modulus (GPa) = 32.66710 45.99040 39.32875
#
# Velocity S-wave (km/s) = 4.05096 4.80658 4.44485
# Velocity P-wave (km/s) = 7.05002 7.73197 7.39885
#
# Compressibility (1/GPa) = 0.01805545
#
# Stress axis : x y z
#
# Youngs Moduli (GPa) = 55.49407 76.33651 75.51130
#
# Poissons Ratio (x) = 0.50307 0.22977
# Poissons Ratio (y) = 0.36571 0.26586
# Poissons Ratio (z) = 0.16886 0.26876
#
# Static dielectric constant tensor:
#      x y z
#    x 3.645710 0.000000 -0.011600 
#    y 0.000000 3.947700 0.000000 
#    z -0.011600 0.000000 3.713020 
# 
# 
# High freq. dielectric constant tensor:
#      x y z
#    x 1.780000 0.000000 -0.000820 
#    y 0.000000 1.793860 0.000000 
#    z -0.000820 0.000000 1.788190 
# 
# From -- ./inp_files/183855.got.cif
#   From: 2010.06.25/outbox.cif.g09.slc.cpg/sg12_92_cif.got.tgz:183855.got - 2010.06.28 00:19:55.
