data_PCOD8112813
_publ_section_title
;
Structure prediction by ZEFSAII (Michael W. Deem and Ramdas Pophale) SiO2 
 PCOD8112813
Probable space group: C 2/M
;
_chemical_formula_sum "Si O2"
_cell_formula_units_Z 40
_cell_length_a 27.250942
_cell_length_b 8.596716
_cell_length_c 13.512643
_cell_angle_alpha 90.000000
_cell_angle_beta 38.177090
_cell_angle_gamma 90.000000
_cell_volume 1956.631370
_symmetry_space_group_name_H-M "C 2/M"
_symmetry_group_IT_number 12
_symmetry_cell_setting 'monoclinic'
loop_
_space_group_symop_operation_xyz
x,y,z
-x,y,-z
-x,-y,-z
x,-y,z
1/2+x,1/2+y,z
1/2-x,1/2+y,-z
1/2-x,1/2-y,-z
1/2+x,1/2-y,z
loop_
_atom_site_type_symbol
_atom_site_label
_atom_site_fract_x
_atom_site_fract_y
_atom_site_fract_z
Si Si1 0.665309 0.819679 0.658221
Si Si2 0.965735 0.180549 0.272967
Si Si3 0.766228 0.817517 0.867383
Si Si4 0.069464 0.681698 0.462315
Si Si5 0.125602 0.679692 0.948847
O O1 0.750000 0.750000 0.500000
O O2 0.600692 0.723918 0.700622
O O3 0.649326 0.796605 0.798539
O O4 0.661555 0.000000 0.633414
O O5 0.955750 0.282854 0.386415
O O6 0.958159 0.000000 0.312657
O O7 0.050712 0.213653 0.090658
O O8 0.850580 0.769403 0.691314
O O9 0.698275 0.759713 0.900292
O O10 0.763868 0.000000 0.879992
O O11 0.750000 0.750000 0.000000
O O12 0.084534 0.500000 0.424534
O O13 0.000000 0.740530 0.500000
O O14 0.104565 0.500000 0.004520
#
# Coordination Sequence:
#
# PCOD8112813 Si02
#       5
#     8   8   8   8   8
#     4  11  23  41  65  91 123 162 205 254 306 360
#     4  12  25  40  62  92 124 160 203 251 305 367
#     4  11  23  40  63  92 125 160 203 252 305 366
#     4  11  24  42  64  90 122 161 205 254 307 362
#     4  10  23  42  62  87 121 161 203 250 303 359
#
# _framework density 20.443299
#
# number of rings (size 3 to 8) (size 9 to 14) (size 15 to 20)
#    0.000    1.000    0.000    6.600    0.000   13.600 
#    0.000    0.000    0.000    0.000    0.000    0.000 
#    0.000    0.000    0.000    0.000    0.000    0.000 
#
# Total GULP energy -248148.881856 kJ/mol
# GULP energy per Si atom -12407.444093 kJ/mol
# Density = 2.039677 g / cm^3
# Si number density = 20.443299 Si / 1000 Ang^3
#
#
#
# Elastic Constant Matrix: (Units=GPa)
#
#
# Indices 1 2 3 4 5 6 
#
# 1 159.2827 31.2230 52.3919 0.0000 -17.4236 0.0000
# 2 31.2230 51.7094 27.3527 0.0000 -9.0626 0.0000
# 3 52.3919 27.3527 129.9775 0.0000 -16.7332 0.0000
# 4 0.0000 0.0000 0.0000 40.7573 0.0000 0.1458
# 5 -17.4236 -9.0626 -16.7332 0.0000 44.7642 0.0000
# 6 0.0000 0.0000 0.0000 0.1458 0.0000 32.4315
#
#
#
# Elastic Compliance Matrix: (Units=1/GPa)
#
#
# Indices 1 2 3 4 5 6 
#
# 1 0.007833 -0.003257 -0.002274 0.000000 0.001539 0.000000
# 2 -0.003257 0.023462 -0.003337 0.000000 0.002235 0.000000
# 3 -0.002274 -0.003337 0.009572 0.000000 0.002018 0.000000
# 4 0.000000 0.000000 0.000000 0.024536 0.000000 -0.000110
# 5 0.001539 0.002235 0.002018 0.000000 0.024145 0.000000
# 6 0.000000 0.000000 0.000000 -0.000110 0.000000 0.030835
#
#
# Mechanical properties :
#
#
# Convention : Reuss Voigt Hill
#
# Bulk Modulus (GPa) = 43.23020 62.54499 52.88760
# Shear Modulus (GPa) = 34.28674 38.92406 36.60540
#
# Velocity S-wave (km/s) = 4.09976 4.36822 4.23612
# Velocity P-wave (km/s) = 6.60326 7.49017 7.06065
#
# Compressibility (1/GPa) = 0.02313198
#
# Stress axis : x y z
#
# Youngs Moduli (GPa) = 127.66683 42.62156 104.47049
#
# Poissons Ratio (x) = 0.13882 0.23753
# Poissons Ratio (y) = 0.41583 0.34860
# Poissons Ratio (z) = 0.29028 0.14222
#
# Static dielectric constant tensor:
#      x y z
#    x 4.008300 0.000000 -0.043920 
#    y 0.000000 3.747490 0.000000 
#    z -0.043920 0.000000 3.725600 
# 
# 
# High freq. dielectric constant tensor:
#      x y z
#    x 1.821600 0.000000 -0.001500 
#    y 0.000000 1.805840 0.000000 
#    z -0.001500 0.000000 1.817260 
# 
# From -- ./inp_files/151687.got.cif
#   From: 2010.06.25/outbox.cif.g09.slc.cpg/sg12_76_cif.got.tgz:151687.got - 2010.06.28 00:19:55.
