data_PCOD8112429
_publ_section_title
;
Structure prediction by ZEFSAII (Michael W. Deem and Ramdas Pophale) SiO2 
 PCOD8112429
Probable space group: C 2/M
;
_chemical_formula_sum "Si O2"
_cell_formula_units_Z 60
_cell_length_a 9.986805
_cell_length_b 21.854410
_cell_length_c 21.112065
_cell_angle_alpha 90.000000
_cell_angle_beta 147.268290
_cell_angle_gamma 90.000000
_cell_volume 2491.480732
_symmetry_space_group_name_H-M "C 2/M"
_symmetry_group_IT_number 12
_symmetry_cell_setting 'monoclinic'
loop_
_space_group_symop_operation_xyz
x,y,z
-x,y,-z
-x,-y,-z
x,-y,z
1/2+x,1/2+y,z
1/2-x,1/2+y,-z
1/2-x,1/2-y,-z
1/2+x,1/2-y,z
loop_
_atom_site_type_symbol
_atom_site_label
_atom_site_fract_x
_atom_site_fract_y
_atom_site_fract_z
Si Si1 0.500000 0.300023 0.500000
Si Si2 0.252656 0.432543 0.563636
Si Si3 0.785357 0.626150 0.045586
Si Si4 0.211145 0.930603 0.147948
Si Si5 0.444502 0.866312 0.631667
Si Si6 0.204193 0.246235 0.704812
Si Si7 0.691149 0.362944 0.793103
Si Si8 0.257313 0.721496 0.075026
O O1 0.743824 0.341174 0.600698
O O2 0.474244 0.258840 0.427327
O O3 0.324698 0.500000 0.566779
O O4 0.216308 0.384915 0.492816
O O5 0.468149 0.410360 0.696556
O O6 0.000000 0.436362 0.500000
O O7 0.559138 0.584648 0.929840
O O8 0.751872 0.697743 0.004498
O O9 0.774291 0.618543 0.117494
O O10 0.053925 0.604354 0.128163
O O11 0.417769 0.925077 0.284478
O O12 0.214568 0.000000 0.123239
O O13 0.656751 0.815490 0.707367
O O14 0.123750 0.197277 0.725108
O O15 0.500568 0.237787 0.811620
O O16 0.716459 0.342906 0.876168
O O17 0.000000 0.751941 0.000000
#
# Coordination Sequence:
#
# PCOD8112429 Si02
#       8
#     4   8   8   8   8   8   8   8
#     4  12  26  42  67 108 135 188 226 280 354 416
#     4  11  26  46  70  99 136 183 232 286 346 409
#     4  10  22  44  66 101 135 178 229 285 343 406
#     4  11  24  45  73 101 137 185 235 289 347 409
#     4  12  25  45  70 102 140 180 230 290 345 420
#     4  12  24  44  70 103 142 184 228 282 349 418
#     4  11  24  45  70 104 140 181 232 282 350 412
#     4  10  23  43  68 100 141 178 228 282 343 415
#
# _framework density 24.082065
#
# number of rings (size 3 to 8) (size 9 to 14) (size 15 to 20)
#    0.000    0.933    2.667    4.000    2.800    3.200 
#    4.800    1.333    0.000    6.000    0.000    0.000 
#    0.000    0.000    0.000    0.000    0.000    0.000 
#
# Total GULP energy -371919.023071 kJ/mol
# GULP energy per Si atom -12397.300769 kJ/mol
# Density = 2.402725 g / cm^3
# Si number density = 24.082065 Si / 1000 Ang^3
#
#
#
# Elastic Constant Matrix: (Units=GPa)
#
#
# Indices 1 2 3 4 5 6 
#
# 1 60.2434 24.1544 13.7680 -0.0249 8.3213 -0.0283
# 2 24.1544 106.7725 28.1683 0.0133 10.6181 0.0103
# 3 13.7680 28.1683 134.3925 0.0369 16.6250 0.0265
# 4 -0.0249 0.0133 0.0369 -141.7334 -0.0480 -141.6584
# 5 8.3213 10.6181 16.6250 -0.0480 43.1775 -0.0448
# 6 -0.0283 0.0103 0.0265 -141.6584 -0.0448 -102.3482
#
#
#
# Elastic Compliance Matrix: (Units=1/GPa)
#
#
# Indices 1 2 3 4 5 6 
#
# 1 0.018620 -0.003760 -0.000829 -0.000004 -0.002345 0.000001
# 2 -0.003760 0.010796 -0.001721 0.000002 -0.001268 0.000000
# 3 -0.000829 -0.001721 0.008205 0.000001 -0.002576 0.000002
# 4 -0.000004 0.000002 0.000001 0.018405 -0.000006 -0.025474
# 5 -0.002345 -0.001268 -0.002576 -0.000006 0.024916 -0.000003
# 6 0.000001 0.000000 0.000002 -0.025474 -0.000003 0.025487
#
#
# Mechanical properties :
#
#
# Convention : Reuss Voigt Hill
#
# Bulk Modulus (GPa) = 39.99866 48.17665 44.08765
# Shear Modulus (GPa) = 39.25110 -24.49297 7.37907
#
# Velocity S-wave (km/s) = 4.04157 -3.19260 1.75237
# Velocity P-wave (km/s) = 6.19874 2.54133 4.73723
#
# Compressibility (1/GPa) = 0.02500084
#
# Stress axis : x y z
#
# Youngs Moduli (GPa) = 53.70435 92.62293 121.87331
#
# Poissons Ratio (x) = 0.34830 0.10108
# Poissons Ratio (y) = 0.20195 0.20973
# Poissons Ratio (z) = 0.04454 0.15939
#
# Static dielectric constant tensor:
#      x y z
#    x 4.459120 -0.000030 -0.170000 
#    y -0.000030 4.165120 -0.000010 
#    z -0.170000 -0.000010 4.827760 
# 
# 
# High freq. dielectric constant tensor:
#      x y z
#    x 1.950300 0.000000 0.004750 
#    y 0.000000 1.935050 0.000000 
#    z 0.004750 0.000000 1.986980 
# 
# From -- ./inp_files/336890.got.cif
#   From: 2010.06.25/outbox.cif.g09.slc.cpg/sg12_169_cif.got.tgz:336890.got - 2010.06.28 00:19:55.
