data_PCOD8112875
_publ_section_title
;
Structure prediction by ZEFSAII (Michael W. Deem and Ramdas Pophale) SiO2 
 PCOD8112875
Probable space group: C 2/M
;
_chemical_formula_sum "Si O2"
_cell_formula_units_Z 56
_cell_length_a 30.029841
_cell_length_b 8.906428
_cell_length_c 12.436550
_cell_angle_alpha 90.000000
_cell_angle_beta 128.260172
_cell_angle_gamma 90.000000
_cell_volume 2611.804593
_symmetry_space_group_name_H-M "C 2/M"
_symmetry_group_IT_number 12
_symmetry_cell_setting 'monoclinic'
loop_
_space_group_symop_operation_xyz
x,y,z
-x,y,-z
-x,-y,-z
x,-y,z
1/2+x,1/2+y,z
1/2-x,1/2+y,-z
1/2-x,1/2-y,-z
1/2+x,1/2-y,z
loop_
_atom_site_type_symbol
_atom_site_label
_atom_site_fract_x
_atom_site_fract_y
_atom_site_fract_z
Si Si1 0.891599 0.325461 0.188456
Si Si2 0.804747 0.326990 0.873595
Si Si3 0.450354 0.837550 0.003423
Si Si4 0.373871 0.675424 0.537075
Si Si5 0.495704 0.674960 0.274549
Si Si6 0.307916 0.176784 0.249922
Si Si7 0.646317 0.325638 0.248188
O O1 0.906046 0.500000 0.227322
O O2 0.949100 0.226838 0.294008
O O3 0.847023 0.268476 0.210251
O O4 0.863807 0.297541 0.027501
O O5 0.788190 0.500000 0.846925
O O6 0.754451 0.243674 0.860849
O O7 0.808375 0.267152 0.755695
O O8 0.413753 0.705886 0.896293
O O9 0.417569 0.000000 0.973570
O O10 0.500000 0.878808 0.000000
O O11 0.478799 0.781701 0.153302
O O12 0.361369 0.500000 0.505267
O O13 0.438955 0.710300 0.600173
O O14 0.333313 0.768911 0.400327
O O15 0.358043 0.727289 0.634645
O O16 0.488558 0.500000 0.236603
O O17 0.302493 0.000000 0.243251
O O18 0.661428 0.500000 0.262766
#
# Coordination Sequence:
#
# PCOD8112875 Si02
#       7
#     8   8   8   8   8   8   8
#     4  10  23  42  64  94 125 157 204 259 313 366
#     4  11  23  41  66  94 124 158 202 258 317 369
#     4  11  21  33  55  89 127 163 200 249 309 366
#     4  10  24  43  61  89 128 167 207 251 301 365
#     4  11  22  37  62  93 125 163 205 252 306 365
#     4  11  25  44  65  88 120 165 213 257 306 367
#     4  11  22  38  62  92 126 161 205 253 304 366
#
# _framework density 21.441112
#
# number of rings (size 3 to 8) (size 9 to 14) (size 15 to 20)
#    0.000    1.286    2.857    2.571    0.000    5.714 
#    0.000    2.857    0.000    0.000    0.000    0.000 
#    0.000    0.000    0.000    0.000    0.000    0.000 
#
# Total GULP energy -347094.857841 kJ/mol
# GULP energy per Si atom -12396.244923 kJ/mol
# Density = 2.139231 g / cm^3
# Si number density = 21.441112 Si / 1000 Ang^3
#
#
#
# Elastic Constant Matrix: (Units=GPa)
#
#
# Indices 1 2 3 4 5 6 
#
# 1 105.6469 24.3769 3.5007 0.0000 -8.4160 0.0000
# 2 24.3769 67.8658 14.6773 0.0000 -1.9972 0.0000
# 3 3.5007 14.6773 44.7465 0.0000 -4.4034 0.0000
# 4 0.0000 0.0000 0.0000 29.9634 0.0000 1.3682
# 5 -8.4160 -1.9972 -4.4034 0.0000 30.6784 0.0000
# 6 0.0000 0.0000 0.0000 1.3682 0.0000 39.4404
#
#
#
# Elastic Compliance Matrix: (Units=1/GPa)
#
#
# Indices 1 2 3 4 5 6 
#
# 1 0.010552 -0.003863 0.000712 0.000000 0.002745 0.000000
# 2 -0.003863 0.017277 -0.005435 0.000000 -0.000715 0.000000
# 3 0.000712 -0.005435 0.024404 0.000000 0.003344 0.000000
# 4 0.000000 0.000000 0.000000 0.033427 0.000000 -0.001160
# 5 0.002745 -0.000715 0.003344 0.000000 0.033783 0.000000
# 6 0.000000 0.000000 0.000000 -0.001160 0.000000 0.025395
#
#
# Mechanical properties :
#
#
# Convention : Reuss Voigt Hill
#
# Bulk Modulus (GPa) = 28.52248 33.70766 31.11507
# Shear Modulus (GPa) = 28.78555 31.73007 30.25781
#
# Velocity S-wave (km/s) = 3.66804 3.85108 3.76068
# Velocity P-wave (km/s) = 5.59205 5.96067 5.77930
#
# Compressibility (1/GPa) = 0.03506007
#
# Stress axis : x y z
#
# Youngs Moduli (GPa) = 94.76842 57.88018 40.97634
#
# Poissons Ratio (x) = 0.22361 -0.02917
# Poissons Ratio (y) = 0.36613 0.22271
# Poissons Ratio (z) = -0.06746 0.31459
#
# Static dielectric constant tensor:
#      x y z
#    x 4.271920 0.000000 -0.159020 
#    y 0.000000 3.764530 0.000000 
#    z -0.159020 0.000000 3.636740 
# 
# 
# High freq. dielectric constant tensor:
#      x y z
#    x 1.868450 0.000000 -0.006160 
#    y 0.000000 1.844100 0.000000 
#    z -0.006160 0.000000 1.818940 
# 
# From -- ./inp_files/187758.got.cif
#   From: 2010.06.25/outbox.cif.g09.slc.cpg/sg12_94_cif.got.tgz:187758.got - 2010.06.28 00:19:55.
