data_PCOD8112732
_publ_section_title
;
Structure prediction by ZEFSAII (Michael W. Deem and Ramdas Pophale) SiO2 
 PCOD8112732
Probable space group: C 2/M
;
_chemical_formula_sum "Si O2"
_cell_formula_units_Z 56
_cell_length_a 9.713108
_cell_length_b 24.222350
_cell_length_c 13.946963
_cell_angle_alpha 90.000000
_cell_angle_beta 118.546697
_cell_angle_gamma 90.000000
_cell_volume 2882.440006
_symmetry_space_group_name_H-M "C 2/M"
_symmetry_group_IT_number 12
_symmetry_cell_setting 'monoclinic'
loop_
_space_group_symop_operation_xyz
x,y,z
-x,y,-z
-x,-y,-z
x,-y,z
1/2+x,1/2+y,z
1/2-x,1/2+y,-z
1/2-x,1/2-y,-z
1/2+x,1/2-y,z
loop_
_atom_site_type_symbol
_atom_site_label
_atom_site_fract_x
_atom_site_fract_y
_atom_site_fract_z
Si Si1 0.472586 0.063568 0.600652
Si Si2 0.962247 0.697859 0.883155
Si Si3 0.932330 0.755472 0.579527
Si Si4 0.469998 0.676098 0.883772
Si Si5 0.341465 0.563340 0.392280
Si Si6 0.376096 0.343294 0.250935
Si Si7 0.889228 0.660318 0.252706
O O1 0.500000 0.081503 0.500000
O O2 0.296358 0.076497 0.577868
O O3 0.592211 0.097858 0.705212
O O4 0.516617 0.000000 0.629436
O O5 0.025558 0.760343 0.898124
O O6 0.777511 0.695208 0.799171
O O7 0.061332 0.662002 0.841565
O O8 0.000000 0.672782 0.000000
O O9 0.750000 0.750000 0.500000
O O10 0.000000 0.768577 0.500000
O O11 0.977720 0.807943 0.659858
O O12 0.998455 0.699584 0.647428
O O13 0.573758 0.641572 0.841568
O O14 0.289838 0.675812 0.794340
O O15 0.500000 0.651375 0.000000
O O16 0.500000 0.576329 0.500000
O O17 0.332952 0.500000 0.354230
O O18 0.335953 0.601432 0.296225
#
# Coordination Sequence:
#
# PCOD8112732 Si02
#       7
#     8   8   8   8   8   8   8
#     4  10  23  42  64  89 119 159 203 242 289 358
#     4  11  21  39  62  86 119 158 206 251 296 358
#     4  12  24  35  53  86 125 158 189 234 299 361
#     4  11  23  39  60  89 120 157 206 250 297 360
#     4  10  23  41  63  90 119 159 204 241 291 359
#     4  12  22  39  61  87 123 160 196 249 303 350
#     4  12  22  39  59  88 121 158 198 244 304 356
#
# _framework density 19.427983999999999
#
# number of rings (size 3 to 8) (size 9 to 14) (size 15 to 20)
#    0.000    0.857    4.286    3.429    4.000    2.286 
#    0.000    0.000    0.000    5.143    0.000    0.000 
#    0.000    0.000    0.000    0.000    0.000    0.000 
#
# Total GULP energy -347275.636647 kJ/mol
# GULP energy per Si atom -12402.701309 kJ/mol
# Density = 1.938376 g / cm^3
# Si number density = 19.427984 Si / 1000 Ang^3
#
#
#
# Elastic Constant Matrix: (Units=GPa)
#
#
# Indices 1 2 3 4 5 6 
#
# 1 123.7369 32.9359 38.6089 0.0000 -24.8814 0.0000
# 2 32.9359 75.2100 41.6376 0.0000 -14.0464 0.0000
# 3 38.6089 41.6376 85.5242 0.0000 -21.4114 0.0000
# 4 0.0000 0.0000 0.0000 24.3251 0.0000 -6.6702
# 5 -24.8814 -14.0464 -21.4114 0.0000 47.7575 0.0000
# 6 0.0000 0.0000 0.0000 -6.6702 0.0000 24.8392
#
#
#
# Elastic Compliance Matrix: (Units=1/GPa)
#
#
# Indices 1 2 3 4 5 6 
#
# 1 0.010222 -0.002402 -0.002578 0.000000 0.003463 0.000000
# 2 -0.002402 0.018870 -0.007915 0.000000 0.000750 0.000000
# 3 -0.002578 -0.007915 0.017787 0.000000 0.004304 0.000000
# 4 0.000000 0.000000 0.000000 0.044377 0.000000 0.011917
# 5 0.003463 0.000750 0.004304 0.000000 0.024893 0.000000
# 6 0.000000 0.000000 0.000000 0.011917 0.000000 0.043459
#
#
# Mechanical properties :
#
#
# Convention : Reuss Voigt Hill
#
# Bulk Modulus (GPa) = 47.41789 56.75954 52.08872
# Shear Modulus (GPa) = 25.98373 30.80361 28.39367
#
# Velocity S-wave (km/s) = 3.66107 3.98619 3.82708
# Velocity P-wave (km/s) = 6.50624 7.10388 6.81162
#
# Compressibility (1/GPa) = 0.02108909
#
# Stress axis : x y z
#
# Youngs Moduli (GPa) = 97.82929 52.99456 56.22078
#
# Poissons Ratio (x) = 0.12731 0.14493
# Poissons Ratio (y) = 0.23502 0.44496
# Poissons Ratio (z) = 0.25220 0.41943
#
# Static dielectric constant tensor:
#      x y z
#    x 3.738440 0.000000 -0.165790 
#    y 0.000000 3.427460 0.000000 
#    z -0.165790 0.000000 3.703740 
# 
# 
# High freq. dielectric constant tensor:
#      x y z
#    x 1.778470 0.000000 -0.007800 
#    y 0.000000 1.727430 0.000000 
#    z -0.007800 0.000000 1.758920 
# 
# From -- ./inp_files/124373.got.cif
#   From: 2010.06.25/outbox.cif.g09.slc.cpg/sg12_63_cif.got.tgz:124373.got - 2010.06.28 00:19:55.
