data_PCOD8112816
_publ_section_title
;
Structure prediction by ZEFSAII (Michael W. Deem and Ramdas Pophale) SiO2 
 PCOD8112816
Probable space group: C 2/M
;
_chemical_formula_sum "Si O2"
_cell_formula_units_Z 56
_cell_length_a 15.248863
_cell_length_b 27.899761
_cell_length_c 7.865876
_cell_angle_alpha 90.000000
_cell_angle_beta 54.944635
_cell_angle_gamma 90.000000
_cell_volume 2739.399737
_symmetry_space_group_name_H-M "C 2/M"
_symmetry_group_IT_number 12
_symmetry_cell_setting 'monoclinic'
loop_
_space_group_symop_operation_xyz
x,y,z
-x,y,-z
-x,-y,-z
x,-y,z
1/2+x,1/2+y,z
1/2-x,1/2+y,-z
1/2-x,1/2-y,-z
1/2+x,1/2-y,z
loop_
_atom_site_type_symbol
_atom_site_label
_atom_site_fract_x
_atom_site_fract_y
_atom_site_fract_z
Si Si1 0.633536 0.616082 0.170096
Si Si2 0.306544 0.444491 0.216974
Si Si3 0.111169 0.117079 0.582706
Si Si4 0.722682 0.803402 0.575081
Si Si5 0.510805 0.151551 0.680587
Si Si6 0.433181 0.947885 0.407888
Si Si7 0.208847 0.301360 0.984543
O O1 0.651389 0.600275 0.348779
O O2 0.511700 0.633300 0.286213
O O3 0.706824 0.660877 0.036314
O O4 0.664095 0.574747 0.003639
O O5 0.330120 0.500000 0.179227
O O6 0.380270 0.424829 0.287951
O O7 0.185387 0.432396 0.402056
O O8 0.178648 0.161917 0.579249
O O9 0.750000 0.750000 0.500000
O O10 0.617031 0.818022 0.591420
O O11 0.699966 0.805290 0.796185
O O12 0.500000 0.136182 0.500000
O O13 0.520041 0.097583 0.756534
O O14 0.411328 0.185429 0.830362
O O15 0.500000 0.957768 0.500000
O O16 0.431737 0.000000 0.309876
O O17 0.250000 0.250000 0.000000
#
# Coordination Sequence:
#
# PCOD8112816 Si02
#       7
#     8   8   8   8   8   8   8
#     4  10  23  42  62  89 129 169 208 266 316 381
#     4  11  22  40  67  97 127 167 216 265 320 384
#     4  10  23  42  62  90 129 167 212 263 317 384
#     4  11  24  41  63  90 126 169 214 262 323 379
#     4  11  21  39  65  91 130 166 207 264 317 380
#     4   9  18  34  62  93 123 165 213 257 314 376
#     4  11  25  41  62  94 125 164 216 263 318 381
#
# _framework density 20.442436000000001
#
# number of rings (size 3 to 8) (size 9 to 14) (size 15 to 20)
#    0.000    1.571    1.429    3.429    4.000    1.714 
#    0.000    1.429    0.000    2.571    0.000    0.000 
#    0.000    0.000    0.000    0.000    0.000    0.000 
#
# Total GULP energy -346946.104110 kJ/mol
# GULP energy per Si atom -12390.932290 kJ/mol
# Density = 2.039591 g / cm^3
# Si number density = 20.442436 Si / 1000 Ang^3
#
#
#
# Elastic Constant Matrix: (Units=GPa)
#
#
# Indices 1 2 3 4 5 6 
#
# 1 123.0015 59.3231 33.4073 0.0000 -15.4072 0.0000
# 2 59.3231 178.7216 51.8414 0.0000 -10.7658 0.0000
# 3 33.4073 51.8414 55.3613 0.0000 -5.1200 0.0000
# 4 0.0000 0.0000 0.0000 33.3371 0.0000 -4.0714
# 5 -15.4072 -10.7658 -5.1200 0.0000 34.8686 0.0000
# 6 0.0000 0.0000 0.0000 -4.0714 0.0000 38.4064
#
#
#
# Elastic Compliance Matrix: (Units=1/GPa)
#
#
# Indices 1 2 3 4 5 6 
#
# 1 0.010725 -0.002151 -0.004137 0.000000 0.003468 0.000000
# 2 -0.002151 0.008175 -0.006297 0.000000 0.000649 0.000000
# 3 -0.004137 -0.006297 0.026467 0.000000 0.000114 0.000000
# 4 0.000000 0.000000 0.000000 0.030390 0.000000 0.003222
# 5 0.003468 0.000649 0.000114 0.000000 0.030428 0.000000
# 6 0.000000 0.000000 0.000000 0.003222 0.000000 0.026379
#
#
# Mechanical properties :
#
#
# Convention : Reuss Voigt Hill
#
# Bulk Modulus (GPa) = 49.51317 71.80310 60.65814
# Shear Modulus (GPa) = 30.40111 35.48994 32.94553
#
# Velocity S-wave (km/s) = 3.86055 4.17116 4.01886
# Velocity P-wave (km/s) = 6.64418 7.64192 7.16045
#
# Compressibility (1/GPa) = 0.02019665
#
# Stress axis : x y z
#
# Youngs Moduli (GPa) = 93.23601 122.32382 37.78300
#
# Poissons Ratio (x) = 0.26314 0.15631
# Poissons Ratio (y) = 0.20057 0.23792
# Poissons Ratio (z) = 0.38572 0.77029
#
# Static dielectric constant tensor:
#      x y z
#    x 4.461880 0.000000 -0.327340 
#    y 0.000000 3.872920 0.000000 
#    z -0.327340 0.000000 3.915570 
# 
# 
# High freq. dielectric constant tensor:
#      x y z
#    x 1.817500 0.000000 -0.008630 
#    y 0.000000 1.808550 0.000000 
#    z -0.008630 0.000000 1.784750 
# 
# From -- ./inp_files/65747.got.cif
#   From: 2010.06.25/outbox.cif.g09.slc.cpg/sg12_33_cif.got.tgz:65747.got - 2010.06.28 00:19:55.
