data_PCOD8112420
_publ_section_title
;
Structure prediction by ZEFSAII (Michael W. Deem and Ramdas Pophale) SiO2 
 PCOD8112420
Probable space group: C 2/M
;
_chemical_formula_sum "Si O2"
_cell_formula_units_Z 32
_cell_length_a 12.849097
_cell_length_b 13.671205
_cell_length_c 10.485021
_cell_angle_alpha 90.000000
_cell_angle_beta 44.907425
_cell_angle_gamma 90.000000
_cell_volume 1300.261995
_symmetry_space_group_name_H-M "C 2/M"
_symmetry_group_IT_number 12
_symmetry_cell_setting 'monoclinic'
loop_
_space_group_symop_operation_xyz
x,y,z
-x,y,-z
-x,-y,-z
x,-y,z
1/2+x,1/2+y,z
1/2-x,1/2+y,-z
1/2-x,1/2-y,-z
1/2+x,1/2-y,z
loop_
_atom_site_type_symbol
_atom_site_label
_atom_site_fract_x
_atom_site_fract_y
_atom_site_fract_z
Si Si1 0.119486 0.612936 0.064285
Si Si2 0.429264 0.614426 0.690799
Si Si3 0.929798 0.209009 0.187668
Si Si4 0.665949 0.889162 0.313604
O O1 0.069986 0.500000 0.099648
O O2 0.178064 0.639902 0.154478
O O3 0.975600 0.676141 0.151857
O O4 0.254340 0.638207 0.851347
O O5 0.500000 0.658447 0.500000
O O6 0.455703 0.500000 0.673901
O O7 0.515491 0.658818 0.733236
O O8 0.755608 0.188296 0.323106
O O9 0.000000 0.159293 0.000000
O O10 0.500000 0.879258 0.500000
O O11 0.723488 0.000000 0.285699
#
# Coordination Sequence:
#
# PCOD8112420 Si02
#       4
#     8   8   8   8
#     4  10  23  46  71 103 151 193 236 299 365 426
#     4  10  22  43  73 110 151 189 235 301 369 429
#     4  12  24  42  76 107 139 188 250 292 355 426
#     4  10  23  45  73 106 144 188 241 300 360 426
#
# _framework density 24.610424999999999
#
# number of rings (size 3 to 8) (size 9 to 14) (size 15 to 20)
#    0.000    1.500    2.500    1.500    0.000    3.500 
#    4.500    0.000    0.000    0.750    0.000    0.000 
#    0.000    0.000    0.000    0.000    0.000    0.000 
#
# Total GULP energy -198403.478913 kJ/mol
# GULP energy per Si atom -12400.217432 kJ/mol
# Density = 2.455441 g / cm^3
# Si number density = 24.610425 Si / 1000 Ang^3
#
#
#
# Elastic Constant Matrix: (Units=GPa)
#
#
# Indices 1 2 3 4 5 6 
#
# 1 155.8499 93.4842 72.7193 0.0000 -3.1561 0.0000
# 2 93.4842 115.7519 54.1601 0.0000 -15.6992 0.0000
# 3 72.7193 54.1601 128.9712 0.0000 14.6159 0.0000
# 4 0.0000 0.0000 0.0000 -5.2581 0.0000 -25.3812
# 5 -3.1561 -15.6992 14.6159 0.0000 46.3635 0.0000
# 6 0.0000 0.0000 0.0000 -25.3812 0.0000 36.6283
#
#
#
# Elastic Compliance Matrix: (Units=1/GPa)
#
#
# Indices 1 2 3 4 5 6 
#
# 1 0.013897 -0.009684 -0.003634 0.000000 -0.001187 0.000000
# 2 -0.009684 0.018893 -0.003240 0.000000 0.006759 0.000000
# 3 -0.003634 -0.003240 0.011735 0.000000 -0.005044 0.000000
# 4 0.000000 0.000000 0.000000 -0.043772 0.000000 -0.030331
# 5 -0.001187 0.006759 -0.005044 0.000000 0.025367 0.000000
# 6 0.000000 0.000000 0.000000 -0.030331 0.000000 0.006284
#
#
# Mechanical properties :
#
#
# Convention : Reuss Voigt Hill
#
# Bulk Modulus (GPa) = 87.65307 93.47778 90.56543
# Shear Modulus (GPa) = 72.12683 27.56071 49.84377
#
# Velocity S-wave (km/s) = 5.41951 3.35009 4.50523
# Velocity P-wave (km/s) = 8.65188 7.28214 7.99639
#
# Compressibility (1/GPa) = 0.01140861
#
# Stress axis : x y z
#
# Youngs Moduli (GPa) = 71.95740 52.92995 85.21577
#
# Poissons Ratio (x) = 0.51258 0.30971
# Poissons Ratio (y) = 0.69685 0.27606
# Poissons Ratio (z) = 0.26152 0.17147
#
# Static dielectric constant tensor:
#      x y z
#    x 4.424450 0.000000 0.293270 
#    y 0.000000 4.642840 0.000000 
#    z 0.293270 0.000000 4.740020 
# 
# 
# High freq. dielectric constant tensor:
#      x y z
#    x 1.981350 0.000000 0.011150 
#    y 0.000000 1.988130 0.000000 
#    z 0.011150 0.000000 1.979810 
# 
# From -- ./inp_files/130744.got.cif
#   From: 2010.06.25/outbox.cif.g09.slc.cpg/sg12_66_cif.got.tgz:130744.got - 2010.06.28 00:19:55.
