data_PCOD8112962
_publ_section_title
;
Structure prediction by ZEFSAII (Michael W. Deem and Ramdas Pophale) SiO2 
 PCOD8112962
Probable space group: C 2/M
;
_chemical_formula_sum "Si O2"
_cell_formula_units_Z 52
_cell_length_a 16.829220
_cell_length_b 8.479771
_cell_length_c 21.539685
_cell_angle_alpha 90.000000
_cell_angle_beta 126.652692
_cell_angle_gamma 90.000000
_cell_volume 2466.081201
_symmetry_space_group_name_H-M "C 2/M"
_symmetry_group_IT_number 12
_symmetry_cell_setting 'monoclinic'
loop_
_space_group_symop_operation_xyz
x,y,z
-x,y,-z
-x,-y,-z
x,-y,z
1/2+x,1/2+y,z
1/2-x,1/2+y,-z
1/2-x,1/2-y,-z
1/2+x,1/2-y,z
loop_
_atom_site_type_symbol
_atom_site_label
_atom_site_fract_x
_atom_site_fract_y
_atom_site_fract_z
Si Si1 0.748425 0.000000 0.107199
Si Si2 0.948860 0.327173 0.341297
Si Si3 0.798216 0.179999 0.360313
Si Si4 0.851426 0.182158 0.522404
Si Si5 0.612301 0.676590 0.224846
Si Si6 0.376202 0.000000 0.067877
Si Si7 0.590633 0.247707 0.813468
Si Si8 0.591633 0.000000 0.137807
O O1 0.815361 0.853911 0.156529
O O2 0.648181 0.000000 0.099629
O O3 0.719426 0.000000 0.020965
O O4 0.935058 0.500000 0.364620
O O5 0.872465 0.208162 0.337690
O O6 0.929333 0.345899 0.258865
O O7 0.060451 0.272154 0.402973
O O8 0.858079 0.208737 0.451572
O O9 0.704322 0.297669 0.314529
O O10 0.759828 0.000000 0.338094
O O11 0.750000 0.250000 0.500000
O O12 0.859757 0.000000 0.543765
O O13 0.625120 0.500000 0.198873
O O14 0.510379 0.663642 0.215270
O O15 0.617066 0.832701 0.183445
O O16 0.374691 0.148341 0.111790
O O17 0.474441 0.000000 0.071005
#
# Coordination Sequence:
#
# PCOD8112962 Si02
#       8
#     4   8   8   8   8   4   8   4
#     4  12  23  42  70 100 132 173 216 280 347 403
#     4  12  25  41  64  95 132 173 224 281 335 397
#     4  11  24  41  63  94 133 176 223 281 336 390
#     4  11  25  42  64  92 130 174 223 278 336 398
#     4  11  22  41  67  98 134 181 229 272 335 400
#     4  10  23  46  68  95 135 175 217 273 344 414
#     4  11  24  41  67  98 130 171 225 272 332 409
#     4  10  23  42  70  99 138 176 226 279 333 409
#
# _framework density 21.086086000000002
#
# number of rings (size 3 to 8) (size 9 to 14) (size 15 to 20)
#    0.000    0.923    2.308    4.385    2.154    6.769 
#    1.385    0.000    0.000    1.846    0.000    0.000 
#    0.000    0.000    0.000    0.000    0.000    0.000 
#
# Total GULP energy -322279.680741 kJ/mol
# GULP energy per Si atom -12395.372336 kJ/mol
# Density = 2.103809 g / cm^3
# Si number density = 21.086086 Si / 1000 Ang^3
#
#
#
# Elastic Constant Matrix: (Units=GPa)
#
#
# Indices 1 2 3 4 5 6 
#
# 1 97.9465 25.8093 32.9082 0.0000 -2.9100 0.0000
# 2 25.8093 133.6192 42.8960 0.0000 0.4096 0.0000
# 3 32.9082 42.8960 107.5749 0.0000 3.6773 0.0000
# 4 0.0000 0.0000 0.0000 8.7621 0.0000 6.4481
# 5 -2.9100 0.4096 3.6773 0.0000 32.4421 0.0000
# 6 0.0000 0.0000 0.0000 6.4481 0.0000 29.9891
#
#
#
# Elastic Compliance Matrix: (Units=1/GPa)
#
#
# Indices 1 2 3 4 5 6 
#
# 1 0.011625 -0.001253 -0.003105 0.000000 0.001410 0.000000
# 2 -0.001253 0.008720 -0.003098 0.000000 0.000129 0.000000
# 3 -0.003105 -0.003098 0.011534 0.000000 -0.001547 0.000000
# 4 0.000000 0.000000 0.000000 0.135580 0.000000 -0.029152
# 5 0.001410 0.000129 -0.001547 0.000000 0.031124 0.000000
# 6 0.000000 0.000000 0.000000 -0.029152 0.000000 0.039613
#
#
# Mechanical properties :
#
#
# Convention : Reuss Voigt Hill
#
# Bulk Modulus (GPa) = 58.93818 60.26306 59.60062
# Shear Modulus (GPa) = 19.32254 30.07381 24.69817
#
# Velocity S-wave (km/s) = 3.03044 3.78066 3.42614
# Velocity P-wave (km/s) = 6.34481 6.90647 6.63159
#
# Compressibility (1/GPa) = 0.01696693
#
# Stress axis : x y z
#
# Youngs Moduli (GPa) = 86.02252 114.67556 86.70045
#
# Poissons Ratio (x) = 0.14369 0.26918
# Poissons Ratio (y) = 0.10779 0.26863
# Poissons Ratio (z) = 0.26708 0.35530
#
# Static dielectric constant tensor:
#      x y z
#    x 3.735510 0.000000 0.120790 
#    y 0.000000 3.827610 0.000000 
#    z 0.120790 0.000000 3.769080 
# 
# 
# High freq. dielectric constant tensor:
#      x y z
#    x 1.829280 0.000000 0.012080 
#    y 0.000000 1.837720 0.000000 
#    z 0.012080 0.000000 1.824570 
# 
# From -- ./inp_files/314935.got.cif
#   From: 2010.06.25/outbox.cif.g09.slc.cpg/sg12_158_cif.got.tgz:314935.got - 2010.06.28 00:19:55.
