data_PCOD8112662
_publ_section_title
;
Structure prediction by ZEFSAII (Michael W. Deem and Ramdas Pophale) SiO2 
 PCOD8112662
Probable space group: C 2/M
;
_chemical_formula_sum "Si O2"
_cell_formula_units_Z 52
_cell_length_a 15.403805
_cell_length_b 8.429507
_cell_length_c 31.935519
_cell_angle_alpha 90.000000
_cell_angle_beta 35.655607
_cell_angle_gamma 90.000000
_cell_volume 2417.169113
_symmetry_space_group_name_H-M "C 2/M"
_symmetry_group_IT_number 12
_symmetry_cell_setting 'monoclinic'
loop_
_space_group_symop_operation_xyz
x,y,z
-x,y,-z
-x,-y,-z
x,-y,z
1/2+x,1/2+y,z
1/2-x,1/2+y,-z
1/2-x,1/2-y,-z
1/2+x,1/2-y,z
loop_
_atom_site_type_symbol
_atom_site_label
_atom_site_fract_x
_atom_site_fract_y
_atom_site_fract_z
Si Si1 0.880287 0.322350 0.802948
Si Si2 0.838498 0.814054 0.579953
Si Si3 0.012584 0.500000 0.094110
Si Si4 0.043162 0.246622 0.821114
Si Si5 0.453394 0.684731 0.338218
Si Si6 0.355380 0.177466 0.665092
Si Si7 0.801869 0.000000 0.938089
Si Si8 0.297764 0.000000 0.110548
O O1 0.802121 0.500000 0.831544
O O2 0.990748 0.330546 0.799197
O O3 0.974253 0.301416 0.724080
O O4 0.778903 0.166115 0.845762
O O5 0.722982 0.719273 0.595465
O O6 0.824164 0.765213 0.633936
O O7 0.000000 0.766386 0.500000
O O8 0.807689 0.000000 0.587742
O O9 0.932330 0.359511 0.149676
O O10 0.960048 0.500000 0.066876
O O11 0.195017 0.500000 0.021454
O O12 0.199604 0.161042 0.751497
O O13 0.909631 0.146798 0.892888
O O14 0.483917 0.500000 0.316171
O O15 0.520520 0.725745 0.357491
O O16 0.414628 0.000000 0.633695
O O17 0.685886 0.000000 0.945318
#
# Coordination Sequence:
#
# PCOD8112662 Si02
#       8
#     8   8   4   8   8   8   4   4
#     4  11  21  40  64  96 133 176 225 285 344 400
#     4  11  26  47  71 102 142 182 224 282 346 412
#     4  12  23  40  64  97 131 171 229 283 347 407
#     4  11  23  39  66  96 127 176 227 279 339 405
#     4  12  25  41  68 102 139 180 234 284 341 407
#     4  12  25  43  70 103 135 179 233 286 343 410
#     4  10  23  44  64  89 134 180 219 282 348 415
#     4  10  23  40  66  94 130 175 229 283 348 410
#
# _framework density 21.51277
#
# number of rings (size 3 to 8) (size 9 to 14) (size 15 to 20)
#    0.000    0.769    3.846    3.923    2.154    1.846 
#    1.385    0.000    0.000    1.846    0.000    0.000 
#    0.000    0.000    0.000    0.000    0.000    0.000 
#
# Total GULP energy -322138.302250 kJ/mol
# GULP energy per Si atom -12389.934702 kJ/mol
# Density = 2.146381 g / cm^3
# Si number density = 21.512770 Si / 1000 Ang^3
#
#
#
# Elastic Constant Matrix: (Units=GPa)
#
#
# Indices 1 2 3 4 5 6 
#
# 1 125.3734 29.0932 22.4795 0.0015 -10.8942 -0.0004
# 2 29.0932 143.0352 23.5795 0.0000 -5.8334 -0.0096
# 3 22.4795 23.5795 86.8844 -0.0018 -11.2739 0.0030
# 4 0.0015 0.0000 -0.0018 25.2964 0.0019 -4.9575
# 5 -10.8942 -5.8334 -11.2739 0.0019 20.9542 -0.0023
# 6 -0.0004 -0.0096 0.0030 -4.9575 -0.0023 22.7291
#
#
#
# Elastic Compliance Matrix: (Units=1/GPa)
#
#
# Indices 1 2 3 4 5 6 
#
# 1 0.008866 -0.001422 -0.001463 -0.000001 0.003426 0.000000
# 2 -0.001422 0.007568 -0.001622 0.000001 0.000495 0.000004
# 3 -0.001463 -0.001622 0.013084 0.000000 0.005828 -0.000002
# 4 -0.000001 0.000001 0.000000 0.041297 -0.000003 0.009007
# 5 0.003426 0.000495 0.005828 -0.000003 0.052778 0.000004
# 6 0.000000 0.000004 -0.000002 0.009007 0.000004 0.045961
#
#
# Mechanical properties :
#
#
# Convention : Reuss Voigt Hill
#
# Bulk Modulus (GPa) = 48.77097 56.17747 52.47422
# Shear Modulus (GPa) = 26.96815 32.47199 29.72007
#
# Velocity S-wave (km/s) = 3.54445 3.88935 3.72090
# Velocity P-wave (km/s) = 6.28257 6.80732 6.55020
#
# Compressibility (1/GPa) = 0.02050400
#
# Stress axis : x y z
#
# Youngs Moduli (GPa) = 112.78577 132.13317 76.42675
#
# Poissons Ratio (x) = 0.18795 0.11184
# Poissons Ratio (y) = 0.16043 0.12394
# Poissons Ratio (z) = 0.16504 0.21428
#
# Static dielectric constant tensor:
#      x y z
#    x 3.958520 -0.000010 0.007110 
#    y -0.000010 3.760430 -0.000010 
#    z 0.007110 -0.000010 3.704200 
# 
# 
# High freq. dielectric constant tensor:
#      x y z
#    x 1.848470 0.000000 0.001980 
#    y 0.000000 1.857030 0.000000 
#    z 0.001980 0.000000 1.833570 
# 
# From -- ./inp_files/375356.got.cif
#   From: 2010.06.25/outbox.cif.g09.slc.cpg/sg12_188_cif.got.tgz:375356.got - 2010.06.28 00:19:55.
