data_PCOD8112493
_publ_section_title
;
Structure prediction by ZEFSAII (Michael W. Deem and Ramdas Pophale) SiO2 
 PCOD8112493
Probable space group: C 2/M
;
_chemical_formula_sum "Si O2"
_cell_formula_units_Z 28
_cell_length_a 25.893069
_cell_length_b 7.522104
_cell_length_c 13.299463
_cell_angle_alpha 90.000000
_cell_angle_beta 140.789630
_cell_angle_gamma 90.000000
_cell_volume 1637.534811
_symmetry_space_group_name_H-M "C 2/M"
_symmetry_group_IT_number 12
_symmetry_cell_setting 'monoclinic'
loop_
_space_group_symop_operation_xyz
x,y,z
-x,y,-z
-x,-y,-z
x,-y,z
1/2+x,1/2+y,z
1/2-x,1/2+y,-z
1/2-x,1/2-y,-z
1/2+x,1/2-y,z
loop_
_atom_site_type_symbol
_atom_site_label
_atom_site_fract_x
_atom_site_fract_y
_atom_site_fract_z
Si Si1 0.290782 0.298179 0.957116
Si Si2 0.799153 0.803626 0.372843
Si Si3 0.843627 0.500000 0.765773
Si Si4 0.599883 0.000000 0.372608
Si Si5 0.587248 0.000000 0.919810
O O1 0.322297 0.500000 0.004806
O O2 0.221754 0.273246 0.767990
O O3 0.250000 0.250000 0.000000
O O4 0.368712 0.174324 0.056478
O O5 0.714593 0.825075 0.309330
O O6 0.860639 0.676345 0.522896
O O7 0.839706 0.000000 0.421419
O O8 0.890179 0.500000 0.731774
O O9 0.910517 0.500000 0.955535
O O10 0.505126 0.000000 0.257921
#
# Coordination Sequence:
#
# PCOD8112493 Si02
#       5
#     8   8   4   4   4
#     4  11  19  38  62  77 105 148 187 225 272 337
#     4   9  20  34  56  85 106 144 196 213 265 337
#     4   8  19  38  54  78 116 152 188 212 264 338
#     4  12  19  35  58  82 121 143 173 244 274 299
#     4  10  23  35  54  90 111 141 187 228 278 323
#
# _framework density 17.098872
#
# number of rings (size 3 to 8) (size 9 to 14) (size 15 to 20)
#    0.857    1.143    4.286    1.286    0.000    1.143 
#    0.000    2.857    0.000    8.571    0.000    0.000 
#    0.000    0.000    0.000    0.000    0.000    0.000 
#
# Total GULP energy -173529.971564 kJ/mol
# GULP energy per Si atom -12394.997969 kJ/mol
# Density = 1.705995 g / cm^3
# Si number density = 17.098872 Si / 1000 Ang^3
#
#
#
# Elastic Constant Matrix: (Units=GPa)
#
#
# Indices 1 2 3 4 5 6 
#
# 1 100.1876 42.7473 50.0242 0.0000 -13.4625 0.0000
# 2 42.7473 146.3358 38.0345 0.0000 3.7025 0.0000
# 3 50.0242 38.0345 75.6187 0.0000 8.4367 0.0000
# 4 0.0000 0.0000 0.0000 24.2419 0.0000 -7.6600
# 5 -13.4625 3.7025 8.4367 0.0000 27.7442 0.0000
# 6 0.0000 0.0000 0.0000 -7.6600 0.0000 13.0838
#
#
#
# Elastic Compliance Matrix: (Units=1/GPa)
#
#
# Indices 1 2 3 4 5 6 
#
# 1 0.019517 -0.002639 -0.013125 0.000000 0.013814 0.000000
# 2 -0.002639 0.008219 -0.002197 0.000000 -0.001709 0.000000
# 3 -0.013125 -0.002197 0.024521 0.000000 -0.013532 0.000000
# 4 0.000000 0.000000 0.000000 0.050614 0.000000 0.029633
# 5 0.013814 -0.001709 -0.013532 0.000000 0.047089 0.000000
# 6 0.000000 0.000000 0.000000 0.029633 0.000000 0.093779
#
#
# Mechanical properties :
#
#
# Convention : Reuss Voigt Hill
#
# Bulk Modulus (GPa) = 61.21882 64.86157 63.04020
# Shear Modulus (GPa) = 17.53724 25.76971 21.65347
#
# Velocity S-wave (km/s) = 3.20603 3.88635 3.56247
# Velocity P-wave (km/s) = 7.04169 7.62587 7.33959
#
# Compressibility (1/GPa) = 0.01633485
#
# Stress axis : x y z
#
# Youngs Moduli (GPa) = 51.23789 121.67010 40.78071
#
# Poissons Ratio (x) = 0.32114 0.53523
# Poissons Ratio (y) = 0.13524 0.08960
# Poissons Ratio (z) = 0.67247 0.26732
#
# Static dielectric constant tensor:
#      x y z
#    x 3.022730 0.000000 -0.206180 
#    y 0.000000 3.096920 0.000000 
#    z -0.206180 0.000000 3.068960 
# 
# 
# High freq. dielectric constant tensor:
#      x y z
#    x 1.646230 0.000000 -0.020450 
#    y 0.000000 1.668120 0.000000 
#    z -0.020450 0.000000 1.654030 
# 
# From -- ./inp_files/171690.got.cif
#   From: 2010.06.25/outbox.cif.g09.slc.cpg/sg12_86_cif.got.tgz:171690.got - 2010.06.28 00:19:55.
