data_PCOD8112248
_publ_section_title
;
Structure prediction by ZEFSAII (Michael W. Deem and Ramdas Pophale) SiO2 
 PCOD8112248
Probable space group: C 2/M
;
_chemical_formula_sum "Si O2"
_cell_formula_units_Z 32
_cell_length_a 5.220319
_cell_length_b 28.382231
_cell_length_c 9.842556
_cell_angle_alpha 90.000000
_cell_angle_beta 103.962322
_cell_angle_gamma 90.000000
_cell_volume 1415.228913
_symmetry_space_group_name_H-M "C 2/M"
_symmetry_group_IT_number 12
_symmetry_cell_setting 'monoclinic'
loop_
_space_group_symop_operation_xyz
x,y,z
-x,y,-z
-x,-y,-z
x,-y,z
1/2+x,1/2+y,z
1/2-x,1/2+y,-z
1/2-x,1/2-y,-z
1/2+x,1/2-y,z
loop_
_atom_site_type_symbol
_atom_site_label
_atom_site_fract_x
_atom_site_fract_y
_atom_site_fract_z
Si Si1 0.723115 0.150928 0.412517
Si Si2 0.279082 0.054169 0.066739
Si Si3 0.602641 0.949316 0.363302
Si Si4 0.595158 0.219672 0.158451
O O1 0.500000 0.153489 0.500000
O O2 0.788228 0.096608 0.377294
O O3 0.613277 0.177320 0.267050
O O4 0.000000 0.173144 0.500000
O O5 0.351253 0.059518 0.233865
O O6 0.254010 0.000000 0.017841
O O7 0.500000 0.078612 0.000000
O O8 0.000000 0.079710 0.000000
O O9 0.500000 0.954814 0.500000
O O10 0.741906 0.000000 0.340367
O O11 0.383359 0.257312 0.184942
O O12 0.500000 0.199844 0.000000
#
# Coordination Sequence:
#
# PCOD8112248 Si02
#       4
#     8   8   8   8
#     4  11  24  40  61  92 125 161 206 251 301 360
#     4   9  18  33  53  77 105 142 192 245 293 341
#     4   9  20  39  60  85 123 167 208 251 299 354
#     4  10  22  42  67  94 124 158 197 247 310 373
#
# _framework density 22.611180999999998
#
# number of rings (size 3 to 8) (size 9 to 14) (size 15 to 20)
#    0.000    2.250    0.000    1.500    0.000    8.500 
#    0.000   11.250    0.000    0.000    0.000    0.000 
#    0.000    0.000    0.000    0.000    0.000    0.000 
#
# Total GULP energy -198264.844187 kJ/mol
# GULP energy per Si atom -12391.552762 kJ/mol
# Density = 2.255972 g / cm^3
# Si number density = 22.611181 Si / 1000 Ang^3
#
#
#
# Elastic Constant Matrix: (Units=GPa)
#
#
# Indices 1 2 3 4 5 6 
#
# 1 134.6463 6.0720 60.4939 0.0000 6.5370 0.0000
# 2 6.0720 93.7139 61.5471 0.0000 -6.9636 0.0000
# 3 60.4939 61.5471 182.3251 0.0000 4.8639 0.0000
# 4 0.0000 0.0000 0.0000 51.2875 0.0000 4.3316
# 5 6.5370 -6.9636 4.8639 0.0000 30.8792 0.0000
# 6 0.0000 0.0000 0.0000 4.3316 0.0000 11.5667
#
#
#
# Elastic Compliance Matrix: (Units=1/GPa)
#
#
# Indices 1 2 3 4 5 6 
#
# 1 0.008977 0.001651 -0.003510 0.000000 -0.000975 0.000000
# 2 0.001651 0.014482 -0.005538 0.000000 0.003789 0.000000
# 3 -0.003510 -0.005538 0.008568 0.000000 -0.001855 0.000000
# 4 0.000000 0.000000 0.000000 0.020135 0.000000 -0.007540
# 5 -0.000975 0.003789 -0.001855 0.000000 0.033737 0.000000
# 6 0.000000 0.000000 0.000000 -0.007540 0.000000 0.089279
#
#
# Mechanical properties :
#
#
# Convention : Reuss Voigt Hill
#
# Bulk Modulus (GPa) = 58.02439 74.10126 66.06282
# Shear Modulus (GPa) = 25.54738 37.58484 31.56611
#
# Velocity S-wave (km/s) = 3.36498 4.08146 3.74042
# Velocity P-wave (km/s) = 6.38866 7.41985 6.92348
#
# Compressibility (1/GPa) = 0.01723413
#
# Stress axis : x y z
#
# Youngs Moduli (GPa) = 111.40122 69.05065 116.71403
#
# Poissons Ratio (x) = -0.11399 0.40962
# Poissons Ratio (y) = -0.18391 0.64631
# Poissons Ratio (z) = 0.39098 0.38237
#
# Static dielectric constant tensor:
#      x y z
#    x 4.079220 0.000000 0.086990 
#    y 0.000000 4.118780 0.000000 
#    z 0.086990 0.000000 4.236640 
# 
# 
# High freq. dielectric constant tensor:
#      x y z
#    x 1.876310 0.000000 0.007350 
#    y 0.000000 1.865000 0.000000 
#    z 0.007350 0.000000 1.915160 
# 
# From -- ./inp_files/34321.got.cif
#   From: 2010.06.25/outbox.cif.g09.slc.cpg/sg12_18_cif.got.tgz:34321.got - 2010.06.28 00:19:55.
