data_PCOD8112548
_publ_section_title
;
Structure prediction by ZEFSAII (Michael W. Deem and Ramdas Pophale) SiO2 
 PCOD8112548
Probable space group: C 2/M
;
_chemical_formula_sum "Si O2"
_cell_formula_units_Z 40
_cell_length_a 25.223946
_cell_length_b 16.227570
_cell_length_c 9.555486
_cell_angle_alpha 90.000000
_cell_angle_beta 26.258789
_cell_angle_gamma 90.000000
_cell_volume 1730.454556
_symmetry_space_group_name_H-M "C 2/M"
_symmetry_group_IT_number 12
_symmetry_cell_setting 'monoclinic'
loop_
_space_group_symop_operation_xyz
x,y,z
-x,y,-z
-x,-y,-z
x,-y,z
1/2+x,1/2+y,z
1/2-x,1/2+y,-z
1/2-x,1/2-y,-z
1/2+x,1/2-y,z
loop_
_atom_site_type_symbol
_atom_site_label
_atom_site_fract_x
_atom_site_fract_y
_atom_site_fract_z
Si Si1 0.527410 0.371401 0.085749
Si Si2 0.390594 0.909342 0.861033
Si Si3 0.340892 0.652991 0.740455
Si Si4 0.952452 0.297595 0.336466
Si Si5 0.764351 0.905289 0.214252
O O1 0.434812 0.401660 0.425751
O O2 0.511292 0.272854 0.100767
O O3 0.500000 0.413559 0.000000
O O4 0.660630 0.395001 0.820467
O O5 0.500000 0.922971 0.500000
O O6 0.435067 0.852193 0.881836
O O7 0.348757 0.000000 0.014202
O O8 0.288337 0.862798 0.018774
O O9 0.377878 0.750294 0.638463
O O10 0.344353 0.627780 0.894805
O O11 0.858468 0.354739 0.476137
O O12 0.730220 0.000000 0.267542
#
# Coordination Sequence:
#
# PCOD8112548 Si02
#       5
#     8   8   8   8   8
#     4  10  26  44  66  88 127 173 219 254 306 373
#     4  11  21  36  62  97 134 160 198 262 327 373
#     4  10  23  38  68  94 126 163 210 255 313 371
#     4  10  23  39  67  92 127 166 210 257 310 376
#     4  12  23  40  66  98 127 159 208 268 319 371
#
# _framework density 23.115314000000001
#
# number of rings (size 3 to 8) (size 9 to 14) (size 15 to 20)
#    1.200    0.200    2.000    3.600    2.800    3.600 
#    0.000    0.000    0.000    1.200    0.000    0.000 
#    0.000    0.000    0.000    0.000    0.000    0.000 
#
# Total GULP energy -247841.452076 kJ/mol
# GULP energy per Si atom -12392.072604 kJ/mol
# Density = 2.306270 g / cm^3
# Si number density = 23.115314 Si / 1000 Ang^3
#
#
#
# Elastic Constant Matrix: (Units=GPa)
#
#
# Indices 1 2 3 4 5 6 
#
# 1 137.7104 11.7439 14.9427 0.0000 -12.4379 0.0000
# 2 11.7439 116.2838 4.9561 0.0000 -8.9839 0.0000
# 3 14.9427 4.9561 20.4495 0.0000 -11.6321 0.0000
# 4 0.0000 0.0000 0.0000 2.8692 0.0000 -12.8050
# 5 -12.4379 -8.9839 -11.6321 0.0000 26.7175 0.0000
# 6 0.0000 0.0000 0.0000 -12.8050 0.0000 7.9015
#
#
#
# Elastic Compliance Matrix: (Units=1/GPa)
#
#
# Indices 1 2 3 4 5 6 
#
# 1 0.007962 -0.000486 -0.004898 0.000000 0.001411 0.000000
# 2 -0.000486 0.008864 -0.000301 0.000000 0.002623 0.000000
# 3 -0.004898 -0.000301 0.068051 0.000000 0.027247 0.000000
# 4 0.000000 0.000000 0.000000 -0.055922 0.000000 -0.090625
# 5 0.001411 0.002623 0.027247 0.000000 0.050830 0.000000
# 6 0.000000 0.000000 0.000000 -0.090625 0.000000 -0.020307
#
#
# Mechanical properties :
#
#
# Convention : Reuss Voigt Hill
#
# Bulk Modulus (GPa) = 13.60396 37.52545 25.56471
# Shear Modulus (GPa) = 52.43770 23.68438 38.06104
#
# Velocity S-wave (km/s) = 4.76807 3.20444 4.06220
# Velocity P-wave (km/s) = 6.01753 5.47362 5.75201
#
# Compressibility (1/GPa) = 0.07350800
#
# Stress axis : x y z
#
# Youngs Moduli (GPa) = 125.59758 112.81258 14.69481
#
# Poissons Ratio (x) = 0.05487 0.07197
# Poissons Ratio (y) = 0.06109 0.00442
# Poissons Ratio (z) = 0.61513 0.03393
#
# Static dielectric constant tensor:
#      x y z
#    x 3.947390 0.000000 -0.238810 
#    y 0.000000 4.254280 0.000000 
#    z -0.238810 0.000000 3.904360 
# 
# 
# High freq. dielectric constant tensor:
#      x y z
#    x 1.905910 0.000000 -0.024100 
#    y 0.000000 1.919120 0.000000 
#    z -0.024100 0.000000 1.886580 
# 
# From -- ./inp_files/98287.got.cif
#   From: 2010.06.25/outbox.cif.g09.slc.cpg/sg12_50_cif.got.tgz:98287.got - 2010.06.28 00:19:55.
