data_PCOD8112764
_publ_section_title
;
Structure prediction by ZEFSAII (Michael W. Deem and Ramdas Pophale) SiO2 
 PCOD8112764
Probable space group: C 2/M
;
_chemical_formula_sum "Si O2"
_cell_formula_units_Z 32
_cell_length_a 8.548615
_cell_length_b 30.783357
_cell_length_c 5.017035
_cell_angle_alpha 90.000000
_cell_angle_beta 90.563752
_cell_angle_gamma 90.000000
_cell_volume 1320.194275
_symmetry_space_group_name_H-M "C 2/M"
_symmetry_group_IT_number 12
_symmetry_cell_setting 'monoclinic'
loop_
_space_group_symop_operation_xyz
x,y,z
-x,y,-z
-x,-y,-z
x,-y,z
1/2+x,1/2+y,z
1/2-x,1/2+y,-z
1/2-x,1/2-y,-z
1/2+x,1/2-y,z
loop_
_atom_site_type_symbol
_atom_site_label
_atom_site_fract_x
_atom_site_fract_y
_atom_site_fract_z
Si Si1 0.320566 0.591689 0.413677
Si Si2 0.174919 0.449690 0.920229
Si Si3 0.894111 0.231213 0.757631
Si Si4 0.326738 0.819551 0.574817
O O1 0.500000 0.590502 0.500000
O O2 0.215684 0.578141 0.662200
O O3 0.269997 0.639668 0.314543
O O4 0.293619 0.559638 0.164960
O O5 0.187358 0.500000 0.842796
O O6 0.000000 0.436582 0.000000
O O7 0.756558 0.196993 0.699058
O O8 0.822485 0.280217 0.796914
O O9 0.000000 0.236132 0.500000
O O10 0.000000 0.214690 0.000000
O O11 0.500000 0.834710 0.500000
#
# Coordination Sequence:
#
# PCOD8112764 Si02
#       4
#     8   8   8   8
#     4  12  26  43  68 101 138 176 219 272 328 394
#     4  11  25  47  73 100 132 172 219 272 332 398
#     4  10  23  42  64  91 128 172 219 272 328 385
#     4  10  23  41  65  94 130 174 222 271 325 387
#
# _framework density 24.238856999999999
#
# number of rings (size 3 to 8) (size 9 to 14) (size 15 to 20)
#    0.000    1.250    0.000    4.500    0.000   24.000 
#    0.000    0.000    0.000    0.000    0.000    0.000 
#    0.000    0.000    0.000    0.000    0.000    0.000 
#
# Total GULP energy -198468.616906 kJ/mol
# GULP energy per Si atom -12404.288557 kJ/mol
# Density = 2.418369 g / cm^3
# Si number density = 24.238857 Si / 1000 Ang^3
#
#
#
# Elastic Constant Matrix: (Units=GPa)
#
#
# Indices 1 2 3 4 5 6 
#
# 1 88.0690 40.4932 13.2976 0.0000 30.7018 0.0000
# 2 40.4932 100.8976 17.4499 0.0000 2.2785 0.0000
# 3 13.2976 17.4499 112.3785 0.0000 26.1959 0.0000
# 4 0.0000 0.0000 0.0000 11.4730 0.0000 34.3106
# 5 30.7018 2.2785 26.1959 0.0000 45.0632 0.0000
# 6 0.0000 0.0000 0.0000 34.3106 0.0000 -17.8093
#
#
#
# Elastic Compliance Matrix: (Units=1/GPa)
#
#
# Indices 1 2 3 4 5 6 
#
# 1 0.019655 -0.007953 0.002241 0.000000 -0.014292 0.000000
# 2 -0.007953 0.013411 -0.002598 0.000000 0.006251 0.000000
# 3 0.002241 -0.002598 0.010830 0.000000 -0.007690 0.000000
# 4 0.000000 0.000000 0.000000 0.012891 0.000000 0.024835
# 5 -0.014292 0.006251 -0.007690 0.000000 0.036083 0.000000
# 6 0.000000 0.000000 0.000000 0.024835 0.000000 -0.008304
#
#
# Mechanical properties :
#
#
# Convention : Reuss Voigt Hill
#
# Bulk Modulus (GPa) = 36.66481 49.31404 42.98943
# Shear Modulus (GPa) = 45.33992 23.08568 34.21280
#
# Velocity S-wave (km/s) = 4.32967 3.08949 3.76105
# Velocity P-wave (km/s) = 6.33672 5.75463 6.05268
#
# Compressibility (1/GPa) = 0.02727411
#
# Stress axis : x y z
#
# Youngs Moduli (GPa) = 50.87675 74.56537 92.33998
#
# Poissons Ratio (x) = 0.59302 -0.20689
# Poissons Ratio (y) = 0.40462 0.23994
# Poissons Ratio (z) = -0.11399 0.19376
#
# Static dielectric constant tensor:
#      x y z
#    x 4.614140 0.000000 0.279590 
#    y 0.000000 4.337220 0.000000 
#    z 0.279590 0.000000 4.484700 
# 
# 
# High freq. dielectric constant tensor:
#      x y z
#    x 1.982430 0.000000 0.014290 
#    y 0.000000 1.958500 0.000000 
#    z 0.014290 0.000000 1.961680 
# 
# From -- ./inp_files/3757.got.cif
#   From: 2010.06.25/outbox.cif.g09.slc.cpg/sg12_2_cif.got.tgz:3757.got - 2010.06.28 00:19:55.
