data_PCOD8112470
_publ_section_title
;
Structure prediction by ZEFSAII (Michael W. Deem and Ramdas Pophale) SiO2 
 PCOD8112470
Probable space group: C 2/M
;
_chemical_formula_sum "Si O2"
_cell_formula_units_Z 40
_cell_length_a 34.540854
_cell_length_b 7.475596
_cell_length_c 16.419797
_cell_angle_alpha 90.000000
_cell_angle_beta 150.889295
_cell_angle_gamma 90.000000
_cell_volume 2062.663079
_symmetry_space_group_name_H-M "C 2/M"
_symmetry_group_IT_number 12
_symmetry_cell_setting 'monoclinic'
loop_
_space_group_symop_operation_xyz
x,y,z
-x,y,-z
-x,-y,-z
x,-y,z
1/2+x,1/2+y,z
1/2-x,1/2+y,-z
1/2-x,1/2-y,-z
1/2+x,1/2-y,z
loop_
_atom_site_type_symbol
_atom_site_label
_atom_site_fract_x
_atom_site_fract_y
_atom_site_fract_z
Si Si1 0.905228 0.000000 0.341418
Si Si2 0.182417 0.000000 0.989641
Si Si3 0.578257 0.500000 0.093789
Si Si4 0.470089 0.500000 0.178551
Si Si5 0.096461 0.704041 0.400160
Si Si6 0.198335 0.198397 0.736226
Si Si7 0.841050 0.293571 0.661801
O O1 0.878537 0.176508 0.344392
O O2 0.000000 0.000000 0.500000
O O3 0.850455 0.000000 0.161469
O O4 0.235208 0.175504 0.102417
O O5 0.105119 0.000000 0.902571
O O6 0.622636 0.681967 0.197834
O O7 0.500000 0.500000 0.000000
O O8 0.564590 0.500000 0.974279
O O9 0.523119 0.325525 0.293722
O O10 0.067134 0.500000 0.343645
O O11 0.169461 0.721773 0.597191
O O12 0.125616 0.767758 0.364743
O O13 0.236063 0.000000 0.791584
O O14 0.859851 0.500000 0.712267
O O15 0.750000 0.250000 0.500000
#
# Coordination Sequence:
#
# PCOD8112470 Si02
#       7
#     4   4   4   4   8   8   8
#     4  10  22  45  70  95 133 172 201 257 326 376
#     4  12  24  44  66  99 132 164 216 264 307 385
#     4  12  24  43  62  94 129 166 215 277 316 367
#     4  12  26  42  65  92 135 169 211 267 324 377
#     4  11  22  42  64  91 127 172 214 259 320 383
#     4  10  23  39  70  96 128 164 211 260 313 368
#     4  11  24  39  65  90 124 170 218 264 323 381
#
# _framework density 19.392406999999999
#
# number of rings (size 3 to 8) (size 9 to 14) (size 15 to 20)
#    0.600    0.400    5.000    1.800    2.800    2.000 
#    0.000    0.500    0.000    0.000    0.000    0.000 
#    0.000    0.000    0.000    0.000    0.000    0.000 
#
# Total GULP energy -247941.748849 kJ/mol
# GULP energy per Si atom -12397.087442 kJ/mol
# Density = 1.934827 g / cm^3
# Si number density = 19.392407 Si / 1000 Ang^3
#
#
#
# Elastic Constant Matrix: (Units=GPa)
#
#
# Indices 1 2 3 4 5 6 
#
# 1 72.0033 27.5420 21.6672 0.0000 3.2275 0.0000
# 2 27.5420 124.9181 45.8833 0.0000 5.2021 0.0000
# 3 21.6672 45.8833 108.0530 0.0000 -6.8227 0.0000
# 4 0.0000 0.0000 0.0000 37.2662 0.0000 0.3741
# 5 3.2275 5.2021 -6.8227 0.0000 51.5313 0.0000
# 6 0.0000 0.0000 0.0000 0.3741 0.0000 22.6392
#
#
#
# Elastic Compliance Matrix: (Units=1/GPa)
#
#
# Indices 1 2 3 4 5 6 
#
# 1 0.015560 -0.002631 -0.002065 0.000000 -0.000982 0.000000
# 2 -0.002631 0.010046 -0.003824 0.000000 -0.001356 0.000000
# 3 -0.002065 -0.003824 0.011421 0.000000 0.002027 0.000000
# 4 0.000000 0.000000 0.000000 0.026838 0.000000 -0.000444
# 5 -0.000982 -0.001356 0.002027 0.000000 0.019872 0.000000
# 6 0.000000 0.000000 0.000000 -0.000444 0.000000 0.044178
#
#
# Mechanical properties :
#
#
# Convention : Reuss Voigt Hill
#
# Bulk Modulus (GPa) = 50.03318 55.01769 52.52544
# Shear Modulus (GPa) = 32.97733 36.27949 34.62841
#
# Velocity S-wave (km/s) = 4.12822 4.32998 4.23030
# Velocity P-wave (km/s) = 6.96989 7.30962 7.14178
#
# Compressibility (1/GPa) = 0.01998674
#
# Stress axis : x y z
#
# Youngs Moduli (GPa) = 64.26674 99.53747 87.56099
#
# Poissons Ratio (x) = 0.26192 0.18080
# Poissons Ratio (y) = 0.16911 0.33484
# Poissons Ratio (z) = 0.13270 0.38064
#
# Static dielectric constant tensor:
#      x y z
#    x 3.531480 0.000000 -0.046070 
#    y 0.000000 3.490620 0.000000 
#    z -0.046070 0.000000 3.474360 
# 
# 
# High freq. dielectric constant tensor:
#      x y z
#    x 1.757190 0.000000 -0.010690 
#    y 0.000000 1.761540 0.000000 
#    z -0.010690 0.000000 1.762530 
# 
# From -- ./inp_files/250276.got.cif
#   From: 2010.06.25/outbox.cif.g09.slc.cpg/sg12_126_cif.got.tgz:250276.got - 2010.06.28 00:19:55.
