data_PCOD8112254
_publ_section_title
;
Structure prediction by ZEFSAII (Michael W. Deem and Ramdas Pophale) SiO2 
 PCOD8112254
Probable space group: C 2/M
;
_chemical_formula_sum "Si O2"
_cell_formula_units_Z 64
_cell_length_a 23.758381
_cell_length_b 8.811986
_cell_length_c 14.572390
_cell_angle_alpha 90.000000
_cell_angle_beta 94.287694
_cell_angle_gamma 90.000000
_cell_volume 3042.315328
_symmetry_space_group_name_H-M "C 2/M"
_symmetry_group_IT_number 12
_symmetry_cell_setting 'monoclinic'
loop_
_space_group_symop_operation_xyz
x,y,z
-x,y,-z
-x,-y,-z
x,-y,z
1/2+x,1/2+y,z
1/2-x,1/2+y,-z
1/2-x,1/2-y,-z
1/2+x,1/2-y,z
loop_
_atom_site_type_symbol
_atom_site_label
_atom_site_fract_x
_atom_site_fract_y
_atom_site_fract_z
Si Si1 0.877331 0.672788 0.654713
Si Si2 0.600846 0.674633 0.029614
Si Si3 0.537542 0.826950 0.173060
Si Si4 0.358028 0.820869 0.329600
Si Si5 0.074281 0.175497 0.815407
Si Si6 0.743722 0.820976 0.287269
Si Si7 0.783004 0.321898 0.919937
Si Si8 0.565489 0.322512 0.507037
O O1 0.880590 0.500000 0.617909
O O2 0.908577 0.685973 0.755255
O O3 0.812859 0.722516 0.664179
O O4 0.906452 0.785225 0.586878
O O5 0.615812 0.500000 0.050736
O O6 0.547323 0.725615 0.083538
O O7 0.651771 0.781042 0.065792
O O8 0.586814 0.702068 0.922811
O O9 0.483392 0.760103 0.219294
O O10 0.525862 0.000000 0.142956
O O11 0.374559 0.748295 0.234300
O O12 0.294951 0.763625 0.344852
O O13 0.402246 0.770035 0.411360
O O14 0.358525 0.000000 0.322593
O O15 0.068606 0.000000 0.788511
O O16 0.740367 0.764807 0.181075
O O17 0.753892 0.000000 0.291907
O O18 0.775495 0.500000 0.926313
O O19 0.750000 0.250000 0.000000
O O20 0.500000 0.272903 0.500000
O O21 0.571657 0.500000 0.528239
#
# Coordination Sequence:
#
# PCOD8112254 Si02
#       8
#     8   8   8   8   8   8   8   8
#     4  10  22  42  67  95 127 166 210 261 321 378
#     4  11  23  38  58  87 125 169 215 261 317 381
#     4  11  22  39  63  93 127 166 212 266 320 376
#     4  12  26  43  66  96 126 164 211 261 315 378
#     4  11  24  41  60  88 127 171 213 263 322 379
#     4  10  22  43  65  89 128 170 208 261 321 376
#     4  11  22  38  60  88 124 168 217 268 321 375
#     4  11  25  45  70  99 129 165 207 255 316 383
#
# _framework density 21.036611000000001
#
# number of rings (size 3 to 8) (size 9 to 14) (size 15 to 20)
#    0.000    1.125    1.250    4.875    0.000   12.500 
#    0.000    0.000    0.000    0.000    0.000    0.000 
#    0.000    0.000    0.000    0.000    0.000    0.000 
#
# Total GULP energy -397002.622054 kJ/mol
# GULP energy per Si atom -12406.331939 kJ/mol
# Density = 2.098873 g / cm^3
# Si number density = 21.036611 Si / 1000 Ang^3
#
#
#
# Elastic Constant Matrix: (Units=GPa)
#
#
# Indices 1 2 3 4 5 6 
#
# 1 136.0370 48.2309 43.2095 0.0000 0.3856 0.0000
# 2 48.2309 86.5911 44.0378 0.0000 -0.1541 0.0000
# 3 43.2095 44.0378 85.6300 0.0000 -14.2930 0.0000
# 4 0.0000 0.0000 0.0000 34.7496 0.0000 -1.5210
# 5 0.3856 -0.1541 -14.2930 0.0000 32.8925 0.0000
# 6 0.0000 0.0000 0.0000 -1.5210 0.0000 36.9670
#
#
#
# Elastic Compliance Matrix: (Units=1/GPa)
#
#
# Indices 1 2 3 4 5 6 
#
# 1 0.009716 -0.003780 -0.003214 0.000000 -0.001528 0.000000
# 2 -0.003780 0.017536 -0.007644 0.000000 -0.003195 0.000000
# 3 -0.003214 -0.007644 0.018579 0.000000 0.008075 0.000000
# 4 0.000000 0.000000 0.000000 0.028829 0.000000 0.001186
# 5 -0.001528 -0.003195 0.008075 0.000000 0.033914 0.000000
# 6 0.000000 0.000000 0.000000 0.001186 0.000000 0.027100
#
#
# Mechanical properties :
#
#
# Convention : Reuss Voigt Hill
#
# Bulk Modulus (GPa) = 60.40579 64.35719 62.38149
# Shear Modulus (GPa) = 29.33072 32.44047 30.88560
#
# Velocity S-wave (km/s) = 3.73804 3.93121 3.83584
# Velocity P-wave (km/s) = 6.88532 7.15998 7.02399
#
# Compressibility (1/GPa) = 0.01655470
#
# Stress axis : x y z
#
# Youngs Moduli (GPa) = 102.91925 57.02536 53.82390
#
# Poissons Ratio (x) = 0.21557 0.17299
# Poissons Ratio (y) = 0.38905 0.41145
# Poissons Ratio (z) = 0.33078 0.43592
#
# Static dielectric constant tensor:
#      x y z
#    x 4.049760 0.000000 -0.102870 
#    y 0.000000 3.808670 0.000000 
#    z -0.102870 0.000000 3.800220 
# 
# 
# High freq. dielectric constant tensor:
#      x y z
#    x 1.840330 0.000000 -0.004110 
#    y 0.000000 1.827010 0.000000 
#    z -0.004110 0.000000 1.824580 
# 
# From -- ./inp_files/238741.got.cif
#   From: 2010.06.25/outbox.cif.g09.slc.cpg/sg12_120_cif.got.tgz:238741.got - 2010.06.28 00:19:55.
