data_PCOD8112836
_publ_section_title
;
Structure prediction by ZEFSAII (Michael W. Deem and Ramdas Pophale) SiO2 
 PCOD8112836
Probable space group: C 2/M
;
_chemical_formula_sum "Si O2"
_cell_formula_units_Z 56
_cell_length_a 26.731563
_cell_length_b 8.834728
_cell_length_c 12.565867
_cell_angle_alpha 90.000000
_cell_angle_beta 67.766902
_cell_angle_gamma 90.000000
_cell_volume 2746.994660
_symmetry_space_group_name_H-M "C 2/M"
_symmetry_group_IT_number 12
_symmetry_cell_setting 'monoclinic'
loop_
_space_group_symop_operation_xyz
x,y,z
-x,y,-z
-x,-y,-z
x,-y,z
1/2+x,1/2+y,z
1/2-x,1/2+y,-z
1/2-x,1/2-y,-z
1/2+x,1/2-y,z
loop_
_atom_site_type_symbol
_atom_site_label
_atom_site_fract_x
_atom_site_fract_y
_atom_site_fract_z
Si Si1 0.301326 0.676430 0.405254
Si Si2 0.152787 0.677933 0.832879
Si Si3 0.993805 0.323450 0.310249
Si Si4 0.114741 0.676474 0.283007
Si Si5 0.808034 0.678955 0.968762
Si Si6 0.395226 0.676749 0.493760
Si Si7 0.542206 0.671261 0.872024
O O1 0.290614 0.500000 0.406308
O O2 0.250000 0.750000 0.500000
O O3 0.307472 0.741899 0.282196
O O4 0.354868 0.713915 0.429693
O O5 0.160153 0.500000 0.814562
O O6 0.091268 0.719824 0.859932
O O7 0.167934 0.734655 0.938386
O O8 0.986183 0.500000 0.291217
O O9 0.950096 0.270887 0.432327
O O10 0.987518 0.227255 0.208996
O O11 0.052709 0.288334 0.307673
O O12 0.124455 0.500000 0.296516
O O13 0.151868 0.735086 0.156381
O O14 0.131770 0.768938 0.374372
O O15 0.802640 0.500000 0.971216
O O16 0.750000 0.750000 0.000000
O O17 0.408615 0.500000 0.488827
O O18 0.563574 0.500000 0.836387
O O19 0.500000 0.678094 0.000000
#
# Coordination Sequence:
#
# PCOD8112836 Si02
#       7
#     8   8   8   8   8   8   8
#     4  11  25  43  65  94 129 166 211 262 316 374
#     4  11  23  42  67  94 127 164 209 259 313 375
#     4  11  22  39  64  92 125 165 210 256 311 377
#     4  10  23  42  63  91 126 166 212 257 308 372
#     4  10  24  44  65  92 125 162 208 259 309 367
#     4  11  24  41  63  94 130 164 207 259 315 373
#     4  11  23  38  60  92 129 166 208 257 311 371
#
# _framework density 20.385916000000002
#
# number of rings (size 3 to 8) (size 9 to 14) (size 15 to 20)
#    0.000    1.286    1.429    3.429    2.000    8.571 
#    0.000    0.000    0.000    0.000    0.000    0.000 
#    0.000    0.000    0.000    0.000    0.000    0.000 
#
# Total GULP energy -347393.120619 kJ/mol
# GULP energy per Si atom -12406.897165 kJ/mol
# Density = 2.033952 g / cm^3
# Si number density = 20.385916 Si / 1000 Ang^3
#
#
#
# Elastic Constant Matrix: (Units=GPa)
#
#
# Indices 1 2 3 4 5 6 
#
# 1 55.3573 36.9109 35.5575 0.0000 -10.5033 0.0000
# 2 36.9109 65.1773 51.7387 0.0000 -3.1998 0.0000
# 3 35.5575 51.7387 161.7990 0.0000 0.7651 0.0000
# 4 0.0000 0.0000 0.0000 35.3212 0.0000 -0.8848
# 5 -10.5033 -3.1998 0.7651 0.0000 39.6253 0.0000
# 6 0.0000 0.0000 0.0000 -0.8848 0.0000 35.5300
#
#
#
# Elastic Compliance Matrix: (Units=1/GPa)
#
#
# Indices 1 2 3 4 5 6 
#
# 1 0.031119 -0.015847 -0.001805 0.000000 0.007004 0.000000
# 2 -0.015847 0.028759 -0.005706 0.000000 -0.001768 0.000000
# 3 -0.001805 -0.005706 0.008407 0.000000 -0.001101 0.000000
# 4 0.000000 0.000000 0.000000 0.028329 0.000000 0.000705
# 5 0.007004 -0.001768 -0.001101 0.000000 0.026971 0.000000
# 6 0.000000 0.000000 0.000000 0.000705 0.000000 0.028163
#
#
# Mechanical properties :
#
#
# Convention : Reuss Voigt Hill
#
# Bulk Modulus (GPa) = 46.35805 58.97197 52.66501
# Shear Modulus (GPa) = 24.31298 32.63709 28.47503
#
# Velocity S-wave (km/s) = 3.45720 4.00554 3.74143
# Velocity P-wave (km/s) = 6.22302 7.09811 6.67492
#
# Compressibility (1/GPa) = 0.02157123
#
# Stress axis : x y z
#
# Youngs Moduli (GPa) = 32.13522 34.77147 118.95197
#
# Poissons Ratio (x) = 0.55101 0.21466
# Poissons Ratio (y) = 0.50923 0.67868
# Poissons Ratio (z) = 0.05799 0.19839
#
# Static dielectric constant tensor:
#      x y z
#    x 3.147350 0.000000 0.204120 
#    y 0.000000 3.750330 0.000000 
#    z 0.204120 0.000000 4.022730 
# 
# 
# High freq. dielectric constant tensor:
#      x y z
#    x 1.798520 0.000000 0.000260 
#    y 0.000000 1.801040 0.000000 
#    z 0.000260 0.000000 1.818850 
# 
# From -- ./inp_files/180799.got.cif
#   From: 2010.06.25/outbox.cif.g09.slc.cpg/sg12_91_cif.got.tgz:180799.got - 2010.06.28 00:19:55.
