data_PCOD8112112
_publ_section_title
;
Structure prediction by ZEFSAII (Michael W. Deem and Ramdas Pophale) SiO2 
 PCOD8112112
Probable space group: C 2/M
;
_chemical_formula_sum "Si O2"
_cell_formula_units_Z 48
_cell_length_a 11.585547
_cell_length_b 24.263792
_cell_length_c 8.634698
_cell_angle_alpha 90.000000
_cell_angle_beta 100.840053
_cell_angle_gamma 90.000000
_cell_volume 2383.981350
_symmetry_space_group_name_H-M "C 2/M"
_symmetry_group_IT_number 12
_symmetry_cell_setting 'monoclinic'
loop_
_space_group_symop_operation_xyz
x,y,z
-x,y,-z
-x,-y,-z
x,-y,z
1/2+x,1/2+y,z
1/2-x,1/2+y,-z
1/2-x,1/2-y,-z
1/2+x,1/2-y,z
loop_
_atom_site_type_symbol
_atom_site_label
_atom_site_fract_x
_atom_site_fract_y
_atom_site_fract_z
Si Si1 0.573845 0.808440 0.169958
Si Si2 0.202320 0.191105 0.932803
Si Si3 0.897666 0.500000 0.102475
Si Si4 0.436410 0.102834 0.328224
Si Si5 0.866311 0.000000 0.899604
Si Si6 0.678137 0.618632 0.228074
Si Si7 0.475992 0.295910 0.671076
O O1 0.694306 0.836916 0.142788
O O2 0.508544 0.849314 0.266523
O O3 0.601667 0.752754 0.272504
O O4 0.500000 0.792290 0.000000
O O5 0.095999 0.201004 0.793075
O O6 0.250000 0.250000 0.000000
O O7 0.166375 0.149678 0.060360
O O8 0.923517 0.553232 0.208170
O O9 0.755139 0.500000 0.020433
O O10 0.000000 0.500000 0.000000
O O11 0.500000 0.083059 0.500000
O O12 0.307243 0.125774 0.332963
O O13 0.857902 0.054701 0.793752
O O14 0.000000 0.000000 0.000000
O O15 0.591896 0.646355 0.330604
O O16 0.500000 0.282040 0.500000
#
# Coordination Sequence:
#
# PCOD8112112 Si02
#       7
#     8   8   4   8   4   8   8
#     4  12  22  39  63  93 124 165 214 263 316 383
#     4  12  22  40  65  89 123 170 210 260 313 386
#     4  10  23  43  68  97 128 169 222 271 323 391
#     4  11  24  41  65  95 130 166 206 269 327 380
#     4  10  22  41  69  95 123 165 220 272 310 375
#     4  11  23  44  66  91 127 168 216 260 323 385
#     4  12  26  40  60  92 131 168 211 265 325 383
#
# _framework density 20.134385000000002
#
# number of rings (size 3 to 8) (size 9 to 14) (size 15 to 20)
#    0.000    0.667    5.000    2.750    4.667    0.667 
#    0.000    0.417    0.000    0.000    0.000    0.000 
#    0.000    0.000    0.000    0.000    0.000    0.000 
#
# Total GULP energy -297505.958995 kJ/mol
# GULP energy per Si atom -12396.081625 kJ/mol
# Density = 2.008856 g / cm^3
# Si number density = 20.134385 Si / 1000 Ang^3
#
#
#
# Elastic Constant Matrix: (Units=GPa)
#
#
# Indices 1 2 3 4 5 6 
#
# 1 127.7586 22.8495 41.2656 0.0000 6.2888 0.0000
# 2 22.8495 104.2975 13.8432 0.0000 -5.2320 0.0000
# 3 41.2656 13.8432 102.0343 0.0000 5.8710 0.0000
# 4 0.0000 0.0000 0.0000 18.5461 0.0000 -0.2883
# 5 6.2888 -5.2320 5.8710 0.0000 33.8441 0.0000
# 6 0.0000 0.0000 0.0000 -0.2883 0.0000 33.6466
#
#
#
# Elastic Compliance Matrix: (Units=1/GPa)
#
#
# Indices 1 2 3 4 5 6 
#
# 1 0.009308 -0.001649 -0.003461 0.000000 -0.001384 0.000000
# 2 -0.001649 0.010161 -0.000828 0.000000 0.002021 0.000000
# 3 -0.003461 -0.000828 0.011397 0.000000 -0.001462 0.000000
# 4 0.000000 0.000000 0.000000 0.053927 0.000000 0.000462
# 5 -0.001384 0.002021 -0.001462 0.000000 0.030370 0.000000
# 6 0.000000 0.000000 0.000000 0.000462 0.000000 0.029725
#
#
# Mechanical properties :
#
#
# Convention : Reuss Voigt Hill
#
# Bulk Modulus (GPa) = 52.66130 54.44521 53.55326
# Shear Modulus (GPa) = 30.65721 34.28282 32.47002
#
# Velocity S-wave (km/s) = 3.90632 4.13086 4.02016
# Velocity P-wave (km/s) = 6.82331 7.06056 6.94295
#
# Compressibility (1/GPa) = 0.01898928
#
# Stress axis : x y z
#
# Youngs Moduli (GPa) = 107.43088 98.42006 87.74376
#
# Poissons Ratio (x) = 0.16233 0.30369
# Poissons Ratio (y) = 0.17719 0.07263
# Poissons Ratio (z) = 0.37183 0.08147
#
# Static dielectric constant tensor:
#      x y z
#    x 4.364590 0.000000 0.059410 
#    y 0.000000 3.718220 0.000000 
#    z 0.059410 0.000000 3.487000 
# 
# 
# High freq. dielectric constant tensor:
#      x y z
#    x 1.809590 0.000000 0.005330 
#    y 0.000000 1.793190 0.000000 
#    z 0.005330 0.000000 1.765740 
# 
# From -- ./inp_files/51385.got.cif
#   From: 2010.06.25/outbox.cif.g09.slc.cpg/sg12_26_cif.got.tgz:51385.got - 2010.06.28 00:19:55.
