data_PCOD8112154
_publ_section_title
;
Structure prediction by ZEFSAII (Michael W. Deem and Ramdas Pophale) SiO2 
 PCOD8112154
Probable space group: C 2/M
;
_chemical_formula_sum "Si O2"
_cell_formula_units_Z 52
_cell_length_a 18.065534
_cell_length_b 19.703675
_cell_length_c 8.541126
_cell_angle_alpha 90.000000
_cell_angle_beta 50.754140
_cell_angle_gamma 90.000000
_cell_volume 2354.507205
_symmetry_space_group_name_H-M "C 2/M"
_symmetry_group_IT_number 12
_symmetry_cell_setting 'monoclinic'
loop_
_space_group_symop_operation_xyz
x,y,z
-x,y,-z
-x,-y,-z
x,-y,z
1/2+x,1/2+y,z
1/2-x,1/2+y,-z
1/2-x,1/2-y,-z
1/2+x,1/2-y,z
loop_
_atom_site_type_symbol
_atom_site_label
_atom_site_fract_x
_atom_site_fract_y
_atom_site_fract_z
Si Si1 0.000000 0.864843 0.000000
Si Si2 0.626804 0.264588 0.010928
Si Si3 0.698427 0.323238 0.228582
Si Si4 0.182074 0.423114 0.464431
Si Si5 0.679700 0.925214 0.118220
Si Si6 0.497324 0.156315 0.675520
Si Si7 0.634657 0.421839 0.571378
O O1 0.088335 0.819474 0.941002
O O2 0.957563 0.911755 0.194420
O O3 0.633498 0.296113 0.175648
O O4 0.547664 0.205414 0.133888
O O5 0.730776 0.238051 0.808311
O O6 0.632021 0.361428 0.445181
O O7 0.771069 0.378913 0.072534
O O8 0.142452 0.500000 0.535117
O O9 0.222438 0.413094 0.234430
O O10 0.267009 0.409722 0.469579
O O11 0.099076 0.368083 0.606962
O O12 0.566874 0.910423 0.268761
O O13 0.698884 0.000000 0.032166
O O14 0.500000 0.193023 0.500000
O O15 0.629349 0.500000 0.513626
#
# Coordination Sequence:
#
# PCOD8112154 Si02
#       7
#     4   8   8   8   8   8   8
#     4  12  27  44  64  92 129 164 216 264 320 374
#     4  10  24  41  61  93 128 168 208 258 313 379
#     4  10  22  42  64  90 126 165 214 258 314 378
#     4   9  18  34  59  92 125 163 207 256 314 371
#     4   9  16  32  58  88 123 162 205 258 314 370
#     4   9  18  32  58  88 126 161 207 253 309 376
#     4  11  25  44  67  92 124 165 216 270 317 371
#
# _framework density 22.085301999999999
#
# number of rings (size 3 to 8) (size 9 to 14) (size 15 to 20)
#    0.000    2.154    0.000    2.077    4.308    3.692 
#    0.000    3.077    0.000    4.615    0.000    0.000 
#    0.000    0.000    0.000    0.000    0.000    0.000 
#
# Total GULP energy -322269.838786 kJ/mol
# GULP energy per Si atom -12394.993799 kJ/mol
# Density = 2.203503 g / cm^3
# Si number density = 22.085302 Si / 1000 Ang^3
#
#
#
# Elastic Constant Matrix: (Units=GPa)
#
#
# Indices 1 2 3 4 5 6 
#
# 1 58.6977 27.2408 5.8002 0.0000 -0.8187 0.0000
# 2 27.2408 80.9273 26.8040 0.0000 3.0544 0.0000
# 3 5.8002 26.8040 88.8343 0.0000 -0.8714 0.0000
# 4 0.0000 0.0000 0.0000 29.0464 0.0000 2.4724
# 5 -0.8187 3.0544 -0.8714 0.0000 18.5294 0.0000
# 6 0.0000 0.0000 0.0000 2.4724 0.0000 28.3121
#
#
#
# Elastic Compliance Matrix: (Units=1/GPa)
#
#
# Indices 1 2 3 4 5 6 
#
# 1 0.020326 -0.007210 0.000869 0.000000 0.002128 0.000000
# 2 -0.007210 0.016399 -0.004509 0.000000 -0.003234 0.000000
# 3 0.000869 -0.004509 0.012574 0.000000 0.001373 0.000000
# 4 0.000000 0.000000 0.000000 0.034685 0.000000 -0.003029
# 5 0.002128 -0.003234 0.001373 0.000000 0.054660 0.000000
# 6 0.000000 0.000000 0.000000 -0.003029 0.000000 0.035585
#
#
# Mechanical properties :
#
#
# Convention : Reuss Voigt Hill
#
# Bulk Modulus (GPa) = 36.23229 38.68325 37.45777
# Shear Modulus (GPa) = 24.37474 26.41854 25.39664
#
# Velocity S-wave (km/s) = 3.32575 3.46237 3.39475
# Velocity P-wave (km/s) = 5.58468 5.79115 5.68885
#
# Compressibility (1/GPa) = 0.02759969
#
# Stress axis : x y z
#
# Youngs Moduli (GPa) = 49.19709 60.97808 79.52812
#
# Poissons Ratio (x) = 0.43967 -0.06913
# Poissons Ratio (y) = 0.35472 0.35860
# Poissons Ratio (z) = -0.04277 0.27496
#
# Static dielectric constant tensor:
#      x y z
#    x 3.739210 0.000000 -0.026350 
#    y 0.000000 4.241330 0.000000 
#    z -0.026350 0.000000 3.902580 
# 
# 
# High freq. dielectric constant tensor:
#      x y z
#    x 1.854930 0.000000 -0.008960 
#    y 0.000000 1.877260 0.000000 
#    z -0.008960 0.000000 1.854100 
# 
# From -- ./inp_files/77938.got.cif
#   From: 2010.06.25/outbox.cif.g09.slc.cpg/sg12_39_cif.got.tgz:77938.got - 2010.06.28 00:19:55.
