data_PCOD8112923
_publ_section_title
;
Structure prediction by ZEFSAII (Michael W. Deem and Ramdas Pophale) SiO2 
 PCOD8112923
Probable space group: C 2/M
;
_chemical_formula_sum "Si O2"
_cell_formula_units_Z 64
_cell_length_a 12.392426
_cell_length_b 26.704116
_cell_length_c 15.365324
_cell_angle_alpha 90.000000
_cell_angle_beta 141.965105
_cell_angle_gamma 90.000000
_cell_volume 3132.972428
_symmetry_space_group_name_H-M "C 2/M"
_symmetry_group_IT_number 12
_symmetry_cell_setting 'monoclinic'
loop_
_space_group_symop_operation_xyz
x,y,z
-x,y,-z
-x,-y,-z
x,-y,z
1/2+x,1/2+y,z
1/2-x,1/2+y,-z
1/2-x,1/2-y,-z
1/2+x,1/2-y,z
loop_
_atom_site_type_symbol
_atom_site_label
_atom_site_fract_x
_atom_site_fract_y
_atom_site_fract_z
Si Si1 0.470428 0.442040 0.080339
Si Si2 0.684124 0.832317 0.302258
Si Si3 0.306051 0.057542 0.409829
Si Si4 0.305391 0.140388 0.058608
Si Si5 0.300173 0.223694 0.377769
Si Si6 0.801627 0.826809 0.187328
Si Si7 0.680734 0.644429 0.434814
Si Si8 0.696529 0.718561 0.129771
O O1 0.419868 0.500000 0.059843
O O2 0.655362 0.429882 0.243827
O O3 0.500000 0.427010 0.000000
O O4 0.301850 0.411492 0.007864
O O5 0.506435 0.861290 0.217577
O O6 0.671072 0.771808 0.300715
O O7 0.739395 0.848650 0.240481
O O8 0.823004 0.848907 0.463586
O O9 0.500000 0.071636 0.500000
O O10 0.266101 0.090851 0.468565
O O11 0.299713 0.000000 0.434821
O O12 0.209094 0.179914 0.059170
O O13 0.326973 0.158981 0.972898
O O14 0.500000 0.242983 0.500000
O O15 0.287346 0.188212 0.453380
O O16 0.243633 0.193511 0.253617
O O17 0.824064 0.766656 0.203024
O O18 0.983050 0.852701 0.275866
O O19 0.500000 0.739772 0.000000
#
# Coordination Sequence:
#
# PCOD8112923 Si02
#       8
#     8   8   8   8   8   8   8   8
#     4  10  23  42  66  95 126 154 188 248 317 373
#     4  11  24  38  57  85 123 165 212 246 293 345
#     4  10  23  43  67  96 125 151 190 249 314 373
#     4  12  22  38  62  87 119 162 205 245 296 368
#     4  11  22  38  57  88 127 161 200 254 304 366
#     4  11  22  40  56  82 123 165 208 253 292 342
#     4  12  22  38  63  89 117 166 205 247 303 365
#     4  11  22  35  57  88 122 155 202 249 301 361
#
# _framework density 20.427886000000001
#
# number of rings (size 3 to 8) (size 9 to 14) (size 15 to 20)
#    0.000    1.000    1.250    7.500    3.500    0.000 
#    0.000    0.000    0.000    4.500    0.000    0.000 
#    0.000    0.000    0.000    0.000    0.000    0.000 
#
# Total GULP energy -396757.248729 kJ/mol
# GULP energy per Si atom -12398.664023 kJ/mol
# Density = 2.038139 g / cm^3
# Si number density = 20.427886 Si / 1000 Ang^3
#
#
#
# Elastic Constant Matrix: (Units=GPa)
#
#
# Indices 1 2 3 4 5 6 
#
# 1 92.1904 49.3662 35.4594 0.0000 -8.4217 0.0000
# 2 49.3662 79.9929 25.1808 0.0000 3.1437 0.0000
# 3 35.4594 25.1808 95.9339 -0.0001 -5.4937 -0.0001
# 4 0.0000 0.0000 -0.0001 20.4184 0.0000 5.5689
# 5 -8.4217 3.1437 -5.4937 0.0000 55.5538 0.0000
# 6 0.0000 0.0000 -0.0001 5.5689 0.0000 28.4755
#
#
#
# Elastic Compliance Matrix: (Units=1/GPa)
#
#
# Indices 1 2 3 4 5 6 
#
# 1 0.017929 -0.009968 -0.003844 0.000000 0.002902 0.000000
# 2 -0.009968 0.019240 -0.001523 0.000000 -0.002751 0.000000
# 3 -0.003844 -0.001523 0.012286 0.000000 0.000718 0.000000
# 4 0.000000 0.000000 0.000000 0.051735 0.000000 -0.010118
# 5 0.002902 -0.002751 0.000718 0.000000 0.018667 0.000000
# 6 0.000000 0.000000 0.000000 -0.010118 0.000000 0.037097
#
#
# Mechanical properties :
#
#
# Convention : Reuss Voigt Hill
#
# Bulk Modulus (GPa) = 53.23860 54.23668 53.73764
# Shear Modulus (GPa) = 25.78833 31.43025 28.60929
#
# Velocity S-wave (km/s) = 3.55689 3.92675 3.74639
# Velocity P-wave (km/s) = 6.55644 6.86783 6.71394
#
# Compressibility (1/GPa) = 0.01878336
#
# Stress axis : x y z
#
# Youngs Moduli (GPa) = 55.77673 51.97378 81.39534
#
# Poissons Ratio (x) = 0.51809 0.31290
# Poissons Ratio (y) = 0.55600 0.12399
# Poissons Ratio (z) = 0.21442 0.07917
#
# Static dielectric constant tensor:
#      x y z
#    x 3.673610 0.000000 -0.082750 
#    y 0.000000 3.403930 0.000000 
#    z -0.082750 0.000000 3.853790 
# 
# 
# High freq. dielectric constant tensor:
#      x y z
#    x 1.796750 0.000000 -0.003640 
#    y 0.000000 1.765310 0.000000 
#    z -0.003640 0.000000 1.822530 
# 
# From -- ./inp_files/209430.got.cif
#   From: 2010.06.25/outbox.cif.g09.slc.cpg/sg12_105_cif.got.tgz:209430.got - 2010.06.28 00:19:55.
