data_PCOD8112189
_publ_section_title
;
Structure prediction by ZEFSAII (Michael W. Deem and Ramdas Pophale) SiO2 
 PCOD8112189
Probable space group: C 2/M
;
_chemical_formula_sum "Si O2"
_cell_formula_units_Z 40
_cell_length_a 11.095071
_cell_length_b 14.822118
_cell_length_c 16.331822
_cell_angle_alpha 90.000000
_cell_angle_beta 40.294055
_cell_angle_gamma 90.000000
_cell_volume 1736.940723
_symmetry_space_group_name_H-M "C 2/M"
_symmetry_group_IT_number 12
_symmetry_cell_setting 'monoclinic'
loop_
_space_group_symop_operation_xyz
x,y,z
-x,y,-z
-x,-y,-z
x,-y,z
1/2+x,1/2+y,z
1/2-x,1/2+y,-z
1/2-x,1/2-y,-z
1/2+x,1/2-y,z
loop_
_atom_site_type_symbol
_atom_site_label
_atom_site_fract_x
_atom_site_fract_y
_atom_site_fract_z
Si Si1 0.901255 0.097392 0.271462
Si Si2 0.915745 0.724271 0.855138
Si Si3 0.665660 0.652047 0.527725
Si Si4 0.251810 0.394771 0.694638
Si Si5 0.305930 0.397738 0.139554
O O1 0.778995 0.095745 0.418454
O O2 0.787869 0.113822 0.246639
O O3 0.037485 0.181243 0.212102
O O4 0.004893 0.000000 0.209086
O O5 0.860180 0.659282 0.810571
O O6 0.085283 0.671359 0.813400
O O7 0.750000 0.750000 0.000000
O O8 0.750000 0.750000 0.500000
O O9 0.754502 0.608197 0.401143
O O10 0.441038 0.647532 0.632549
O O11 0.227950 0.500000 0.734419
O O12 0.277402 0.500000 0.125930
O O13 0.500000 0.361868 0.000000
#
# Coordination Sequence:
#
# PCOD8112189 Si02
#       5
#     8   8   8   8   8
#     4  11  24  42  68 100 137 182 238 296 352 422
#     4  12  25  41  70 104 141 191 246 287 354 428
#     4  11  23  45  74 105 140 184 238 299 368 430
#     4  11  25  46  73 106 146 191 237 296 366 432
#     4  10  22  42  65  93 137 188 235 287 351 419
#
# _framework density 23.028994999999998
#
# number of rings (size 3 to 8) (size 9 to 14) (size 15 to 20)
#    0.000    1.000    4.000    3.000    2.800    0.800 
#    0.000    0.000    0.000   10.200    0.000    0.000 
#    0.000    0.000    0.000    0.000    0.000    0.000 
#
# Total GULP energy -247768.032337 kJ/mol
# GULP energy per Si atom -12388.401617 kJ/mol
# Density = 2.297658 g / cm^3
# Si number density = 23.028995 Si / 1000 Ang^3
#
#
#
# Elastic Constant Matrix: (Units=GPa)
#
#
# Indices 1 2 3 4 5 6 
#
# 1 107.4303 57.4441 40.7969 0.0002 5.5946 0.0000
# 2 57.4441 172.0248 39.8673 0.0004 -22.6274 -0.0002
# 3 40.7969 39.8673 87.4850 0.0019 -4.3813 -0.0012
# 4 0.0002 0.0004 0.0019 30.6635 -0.0006 -3.3285
# 5 5.5946 -22.6274 -4.3813 -0.0006 43.5192 0.0003
# 6 0.0000 -0.0002 -0.0012 -3.3285 0.0003 44.4067
#
#
#
# Elastic Compliance Matrix: (Units=1/GPa)
#
#
# Indices 1 2 3 4 5 6 
#
# 1 0.013419 -0.003959 -0.004667 0.000000 -0.004253 0.000000
# 2 -0.003959 0.008111 -0.001622 0.000000 0.004563 0.000000
# 3 -0.004667 -0.001622 0.014406 -0.000001 0.001207 0.000000
# 4 0.000000 0.000000 -0.000001 0.032880 0.000000 0.002464
# 5 -0.004253 0.004563 0.001207 0.000000 0.026019 0.000000
# 6 0.000000 0.000000 0.000000 0.002464 0.000000 0.022704
#
#
# Mechanical properties :
#
#
# Convention : Reuss Voigt Hill
#
# Bulk Modulus (GPa) = 64.75852 71.46187 68.11020
# Shear Modulus (GPa) = 34.92107 38.97333 36.94720
#
# Velocity S-wave (km/s) = 3.89832 4.11829 4.00981
# Velocity P-wave (km/s) = 6.96017 7.32887 7.14690
#
# Compressibility (1/GPa) = 0.01544198
#
# Stress axis : x y z
#
# Youngs Moduli (GPa) = 74.52201 123.28747 69.41512
#
# Poissons Ratio (x) = 0.48809 0.32393
# Poissons Ratio (y) = 0.29503 0.11256
# Poissons Ratio (z) = 0.34776 0.19992
#
# Static dielectric constant tensor:
#      x y z
#    x 4.494140 0.000010 0.663450 
#    y 0.000010 4.526760 0.000030 
#    z 0.663450 0.000030 5.234380 
# 
# 
# High freq. dielectric constant tensor:
#      x y z
#    x 1.907380 0.000000 0.019650 
#    y 0.000000 1.930880 0.000000 
#    z 0.019650 0.000000 1.892000 
# 
# From -- ./inp_files/262682.got.cif
#   From: 2010.06.25/outbox.cif.g09.slc.cpg/sg12_132_cif.got.tgz:262682.got - 2010.06.28 00:19:55.
