data_PCOD8112943
_publ_section_title
;
Structure prediction by ZEFSAII (Michael W. Deem and Ramdas Pophale) SiO2 
 PCOD8112943
Probable space group: C 2/M
;
_chemical_formula_sum "Si O2"
_cell_formula_units_Z 32
_cell_length_a 20.770759
_cell_length_b 7.609641
_cell_length_c 15.335379
_cell_angle_alpha 90.000000
_cell_angle_beta 39.695402
_cell_angle_gamma 90.000000
_cell_volume 1548.146635
_symmetry_space_group_name_H-M "C 2/M"
_symmetry_group_IT_number 12
_symmetry_cell_setting 'monoclinic'
loop_
_space_group_symop_operation_xyz
x,y,z
-x,y,-z
-x,-y,-z
x,-y,z
1/2+x,1/2+y,z
1/2-x,1/2+y,-z
1/2-x,1/2-y,-z
1/2+x,1/2-y,z
loop_
_atom_site_type_symbol
_atom_site_label
_atom_site_fract_x
_atom_site_fract_y
_atom_site_fract_z
Si Si1 0.156327 0.000000 0.785617
Si Si2 0.772593 0.803551 0.574844
Si Si3 0.982153 0.296834 0.421824
Si Si4 0.061776 0.000000 0.067174
Si Si5 0.634126 0.201184 0.114714
O O1 0.218193 0.825537 0.698667
O O2 0.053185 0.000000 0.840780
O O3 0.138910 0.000000 0.906635
O O4 0.750000 0.750000 0.500000
O O5 0.892213 0.803592 0.466924
O O6 0.731257 0.000000 0.633639
O O7 0.950956 0.500000 0.460228
O O8 0.000000 0.219492 0.500000
O O9 0.084668 0.268515 0.260913
O O10 0.079077 0.823169 0.102731
O O11 0.620427 0.000000 0.098645
O O12 0.750000 0.250000 0.000000
#
# Coordination Sequence:
#
# PCOD8112943 Si02
#       5
#     4   8   8   4   8
#     4  11  26  46  68  97 134 179 223 282 332 401
#     4  12  24  42  71 100 136 176 224 277 339 404
#     4  10  23  42  68 103 138 172 225 286 335 399
#     4  11  26  46  68  94 139 176 225 277 337 404
#     4  11  24  42  70  98 135 180 221 272 339 411
#
# _framework density 20.669878000000001
#
# number of rings (size 3 to 8) (size 9 to 14) (size 15 to 20)
#    0.000    1.000    3.750    1.500    5.250    4.500 
#    0.000    2.500    0.000    0.000    0.000    0.000 
#    0.000    0.000    0.000    0.000    0.000    0.000 
#
# Total GULP energy -198493.875231 kJ/mol
# GULP energy per Si atom -12405.867202 kJ/mol
# Density = 2.062283 g / cm^3
# Si number density = 20.669878 Si / 1000 Ang^3
#
#
#
# Elastic Constant Matrix: (Units=GPa)
#
#
# Indices 1 2 3 4 5 6 
#
# 1 119.0102 39.8269 53.3764 0.0002 13.7773 -0.0001
# 2 39.8269 163.9525 62.8853 0.0007 10.9777 -0.0005
# 3 53.3764 62.8853 141.4567 0.0004 5.2835 -0.0003
# 4 0.0002 0.0007 0.0004 27.6688 -0.0001 -0.3950
# 5 13.7773 10.9777 5.2835 -0.0001 33.0788 0.0001
# 6 -0.0001 -0.0005 -0.0003 -0.3950 0.0001 28.9219
#
#
#
# Elastic Compliance Matrix: (Units=1/GPa)
#
#
# Indices 1 2 3 4 5 6 
#
# 1 0.010709 -0.001041 -0.003445 0.000000 -0.003564 0.000000
# 2 -0.001041 0.007579 -0.002916 0.000000 -0.001616 0.000000
# 3 -0.003445 -0.002916 0.009633 0.000000 0.000864 0.000000
# 4 0.000000 0.000000 0.000000 0.036149 0.000000 0.000494
# 5 -0.003564 -0.001616 0.000864 0.000000 0.032114 0.000000
# 6 0.000000 0.000000 0.000000 0.000494 0.000000 0.034583
#
#
# Mechanical properties :
#
#
# Convention : Reuss Voigt Hill
#
# Bulk Modulus (GPa) = 76.23866 81.84407 79.04136
# Shear Modulus (GPa) = 33.34619 35.82262 34.58440
#
# Velocity S-wave (km/s) = 4.02092 4.16755 4.09489
# Velocity P-wave (km/s) = 7.64990 7.92715 7.78976
#
# Compressibility (1/GPa) = 0.01311671
#
# Stress axis : x y z
#
# Youngs Moduli (GPa) = 93.38172 131.94490 103.80859
#
# Poissons Ratio (x) = 0.13741 0.35758
# Poissons Ratio (y) = 0.09725 0.30270
# Poissons Ratio (z) = 0.32167 0.38474
#
# Static dielectric constant tensor:
#      x y z
#    x 3.790420 0.000000 0.004390 
#    y 0.000000 3.971870 0.000000 
#    z 0.004390 0.000000 3.907300 
# 
# 
# High freq. dielectric constant tensor:
#      x y z
#    x 1.813930 0.000000 -0.004140 
#    y 0.000000 1.819860 0.000000 
#    z -0.004140 0.000000 1.817760 
# 
# From -- ./inp_files/229608.got.cif
#   From: 2010.06.25/outbox.cif.g09.slc.cpg/sg12_115_cif.got.tgz:229608.got - 2010.06.28 00:19:55.
