data_PCOD8112980
_publ_section_title
;
Structure prediction by ZEFSAII (Michael W. Deem and Ramdas Pophale) SiO2 
 PCOD8112980
Probable space group: C 2/M
;
_chemical_formula_sum "Si O2"
_cell_formula_units_Z 44
_cell_length_a 11.456724
_cell_length_b 15.350535
_cell_length_c 18.958815
_cell_angle_alpha 90.000000
_cell_angle_beta 135.677502
_cell_angle_gamma 90.000000
_cell_volume 2329.611885
_symmetry_space_group_name_H-M "C 2/M"
_symmetry_group_IT_number 12
_symmetry_cell_setting 'monoclinic'
loop_
_space_group_symop_operation_xyz
x,y,z
-x,y,-z
-x,-y,-z
x,-y,z
1/2+x,1/2+y,z
1/2-x,1/2+y,-z
1/2-x,1/2-y,-z
1/2+x,1/2-y,z
loop_
_atom_site_type_symbol
_atom_site_label
_atom_site_fract_x
_atom_site_fract_y
_atom_site_fract_z
Si Si1 0.122042 0.099859 0.992103
Si Si2 0.376954 0.095791 0.306777
Si Si3 0.185564 0.500000 0.292514
Si Si4 0.549614 0.642316 0.227615
Si Si5 0.555557 0.162079 0.809610
Si Si6 0.515104 0.500000 0.688635
Si Si7 0.687519 0.000000 0.455187
O O1 0.294457 0.154697 0.068970
O O2 0.167892 0.000000 0.027563
O O3 0.037402 0.107866 0.880091
O O4 0.000000 0.136378 0.000000
O O5 0.366379 0.157510 0.234727
O O6 0.250101 0.127813 0.312083
O O7 0.317615 0.000000 0.254562
O O8 0.569009 0.085700 0.418004
O O9 0.338636 0.500000 0.304916
O O10 0.251136 0.500000 0.401520
O O11 0.078571 0.586825 0.232765
O O12 0.529034 0.744695 0.224075
O O13 0.472706 0.587731 0.259337
O O14 0.339089 0.500000 0.573321
#
# Coordination Sequence:
#
# PCOD8112980 Si02
#       7
#     8   8   4   8   8   4   4
#     4  11  20  37  65  88 118 165 212 244 292 362
#     4   9  18  41  66  85 116 164 211 243 297 361
#     4  10  23  43  64  84 121 174 197 236 313 382
#     4  12  24  36  61 100 124 153 205 261 303 352
#     4  11  22  40  62  90 125 164 205 249 296 363
#     4  12  24  41  62  93 129 154 194 268 316 348
#     4   8  20  42  72  82 115 167 209 242 308 372
#
# _framework density 18.887264999999999
#
# number of rings (size 3 to 8) (size 9 to 14) (size 15 to 20)
#    0.545    0.909    5.455    0.818    2.545    1.455 
#    0.000    5.455    8.000    0.000    0.000    0.000 
#    0.000    0.000    0.000    0.000    0.000    0.000 
#
# Total GULP energy -272676.738163 kJ/mol
# GULP energy per Si atom -12394.397189 kJ/mol
# Density = 1.884428 g / cm^3
# Si number density = 18.887265 Si / 1000 Ang^3
#
#
#
# Elastic Constant Matrix: (Units=GPa)
#
#
# Indices 1 2 3 4 5 6 
#
# 1 109.3704 47.7216 39.4229 0.0000 10.6067 0.0000
# 2 47.7216 116.1235 41.7311 0.0000 10.6490 0.0000
# 3 39.4229 41.7311 107.4588 0.0000 1.3161 0.0000
# 4 0.0000 0.0000 0.0000 12.7880 0.0000 7.9473
# 5 10.6067 10.6490 1.3161 0.0000 23.8531 0.0000
# 6 0.0000 0.0000 0.0000 7.9473 0.0000 19.0736
#
#
#
# Elastic Compliance Matrix: (Units=1/GPa)
#
#
# Indices 1 2 3 4 5 6 
#
# 1 0.012144 -0.003570 -0.003024 0.000000 -0.003639 0.000000
# 2 -0.003570 0.011509 -0.003118 0.000000 -0.003379 0.000000
# 3 -0.003024 -0.003118 0.011601 0.000000 0.002097 0.000000
# 4 0.000000 0.000000 0.000000 0.105523 0.000000 -0.043968
# 5 -0.003639 -0.003379 0.002097 0.000000 0.044934 0.000000
# 6 0.000000 0.000000 0.000000 -0.043968 0.000000 0.070748
#
#
# Mechanical properties :
#
#
# Convention : Reuss Voigt Hill
#
# Bulk Modulus (GPa) = 63.17738 65.63376 64.40557
# Shear Modulus (GPa) = 17.78342 24.74808 21.26575
#
# Velocity S-wave (km/s) = 3.07181 3.62374 3.35913
# Velocity P-wave (km/s) = 6.78997 7.23425 7.01563
#
# Compressibility (1/GPa) = 0.01582845
#
# Stress axis : x y z
#
# Youngs Moduli (GPa) = 82.34515 86.88729 86.20163
#
# Poissons Ratio (x) = 0.31020 0.26069
# Poissons Ratio (y) = 0.29398 0.26881
# Poissons Ratio (z) = 0.24903 0.27095
#
# Static dielectric constant tensor:
#      x y z
#    x 3.547010 0.000000 0.127870 
#    y 0.000000 3.419440 0.000000 
#    z 0.127870 0.000000 3.372240 
# 
# 
# High freq. dielectric constant tensor:
#      x y z
#    x 1.734880 0.000000 0.006470 
#    y 0.000000 1.720770 0.000000 
#    z 0.006470 0.000000 1.729000 
# 
# From -- ./inp_files/305565.got.cif
#   From: 2010.06.25/outbox.cif.g09.slc.cpg/sg12_153_cif.got.tgz:305565.got - 2010.06.28 00:19:55.
