data_PCOD8112239
_publ_section_title
;
Structure prediction by ZEFSAII (Michael W. Deem and Ramdas Pophale) SiO2 
 PCOD8112239
Probable space group: C 2/M
;
_chemical_formula_sum "Si O2"
_cell_formula_units_Z 48
_cell_length_a 20.714510
_cell_length_b 16.740940
_cell_length_c 15.819790
_cell_angle_alpha 90.000000
_cell_angle_beta 154.435147
_cell_angle_gamma 90.000000
_cell_volume 2367.383864
_symmetry_space_group_name_H-M "C 2/M"
_symmetry_group_IT_number 12
_symmetry_cell_setting 'monoclinic'
loop_
_space_group_symop_operation_xyz
x,y,z
-x,y,-z
-x,-y,-z
x,-y,z
1/2+x,1/2+y,z
1/2-x,1/2+y,-z
1/2-x,1/2-y,-z
1/2+x,1/2-y,z
loop_
_atom_site_type_symbol
_atom_site_label
_atom_site_fract_x
_atom_site_fract_y
_atom_site_fract_z
Si Si1 0.000000 0.298868 0.500000
Si Si2 0.242240 0.694265 0.243188
Si Si3 0.500000 0.315064 0.000000
Si Si4 0.460968 0.593301 0.791709
Si Si5 0.624899 0.092712 0.958918
Si Si6 0.798746 0.406697 0.141820
Si Si7 0.796496 0.406561 0.635741
O O1 0.899598 0.239488 0.437945
O O2 0.900527 0.354623 0.323305
O O3 0.118691 0.762295 0.090992
O O4 0.209899 0.637320 0.283129
O O5 0.235237 0.642613 0.149259
O O6 0.577098 0.369384 0.162347
O O7 0.438426 0.500000 0.776353
O O8 0.338541 0.626232 0.581267
O O9 0.625890 0.614593 0.953498
O O10 0.660524 0.116902 0.905342
O O11 0.452374 0.113224 0.774212
O O12 0.659140 0.000000 0.015287
O O13 0.830646 0.500000 0.197183
O O14 0.779538 0.500000 0.634356
#
# Coordination Sequence:
#
# PCOD8112239 Si02
#       7
#     4   8   4   8   8   8   8
#     4  12  27  42  59  92 126 166 202 250 311 366
#     4  12  25  41  61  93 127 164 203 250 308 364
#     4  12  23  42  61  90 128 162 200 250 315 358
#     4  10  23  42  65  92 122 160 207 255 301 360
#     4  10  22  42  67  91 121 163 207 250 301 363
#     4  10  23  44  65  88 122 164 208 252 301 362
#     4  10  22  42  67  92 120 161 208 252 301 362
#
# _framework density 20.275545000000001
#
# number of rings (size 3 to 8) (size 9 to 14) (size 15 to 20)
#    0.000    1.333    3.333    1.000    4.667    4.000 
#    0.000    0.833    0.000    0.000    0.000    0.000 
#    0.000    0.000    0.000    0.000    0.000    0.000 
#
# Total GULP energy -297685.789454 kJ/mol
# GULP energy per Si atom -12403.574561 kJ/mol
# Density = 2.022940 g / cm^3
# Si number density = 20.275545 Si / 1000 Ang^3
#
#
#
# Elastic Constant Matrix: (Units=GPa)
#
#
# Indices 1 2 3 4 5 6 
#
# 1 106.2163 50.0305 26.4040 0.0000 -18.2814 -0.0002
# 2 50.0305 63.8046 46.6381 -0.0001 -7.0368 -0.0002
# 3 26.4040 46.6381 100.5812 0.0005 -14.5536 -0.0001
# 4 0.0000 -0.0001 0.0005 22.9859 0.0001 7.3767
# 5 -18.2814 -7.0368 -14.5536 0.0001 33.2844 0.0000
# 6 -0.0002 -0.0002 -0.0001 7.3767 0.0000 -1.8213
#
#
#
# Elastic Compliance Matrix: (Units=1/GPa)
#
#
# Indices 1 2 3 4 5 6 
#
# 1 0.016960 -0.015141 0.003686 0.000000 0.007726 -0.000001
# 2 -0.015141 0.037227 -0.014253 0.000000 -0.006678 0.000000
# 3 0.003686 -0.014253 0.016483 0.000000 0.006219 -0.000001
# 4 0.000000 0.000000 0.000000 0.018917 0.000000 0.076617
# 5 0.007726 -0.006678 0.006219 0.000000 0.035595 -0.000001
# 6 -0.000001 0.000000 -0.000001 0.076617 -0.000001 -0.238737
#
#
# Mechanical properties :
#
#
# Convention : Reuss Voigt Hill
#
# Bulk Modulus (GPa) = 51.93577 57.41639 54.67608
# Shear Modulus (GPa) = -89.73355 20.72508 -34.50423
#
# Velocity S-wave (km/s) = -6.65981 3.20061 -4.12972
# Velocity P-wave (km/s) = 5.78506 6.48368 2.07017
#
# Compressibility (1/GPa) = 0.01925455
#
# Stress axis : x y z
#
# Youngs Moduli (GPa) = 58.96226 26.86198 60.66729
#
# Poissons Ratio (x) = 0.40672 -0.22365
# Poissons Ratio (y) = 0.89276 0.86471
# Poissons Ratio (z) = -0.21736 0.38287
#
# Static dielectric constant tensor:
#      x y z
#    x 4.422360 0.000010 0.792380 
#    y 0.000010 3.795520 0.000010 
#    z 0.792380 0.000010 4.570340 
# 
# 
# High freq. dielectric constant tensor:
#      x y z
#    x 1.799480 0.000000 0.000740 
#    y 0.000000 1.801690 0.000000 
#    z 0.000740 0.000000 1.795440 
# 
# From -- ./inp_files/226950.got.cif
#   From: 2010.06.25/outbox.cif.g09.slc.cpg/sg12_114_cif.got.tgz:226950.got - 2010.06.28 00:19:55.
