data_PCOD8112587
_publ_section_title
;
Structure prediction by ZEFSAII (Michael W. Deem and Ramdas Pophale) SiO2 
 PCOD8112587
Probable space group: C 2/M
;
_chemical_formula_sum "Si O2"
_cell_formula_units_Z 40
_cell_length_a 23.532344
_cell_length_b 18.313177
_cell_length_c 8.480530
_cell_angle_alpha 90.000000
_cell_angle_beta 31.330330
_cell_angle_gamma 90.000000
_cell_volume 1900.339933
_symmetry_space_group_name_H-M "C 2/M"
_symmetry_group_IT_number 12
_symmetry_cell_setting 'monoclinic'
loop_
_space_group_symop_operation_xyz
x,y,z
-x,y,-z
-x,-y,-z
x,-y,z
1/2+x,1/2+y,z
1/2-x,1/2+y,-z
1/2-x,1/2-y,-z
1/2+x,1/2-y,z
loop_
_atom_site_type_symbol
_atom_site_label
_atom_site_fract_x
_atom_site_fract_y
_atom_site_fract_z
Si Si1 0.100709 0.920732 0.652415
Si Si2 0.900087 0.814760 0.617494
Si Si3 0.021827 0.418578 0.133404
Si Si4 0.319480 0.836719 0.681203
Si Si5 0.222673 0.665736 0.575153
O O1 0.060942 0.877835 0.591860
O O2 0.181550 0.873986 0.564049
O O3 0.150677 0.000000 0.485978
O O4 0.000000 0.936127 0.000000
O O5 0.869166 0.743887 0.588071
O O6 0.000000 0.797724 0.500000
O O7 0.790065 0.846043 0.958628
O O8 0.057492 0.500000 0.105829
O O9 0.917402 0.393822 0.487248
O O10 0.115580 0.356436 0.931913
O O11 0.000000 0.421505 0.000000
O O12 0.288161 0.858544 0.578480
O O13 0.250000 0.750000 0.500000
#
# Coordination Sequence:
#
# PCOD8112587 Si02
#       5
#     8   8   8   8   8
#     4  11  25  42  64  95 129 168 217 270 325 390
#     4  11  24  41  62  94 133 173 221 269 319 395
#     4   9  20  37  60  93 127 162 209 262 323 389
#     4  10  23  39  64  97 128 171 216 268 329 387
#     4  11  21  38  69  95 124 169 212 274 321 384
#
# _framework density 21.048864999999999
#
# number of rings (size 3 to 8) (size 9 to 14) (size 15 to 20)
#    0.000    1.600    2.000    1.800    5.600    2.000 
#    0.000    0.000    0.000    3.000    0.000    0.000 
#    0.000    0.000    0.000    0.000    0.000    0.000 
#
# Total GULP energy -247789.003467 kJ/mol
# GULP energy per Si atom -12389.450173 kJ/mol
# Density = 2.100096 g / cm^3
# Si number density = 21.048865 Si / 1000 Ang^3
#
#
#
# Elastic Constant Matrix: (Units=GPa)
#
#
# Indices 1 2 3 4 5 6 
#
# 1 86.4575 19.4198 9.0870 0.0000 -11.0528 0.0000
# 2 19.4198 121.5670 39.1970 0.0000 -11.0083 0.0000
# 3 9.0870 39.1970 110.4846 0.0000 -10.5747 0.0000
# 4 0.0000 0.0000 0.0000 35.9620 0.0000 -11.1445
# 5 -11.0528 -11.0083 -10.5747 0.0000 31.2492 0.0000
# 6 0.0000 0.0000 0.0000 -11.1445 0.0000 27.1890
#
#
#
# Elastic Compliance Matrix: (Units=1/GPa)
#
#
# Indices 1 2 3 4 5 6 
#
# 1 0.012423 -0.001613 -0.000086 0.000000 0.003797 0.000000
# 2 -0.001613 0.009651 -0.003121 0.000000 0.001773 0.000000
# 3 -0.000086 -0.003121 0.010394 0.000000 0.002387 0.000000
# 4 0.000000 0.000000 0.000000 0.031853 0.000000 0.013056
# 5 0.003797 0.001773 0.002387 0.000000 0.034776 0.000000
# 6 0.000000 0.000000 0.000000 0.013056 0.000000 0.042131
#
#
# Mechanical properties :
#
#
# Convention : Reuss Voigt Hill
#
# Bulk Modulus (GPa) = 43.80847 50.43517 47.12182
# Shear Modulus (GPa) = 31.55012 35.60040 33.57526
#
# Velocity S-wave (km/s) = 3.87576 4.11703 3.99822
# Velocity P-wave (km/s) = 6.39427 6.82737 6.61436
#
# Compressibility (1/GPa) = 0.02282664
#
# Stress axis : x y z
#
# Youngs Moduli (GPa) = 80.49522 103.62097 96.20937
#
# Poissons Ratio (x) = 0.16714 0.00829
# Poissons Ratio (y) = 0.12984 0.30031
# Poissons Ratio (z) = 0.00693 0.32344
#
# Static dielectric constant tensor:
#      x y z
#    x 3.812500 0.000000 -0.077270 
#    y 0.000000 7.013960 0.000000 
#    z -0.077270 0.000000 3.935360 
# 
# 
# High freq. dielectric constant tensor:
#      x y z
#    x 1.816080 0.000000 -0.011540 
#    y 0.000000 1.830380 0.000000 
#    z -0.011540 0.000000 1.829370 
# 
# From -- ./inp_files/46971.got.cif
#   From: 2010.06.25/outbox.cif.g09.slc.cpg/sg12_24_cif.got.tgz:46971.got - 2010.06.28 00:19:55.
