data_PCOD8112947
_publ_section_title
;
Structure prediction by ZEFSAII (Michael W. Deem and Ramdas Pophale) SiO2 
 PCOD8112947
Probable space group: C 2/M
;
_chemical_formula_sum "Si O2"
_cell_formula_units_Z 48
_cell_length_a 17.489892
_cell_length_b 20.409227
_cell_length_c 14.528922
_cell_angle_alpha 90.000000
_cell_angle_beta 154.832374
_cell_angle_gamma 90.000000
_cell_volume 2205.513633
_symmetry_space_group_name_H-M "C 2/M"
_symmetry_group_IT_number 12
_symmetry_cell_setting 'monoclinic'
loop_
_space_group_symop_operation_xyz
x,y,z
-x,y,-z
-x,-y,-z
x,-y,z
1/2+x,1/2+y,z
1/2-x,1/2+y,-z
1/2-x,1/2-y,-z
1/2+x,1/2-y,z
loop_
_atom_site_type_symbol
_atom_site_label
_atom_site_fract_x
_atom_site_fract_y
_atom_site_fract_z
Si Si1 0.013608 0.883544 0.810300
Si Si2 0.119532 0.374937 0.712008
Si Si3 0.053305 0.379976 0.954847
Si Si4 0.391301 0.729632 0.975324
Si Si5 0.073231 0.926027 0.675416
Si Si6 0.633389 0.074761 0.416434
O O1 0.844778 0.921583 0.670158
O O2 0.000151 0.806811 0.824119
O O3 0.011040 0.885856 0.696842
O O4 0.197552 0.913835 0.057080
O O5 0.000000 0.407809 0.500000
O O6 0.986062 0.375148 0.653557
O O7 0.188685 0.302526 0.753316
O O8 0.212150 0.427292 0.095673
O O9 0.121262 0.305788 0.015797
O O10 0.000000 0.395704 0.000000
O O11 0.884376 0.399163 0.707644
O O12 0.500000 0.716656 0.000000
O O13 0.000000 0.894253 0.500000
O O14 0.000420 0.000000 0.606817
O O15 0.568204 0.000000 0.359369
#
# Coordination Sequence:
#
# PCOD8112947 Si02
#       6
#     8   8   8   8   8   8
#     4  10  23  42  68  95 132 175 217 270 331 384
#     4  10  23  43  70  95 129 173 219 272 332 384
#     4  11  23  40  65  98 130 173 226 265 326 393
#     4   9  21  42  66  95 131 169 216 272 328 386
#     4  11  23  41  64  94 137 176 214 268 325 389
#     4  12  25  41  66  98 134 175 219 270 325 392
#
# _framework density 21.763638
#
# number of rings (size 3 to 8) (size 9 to 14) (size 15 to 20)
#    1.000    0.500    1.667    3.000    0.000    7.667 
#    0.000    0.833    0.000    0.000    0.000    0.000 
#    0.000    0.000    0.000    0.000    0.000    0.000 
#
# Total GULP energy -297344.998633 kJ/mol
# GULP energy per Si atom -12389.374943 kJ/mol
# Density = 2.171410 g / cm^3
# Si number density = 21.763638 Si / 1000 Ang^3
#
#
#
# Elastic Constant Matrix: (Units=GPa)
#
#
# Indices 1 2 3 4 5 6 
#
# 1 109.6770 39.4045 58.8996 0.0000 -2.8722 0.0000
# 2 39.4045 58.7034 22.7074 0.0000 -2.8315 0.0000
# 3 58.8996 22.7074 143.8122 0.0000 2.6404 0.0000
# 4 0.0000 0.0000 0.0000 20.7003 0.0000 0.7188
# 5 -2.8722 -2.8315 2.6404 0.0000 44.9510 0.0000
# 6 0.0000 0.0000 0.0000 0.7188 0.0000 17.9493
#
#
#
# Elastic Compliance Matrix: (Units=1/GPa)
#
#
# Indices 1 2 3 4 5 6 
#
# 1 0.014492 -0.007873 -0.004705 0.000000 0.000706 0.000000
# 2 -0.007873 0.022498 -0.000345 0.000000 0.000934 0.000000
# 3 -0.004705 -0.000345 0.008951 0.000000 -0.000848 0.000000
# 4 0.000000 0.000000 0.000000 0.048376 0.000000 -0.001937
# 5 0.000706 0.000934 -0.000848 0.000000 0.022400 0.000000
# 6 0.000000 0.000000 0.000000 -0.001937 0.000000 0.055790
#
#
# Mechanical properties :
#
#
# Convention : Reuss Voigt Hill
#
# Bulk Modulus (GPa) = 49.76658 61.57951 55.67304
# Shear Modulus (GPa) = 24.38415 29.46551 26.92483
#
# Velocity S-wave (km/s) = 3.35088 3.68351 3.52113
# Velocity P-wave (km/s) = 6.15530 6.81521 6.49364
#
# Compressibility (1/GPa) = 0.02009381
#
# Stress axis : x y z
#
# Youngs Moduli (GPa) = 69.00537 44.44783 111.72549
#
# Poissons Ratio (x) = 0.34996 0.52566
# Poissons Ratio (y) = 0.54331 0.03853
# Poissons Ratio (z) = 0.32467 0.01533
#
# Static dielectric constant tensor:
#      x y z
#    x 3.944690 0.000000 -0.062890 
#    y 0.000000 3.536130 0.000000 
#    z -0.062890 0.000000 4.034260 
# 
# 
# High freq. dielectric constant tensor:
#      x y z
#    x 1.865470 0.000000 0.002150 
#    y 0.000000 1.823190 0.000000 
#    z 0.002150 0.000000 1.861380 
# 
# From -- ./inp_files/285922.got.cif
#   From: 2010.06.25/outbox.cif.g09.slc.cpg/sg12_143_cif.got.tgz:285922.got - 2010.06.28 00:19:55.
