data_PCOD8112312
_publ_section_title
;
Structure prediction by ZEFSAII (Michael W. Deem and Ramdas Pophale) SiO2 
 PCOD8112312
Probable space group: C 2/M
;
_chemical_formula_sum "Si O2"
_cell_formula_units_Z 56
_cell_length_a 5.225749
_cell_length_b 29.700971
_cell_length_c 18.506463
_cell_angle_alpha 90.000000
_cell_angle_beta 120.373270
_cell_angle_gamma 90.000000
_cell_volume 2478.148975
_symmetry_space_group_name_H-M "C 2/M"
_symmetry_group_IT_number 12
_symmetry_cell_setting 'monoclinic'
loop_
_space_group_symop_operation_xyz
x,y,z
-x,y,-z
-x,-y,-z
x,-y,z
1/2+x,1/2+y,z
1/2-x,1/2+y,-z
1/2-x,1/2-y,-z
1/2+x,1/2-y,z
loop_
_atom_site_type_symbol
_atom_site_label
_atom_site_fract_x
_atom_site_fract_y
_atom_site_fract_z
Si Si1 0.067282 0.948547 0.641291
Si Si2 0.353327 0.273794 0.901010
Si Si3 0.000000 0.599150 0.500000
Si Si4 0.691696 0.921000 0.179364
Si Si5 0.351908 0.725603 0.401493
Si Si6 0.088614 0.366069 0.363116
Si Si7 0.316117 0.366227 0.817440
Si Si8 0.145594 0.500000 0.943733
O O1 0.756555 0.933976 0.563187
O O2 0.082122 0.943557 0.730507
O O3 0.316039 0.916721 0.642831
O O4 0.133195 0.000000 0.628567
O O5 0.510709 0.239940 0.865692
O O6 0.400908 0.322902 0.875154
O O7 0.500000 0.272035 0.000000
O O8 0.070955 0.634658 0.447051
O O9 0.479104 0.885394 0.187490
O O10 0.894862 0.898682 0.145229
O O11 0.465177 0.956412 0.113921
O O12 0.500000 0.730556 0.500000
O O13 0.529450 0.750795 0.363214
O O14 0.319433 0.673143 0.373910
O O15 0.775597 0.355530 0.278896
O O16 0.500000 0.500000 0.000000
O O17 0.000000 0.500000 0.000000
#
# Coordination Sequence:
#
# PCOD8112312 Si02
#       8
#     8   8   4   8   8   8   8   4
#     4  11  24  44  68  97 137 189 236 302 364 424
#     4  10  22  42  70 105 141 178 228 290 351 425
#     4  12  23  42  66  98 140 180 252 294 359 428
#     4  11  24  46  67 103 141 182 233 287 348 420
#     4  10  23  39  62  88 124 174 230 286 356 410
#     4  11  26  41  65  97 139 181 244 302 355 425
#     4  11  24  43  70  99 140 187 228 282 357 417
#     4  12  26  46  74 105 139 181 227 284 350 422
#
# _framework density 22.597511000000001
#
# number of rings (size 3 to 8) (size 9 to 14) (size 15 to 20)
#    0.000    1.143    2.143    3.214    5.000    4.571 
#    1.286    0.000    0.000    0.000    0.000    0.000 
#    0.000    0.000    0.000    0.000    0.000    0.000 
#
# Total GULP energy -347119.883727 kJ/mol
# GULP energy per Si atom -12397.138705 kJ/mol
# Density = 2.254608 g / cm^3
# Si number density = 22.597511 Si / 1000 Ang^3
#
#
#
# Elastic Constant Matrix: (Units=GPa)
#
#
# Indices 1 2 3 4 5 6 
#
# 1 129.0004 39.9618 22.3260 0.0000 0.9888 0.0000
# 2 39.9618 115.6915 3.2507 0.0000 -8.4590 0.0000
# 3 22.3260 3.2507 43.5770 0.0000 -6.7085 0.0000
# 4 0.0000 0.0000 0.0000 33.2219 0.0000 1.9921
# 5 0.9888 -8.4590 -6.7085 0.0000 24.5973 0.0000
# 6 0.0000 0.0000 0.0000 1.9921 0.0000 34.5945
#
#
#
# Elastic Compliance Matrix: (Units=1/GPa)
#
#
# Indices 1 2 3 4 5 6 
#
# 1 0.009738 -0.003436 -0.005193 0.000000 -0.002990 0.000000
# 2 -0.003436 0.010081 0.001632 0.000000 0.004050 0.000000
# 3 -0.005193 0.001632 0.026727 0.000000 0.008059 0.000000
# 4 0.000000 0.000000 0.000000 0.030205 0.000000 -0.001739
# 5 -0.002990 0.004050 0.008059 0.000000 0.044366 0.000000
# 6 0.000000 0.000000 0.000000 -0.001739 0.000000 0.029006
#
#
# Mechanical properties :
#
#
# Convention : Reuss Voigt Hill
#
# Bulk Modulus (GPa) = 30.72034 46.59398 38.65716
# Shear Modulus (GPa) = 28.57650 33.33146 30.95398
#
# Velocity S-wave (km/s) = 3.55996 3.84475 3.70509
# Velocity P-wave (km/s) = 5.52466 6.35400 5.95378
#
# Compressibility (1/GPa) = 0.03255173
#
# Stress axis : x y z
#
# Youngs Moduli (GPa) = 102.68940 99.19718 37.41477
#
# Poissons Ratio (x) = 0.34088 0.19430
# Poissons Ratio (y) = 0.35288 -0.06106
# Poissons Ratio (z) = 0.53327 -0.16190
#
# Static dielectric constant tensor:
#      x y z
#    x 4.217050 0.000000 -0.011620 
#    y 0.000000 3.962650 0.000000 
#    z -0.011620 0.000000 4.219250 
# 
# 
# High freq. dielectric constant tensor:
#      x y z
#    x 1.891040 0.000000 0.002020 
#    y 0.000000 1.895100 0.000000 
#    z 0.002020 0.000000 1.891360 
# 
# From -- ./inp_files/254058.got.cif
#   From: 2010.06.25/outbox.cif.g09.slc.cpg/sg12_128_cif.got.tgz:254058.got - 2010.06.28 00:19:55.
