data_PCOD8112048
_publ_section_title
;
Structure prediction by ZEFSAII (Michael W. Deem and Ramdas Pophale) SiO2 
 PCOD8112048
Probable space group: C 2/M
;
_chemical_formula_sum "Si O2"
_cell_formula_units_Z 48
_cell_length_a 13.459508
_cell_length_b 18.523426
_cell_length_c 16.234382
_cell_angle_alpha 90.000000
_cell_angle_beta 32.778052
_cell_angle_gamma 90.000000
_cell_volume 2191.257548
_symmetry_space_group_name_H-M "C 2/M"
_symmetry_group_IT_number 12
_symmetry_cell_setting 'monoclinic'
loop_
_space_group_symop_operation_xyz
x,y,z
-x,y,-z
-x,-y,-z
x,-y,z
1/2+x,1/2+y,z
1/2-x,1/2+y,-z
1/2-x,1/2-y,-z
1/2+x,1/2-y,z
loop_
_atom_site_type_symbol
_atom_site_label
_atom_site_fract_x
_atom_site_fract_y
_atom_site_fract_z
Si Si1 0.003470 0.000000 0.593670
Si Si2 0.000000 0.309900 0.500000
Si Si3 0.040524 0.351460 0.291629
Si Si4 0.636069 0.621493 0.197893
Si Si5 0.618650 0.267336 0.698050
Si Si6 0.899344 0.500000 0.980949
Si Si7 0.415616 0.000000 0.312213
Si Si8 0.637367 0.259758 0.972346
O O1 0.909994 0.073744 0.689867
O O2 0.000000 0.000000 0.500000
O O3 0.207568 0.000000 0.485764
O O4 0.946061 0.355529 0.618224
O O5 0.181766 0.264254 0.398321
O O6 0.881361 0.293447 0.374907
O O7 0.010931 0.431280 0.283469
O O8 0.224028 0.326337 0.117509
O O9 0.447910 0.652010 0.285672
O O10 0.754963 0.690927 0.139832
O O11 0.769184 0.569200 0.052356
O O12 0.459749 0.243412 0.873396
O O13 0.065271 0.500000 0.800143
O O14 0.000000 0.500000 0.000000
O O15 0.500000 0.286661 0.000000
#
# Coordination Sequence:
#
# PCOD8112048 Si02
#       8
#     4   4   8   8   8   4   4   8
#     4  11  25  43  62 100 141 178 225 266 347 421
#     4  12  24  43  68  99 134 180 238 278 352 415
#     4  11  25  44  67  99 135 185 226 288 343 406
#     4  10  22  41  66  97 137 180 219 285 345 404
#     4  11  23  44  69 101 137 176 232 294 347 404
#     4  11  21  39  69 102 136 184 235 278 353 413
#     4  12  24  45  64  96 145 181 225 283 340 411
#     4  11  21  43  70 100 130 172 233 283 342 402
#
# _framework density 21.905231000000001
#
# number of rings (size 3 to 8) (size 9 to 14) (size 15 to 20)
#    0.000    1.000    1.667    7.000    0.000    3.000 
#    7.500    2.083    0.000    0.000    0.000    0.000 
#    0.000    0.000    0.000    0.000    0.000    0.000 
#
# Total GULP energy -297420.121076 kJ/mol
# GULP energy per Si atom -12392.505045 kJ/mol
# Density = 2.185537 g / cm^3
# Si number density = 21.905231 Si / 1000 Ang^3
#
#
#
# Elastic Constant Matrix: (Units=GPa)
#
#
# Indices 1 2 3 4 5 6 
#
# 1 131.8575 56.1418 35.3116 -0.1248 2.6686 0.1576
# 2 56.1418 151.5944 38.0542 -0.2889 -9.1928 0.4105
# 3 35.3116 38.0542 89.0862 -0.3505 -3.3005 0.4866
# 4 -0.1248 -0.2889 -0.3505 122.0555 0.0605 -124.9950
# 5 2.6686 -9.1928 -3.3005 0.0605 51.5834 -0.0795
# 6 0.1576 0.4105 0.4866 -124.9950 -0.0795 180.8224
#
#
#
# Elastic Compliance Matrix: (Units=1/GPa)
#
#
# Indices 1 2 3 4 5 6 
#
# 1 0.009559 -0.002968 -0.002565 0.000003 -0.001188 0.000007
# 2 -0.002968 0.008375 -0.002346 -0.000001 0.001496 -0.000010
# 3 -0.002565 -0.002346 0.013265 0.000004 0.000563 -0.000025
# 4 0.000003 -0.000001 0.000004 0.028049 -0.000003 0.019389
# 5 -0.001188 0.001496 0.000563 -0.000003 0.019750 0.000003
# 6 0.000007 -0.000010 -0.000025 0.019389 0.000003 0.018933
#
#
# Mechanical properties :
#
#
# Convention : Reuss Voigt Hill
#
# Bulk Modulus (GPa) = 64.76152 70.17257 67.46705
# Shear Modulus (GPa) = 42.07476 87.09430 64.58453
#
# Velocity S-wave (km/s) = 4.38741 6.31236 5.43577
# Velocity P-wave (km/s) = 7.43602 9.23212 8.38231
#
# Compressibility (1/GPa) = 0.01544127
#
# Stress axis : x y z
#
# Youngs Moduli (GPa) = 104.61759 119.39827 75.38765
#
# Poissons Ratio (x) = 0.35439 0.19337
# Poissons Ratio (y) = 0.31052 0.17683
# Poissons Ratio (z) = 0.26834 0.28007
#
# Static dielectric constant tensor:
#      x y z
#    x 4.024470 -0.000120 -0.068990 
#    y -0.000120 3.899240 0.000080 
#    z -0.068990 0.000080 4.507630 
# 
# 
# High freq. dielectric constant tensor:
#      x y z
#    x 1.860850 0.000000 -0.002400 
#    y 0.000000 1.843440 0.000000 
#    z -0.002400 0.000000 1.887540 
# 
# From -- ./inp_files/271662.got.cif
#   From: 2010.06.25/outbox.cif.g09.slc.cpg/sg12_136_cif.got.tgz:271662.got - 2010.06.28 00:19:55.
