data_PCOD8112071
_publ_section_title
;
Structure prediction by ZEFSAII (Michael W. Deem and Ramdas Pophale) SiO2 
 PCOD8112071
Probable space group: C 2/M
;
_chemical_formula_sum "Si O2"
_cell_formula_units_Z 40
_cell_length_a 10.915273
_cell_length_b 15.429486
_cell_length_c 11.567509
_cell_angle_alpha 90.000000
_cell_angle_beta 74.659303
_cell_angle_gamma 90.000000
_cell_volume 1878.752125
_symmetry_space_group_name_H-M "C 2/M"
_symmetry_group_IT_number 12
_symmetry_cell_setting 'monoclinic'
loop_
_space_group_symop_operation_xyz
x,y,z
-x,y,-z
-x,-y,-z
x,-y,z
1/2+x,1/2+y,z
1/2-x,1/2+y,-z
1/2-x,1/2-y,-z
1/2+x,1/2-y,z
loop_
_atom_site_type_symbol
_atom_site_label
_atom_site_fract_x
_atom_site_fract_y
_atom_site_fract_z
Si Si1 0.138464 0.685425 0.997088
Si Si2 0.570877 0.153776 0.258969
Si Si3 0.413655 0.500000 0.404410
Si Si4 0.865603 0.500000 0.597504
Si Si5 0.183799 0.597980 0.748145
Si Si6 0.053999 0.161910 0.364334
O O1 0.116827 0.628828 0.118352
O O2 0.250000 0.750000 0.000000
O O3 0.188961 0.627801 0.879786
O O4 0.000000 0.728729 0.000000
O O5 0.643065 0.088167 0.325782
O O6 0.418943 0.146618 0.305155
O O7 0.593542 0.255512 0.277920
O O8 0.500000 0.500000 0.500000
O O9 0.259396 0.500000 0.454147
O O10 0.456450 0.590814 0.330730
O O11 0.000000 0.500000 0.500000
O O12 0.140059 0.500000 0.760130
O O13 0.315751 0.609859 0.648902
O O14 0.000000 0.195702 0.500000
#
# Coordination Sequence:
#
# PCOD8112071 Si02
#       6
#     8   8   4   4   8   8
#     4  10  22  41  67  95 130 173 225 272 331 392
#     4  11  25  42  67  98 132 177 225 276 329 394
#     4  10  26  46  67  94 135 179 222 266 330 406
#     4  12  28  44  66  98 140 172 221 279 332 387
#     4  11  23  42  69  95 133 178 225 274 336 389
#     4  11  24  41  66  96 132 177 220 270 333 400
#
# _framework density 21.290728999999999
#
# number of rings (size 3 to 8) (size 9 to 14) (size 15 to 20)
#    0.000    1.200    4.000    0.600    9.800    2.000 
#    0.000    0.000    0.000    1.800    0.000    0.000 
#    0.000    0.000    0.000    0.000    0.000    0.000 
#
# Total GULP energy -247781.354607 kJ/mol
# GULP energy per Si atom -12389.067730 kJ/mol
# Density = 2.124227 g / cm^3
# Si number density = 21.290729 Si / 1000 Ang^3
#
#
#
# Elastic Constant Matrix: (Units=GPa)
#
#
# Indices 1 2 3 4 5 6 
#
# 1 144.0519 24.2900 32.2642 0.0000 -7.7135 0.0000
# 2 24.2900 113.5115 7.8029 0.0000 10.7936 0.0000
# 3 32.2642 7.8029 73.9829 0.0000 0.7911 0.0000
# 4 0.0000 0.0000 0.0000 22.2810 0.0000 0.2918
# 5 -7.7135 10.7936 0.7911 0.0000 33.3043 0.0000
# 6 0.0000 0.0000 0.0000 0.2918 0.0000 31.1630
#
#
#
# Elastic Compliance Matrix: (Units=1/GPa)
#
#
# Indices 1 2 3 4 5 6 
#
# 1 0.008131 -0.001748 -0.003389 0.000000 0.002530 0.000000
# 2 -0.001748 0.009529 -0.000206 0.000000 -0.003488 0.000000
# 3 -0.003389 -0.000206 0.015028 0.000000 -0.001075 0.000000
# 4 0.000000 0.000000 0.000000 0.044887 0.000000 -0.000420
# 5 0.002530 -0.003488 -0.001075 0.000000 0.031768 0.000000
# 6 0.000000 0.000000 0.000000 -0.000420 0.000000 0.032093
#
#
# Mechanical properties :
#
#
# Convention : Reuss Voigt Hill
#
# Bulk Modulus (GPa) = 45.44562 51.14003 48.29283
# Shear Modulus (GPa) = 31.35677 35.16227 33.25952
#
# Velocity S-wave (km/s) = 3.84186 4.06831 3.95670
# Velocity P-wave (km/s) = 6.40870 6.79266 6.60347
#
# Compressibility (1/GPa) = 0.02200432
#
# Stress axis : x y z
#
# Youngs Moduli (GPa) = 122.98469 104.93756 66.54395
#
# Poissons Ratio (x) = 0.18339 0.22550
# Poissons Ratio (y) = 0.21493 0.01368
# Poissons Ratio (z) = 0.41676 0.02158
#
# Static dielectric constant tensor:
#      x y z
#    x 3.371640 0.000000 -0.213780 
#    y 0.000000 4.088270 0.000000 
#    z -0.213780 0.000000 3.967920 
# 
# 
# High freq. dielectric constant tensor:
#      x y z
#    x 1.843570 0.000000 -0.015460 
#    y 0.000000 1.834260 0.000000 
#    z -0.015460 0.000000 1.832040 
# 
# From -- ./inp_files/129634.got.cif
#   From: 2010.06.25/outbox.cif.g09.slc.cpg/sg12_65_cif.got.tgz:129634.got - 2010.06.28 00:19:55.
