data_PCOD8112204
_publ_section_title
;
Structure prediction by ZEFSAII (Michael W. Deem and Ramdas Pophale) SiO2 
 PCOD8112204
Probable space group: C 2/M
;
_chemical_formula_sum "Si O2"
_cell_formula_units_Z 40
_cell_length_a 23.636077
_cell_length_b 8.993821
_cell_length_c 9.577622
_cell_angle_alpha 90.000000
_cell_angle_beta 76.471972
_cell_angle_gamma 90.000000
_cell_volume 1979.510387
_symmetry_space_group_name_H-M "C 2/M"
_symmetry_group_IT_number 12
_symmetry_cell_setting 'monoclinic'
loop_
_space_group_symop_operation_xyz
x,y,z
-x,y,-z
-x,-y,-z
x,-y,z
1/2+x,1/2+y,z
1/2-x,1/2+y,-z
1/2-x,1/2-y,-z
1/2+x,1/2-y,z
loop_
_atom_site_type_symbol
_atom_site_label
_atom_site_fract_x
_atom_site_fract_y
_atom_site_fract_z
Si Si1 0.394748 0.826677 0.724646
Si Si2 0.987028 0.175684 0.850532
Si Si3 0.737807 0.824862 0.151947
Si Si4 0.422010 0.169747 0.397839
Si Si5 0.708049 0.828471 0.631392
O O1 0.425492 0.739488 0.833066
O O2 0.326875 0.784525 0.758163
O O3 0.424216 0.784062 0.559644
O O4 0.402147 0.000000 0.751169
O O5 0.037090 0.225044 0.715533
O O6 0.983044 0.000000 0.852311
O O7 0.000000 0.234479 0.000000
O O8 0.785582 0.754284 0.225841
O O9 0.747591 0.000000 0.137444
O O10 0.750000 0.750000 0.000000
O O11 0.357306 0.189026 0.380578
O O12 0.443382 0.000000 0.368196
O O13 0.750000 0.750000 0.500000
O O14 0.726072 0.000000 0.634563
#
# Coordination Sequence:
#
# PCOD8112204 Si02
#       5
#     8   8   8   8   8
#     4  10  22  43  66  89 121 163 208 252 305 372
#     4  11  26  43  60  91 126 158 203 260 314 362
#     4  11  24  42  63  94 131 168 209 257 311 371
#     4  10  22  42  66  91 121 162 208 251 304 372
#     4  11  22  40  65  96 129 166 208 254 309 371
#
# _framework density 20.207015999999999
#
# number of rings (size 3 to 8) (size 9 to 14) (size 15 to 20)
#    0.000    1.400    2.000    2.400    2.800    8.000 
#    0.000    0.000    0.000    0.000    0.000    0.000 
#    0.000    0.000    0.000    0.000    0.000    0.000 
#
# Total GULP energy -248078.229854 kJ/mol
# GULP energy per Si atom -12403.911493 kJ/mol
# Density = 2.016102 g / cm^3
# Si number density = 20.207016 Si / 1000 Ang^3
#
#
#
# Elastic Constant Matrix: (Units=GPa)
#
#
# Indices 1 2 3 4 5 6 
#
# 1 61.1328 39.0002 23.7628 0.0000 15.8790 0.0000
# 2 39.0002 92.0179 43.1241 0.0000 11.3544 0.0000
# 3 23.7628 43.1241 114.3812 0.0000 23.4631 0.0000
# 4 0.0000 0.0000 0.0000 39.7395 0.0000 2.5041
# 5 15.8790 11.3544 23.4631 0.0000 41.7746 0.0000
# 6 0.0000 0.0000 0.0000 2.5041 0.0000 36.4181
#
#
#
# Elastic Compliance Matrix: (Units=1/GPa)
#
#
# Indices 1 2 3 4 5 6 
#
# 1 0.024058 -0.009323 -0.000143 0.000000 -0.006530 0.000000
# 2 -0.009323 0.016843 -0.004748 0.000000 0.001633 0.000000
# 3 -0.000143 -0.004748 0.011626 0.000000 -0.005185 0.000000
# 4 0.000000 0.000000 0.000000 0.025273 0.000000 -0.001738
# 5 -0.006530 0.001633 -0.005185 0.000000 0.028888 0.000000
# 6 0.000000 0.000000 0.000000 -0.001738 0.000000 0.027578
#
#
# Mechanical properties :
#
#
# Convention : Reuss Voigt Hill
#
# Bulk Modulus (GPa) = 41.49928 53.25622 47.37775
# Shear Modulus (GPa) = 29.28620 34.36275 31.82447
#
# Velocity S-wave (km/s) = 3.81111 4.12823 3.97283
# Velocity P-wave (km/s) = 6.32042 7.00968 6.67395
#
# Compressibility (1/GPa) = 0.02409680
#
# Stress axis : x y z
#
# Youngs Moduli (GPa) = 41.56676 59.37286 86.01275
#
# Poissons Ratio (x) = 0.55356 0.01233
# Poissons Ratio (y) = 0.38755 0.40839
# Poissons Ratio (z) = 0.00596 0.28190
#
# Static dielectric constant tensor:
#      x y z
#    x 3.148610 0.000000 0.088150 
#    y 0.000000 3.607670 0.000000 
#    z 0.088150 0.000000 3.800480 
# 
# 
# High freq. dielectric constant tensor:
#      x y z
#    x 1.801860 0.000000 0.008920 
#    y 0.000000 1.789500 0.000000 
#    z 0.008920 0.000000 1.801770 
# 
# From -- ./inp_files/92742.got.cif
#   From: 2010.06.25/outbox.cif.g09.slc.cpg/sg12_47_cif.got.tgz:92742.got - 2010.06.28 00:19:55.
