data_PCOD8112225
_publ_section_title
;
Structure prediction by ZEFSAII (Michael W. Deem and Ramdas Pophale) SiO2 
 PCOD8112225
Probable space group: C 2/M
;
_chemical_formula_sum "Si O2"
_cell_formula_units_Z 56
_cell_length_a 8.988599
_cell_length_b 18.180193
_cell_length_c 26.177514
_cell_angle_alpha 90.000000
_cell_angle_beta 40.118117
_cell_angle_gamma 90.000000
_cell_volume 2756.456564
_symmetry_space_group_name_H-M "C 2/M"
_symmetry_group_IT_number 12
_symmetry_cell_setting 'monoclinic'
loop_
_space_group_symop_operation_xyz
x,y,z
-x,y,-z
-x,-y,-z
x,-y,z
1/2+x,1/2+y,z
1/2-x,1/2+y,-z
1/2-x,1/2-y,-z
1/2+x,1/2-y,z
loop_
_atom_site_type_symbol
_atom_site_label
_atom_site_fract_x
_atom_site_fract_y
_atom_site_fract_z
Si Si1 0.751371 0.299346 0.949177
Si Si2 0.154725 0.586765 0.842908
Si Si3 0.792158 0.085344 0.690998
Si Si4 0.477473 0.694684 0.809218
Si Si5 0.292795 0.913911 0.520986
Si Si6 0.746879 0.195267 0.547614
Si Si7 0.478746 0.801949 0.717015
O O1 0.825354 0.249125 0.882635
O O2 0.914436 0.370237 0.913790
O O3 0.500000 0.330143 0.000000
O O4 0.750000 0.250000 0.000000
O O5 0.118838 0.500000 0.862633
O O6 0.247557 0.602836 0.761822
O O7 0.341742 0.618463 0.834165
O O8 0.607162 0.126504 0.704469
O O9 0.049790 0.111635 0.609212
O O10 0.759913 0.000000 0.687381
O O11 0.518420 0.733755 0.744140
O O12 0.710946 0.677846 0.778864
O O13 0.500000 0.879913 0.500000
O O14 0.330668 0.883894 0.453883
O O15 0.314336 0.000000 0.512365
O O16 0.750000 0.250000 0.500000
O O17 0.578391 0.222708 0.636177
O O18 0.000000 0.183747 0.500000
#
# Coordination Sequence:
#
# PCOD8112225 Si02
#       7
#     8   8   8   8   8   8   8
#     4  12  23  44  75 104 133 174 216 266 331 405
#     4  11  25  45  70 105 140 174 223 277 332 399
#     4  10  22  42  66  94 133 175 223 281 339 402
#     4  12  24  43  69  97 133 179 223 264 330 408
#     4  10  23  43  63  87 126 175 222 276 344 397
#     4  12  25  38  58  91 128 164 220 284 329 375
#     4  12  23  40  66  92 129 179 226 273 330 402
#
# _framework density 20.315937999999999
#
# number of rings (size 3 to 8) (size 9 to 14) (size 15 to 20)
#    0.000    0.714    5.714    1.286    4.000    1.714 
#    0.000    1.429    0.000    0.000    0.000    0.000 
#    0.000    0.000    0.000    0.000    0.000    0.000 
#
# Total GULP energy -347246.001151 kJ/mol
# GULP energy per Si atom -12401.642898 kJ/mol
# Density = 2.026970 g / cm^3
# Si number density = 20.315938 Si / 1000 Ang^3
#
#
#
# Elastic Constant Matrix: (Units=GPa)
#
#
# Indices 1 2 3 4 5 6 
#
# 1 143.4867 56.7363 39.0848 -0.0275 -26.7907 -0.0132
# 2 56.7363 96.3006 43.6121 0.0250 -4.2621 -0.0291
# 3 39.0848 43.6121 95.2902 -0.0776 -5.1272 -0.0560
# 4 -0.0275 0.0250 -0.0776 28.6940 0.0199 -8.0745
# 5 -26.7907 -4.2621 -5.1272 0.0199 42.4103 0.0236
# 6 -0.0132 -0.0291 -0.0560 -8.0745 0.0236 15.1446
#
#
#
# Elastic Compliance Matrix: (Units=1/GPa)
#
#
# Indices 1 2 3 4 5 6 
#
# 1 0.010602 -0.005245 -0.001626 0.000002 0.005973 -0.000015
# 2 -0.005245 0.015709 -0.005165 -0.000033 -0.002359 -0.000008
# 3 -0.001626 -0.005165 0.013530 0.000059 0.000089 0.000070
# 4 0.000002 -0.000033 0.000059 0.041002 -0.000026 0.021861
# 5 0.005973 -0.002359 0.000089 -0.000026 0.027126 -0.000055
# 6 -0.000015 -0.000008 0.000070 0.021861 -0.000055 0.077686
#
#
# Mechanical properties :
#
#
# Convention : Reuss Voigt Hill
#
# Bulk Modulus (GPa) = 63.42227 68.21599 65.81913
# Shear Modulus (GPa) = 23.25743 30.29271 26.77507
#
# Velocity S-wave (km/s) = 3.38714 3.86564 3.63427
# Velocity P-wave (km/s) = 6.82515 7.31947 7.07663
#
# Compressibility (1/GPa) = 0.01576733
#
# Stress axis : x y z
#
# Youngs Moduli (GPa) = 94.32557 63.65704 73.90804
#
# Poissons Ratio (x) = 0.33388 0.12021
# Poissons Ratio (y) = 0.49474 0.38176
# Poissons Ratio (z) = 0.15342 0.32881
#
# Static dielectric constant tensor:
#      x y z
#    x 4.323490 0.000010 0.151860 
#    y 0.000010 3.718990 0.000020 
#    z 0.151860 0.000020 4.056920 
# 
# 
# High freq. dielectric constant tensor:
#      x y z
#    x 1.813200 0.000000 -0.003700 
#    y 0.000000 1.791010 0.000000 
#    z -0.003700 0.000000 1.798170 
# 
# From -- ./inp_files/356671.got.cif
#   From: 2010.06.25/outbox.cif.g09.slc.cpg/sg12_179_cif.got.tgz:356671.got - 2010.06.28 00:19:55.
