data_PCOD8112271
_publ_section_title
;
Structure prediction by ZEFSAII (Michael W. Deem and Ramdas Pophale) SiO2 
 PCOD8112271
Probable space group: C 2/M
;
_chemical_formula_sum "Si O2"
_cell_formula_units_Z 48
_cell_length_a 27.204679
_cell_length_b 13.628524
_cell_length_c 11.936413
_cell_angle_alpha 90.000000
_cell_angle_beta 152.373087
_cell_angle_gamma 90.000000
_cell_volume 2052.177099
_symmetry_space_group_name_H-M "C 2/M"
_symmetry_group_IT_number 12
_symmetry_cell_setting 'monoclinic'
loop_
_space_group_symop_operation_xyz
x,y,z
-x,y,-z
-x,-y,-z
x,-y,z
1/2+x,1/2+y,z
1/2-x,1/2+y,-z
1/2-x,1/2-y,-z
1/2+x,1/2-y,z
loop_
_atom_site_type_symbol
_atom_site_label
_atom_site_fract_x
_atom_site_fract_y
_atom_site_fract_z
Si Si1 0.411458 0.108932 0.186725
Si Si2 0.811566 0.110922 0.332577
Si Si3 0.115069 0.802751 0.742695
Si Si4 0.482790 0.308316 0.842214
Si Si5 0.174341 0.887547 0.089358
Si Si6 0.413871 0.110622 0.637602
O O1 0.396574 0.186635 0.256251
O O2 0.523766 0.125612 0.353249
O O3 0.407207 0.000000 0.232598
O O4 0.315018 0.118223 0.900260
O O5 0.827203 0.183378 0.258691
O O6 0.879099 0.143938 0.576025
O O7 0.845307 0.000000 0.369625
O O8 0.000000 0.852141 0.500000
O O9 0.178273 0.858505 0.967444
O O10 0.460191 0.192373 0.814766
O O11 0.500000 0.355402 0.000000
O O12 0.586515 0.322503 0.975336
O O13 0.289918 0.867354 0.371984
O O14 0.141063 0.000000 0.036711
O O15 0.432125 0.000000 0.720852
#
# Coordination Sequence:
#
# PCOD8112271 Si02
#       6
#     8   8   8   8   8   8
#     4  10  22  42  68 101 139 180 226 279 338 407
#     4  11  24  42  67 101 138 179 229 280 339 404
#     4  12  22  39  67  98 139 179 216 279 336 413
#     4  12  26  45  73  99 136 177 230 289 341 395
#     4  11  24  44  71 104 137 177 227 277 340 410
#     4  10  23  47  72 100 139 182 228 279 338 406
#
# _framework density 23.389793999999998
#
# number of rings (size 3 to 8) (size 9 to 14) (size 15 to 20)
#    0.000    1.000    3.333    2.500    0.000    4.667 
#    0.000    5.833    0.000    0.000    0.000    0.000 
#    0.000    0.000    0.000    0.000    0.000    0.000 
#
# Total GULP energy -297548.134976 kJ/mol
# GULP energy per Si atom -12397.838957 kJ/mol
# Density = 2.333656 g / cm^3
# Si number density = 23.389794 Si / 1000 Ang^3
#
#
#
# Elastic Constant Matrix: (Units=GPa)
#
#
# Indices 1 2 3 4 5 6 
#
# 1 47.0032 14.9440 49.8106 0.0000 -13.0151 0.0000
# 2 14.9440 122.9765 46.8205 0.0000 3.4629 0.0000
# 3 49.8106 46.8205 115.1130 0.0000 8.8691 0.0000
# 4 0.0000 0.0000 0.0000 32.1531 0.0000 7.8001
# 5 -13.0151 3.4629 8.8691 0.0000 44.7517 0.0000
# 6 0.0000 0.0000 0.0000 7.8001 0.0000 15.8107
#
#
#
# Elastic Compliance Matrix: (Units=1/GPa)
#
#
# Indices 1 2 3 4 5 6 
#
# 1 0.053399 0.002760 -0.025803 0.000000 0.020430 0.000000
# 2 0.002760 0.009764 -0.005249 0.000000 0.001087 0.000000
# 3 -0.025803 -0.005249 0.022884 0.000000 -0.011633 0.000000
# 4 0.000000 0.000000 0.000000 0.035330 0.000000 -0.017430
# 5 0.020430 0.001087 -0.011633 0.000000 0.030509 0.000000
# 6 0.000000 0.000000 0.000000 -0.017430 0.000000 0.071847
#
#
# Mechanical properties :
#
#
# Convention : Reuss Voigt Hill
#
# Bulk Modulus (GPa) = 33.94248 56.47142 45.20695
# Shear Modulus (GPa) = 17.23326 30.11093 23.67209
#
# Velocity S-wave (km/s) = 2.71732 3.59186 3.18475
# Velocity P-wave (km/s) = 4.93845 6.43413 5.73525
#
# Compressibility (1/GPa) = 0.02946161
#
# Stress axis : x y z
#
# Youngs Moduli (GPa) = 18.72710 102.41458 43.69960
#
# Poissons Ratio (x) = -0.28261 1.12756
# Poissons Ratio (y) = -0.05168 0.22939
# Poissons Ratio (z) = 0.48321 0.53760
#
# Static dielectric constant tensor:
#      x y z
#    x 3.724350 0.000000 0.313430 
#    y 0.000000 4.565140 0.000000 
#    z 0.313430 0.000000 4.586480 
# 
# 
# High freq. dielectric constant tensor:
#      x y z
#    x 1.882520 0.000000 0.024280 
#    y 0.000000 1.945980 0.000000 
#    z 0.024280 0.000000 1.946140 
# 
# From -- ./inp_files/183904.got.cif
#   From: 2010.06.25/outbox.cif.g09.slc.cpg/sg12_92_cif.got.tgz:183904.got - 2010.06.28 00:19:55.
