data_PCOD8112733
_publ_section_title
;
Structure prediction by ZEFSAII (Michael W. Deem and Ramdas Pophale) SiO2 
 PCOD8112733
Probable space group: C 2/M
;
_chemical_formula_sum "Si O2"
_cell_formula_units_Z 56
_cell_length_a 11.474879
_cell_length_b 18.034575
_cell_length_c 15.261834
_cell_angle_alpha 90.000000
_cell_angle_beta 117.375278
_cell_angle_gamma 90.000000
_cell_volume 2804.661813
_symmetry_space_group_name_H-M "C 2/M"
_symmetry_group_IT_number 12
_symmetry_cell_setting 'monoclinic'
loop_
_space_group_symop_operation_xyz
x,y,z
-x,y,-z
-x,-y,-z
x,-y,z
1/2+x,1/2+y,z
1/2-x,1/2+y,-z
1/2-x,1/2-y,-z
1/2+x,1/2-y,z
loop_
_atom_site_type_symbol
_atom_site_label
_atom_site_fract_x
_atom_site_fract_y
_atom_site_fract_z
Si Si1 0.605816 0.837067 0.973291
Si Si2 0.689660 0.201744 0.737664
Si Si3 0.260691 0.583927 0.323759
Si Si4 0.974971 0.178756 0.898567
Si Si5 0.849817 0.152975 0.183281
Si Si6 0.659100 0.272154 0.552655
Si Si7 0.454772 0.085000 0.218597
O O1 0.555272 0.756067 0.927379
O O2 0.624128 0.887332 0.893941
O O3 0.500000 0.876238 0.000000
O O4 0.738323 0.832610 0.073167
O O5 0.822445 0.193114 0.837235
O O6 0.614272 0.272047 0.752376
O O7 0.718984 0.217562 0.646403
O O8 0.598409 0.129530 0.715540
O O9 0.286930 0.500000 0.366074
O O10 0.320403 0.591248 0.246407
O O11 0.319787 0.641142 0.415090
O O12 0.107668 0.601030 0.260134
O O13 0.024284 0.130199 0.832420
O O14 0.000000 0.137258 0.000000
O O15 0.500000 0.258336 0.500000
O O16 0.750000 0.250000 0.500000
O O17 0.422714 0.000000 0.224492
#
# Coordination Sequence:
#
# PCOD8112733 Si02
#       7
#     8   8   8   8   8   8   8
#     4  11  17  31  52  88 118 157 205 251 293 345
#     4  11  22  37  61  86 124 154 202 246 304 361
#     4  10  23  41  63  90 121 156 196 250 311 365
#     4  11  20  32  56  90 119 159 199 251 295 346
#     4  11  20  33  59  85 120 160 202 253 295 347
#     4  11  25  43  71 100 120 154 204 259 311 368
#     4  11  22  37  57  85 125 164 199 245 301 359
#
# _framework density 19.966756
#
# number of rings (size 3 to 8) (size 9 to 14) (size 15 to 20)
#    0.000    1.143    5.714    3.000    4.000    1.143 
#    0.000    1.429    0.000    4.286    0.000    0.000 
#    0.000    0.000    0.000    0.000    0.000    0.000 
#
# Total GULP energy -346991.197949 kJ/mol
# GULP energy per Si atom -12392.542784 kJ/mol
# Density = 1.992131 g / cm^3
# Si number density = 19.966756 Si / 1000 Ang^3
#
#
#
# Elastic Constant Matrix: (Units=GPa)
#
#
# Indices 1 2 3 4 5 6 
#
# 1 89.6725 31.8635 39.5227 0.0000 -28.5165 0.0000
# 2 31.8635 84.7444 32.7601 0.0000 -11.8549 0.0000
# 3 39.5227 32.7601 92.7334 0.0000 -22.9494 0.0000
# 4 0.0000 0.0000 0.0000 18.7074 0.0000 -4.5172
# 5 -28.5165 -11.8549 -22.9494 0.0000 39.0542 0.0000
# 6 0.0000 0.0000 0.0000 -4.5172 0.0000 23.2371
#
#
#
# Elastic Compliance Matrix: (Units=1/GPa)
#
#
# Indices 1 2 3 4 5 6 
#
# 1 0.016984 -0.003688 -0.003679 0.000000 0.009120 0.000000
# 2 -0.003688 0.014546 -0.003675 0.000000 -0.000437 0.000000
# 3 -0.003679 -0.003675 0.014872 0.000000 0.004937 0.000000
# 4 0.000000 0.000000 0.000000 0.056087 0.000000 0.010903
# 5 0.009120 -0.000437 0.004937 0.000000 0.035033 0.000000
# 6 0.000000 0.000000 0.000000 0.010903 0.000000 0.045154
#
#
# Mechanical properties :
#
#
# Convention : Reuss Voigt Hill
#
# Bulk Modulus (GPa) = 41.12118 52.82698 46.97408
# Shear Modulus (GPa) = 23.48892 27.06668 25.27780
#
# Velocity S-wave (km/s) = 3.43359 3.68582 3.56194
# Velocity P-wave (km/s) = 6.02984 6.68047 6.36347
#
# Compressibility (1/GPa) = 0.02431837
#
# Stress axis : x y z
#
# Youngs Moduli (GPa) = 58.88007 68.74524 67.24216
#
# Poissons Ratio (x) = 0.25353 0.24735
# Poissons Ratio (y) = 0.21715 0.24713
# Poissons Ratio (z) = 0.21659 0.25265
#
# Static dielectric constant tensor:
#      x y z
#    x 3.969860 0.000000 -0.196220 
#    y 0.000000 3.354250 0.000000 
#    z -0.196220 0.000000 3.766020 
# 
# 
# High freq. dielectric constant tensor:
#      x y z
#    x 1.791450 0.000000 -0.009780 
#    y 0.000000 1.740780 0.000000 
#    z -0.009780 0.000000 1.775930 
# 
# From -- ./inp_files/206252.got.cif
#   From: 2010.06.25/outbox.cif.g09.slc.cpg/sg12_104_cif.got.tgz:206252.got - 2010.06.28 00:19:55.
