data_PCOD8112757
_publ_section_title
;
Structure prediction by ZEFSAII (Michael W. Deem and Ramdas Pophale) SiO2 
 PCOD8112757
Probable space group: C 2/M
;
_chemical_formula_sum "Si O2"
_cell_formula_units_Z 40
_cell_length_a 27.194441
_cell_length_b 14.624553
_cell_length_c 5.110776
_cell_angle_alpha 90.000000
_cell_angle_beta 110.346470
_cell_angle_gamma 90.000000
_cell_volume 1905.770222
_symmetry_space_group_name_H-M "C 2/M"
_symmetry_group_IT_number 12
_symmetry_cell_setting 'monoclinic'
loop_
_space_group_symop_operation_xyz
x,y,z
-x,y,-z
-x,-y,-z
x,-y,z
1/2+x,1/2+y,z
1/2-x,1/2+y,-z
1/2-x,1/2-y,-z
1/2+x,1/2-y,z
loop_
_atom_site_type_symbol
_atom_site_label
_atom_site_fract_x
_atom_site_fract_y
_atom_site_fract_z
Si Si1 0.095951 0.500000 0.817082
Si Si2 0.466217 0.180985 0.194908
Si Si3 0.831588 0.500000 0.549752
Si Si4 0.668545 0.395297 0.588970
Si Si5 0.136389 0.212257 0.018671
Si Si6 0.276427 0.162229 0.672004
O O1 0.059029 0.587449 0.752845
O O2 0.128498 0.500000 0.611341
O O3 0.137206 0.500000 0.123551
O O4 0.500000 0.219945 0.500000
O O5 0.500000 0.161911 0.000000
O O6 0.422489 0.255141 0.036772
O O7 0.795799 0.591454 0.483459
O O8 0.650991 0.500000 0.568466
O O9 0.654642 0.355927 0.279199
O O10 0.731357 0.387001 0.761689
O O11 0.636606 0.339781 0.744981
O O12 0.174125 0.301967 0.066737
O O13 0.250000 0.250000 0.500000
#
# Coordination Sequence:
#
# PCOD8112757 Si02
#       6
#     4   8   4   8   8   8
#     4  12  26  41  66  94 136 172 216 261 324 379
#     4  12  25  44  68  94 128 170 219 268 326 390
#     4  12  24  41  64  98 140 178 208 273 318 371
#     4  11  23  42  66  97 129 171 213 263 320 387
#     4  11  24  41  67  93 131 166 216 270 320 382
#     4  10  23  41  64  95 136 177 219 255 316 389
#
# _framework density 20.988886999999998
#
# number of rings (size 3 to 8) (size 9 to 14) (size 15 to 20)
#    0.000    0.800    3.000    4.200    5.600    3.200 
#    0.000    0.000    0.000   12.000    0.000    0.000 
#    0.000    0.000    0.000    0.000    0.000    0.000 
#
# Total GULP energy -248043.318964 kJ/mol
# GULP energy per Si atom -12402.165948 kJ/mol
# Density = 2.094112 g / cm^3
# Si number density = 20.988887 Si / 1000 Ang^3
#
#
#
# Elastic Constant Matrix: (Units=GPa)
#
#
# Indices 1 2 3 4 5 6 
#
# 1 139.5879 59.0249 39.7098 0.0000 -11.1399 0.0000
# 2 59.0249 119.1624 16.8896 0.0000 -2.5895 0.0000
# 3 39.7098 16.8896 90.4527 0.0000 -7.7817 0.0000
# 4 0.0000 0.0000 0.0000 26.1702 0.0000 -1.4922
# 5 -11.1399 -2.5895 -7.7817 0.0000 43.8424 0.0000
# 6 0.0000 0.0000 0.0000 -1.4922 0.0000 26.5255
#
#
#
# Elastic Compliance Matrix: (Units=1/GPa)
#
#
# Indices 1 2 3 4 5 6 
#
# 1 0.010205 -0.004523 -0.003489 0.000000 0.001707 0.000000
# 2 -0.004523 0.010627 -0.000044 0.000000 -0.000529 0.000000
# 3 -0.003489 -0.000044 0.012713 0.000000 0.001367 0.000000
# 4 0.000000 0.000000 0.000000 0.038334 0.000000 0.002157
# 5 0.001707 -0.000529 0.001367 0.000000 0.023454 0.000000
# 6 0.000000 0.000000 0.000000 0.002157 0.000000 0.037821
#
#
# Mechanical properties :
#
#
# Convention : Reuss Voigt Hill
#
# Bulk Modulus (GPa) = 57.36259 64.49461 60.92860
# Shear Modulus (GPa) = 32.24173 34.87955 33.56064
#
# Velocity S-wave (km/s) = 3.92361 4.08095 4.00305
# Velocity P-wave (km/s) = 6.92211 7.28013 7.10337
#
# Compressibility (1/GPa) = 0.01743296
#
# Stress axis : x y z
#
# Youngs Moduli (GPa) = 97.98731 94.09761 78.65962
#
# Poissons Ratio (x) = 0.42565 0.27443
# Poissons Ratio (y) = 0.44324 0.00346
# Poissons Ratio (z) = 0.34186 0.00414
#
# Static dielectric constant tensor:
#      x y z
#    x 4.067390 0.000000 0.237980 
#    y 0.000000 3.987600 0.000000 
#    z 0.237980 0.000000 3.674190 
# 
# 
# High freq. dielectric constant tensor:
#      x y z
#    x 1.828750 0.000000 0.000900 
#    y 0.000000 1.828720 0.000000 
#    z 0.000900 0.000000 1.816270 
# 
# From -- ./inp_files/24395.got.cif
#   From: 2010.06.25/outbox.cif.g09.slc.cpg/sg12_13_cif.got.tgz:24395.got - 2010.06.28 00:19:55.
