data_PCOD8112612
_publ_section_title
;
Structure prediction by ZEFSAII (Michael W. Deem and Ramdas Pophale) SiO2 
 PCOD8112612
Probable space group: C 2/M
;
_chemical_formula_sum "Si O2"
_cell_formula_units_Z 40
_cell_length_a 21.069420
_cell_length_b 8.785946
_cell_length_c 25.071317
_cell_angle_alpha 90.000000
_cell_angle_beta 154.986838
_cell_angle_gamma 90.000000
_cell_volume 1962.367772
_symmetry_space_group_name_H-M "C 2/M"
_symmetry_group_IT_number 12
_symmetry_cell_setting 'monoclinic'
loop_
_space_group_symop_operation_xyz
x,y,z
-x,y,-z
-x,-y,-z
x,-y,z
1/2+x,1/2+y,z
1/2-x,1/2+y,-z
1/2-x,1/2-y,-z
1/2+x,1/2-y,z
loop_
_atom_site_type_symbol
_atom_site_label
_atom_site_fract_x
_atom_site_fract_y
_atom_site_fract_z
Si Si1 0.645393 0.181215 0.581267
Si Si2 0.799004 0.820165 0.593305
Si Si3 0.368251 0.679037 0.836230
Si Si4 0.637606 0.321310 0.870590
Si Si5 0.700928 0.679057 0.101260
O O1 0.500000 0.251767 0.500000
O O2 0.672984 0.230846 0.541019
O O3 0.785566 0.244345 0.721759
O O4 0.637774 0.000000 0.579015
O O5 0.750000 0.750000 0.500000
O O6 0.962908 0.767888 0.740516
O O7 0.800158 0.000000 0.586575
O O8 0.390277 0.500000 0.850473
O O9 0.269567 0.715230 0.813930
O O10 0.535191 0.745661 0.963301
O O11 0.648513 0.500000 0.887366
O O12 0.684753 0.274198 0.847081
O O13 0.750000 0.250000 0.000000
O O14 0.718841 0.500000 0.102052
#
# Coordination Sequence:
#
# PCOD8112612 Si02
#       5
#     8   8   8   8   8
#     4   9  17  30  52  80 107 139 186 236 279 330
#     4  10  23  40  59  86 120 153 191 242 294 347
#     4   8  15  29  50  80 112 141 182 235 285 330
#     4  11  23  38  57  83 116 154 195 238 290 349
#     4   9  17  31  55  82 109 143 185 237 288 338
#
# _framework density 20.383538000000001
#
# number of rings (size 3 to 8) (size 9 to 14) (size 15 to 20)
#    0.000    2.600    0.000    3.000    2.800    4.800 
#    0.000    2.000    0.000    1.800    0.000    0.000 
#    0.000    0.000    0.000    0.000    0.000    0.000 
#
# Total GULP energy -247781.656776 kJ/mol
# GULP energy per Si atom -12389.082839 kJ/mol
# Density = 2.033714 g / cm^3
# Si number density = 20.383538 Si / 1000 Ang^3
#
#
#
# Elastic Constant Matrix: (Units=GPa)
#
#
# Indices 1 2 3 4 5 6 
#
# 1 162.8028 24.8052 63.3295 -0.0023 1.5407 -0.0006
# 2 24.8052 28.6401 25.9367 -0.0012 1.4270 -0.0008
# 3 63.3295 25.9367 109.0586 -0.0024 -9.2944 -0.0013
# 4 -0.0023 -0.0012 -0.0024 21.6697 -0.0011 -2.8498
# 5 1.5407 1.4270 -9.2944 -0.0011 37.0520 -0.0005
# 6 -0.0006 -0.0008 -0.0013 -2.8498 -0.0005 29.7736
#
#
#
# Elastic Compliance Matrix: (Units=1/GPa)
#
#
# Indices 1 2 3 4 5 6 
#
# 1 0.008265 -0.003383 -0.004101 0.000000 -0.001242 0.000000
# 2 -0.003383 0.046619 -0.009466 0.000001 -0.004029 0.000001
# 3 -0.004101 -0.009466 0.014150 0.000001 0.004085 0.000000
# 4 0.000000 0.000001 0.000001 0.046736 0.000002 0.004473
# 5 -0.001242 -0.004029 0.004085 0.000002 0.028220 0.000001
# 6 0.000000 0.000001 0.000000 0.004473 0.000001 0.034015
#
#
# Mechanical properties :
#
#
# Convention : Reuss Voigt Hill
#
# Bulk Modulus (GPa) = 28.46174 58.73825 43.60000
# Shear Modulus (GPa) = 22.35980 30.12774 26.24377
#
# Velocity S-wave (km/s) = 3.31562 3.84870 3.59207
# Velocity P-wave (km/s) = 5.35268 6.97346 6.21612
#
# Compressibility (1/GPa) = 0.03513489
#
# Stress axis : x y z
#
# Youngs Moduli (GPa) = 120.99715 21.45037 70.67148
#
# Poissons Ratio (x) = 0.07256 0.28980
# Poissons Ratio (y) = 0.40928 0.66900
# Poissons Ratio (z) = 0.49616 0.20306
#
# Static dielectric constant tensor:
#      x y z
#    x 3.977130 0.000000 0.048580 
#    y 0.000000 3.153440 0.000000 
#    z 0.048580 0.000000 4.091320 
# 
# 
# High freq. dielectric constant tensor:
#      x y z
#    x 1.817180 0.000000 -0.002250 
#    y 0.000000 1.734950 0.000000 
#    z -0.002250 0.000000 1.801680 
# 
# From -- ./inp_files/162586.got.cif
#   From: 2010.06.25/outbox.cif.g09.slc.cpg/sg12_82_cif.got.tgz:162586.got - 2010.06.28 00:19:55.
