data_PCOD8112194
_publ_section_title
;
Structure prediction by ZEFSAII (Michael W. Deem and Ramdas Pophale) SiO2 
 PCOD8112194
Probable space group: C 2/M
;
_chemical_formula_sum "Si O2"
_cell_formula_units_Z 36
_cell_length_a 8.489898
_cell_length_b 16.822574
_cell_length_c 12.894816
_cell_angle_alpha 90.000000
_cell_angle_beta 117.967028
_cell_angle_gamma 90.000000
_cell_volume 1626.588849
_symmetry_space_group_name_H-M "C 2/M"
_symmetry_group_IT_number 12
_symmetry_cell_setting 'monoclinic'
loop_
_space_group_symop_operation_xyz
x,y,z
-x,y,-z
-x,-y,-z
x,-y,z
1/2+x,1/2+y,z
1/2-x,1/2+y,-z
1/2-x,1/2-y,-z
1/2+x,1/2-y,z
loop_
_atom_site_type_symbol
_atom_site_label
_atom_site_fract_x
_atom_site_fract_y
_atom_site_fract_z
Si Si1 0.880511 0.000000 0.359180
Si Si2 0.546939 0.854290 0.626348
Si Si3 0.855567 0.735684 0.731069
Si Si4 0.549807 0.000000 0.755218
Si Si5 0.321744 0.500000 0.015147
Si Si6 0.147617 0.866458 0.808318
O O1 0.666162 0.000000 0.312939
O O2 0.932212 0.078521 0.308924
O O3 0.000000 0.000000 0.500000
O O4 0.500000 0.889960 0.500000
O O5 0.677581 0.781744 0.650382
O O6 0.379661 0.819771 0.637955
O O7 0.631378 0.924585 0.720247
O O8 0.826570 0.677883 0.821896
O O9 0.012868 0.797467 0.802476
O O10 0.636730 0.000000 0.895023
O O11 0.311306 0.420574 0.080243
O O12 0.500000 0.500000 0.000000
#
# Coordination Sequence:
#
# PCOD8112194 Si02
#       6
#     4   8   8   4   4   8
#     4  11  25  43  70 100 139 185 233 276 340 413
#     4  11  23  40  65  97 139 176 226 279 344 405
#     4  10  22  42  66 103 133 178 227 278 351 406
#     4  12  25  45  67 102 133 183 234 277 340 401
#     4  11  25  49  73  98 138 182 234 282 340 411
#     4  10  23  45  72  98 138 180 228 286 345 404
#
# _framework density 22.132207000000001
#
# number of rings (size 3 to 8) (size 9 to 14) (size 15 to 20)
#    0.000    1.333    2.222    2.333    3.111    6.222 
#    0.000   12.222    0.000    0.000    0.000    0.000 
#    0.000    0.000    0.000    0.000    0.000    0.000 
#
# Total GULP energy -223136.360383 kJ/mol
# GULP energy per Si atom -12396.464466 kJ/mol
# Density = 2.208183 g / cm^3
# Si number density = 22.132207 Si / 1000 Ang^3
#
#
#
# Elastic Constant Matrix: (Units=GPa)
#
#
# Indices 1 2 3 4 5 6 
#
# 1 119.4546 54.0626 59.5561 0.0000 -18.7488 0.0000
# 2 54.0626 155.5639 75.3690 0.0000 -23.1959 0.0000
# 3 59.5561 75.3690 177.7148 0.0000 -10.2899 0.0000
# 4 0.0000 0.0000 0.0000 6.8459 0.0000 1.8771
# 5 -18.7488 -23.1959 -10.2899 0.0000 33.2585 0.0000
# 6 0.0000 0.0000 0.0000 1.8771 0.0000 20.1393
#
#
#
# Elastic Compliance Matrix: (Units=1/GPa)
#
#
# Indices 1 2 3 4 5 6 
#
# 1 0.011263 -0.001996 -0.002689 0.000000 0.004125 0.000000
# 2 -0.001996 0.009224 -0.002989 0.000000 0.004383 0.000000
# 3 -0.002689 -0.002989 0.007726 0.000000 -0.001210 0.000000
# 4 0.000000 0.000000 0.000000 0.149903 0.000000 -0.013972
# 5 0.004125 0.004383 -0.001210 0.000000 0.035075 0.000000
# 6 0.000000 0.000000 0.000000 -0.013972 0.000000 0.050956
#
#
# Mechanical properties :
#
#
# Convention : Reuss Voigt Hill
#
# Bulk Modulus (GPa) = 77.73800 92.30097 85.01949
# Shear Modulus (GPa) = 17.61908 29.63180 23.62544
#
# Velocity S-wave (km/s) = 2.82456 3.66301 3.27076
# Velocity P-wave (km/s) = 6.77039 7.72561 7.26372
#
# Compressibility (1/GPa) = 0.01286372
#
# Stress axis : x y z
#
# Youngs Moduli (GPa) = 88.78673 108.41718 129.43852
#
# Poissons Ratio (x) = 0.21644 0.34806
# Poissons Ratio (y) = 0.17725 0.38689
# Poissons Ratio (z) = 0.23875 0.32406
#
# Static dielectric constant tensor:
#      x y z
#    x 4.256160 0.000000 -0.437010 
#    y 0.000000 4.393860 0.000000 
#    z -0.437010 0.000000 3.747960 
# 
# 
# High freq. dielectric constant tensor:
#      x y z
#    x 1.876540 0.000000 -0.027870 
#    y 0.000000 1.901220 0.000000 
#    z -0.027870 0.000000 1.846510 
# 
# From -- ./inp_files/118807.got.cif
#   From: 2010.06.25/outbox.cif.g09.slc.cpg/sg12_60_cif.got.tgz:118807.got - 2010.06.28 00:19:55.
