data_PCOD8112285
_publ_section_title
;
Structure prediction by ZEFSAII (Michael W. Deem and Ramdas Pophale) SiO2 
 PCOD8112285
Probable space group: C 2/M
;
_chemical_formula_sum "Si O2"
_cell_formula_units_Z 48
_cell_length_a 8.913530
_cell_length_b 27.279931
_cell_length_c 8.832189
_cell_angle_alpha 90.000000
_cell_angle_beta 89.750088
_cell_angle_gamma 90.000000
_cell_volume 2147.618917
_symmetry_space_group_name_H-M "C 2/M"
_symmetry_group_IT_number 12
_symmetry_cell_setting 'monoclinic'
loop_
_space_group_symop_operation_xyz
x,y,z
-x,y,-z
-x,-y,-z
x,-y,z
1/2+x,1/2+y,z
1/2-x,1/2+y,-z
1/2-x,1/2-y,-z
1/2+x,1/2-y,z
loop_
_atom_site_type_symbol
_atom_site_label
_atom_site_fract_x
_atom_site_fract_y
_atom_site_fract_z
Si Si1 0.054683 0.215432 0.655473
Si Si2 0.757575 0.781209 0.843538
Si Si3 0.487604 0.446575 0.317701
Si Si4 0.748967 0.624177 0.653781
Si Si5 0.308125 0.942406 0.367580
Si Si6 0.532169 0.128022 0.834453
O O1 0.184746 0.249513 0.714215
O O2 0.135671 0.165946 0.597948
O O3 0.000000 0.240437 0.500000
O O4 0.927850 0.207711 0.787221
O O5 0.662326 0.831373 0.848700
O O6 0.750000 0.750000 0.000000
O O7 0.500000 0.443929 0.500000
O O8 0.437450 0.500000 0.263497
O O9 0.362606 0.410750 0.247604
O O10 0.657428 0.434833 0.267631
O O11 0.813932 0.591557 0.516775
O O12 0.879731 0.648652 0.755833
O O13 0.434743 0.921204 0.258745
O O14 0.334267 0.000000 0.409096
O O15 0.500000 0.108543 0.000000
#
# Coordination Sequence:
#
# PCOD8112285 Si02
#       6
#     8   8   8   8   8   8
#     4  12  24  40  67  99 129 161 217 282 334 390
#     4  12  26  47  68  91 132 182 223 267 339 413
#     4   8  15  32  59  88 117 154 204 255 309 376
#     4  11  21  38  65  96 128 165 212 271 333 393
#     4  10  22  42  68  97 132 174 218 269 332 395
#     4  12  26  42  61  91 131 174 225 272 323 392
#
# _framework density 22.350332000000002
#
# number of rings (size 3 to 8) (size 9 to 14) (size 15 to 20)
#    0.000    1.167    0.000    9.500    0.000    3.667 
#    0.000    2.500    0.000    2.000    0.000    0.000 
#    0.000    0.000    0.000    0.000    0.000    0.000 
#
# Total GULP energy -297320.113677 kJ/mol
# GULP energy per Si atom -12388.338070 kJ/mol
# Density = 2.229946 g / cm^3
# Si number density = 22.350332 Si / 1000 Ang^3
#
#
#
# Elastic Constant Matrix: (Units=GPa)
#
#
# Indices 1 2 3 4 5 6 
#
# 1 97.1951 31.9417 32.2735 0.0000 -3.5740 0.0000
# 2 31.9417 101.1541 45.8714 0.0000 -1.6831 0.0000
# 3 32.2735 45.8714 109.7963 0.0000 -6.8769 0.0000
# 4 0.0000 0.0000 0.0000 26.0272 0.0000 -2.8809
# 5 -3.5740 -1.6831 -6.8769 0.0000 24.2400 0.0000
# 6 0.0000 0.0000 0.0000 -2.8809 0.0000 36.3194
#
#
#
# Elastic Compliance Matrix: (Units=1/GPa)
#
#
# Indices 1 2 3 4 5 6 
#
# 1 0.011988 -0.002712 -0.002333 0.000000 0.000917 0.000000
# 2 -0.002712 0.012819 -0.004610 0.000000 -0.000818 0.000000
# 3 -0.002333 -0.004610 0.011889 0.000000 0.002709 0.000000
# 4 0.000000 0.000000 0.000000 0.038762 0.000000 0.003075
# 5 0.000917 -0.000818 0.002709 0.000000 0.042101 0.000000
# 6 0.000000 0.000000 0.000000 0.003075 0.000000 0.027777
#
#
# Mechanical properties :
#
#
# Convention : Reuss Voigt Hill
#
# Bulk Modulus (GPa) = 57.51636 58.70210 58.10923
# Shear Modulus (GPa) = 29.33538 30.52124 29.92831
#
# Velocity S-wave (km/s) = 3.62681 3.69939 3.66328
# Velocity P-wave (km/s) = 6.58242 6.67599 6.62937
#
# Compressibility (1/GPa) = 0.01738636
#
# Stress axis : x y z
#
# Youngs Moduli (GPa) = 83.41379 78.00841 84.11049
#
# Poissons Ratio (x) = 0.21158 0.19625
# Poissons Ratio (y) = 0.22624 0.38772
# Poissons Ratio (z) = 0.19463 0.35959
#
# Static dielectric constant tensor:
#      x y z
#    x 4.665430 0.000000 -0.084050 
#    y 0.000000 4.102550 0.000000 
#    z -0.084050 0.000000 3.707270 
# 
# 
# High freq. dielectric constant tensor:
#      x y z
#    x 1.905280 0.000000 -0.002040 
#    y 0.000000 1.884500 0.000000 
#    z -0.002040 0.000000 1.844770 
# 
# From -- ./inp_files/42185.got.cif
#   From: 2010.06.25/outbox.cif.g09.slc.cpg/sg12_22_cif.got.tgz:42185.got - 2010.06.28 00:19:55.
