data_PCOD8112779
_publ_section_title
;
Structure prediction by ZEFSAII (Michael W. Deem and Ramdas Pophale) SiO2 
 PCOD8112779
Probable space group: C 2/M
;
_chemical_formula_sum "Si O2"
_cell_formula_units_Z 64
_cell_length_a 12.494222
_cell_length_b 20.101475
_cell_length_c 20.426801
_cell_angle_alpha 90.000000
_cell_angle_beta 140.972711
_cell_angle_gamma 90.000000
_cell_volume 3230.461851
_symmetry_space_group_name_H-M "C 2/M"
_symmetry_group_IT_number 12
_symmetry_cell_setting 'monoclinic'
loop_
_space_group_symop_operation_xyz
x,y,z
-x,y,-z
-x,-y,-z
x,-y,z
1/2+x,1/2+y,z
1/2-x,1/2+y,-z
1/2-x,1/2-y,-z
1/2+x,1/2-y,z
loop_
_atom_site_type_symbol
_atom_site_label
_atom_site_fract_x
_atom_site_fract_y
_atom_site_fract_z
Si Si1 0.648099 0.424343 0.265591
Si Si2 0.377738 0.684415 0.135943
Si Si3 0.539981 0.188265 0.907678
Si Si4 0.550796 0.876583 0.676282
Si Si5 0.438694 0.074270 0.763490
Si Si6 0.074705 0.877521 0.604432
Si Si7 0.176283 0.227725 0.752771
Si Si8 0.769995 0.923843 0.546644
O O1 0.577759 0.500000 0.230741
O O2 0.501710 0.374293 0.169797
O O3 0.809728 0.420283 0.294976
O O4 0.702341 0.404488 0.364778
O O5 0.402782 0.755506 0.115238
O O6 0.420224 0.693344 0.232745
O O7 0.181728 0.666615 0.027883
O O8 0.505474 0.121243 0.851970
O O9 0.375098 0.218825 0.864799
O O10 0.517252 0.906549 0.731250
O O11 0.622051 0.802944 0.717761
O O12 0.376048 0.876174 0.551860
O O13 0.234058 0.075137 0.665184
O O14 0.498548 0.000000 0.808755
O O15 0.134216 0.809068 0.665537
O O16 0.000000 0.855347 0.500000
O O17 0.943037 0.915786 0.588128
O O18 0.708636 0.000000 0.510995
#
# Coordination Sequence:
#
# PCOD8112779 Si02
#       8
#     8   8   8   8   8   8   8   8
#     4  11  24  42  64  94 130 169 210 255 311 377
#     4  11  21  43  67  90 123 164 212 259 314 382
#     4  10  23  41  67  91 121 164 208 263 323 368
#     4  12  23  39  63  92 131 172 206 255 311 377
#     4  11  23  40  63  94 128 161 209 260 314 375
#     4  11  23  39  62  94 124 168 210 259 314 364
#     4  11  23  41  63  93 127 162 212 262 316 373
#     4  11  23  40  62  90 128 173 212 253 311 376
#
# _framework density 19.811409000000001
#
# number of rings (size 3 to 8) (size 9 to 14) (size 15 to 20)
#    0.000    1.000    5.000    2.250    0.000    3.500 
#    0.000    0.625    0.000    3.750    0.000    0.000 
#    0.000    0.000    0.000    0.000    0.000    0.000 
#
# Total GULP energy -396822.081134 kJ/mol
# GULP energy per Si atom -12400.690035 kJ/mol
# Density = 1.976632 g / cm^3
# Si number density = 19.811409 Si / 1000 Ang^3
#
#
#
# Elastic Constant Matrix: (Units=GPa)
#
#
# Indices 1 2 3 4 5 6 
#
# 1 105.5155 35.2591 19.9547 0.0000 2.1108 -0.0001
# 2 35.2591 122.9917 50.7232 -0.0002 6.0600 -0.0001
# 3 19.9547 50.7232 71.3407 0.0011 1.1302 0.0006
# 4 0.0000 -0.0002 0.0011 17.3622 0.0004 2.9713
# 5 2.1108 6.0600 1.1302 0.0004 29.3756 0.0001
# 6 -0.0001 -0.0001 0.0006 2.9713 0.0001 27.6225
#
#
#
# Elastic Compliance Matrix: (Units=1/GPa)
#
#
# Indices 1 2 3 4 5 6 
#
# 1 0.010547 -0.002545 -0.001137 0.000000 -0.000189 0.000000
# 2 -0.002545 0.012244 -0.007961 0.000001 -0.002037 0.000000
# 3 -0.001137 -0.007961 0.019981 -0.000001 0.000955 0.000000
# 4 0.000000 0.000001 -0.000001 0.058677 -0.000001 -0.006312
# 5 -0.000189 -0.002037 0.000955 -0.000001 0.034439 0.000000
# 6 0.000000 0.000000 0.000000 -0.006312 0.000000 0.036881
#
#
# Mechanical properties :
#
#
# Convention : Reuss Voigt Hill
#
# Bulk Modulus (GPa) = 51.32503 56.85799 54.09151
# Shear Modulus (GPa) = 24.68524 27.79945 26.24234
#
# Velocity S-wave (km/s) = 3.53372 3.75000 3.64346
# Velocity P-wave (km/s) = 6.52783 6.89289 6.71284
#
# Compressibility (1/GPa) = 0.01948367
#
# Stress axis : x y z
#
# Youngs Moduli (GPa) = 94.81690 81.67317 50.04817
#
# Poissons Ratio (x) = 0.20786 0.05693
# Poissons Ratio (y) = 0.24132 0.39845
# Poissons Ratio (z) = 0.10785 0.65022
#
# Static dielectric constant tensor:
#      x y z
#    x 3.791920 0.000000 0.108130 
#    y 0.000000 3.502180 0.000000 
#    z 0.108130 0.000000 3.646720 
# 
# 
# High freq. dielectric constant tensor:
#      x y z
#    x 1.788540 0.000000 0.002910 
#    y 0.000000 1.772850 0.000000 
#    z 0.002910 0.000000 1.768460 
# 
# From -- ./inp_files/306805.got.cif
#   From: 2010.06.25/outbox.cif.g09.slc.cpg/sg12_154_cif.got.tgz:306805.got - 2010.06.28 00:19:55.
