data_PCOD8112116
_publ_section_title
;
Structure prediction by ZEFSAII (Michael W. Deem and Ramdas Pophale) SiO2 
 PCOD8112116
Probable space group: C 2/M
;
_chemical_formula_sum "Si O2"
_cell_formula_units_Z 48
_cell_length_a 14.971877
_cell_length_b 17.488817
_cell_length_c 19.242643
_cell_angle_alpha 90.000000
_cell_angle_beta 154.098866
_cell_angle_gamma 90.000000
_cell_volume 2200.916244
_symmetry_space_group_name_H-M "C 2/M"
_symmetry_group_IT_number 12
_symmetry_cell_setting 'monoclinic'
loop_
_space_group_symop_operation_xyz
x,y,z
-x,y,-z
-x,-y,-z
x,-y,z
1/2+x,1/2+y,z
1/2-x,1/2+y,-z
1/2-x,1/2-y,-z
1/2+x,1/2-y,z
loop_
_atom_site_type_symbol
_atom_site_label
_atom_site_fract_x
_atom_site_fract_y
_atom_site_fract_z
Si Si1 0.163427 0.000000 0.720980
Si Si2 0.280252 0.000000 0.642227
Si Si3 0.190000 0.353376 0.092476
Si Si4 0.945219 0.641161 0.158493
Si Si5 0.787031 0.586031 0.381978
Si Si6 0.401472 0.283055 0.661901
Si Si7 0.570974 0.586290 0.976308
O O1 0.239822 0.000000 0.695815
O O2 0.248868 0.071815 0.822123
O O3 0.918195 0.000000 0.545799
O O4 0.404477 0.075605 0.709401
O O5 0.384010 0.298097 0.226278
O O6 0.120094 0.374663 0.965974
O O7 0.000000 0.313661 0.000000
O O8 0.057498 0.722836 0.246785
O O9 0.742413 0.641020 0.063873
O O10 0.815713 0.500000 0.432531
O O11 0.702381 0.639957 0.383150
O O12 0.627764 0.585329 0.209153
O O13 0.000000 0.617391 0.500000
O O14 0.250000 0.250000 0.500000
O O15 0.658884 0.500000 0.045754
O O16 0.500000 0.620525 0.000000
#
# Coordination Sequence:
#
# PCOD8112116 Si02
#       7
#     4   4   8   8   8   8   8
#     4  11  24  43  72 110 146 188 243 286 359 434
#     4  11  23  46  74 109 145 191 235 298 355 432
#     4  12  25  45  74 105 142 194 242 293 360 434
#     4  12  24  46  72 103 143 187 244 292 356 436
#     4  10  24  48  74 100 137 187 237 297 360 429
#     4  12  29  47  67 109 147 188 239 303 370 429
#     4  10  22  41  70 104 134 179 240 295 347 418
#
# _framework density 21.809099
#
# number of rings (size 3 to 8) (size 9 to 14) (size 15 to 20)
#    0.000    0.833    4.167    2.250    3.500    2.000 
#    4.500    0.000    0.000    0.000    0.000    0.000 
#    0.000    0.000    0.000    0.000    0.000    0.000 
#
# Total GULP energy -297665.844322 kJ/mol
# GULP energy per Si atom -12402.743513 kJ/mol
# Density = 2.175946 g / cm^3
# Si number density = 21.809099 Si / 1000 Ang^3
#
#
#
# Elastic Constant Matrix: (Units=GPa)
#
#
# Indices 1 2 3 4 5 6 
#
# 1 146.9732 44.5032 59.2169 0.3387 14.8562 -0.1075
# 2 44.5032 100.1133 43.6308 1.3289 8.4222 -0.3946
# 3 59.2169 43.6308 128.1338 0.1650 12.1885 -0.0555
# 4 0.3387 1.3289 0.1650 -204.2030 0.5408 74.9483
# 5 14.8562 8.4222 12.1885 0.5408 47.9662 -0.1781
# 6 -0.1075 -0.3946 -0.0555 74.9483 -0.1781 -0.3558
#
#
#
# Elastic Compliance Matrix: (Units=1/GPa)
#
#
# Indices 1 2 3 4 5 6 
#
# 1 0.008986 -0.002488 -0.003159 -0.000006 -0.001544 0.000005
# 2 -0.002488 0.012471 -0.003035 0.000058 -0.000649 -0.000040
# 3 -0.003159 -0.003035 0.010405 -0.000015 -0.001133 0.000011
# 4 -0.000006 0.000058 -0.000015 0.000065 0.000045 0.013517
# 5 -0.001544 -0.000649 -0.001133 0.000045 0.021727 -0.000013
# 6 0.000005 -0.000040 0.000011 0.013517 -0.000013 0.036829
#
#
# Mechanical properties :
#
#
# Convention : Reuss Voigt Hill
#
# Bulk Modulus (GPa) = 68.97158 74.43579 71.70368
# Shear Modulus (GPa) = 44.37328 -16.12721 14.12303
#
# Velocity S-wave (km/s) = 4.51557 -2.72227 2.54751
# Velocity P-wave (km/s) = 7.67339 4.93190 6.44999
#
# Compressibility (1/GPa) = 0.01449873
#
# Stress axis : x y z
#
# Youngs Moduli (GPa) = 111.28304 80.18593 96.10336
#
# Poissons Ratio (x) = 0.19950 0.30358
# Poissons Ratio (y) = 0.27686 0.29168
# Poissons Ratio (z) = 0.35153 0.24337
#
# Static dielectric constant tensor:
#      x y z
#    x 4.038900 -0.001610 0.230050 
#    y -0.001610 3.379690 -0.000010 
#    z 0.230050 -0.000010 4.142670 
# 
# 
# High freq. dielectric constant tensor:
#      x y z
#    x 1.859650 0.000000 0.008170 
#    y 0.000000 1.854610 -0.000010 
#    z 0.008170 -0.000010 1.875590 
# 
# From -- ./inp_files/271808.got.cif
#   From: 2010.06.25/outbox.cif.g09.slc.cpg/sg12_136_cif.got.tgz:271808.got - 2010.06.28 00:19:55.
