data_PCOD8112360
_publ_section_title
;
Structure prediction by ZEFSAII (Michael W. Deem and Ramdas Pophale) SiO2 
 PCOD8112360
Probable space group: C 2/M
;
_chemical_formula_sum "Si O2"
_cell_formula_units_Z 32
_cell_length_a 12.458085
_cell_length_b 23.518892
_cell_length_c 6.249045
_cell_angle_alpha 90.000000
_cell_angle_beta 138.616928
_cell_angle_gamma 90.000000
_cell_volume 1210.437945
_symmetry_space_group_name_H-M "C 2/M"
_symmetry_group_IT_number 12
_symmetry_cell_setting 'monoclinic'
loop_
_space_group_symop_operation_xyz
x,y,z
-x,y,-z
-x,-y,-z
x,-y,z
1/2+x,1/2+y,z
1/2-x,1/2+y,-z
1/2-x,1/2-y,-z
1/2+x,1/2-y,z
loop_
_atom_site_type_symbol
_atom_site_label
_atom_site_fract_x
_atom_site_fract_y
_atom_site_fract_z
Si Si1 0.314035 0.064218 0.654020
Si Si2 0.220040 0.826407 0.737122
Si Si3 0.324496 0.642394 0.842531
Si Si4 0.449149 0.219764 0.652623
O O1 0.209946 0.108825 0.638524
O O2 0.272563 0.082044 0.343808
O O3 0.254936 0.000000 0.607178
O O4 0.500000 0.071299 0.000000
O O5 0.080546 0.787077 0.421238
O O6 0.176573 0.833918 0.921463
O O7 0.393318 0.792261 0.960836
O O8 0.216507 0.685992 0.528940
O O9 0.500000 0.638074 0.000000
O O10 0.500000 0.192496 0.500000
#
# Coordination Sequence:
#
# PCOD8112360 Si02
#       4
#     8   8   8   8
#     4  11  26  48  74 102 135 188 247 285 342 417
#     4  11  25  47  70 107 144 186 227 291 350 419
#     4  11  25  44  69 106 145 183 229 289 352 417
#     4  10  22  43  67 104 144 181 226 278 351 428
#
# _framework density 26.436713000000001
#
# number of rings (size 3 to 8) (size 9 to 14) (size 15 to 20)
#    0.000    1.250    2.500    3.000    7.000    3.500 
#    4.500    3.750    0.000    0.000    0.000    0.000 
#    0.000    0.000    0.000    0.000    0.000    0.000 
#
# Total GULP energy -198247.745341 kJ/mol
# GULP energy per Si atom -12390.484084 kJ/mol
# Density = 2.637654 g / cm^3
# Si number density = 26.436713 Si / 1000 Ang^3
#
#
#
# Elastic Constant Matrix: (Units=GPa)
#
#
# Indices 1 2 3 4 5 6 
#
# 1 83.2907 48.4615 46.3764 0.0000 13.6556 0.0000
# 2 48.4615 230.3195 90.0173 0.0000 3.7706 0.0000
# 3 46.3764 90.0173 125.2301 0.0000 -8.6903 0.0000
# 4 0.0000 0.0000 0.0000 46.7197 0.0000 -3.5874
# 5 13.6556 3.7706 -8.6903 0.0000 40.8392 0.0000
# 6 0.0000 0.0000 0.0000 -3.5874 0.0000 36.6202
#
#
#
# Elastic Compliance Matrix: (Units=1/GPa)
#
#
# Indices 1 2 3 4 5 6 
#
# 1 0.017150 -0.001149 -0.006005 0.000000 -0.006906 0.000000
# 2 -0.001149 0.006207 -0.004110 0.000000 -0.001064 0.000000
# 3 -0.006005 -0.004110 0.013529 0.000000 0.005266 0.000000
# 4 0.000000 0.000000 0.000000 0.021566 0.000000 0.002113
# 5 -0.006906 -0.001064 0.005266 0.000000 0.028014 0.000000
# 6 0.000000 0.000000 0.000000 0.002113 0.000000 0.027514
#
#
# Mechanical properties :
#
#
# Convention : Reuss Voigt Hill
#
# Bulk Modulus (GPa) = 69.64259 89.83895 79.74077
# Shear Modulus (GPa) = 35.38665 41.76815 38.57740
#
# Velocity S-wave (km/s) = 3.66258 3.97915 3.82414
# Velocity P-wave (km/s) = 6.65479 7.42751 7.05174
#
# Compressibility (1/GPa) = 0.01435903
#
# Stress axis : x y z
#
# Youngs Moduli (GPa) = 58.30812 161.09831 73.91434
#
# Poissons Ratio (x) = 0.18504 0.44385
# Poissons Ratio (y) = 0.06697 0.30382
# Poissons Ratio (z) = 0.35013 0.66218
#
# Static dielectric constant tensor:
#      x y z
#    x 5.416910 0.000000 -0.235190 
#    y 0.000000 4.744400 0.000000 
#    z -0.235190 0.000000 5.781140 
# 
# 
# High freq. dielectric constant tensor:
#      x y z
#    x 2.090660 0.000000 -0.009450 
#    y 0.000000 2.030320 0.000000 
#    z -0.009450 0.000000 2.106180 
# 
# From -- ./inp_files/38976.got.cif
#   From: 2010.06.25/outbox.cif.g09.slc.cpg/sg12_20_cif.got.tgz:38976.got - 2010.06.28 00:19:55.
