data_PCOD8112257
_publ_section_title
;
Structure prediction by ZEFSAII (Michael W. Deem and Ramdas Pophale) SiO2 
 PCOD8112257
Probable space group: C 2/M
;
_chemical_formula_sum "Si O2"
_cell_formula_units_Z 48
_cell_length_a 18.828636
_cell_length_b 7.817626
_cell_length_c 15.406088
_cell_angle_alpha 90.000000
_cell_angle_beta 93.954673
_cell_angle_gamma 90.000000
_cell_volume 2262.303158
_symmetry_space_group_name_H-M "C 2/M"
_symmetry_group_IT_number 12
_symmetry_cell_setting 'monoclinic'
loop_
_space_group_symop_operation_xyz
x,y,z
-x,y,-z
-x,-y,-z
x,-y,z
1/2+x,1/2+y,z
1/2-x,1/2+y,-z
1/2-x,1/2-y,-z
1/2+x,1/2-y,z
loop_
_atom_site_type_symbol
_atom_site_label
_atom_site_fract_x
_atom_site_fract_y
_atom_site_fract_z
Si Si1 0.460613 0.297253 0.083107
Si Si2 0.954551 0.000000 0.628142
Si Si3 0.200894 0.799732 0.916052
Si Si4 0.207647 0.193601 0.233865
Si Si5 0.711630 0.199735 0.584993
Si Si6 0.107716 0.000000 0.557725
Si Si7 0.940536 0.688588 0.755814
O O1 0.465684 0.500000 0.091638
O O2 0.379064 0.232802 0.073808
O O3 0.498403 0.215452 0.168676
O O4 0.500000 0.232040 0.000000
O O5 0.943843 0.828270 0.681174
O O6 0.895873 0.000000 0.547212
O O7 0.032036 0.000000 0.595288
O O8 0.230250 0.717693 0.830712
O O9 0.200112 0.000000 0.903055
O O10 0.250000 0.750000 0.000000
O O11 0.235794 0.239760 0.331430
O O12 0.137710 0.304860 0.206026
O O13 0.180897 0.000000 0.228933
O O14 0.750000 0.250000 0.500000
O O15 0.644866 0.325191 0.592138
O O16 0.687665 0.000000 0.582445
O O17 0.951373 0.500000 0.716078
#
# Coordination Sequence:
#
# PCOD8112257 Si02
#       7
#     8   4   8   8   8   4   8
#     4  10  22  42  67  95 136 184 222 273 338 398
#     4  11  26  48  65  98 140 177 221 283 339 401
#     4  11  24  40  66  99 137 177 224 281 335 396
#     4  11  24  42  65  96 135 175 224 287 337 396
#     4  11  24  41  69 103 135 175 230 282 337 402
#     4  11  26  44  72  94 138 182 219 281 345 399
#     4  12  25  42  71  97 134 180 227 275 336 405
#
# _framework density 21.217316
#
# number of rings (size 3 to 8) (size 9 to 14) (size 15 to 20)
#    0.000    1.000    2.500    3.000    4.667    5.667 
#    0.000    1.667    0.000    0.000    0.000    0.000 
#    0.000    0.000    0.000    0.000    0.000    0.000 
#
# Total GULP energy -297680.481897 kJ/mol
# GULP energy per Si atom -12403.353412 kJ/mol
# Density = 2.116902 g / cm^3
# Si number density = 21.217316 Si / 1000 Ang^3
#
#
#
# Elastic Constant Matrix: (Units=GPa)
#
#
# Indices 1 2 3 4 5 6 
#
# 1 143.4819 46.8889 63.6918 0.0000 15.0289 0.0000
# 2 46.8889 118.2932 43.9487 0.0000 16.5792 0.0000
# 3 63.6918 43.9487 116.6766 0.0000 -3.0890 0.0000
# 4 0.0000 0.0000 0.0000 12.6242 0.0000 2.3896
# 5 15.0289 16.5792 -3.0890 0.0000 30.9056 0.0000
# 6 0.0000 0.0000 0.0000 2.3896 0.0000 28.7562
#
#
#
# Elastic Compliance Matrix: (Units=1/GPa)
#
#
# Indices 1 2 3 4 5 6 
#
# 1 0.010233 -0.001484 -0.005151 0.000000 -0.004695 0.000000
# 2 -0.001484 0.011141 -0.003535 0.000000 -0.005608 0.000000
# 3 -0.005151 -0.003535 0.012865 0.000000 0.005687 0.000000
# 4 0.000000 0.000000 0.000000 0.080479 0.000000 -0.006688
# 5 -0.004695 -0.005608 0.005687 0.000000 0.038217 0.000000
# 6 0.000000 0.000000 0.000000 -0.006688 0.000000 0.035331
#
#
# Mechanical properties :
#
#
# Convention : Reuss Voigt Hill
#
# Bulk Modulus (GPa) = 71.95175 76.39007 74.17091
# Shear Modulus (GPa) = 23.44795 29.38536 26.41666
#
# Velocity S-wave (km/s) = 3.32796 3.72556 3.53236
# Velocity P-wave (km/s) = 6.98230 7.38838 7.18821
#
# Compressibility (1/GPa) = 0.01389820
#
# Stress axis : x y z
#
# Youngs Moduli (GPa) = 97.72351 89.75708 77.73248
#
# Poissons Ratio (x) = 0.13323 0.40041
# Poissons Ratio (y) = 0.14506 0.27476
# Poissons Ratio (z) = 0.50339 0.31727
#
# Static dielectric constant tensor:
#      x y z
#    x 4.088120 0.000000 0.033650 
#    y 0.000000 4.125330 0.000000 
#    z 0.033650 0.000000 3.936600 
# 
# 
# High freq. dielectric constant tensor:
#      x y z
#    x 1.844540 0.000000 0.003880 
#    y 0.000000 1.840400 0.000000 
#    z 0.003880 0.000000 1.837490 
# 
# From -- ./inp_files/221782.got.cif
#   From: 2010.06.25/outbox.cif.g09.slc.cpg/sg12_111_cif.got.tgz:221782.got - 2010.06.28 00:19:55.
