data_PCOD8112253
_publ_section_title
;
Structure prediction by ZEFSAII (Michael W. Deem and Ramdas Pophale) SiO2 
 PCOD8112253
Probable space group: C 2/M
;
_chemical_formula_sum "Si O2"
_cell_formula_units_Z 64
_cell_length_a 20.335919
_cell_length_b 24.753858
_cell_length_c 11.517141
_cell_angle_alpha 90.000000
_cell_angle_beta 149.963839
_cell_angle_gamma 90.000000
_cell_volume 2901.989178
_symmetry_space_group_name_H-M "C 2/M"
_symmetry_group_IT_number 12
_symmetry_cell_setting 'monoclinic'
loop_
_space_group_symop_operation_xyz
x,y,z
-x,y,-z
-x,-y,-z
x,-y,z
1/2+x,1/2+y,z
1/2-x,1/2+y,-z
1/2-x,1/2-y,-z
1/2+x,1/2-y,z
loop_
_atom_site_type_symbol
_atom_site_label
_atom_site_fract_x
_atom_site_fract_y
_atom_site_fract_z
Si Si1 0.822285 0.670222 0.645225
Si Si2 0.098497 0.869910 0.428439
Si Si3 0.038644 0.344046 0.814336
Si Si4 0.926533 0.224155 0.174525
Si Si5 0.358112 0.437957 0.050082
Si Si6 0.352708 0.718047 0.809919
Si Si7 0.829045 0.140485 0.209438
Si Si8 0.413059 0.940130 0.481015
O O1 0.743429 0.622336 0.594274
O O2 0.973651 0.656993 0.843859
O O3 0.750009 0.678265 0.409776
O O4 0.820473 0.721559 0.723549
O O5 0.076832 0.873489 0.536481
O O6 0.057728 0.808221 0.337063
O O7 0.994011 0.911355 0.211378
O O8 0.964514 0.392147 0.637559
O O9 0.027847 0.285775 0.732082
O O10 0.190990 0.354877 0.064280
O O11 0.860611 0.196504 0.188135
O O12 0.830314 0.218000 0.915672
O O13 0.384971 0.500000 0.117730
O O14 0.316224 0.409986 0.105418
O O15 0.240951 0.429473 0.779715
O O16 0.500000 0.700844 0.000000
O O17 0.500000 0.939931 0.500000
O O18 0.426800 0.000000 0.560447
#
# Coordination Sequence:
#
# PCOD8112253 Si02
#       8
#     8   8   8   8   8   8   8   8
#     4  11  24  37  60  91 128 179 221 265 308 402
#     4  11  24  42  61  94 135 169 220 268 316 381
#     4  12  24  37  62  95 128 180 208 260 338 378
#     4  11  22  40  62  92 130 172 218 270 315 384
#     4  10  22  45  70  92 121 165 216 271 331 386
#     4  11  20  40  60  86 124 182 230 250 313 382
#     4  11  25  40  60  99 135 166 217 277 319 382
#     4  10  22  42  67  95 127 161 217 272 322 397
#
# _framework density 22.053837000000001
#
# number of rings (size 3 to 8) (size 9 to 14) (size 15 to 20)
#    0.000    1.125    3.750    3.375    3.500    2.000 
#    0.000    0.625    0.000    1.500    0.000    4.375 
#    0.000    0.000    0.000    0.000    0.000    0.000 
#
# Total GULP energy -396561.656115 kJ/mol
# GULP energy per Si atom -12392.551754 kJ/mol
# Density = 2.200364 g / cm^3
# Si number density = 22.053837 Si / 1000 Ang^3
#
#
#
# Elastic Constant Matrix: (Units=GPa)
#
#
# Indices 1 2 3 4 5 6 
#
# 1 104.8692 19.9044 22.1295 0.0000 14.6699 0.0000
# 2 19.9044 121.7947 15.1269 0.0000 -5.5878 0.0000
# 3 22.1295 15.1269 35.2078 0.0000 -5.2921 0.0000
# 4 0.0000 0.0000 0.0000 26.0781 0.0000 -9.8892
# 5 14.6699 -5.5878 -5.2921 0.0000 42.6681 0.0000
# 6 0.0000 0.0000 0.0000 -9.8892 0.0000 7.0230
#
#
#
# Elastic Compliance Matrix: (Units=1/GPa)
#
#
# Indices 1 2 3 4 5 6 
#
# 1 0.012194 -0.001253 -0.007928 0.000000 -0.005340 0.000000
# 2 -0.001253 0.008822 -0.002817 0.000000 0.001237 0.000000
# 3 -0.007928 -0.002817 0.035615 0.000000 0.006774 0.000000
# 4 0.000000 0.000000 0.000000 0.082286 0.000000 0.115869
# 5 -0.005340 0.001237 0.006774 0.000000 0.026275 0.000000
# 6 0.000000 0.000000 0.000000 0.115869 0.000000 0.305547
#
#
# Mechanical properties :
#
#
# Convention : Reuss Voigt Hill
#
# Bulk Modulus (GPa) = 30.64329 41.79924 36.22127
# Shear Modulus (GPa) = 9.88901 28.80122 19.34511
#
# Velocity S-wave (km/s) = 2.11985 3.61771 2.96493
# Velocity P-wave (km/s) = 4.46280 6.03696 5.30855
#
# Compressibility (1/GPa) = 0.03263357
#
# Stress axis : x y z
#
# Youngs Moduli (GPa) = 82.01074 113.35419 28.07839
#
# Poissons Ratio (x) = 0.14203 0.22262
# Poissons Ratio (y) = 0.10276 0.07909
# Poissons Ratio (z) = 0.65021 0.31930
#
# Static dielectric constant tensor:
#      x y z
#    x 4.047840 0.000000 0.175900 
#    y 0.000000 3.889260 0.000000 
#    z 0.175900 0.000000 4.360290 
# 
# 
# High freq. dielectric constant tensor:
#      x y z
#    x 1.865540 0.000000 0.014050 
#    y 0.000000 1.836560 0.000000 
#    z 0.014050 0.000000 1.885520 
# 
# From -- ./inp_files/170610.got.cif
#   From: 2010.06.25/outbox.cif.g09.slc.cpg/sg12_86_cif.got.tgz:170610.got - 2010.06.28 00:19:55.
