data_PCOD8112915
_publ_section_title
;
Structure prediction by ZEFSAII (Michael W. Deem and Ramdas Pophale) SiO2 
 PCOD8112915
Probable space group: C 2/M
;
_chemical_formula_sum "Si O2"
_cell_formula_units_Z 40
_cell_length_a 15.668092
_cell_length_b 15.599748
_cell_length_c 14.117154
_cell_angle_alpha 90.000000
_cell_angle_beta 32.226852
_cell_angle_gamma 90.000000
_cell_volume 1840.052750
_symmetry_space_group_name_H-M "C 2/M"
_symmetry_group_IT_number 12
_symmetry_cell_setting 'monoclinic'
loop_
_space_group_symop_operation_xyz
x,y,z
-x,y,-z
-x,-y,-z
x,-y,z
1/2+x,1/2+y,z
1/2-x,1/2+y,-z
1/2-x,1/2-y,-z
1/2+x,1/2-y,z
loop_
_atom_site_type_symbol
_atom_site_label
_atom_site_fract_x
_atom_site_fract_y
_atom_site_fract_z
Si Si1 0.657380 0.836584 0.972416
Si Si2 0.193514 0.847900 0.553320
Si Si3 0.637966 0.000000 0.502468
Si Si4 0.769976 0.500000 0.794494
Si Si5 0.691445 0.900119 0.740838
Si Si6 0.350119 0.644753 0.967970
O O1 0.743989 0.867221 0.794729
O O2 0.734168 0.884433 0.990649
O O3 0.469089 0.853205 0.144077
O O4 0.695800 0.736908 0.948383
O O5 0.250000 0.750000 0.500000
O O6 0.322296 0.912901 0.478002
O O7 0.171346 0.876786 0.464166
O O8 0.030373 0.858427 0.762318
O O9 0.450279 0.000000 0.661802
O O10 0.737057 0.000000 0.312013
O O11 0.673629 0.582010 0.921956
O O12 0.655596 0.000000 0.780450
#
# Coordination Sequence:
#
# PCOD8112915 Si02
#       6
#     8   8   4   4   8   8
#     4  10  23  42  66 101 133 175 229 271 339 401
#     4  12  25  44  70  99 142 176 226 283 342 406
#     4  11  27  49  68 103 132 185 231 284 346 407
#     4  11  27  45  74  95 140 179 231 280 338 411
#     4  11  23  43  71  98 132 180 222 282 340 404
#     4  11  25  42  67 103 135 180 221 282 332 407
#
# _framework density 21.738506000000001
#
# number of rings (size 3 to 8) (size 9 to 14) (size 15 to 20)
#    0.000    1.000    3.000    3.000    8.400    2.400 
#    0.000    1.000    0.000    0.000    0.000    0.000 
#    0.000    0.000    0.000    0.000    0.000    0.000 
#
# Total GULP energy -248041.308650 kJ/mol
# GULP energy per Si atom -12402.065432 kJ/mol
# Density = 2.168903 g / cm^3
# Si number density = 21.738506 Si / 1000 Ang^3
#
#
#
# Elastic Constant Matrix: (Units=GPa)
#
#
# Indices 1 2 3 4 5 6 
#
# 1 80.4874 45.0248 20.2369 -0.0012 24.5345 0.0006
# 2 45.0248 132.4826 34.5800 -0.0008 20.4640 0.0008
# 3 20.2369 34.5800 116.7367 -0.0001 32.7038 0.0012
# 4 -0.0012 -0.0008 -0.0001 37.5331 0.0010 8.0641
# 5 24.5345 20.4640 32.7038 0.0010 43.9439 -0.0016
# 6 0.0006 0.0008 0.0012 8.0641 -0.0016 34.3539
#
#
#
# Elastic Compliance Matrix: (Units=1/GPa)
#
#
# Indices 1 2 3 4 5 6 
#
# 1 0.017396 -0.004855 0.000644 0.000001 -0.007931 -0.000001
# 2 -0.004855 0.009765 -0.001941 0.000000 -0.000392 0.000000
# 3 0.000644 -0.001941 0.011215 0.000000 -0.007803 -0.000001
# 4 0.000001 0.000000 0.000000 0.028058 -0.000002 -0.006586
# 5 -0.007931 -0.000392 -0.007803 -0.000002 0.033174 0.000002
# 6 -0.000001 0.000000 -0.000001 -0.006586 0.000002 0.030655
#
#
# Mechanical properties :
#
#
# Convention : Reuss Voigt Hill
#
# Bulk Modulus (GPa) = 38.35409 58.82111 48.58760
# Shear Modulus (GPa) = 33.05602 38.49052 35.77327
#
# Velocity S-wave (km/s) = 3.90374 4.21243 4.06102
# Velocity P-wave (km/s) = 6.16447 7.12578 6.66248
#
# Compressibility (1/GPa) = 0.02607284
#
# Stress axis : x y z
#
# Youngs Moduli (GPa) = 57.48502 102.40135 89.16254
#
# Poissons Ratio (x) = 0.49718 -0.05746
# Poissons Ratio (y) = 0.27910 0.17308
# Poissons Ratio (z) = -0.03704 0.19878
#
# Static dielectric constant tensor:
#      x y z
#    x 4.041410 0.000000 0.337690 
#    y 0.000000 4.027440 0.000000 
#    z 0.337690 0.000000 4.067660 
# 
# 
# High freq. dielectric constant tensor:
#      x y z
#    x 1.851830 0.000000 0.021550 
#    y 0.000000 1.865440 0.000000 
#    z 0.021550 0.000000 1.863550 
# 
# From -- ./inp_files/225570.got.cif
#   From: 2010.06.25/outbox.cif.g09.slc.cpg/sg12_113_cif.got.tgz:225570.got - 2010.06.28 00:19:55.
