data_PCOD8113023
_publ_section_title
;
Structure prediction by ZEFSAII (Michael W. Deem and Ramdas Pophale) SiO2 
 PCOD8113023
Probable space group: C 2/M
;
_chemical_formula_sum "Si O2"
_cell_formula_units_Z 64
_cell_length_a 18.943341
_cell_length_b 8.750908
_cell_length_c 23.737553
_cell_angle_alpha 90.000000
_cell_angle_beta 52.507997
_cell_angle_gamma 90.000000
_cell_volume 3122.186222
_symmetry_space_group_name_H-M "C 2/M"
_symmetry_group_IT_number 12
_symmetry_cell_setting 'monoclinic'
loop_
_space_group_symop_operation_xyz
x,y,z
-x,y,-z
-x,-y,-z
x,-y,z
1/2+x,1/2+y,z
1/2-x,1/2+y,-z
1/2-x,1/2-y,-z
1/2+x,1/2-y,z
loop_
_atom_site_type_symbol
_atom_site_label
_atom_site_fract_x
_atom_site_fract_y
_atom_site_fract_z
Si Si1 0.402348 0.177817 0.068463
Si Si2 0.582202 0.174575 0.210499
Si Si3 0.402844 0.822983 0.569238
Si Si4 0.258626 0.319539 0.434401
Si Si5 0.257556 0.680026 0.934762
Si Si6 0.685219 0.322390 0.790643
Si Si7 0.379995 0.175736 0.288224
Si Si8 0.867500 0.178072 0.705370
O O1 0.329167 0.231225 0.058467
O O2 0.394514 0.276323 0.129299
O O3 0.391578 0.000000 0.088442
O O4 0.500000 0.216528 0.000000
O O5 0.652300 0.268135 0.139544
O O6 0.485458 0.190359 0.230020
O O7 0.570095 0.237109 0.279889
O O8 0.614109 0.000000 0.196698
O O9 0.500000 0.780129 0.500000
O O10 0.330395 0.779189 0.557420
O O11 0.387123 0.725894 0.632477
O O12 0.395646 0.000000 0.589204
O O13 0.274189 0.500000 0.430637
O O14 0.250000 0.250000 0.500000
O O15 0.344390 0.239197 0.364885
O O16 0.260469 0.500000 0.939810
O O17 0.250000 0.750000 0.000000
O O18 0.708504 0.500000 0.783034
O O19 0.664424 0.282398 0.736727
O O20 0.768065 0.222781 0.771698
O O21 0.349979 0.000000 0.295143
O O22 0.882669 0.000000 0.704791
#
# Coordination Sequence:
#
# PCOD8113023 Si02
#       8
#     8   8   8   8   8   8   8   8
#     4  10  23  43  66  93 127 169 213 259 316 377
#     4  11  25  44  67  94 128 170 214 263 322 379
#     4  10  23  43  66  93 127 169 213 259 316 377
#     4  11  24  42  65  93 130 171 211 262 318 377
#     4  11  24  42  65  93 130 171 211 262 318 377
#     4  12  24  41  67  96 128 166 213 266 319 375
#     4  11  25  44  67  94 128 170 214 263 322 379
#     4  12  24  41  67  96 128 166 213 266 319 375
#
# _framework density 20.498456000000001
#
# number of rings (size 3 to 8) (size 9 to 14) (size 15 to 20)
#    0.000    1.000    2.500    3.750    3.500    3.500 
#    0.000    0.000    0.000    0.000    0.000    0.000 
#    0.000    0.000    0.000    0.000    0.000    0.000 
#
# Total GULP energy -396972.625636 kJ/mol
# GULP energy per Si atom -12405.394551 kJ/mol
# Density = 2.045180 g / cm^3
# Si number density = 20.498456 Si / 1000 Ang^3
#
#
#
# Elastic Constant Matrix: (Units=GPa)
#
#
# Indices 1 2 3 4 5 6 
#
# 1 67.9763 28.5836 34.3625 0.0000 -1.6246 0.0001
# 2 28.5836 76.6597 37.2276 -0.0002 -0.1516 -0.0003
# 3 34.3625 37.2276 120.4041 0.0000 2.5875 0.0000
# 4 0.0000 -0.0002 0.0000 41.9045 0.0000 4.5357
# 5 -1.6246 -0.1516 2.5875 0.0000 39.4440 0.0000
# 6 0.0001 -0.0003 0.0000 4.5357 0.0000 31.3389
#
#
#
# Elastic Compliance Matrix: (Units=1/GPa)
#
#
# Indices 1 2 3 4 5 6 
#
# 1 0.018830 -0.005176 -0.003795 0.000000 0.001005 0.000000
# 2 -0.005176 0.016778 -0.003712 0.000000 0.000095 0.000000
# 3 -0.003795 -0.003712 0.010555 0.000000 -0.000863 0.000000
# 4 0.000000 0.000000 0.000000 0.024244 0.000000 -0.003509
# 5 0.001005 0.000095 -0.000863 0.000000 0.025451 0.000000
# 6 0.000000 0.000000 0.000000 -0.003509 0.000000 0.032417
#
#
# Mechanical properties :
#
#
# Convention : Reuss Voigt Hill
#
# Bulk Modulus (GPa) = 48.08746 51.70974 49.89860
# Shear Modulus (GPa) = 31.13859 33.52858 32.33358
#
# Velocity S-wave (km/s) = 3.90175 4.04872 3.97592
# Velocity P-wave (km/s) = 6.61878 6.86565 6.74334
#
# Compressibility (1/GPa) = 0.02079544
#
# Stress axis : x y z
#
# Youngs Moduli (GPa) = 53.10681 59.60344 94.74344
#
# Poissons Ratio (x) = 0.30851 0.35957
# Poissons Ratio (y) = 0.27488 0.35171
# Poissons Ratio (z) = 0.20155 0.22126
#
# Static dielectric constant tensor:
#      x y z
#    x 3.902710 0.000000 -0.046200 
#    y 0.000000 3.740200 0.000000 
#    z -0.046200 0.000000 3.810660 
# 
# 
# High freq. dielectric constant tensor:
#      x y z
#    x 1.806550 0.000000 0.002440 
#    y 0.000000 1.808660 0.000000 
#    z 0.002440 0.000000 1.814440 
# 
# From -- ./inp_files/346054.got.cif
#   From: 2010.06.25/outbox.cif.g09.slc.cpg/sg12_174_cif.got.tgz:346054.got - 2010.06.28 00:19:55.
