data_PCOD8113665
_publ_section_title
;
Structure prediction by ZEFSAII (Michael W. Deem and Ramdas Pophale) SiO2 
 PCOD8113665
Probable space group: C 2/M
;
_chemical_formula_sum "Si O2"
_cell_formula_units_Z 56
_cell_length_a 16.510758
_cell_length_b 29.890753
_cell_length_c 13.336467
_cell_angle_alpha 90.000000
_cell_angle_beta 27.058991
_cell_angle_gamma 90.000000
_cell_volume 2994.110895
_symmetry_space_group_name_H-M "C 2/M"
_symmetry_group_IT_number 12
_symmetry_cell_setting 'monoclinic'
loop_
_space_group_symop_operation_xyz
x,y,z
-x,y,-z
-x,-y,-z
x,-y,z
1/2+x,1/2+y,z
1/2-x,1/2+y,-z
1/2-x,1/2-y,-z
1/2+x,1/2-y,z
loop_
_atom_site_type_symbol
_atom_site_label
_atom_site_fract_x
_atom_site_fract_y
_atom_site_fract_z
Si Si1 0.702168 0.376686 0.548887
Si Si2 0.578966 0.844482 0.153462
Si Si3 0.040205 0.165227 0.339281
Si Si4 0.167670 0.390227 0.258192
Si Si5 0.680830 0.682018 0.760648
Si Si6 0.989739 0.051169 0.892040
Si Si7 0.587820 0.242655 0.603966
O O1 0.590697 0.370355 0.569570
O O2 0.649172 0.337160 0.683775
O O3 0.652187 0.423969 0.656167
O O4 0.912691 0.372523 0.289995
O O5 0.593403 0.860244 0.251432
O O6 0.545639 0.791202 0.192698
O O7 0.758121 0.852750 0.893785
O O8 0.000000 0.168258 0.500000
O O9 0.016886 0.212980 0.311176
O O10 0.272711 0.358299 0.217468
O O11 0.000000 0.412969 0.500000
O O12 0.299893 0.427866 0.069022
O O13 0.832597 0.719991 0.585848
O O14 0.500000 0.704860 0.000000
O O15 0.996966 0.000000 0.849399
O O16 0.000000 0.056089 0.000000
O O17 0.750000 0.250000 0.500000
#
# Coordination Sequence:
#
# PCOD8113665 Si02
#       7
#     8   8   8   8   8   8   8
#     4  11  20  43  60  84 123 164 200 244 322 368
#     4  11  23  39  63  83 122 169 205 254 306 380
#     4  12  26  41  60  86 119 163 221 268 305 348
#     4  12  19  34  62  91 123 168 205 230 307 390
#     4  11  19  33  57  80 116 169 198 240 296 374
#     4  11  21  36  64 100 132 158 196 254 313 386
#     4  11  23  38  54  85 120 159 211 263 304 348
#
# _framework density 18.703382000000001
#
# number of rings (size 3 to 8) (size 9 to 14) (size 15 to 20)
#    0.000    0.714   10.000    0.429    2.000    2.000 
#    0.000    0.714    0.000    0.429    0.000    1.000 
#    0.000    0.000    0.000    0.000    0.000    0.000 
#
# Total GULP energy -347141.123825 kJ/mol
# GULP energy per Si atom -12397.897279 kJ/mol
# Density = 1.866081 g / cm^3
# Si number density = 18.703382 Si / 1000 Ang^3
#
#
#
# Elastic Constant Matrix: (Units=GPa)
#
#
# Indices 1 2 3 4 5 6 
#
# 1 86.9230 26.6225 36.2876 0.0015 -8.1274 0.0009
# 2 26.6225 95.6657 30.7890 -0.0005 -6.9121 0.0004
# 3 36.2876 30.7890 130.1651 0.0074 -22.1224 0.0037
# 4 0.0015 -0.0005 0.0074 24.6895 -0.0023 0.6644
# 5 -8.1274 -6.9121 -22.1224 -0.0023 25.0742 -0.0016
# 6 0.0009 0.0004 0.0037 0.6644 -0.0016 13.4207
#
#
#
# Elastic Compliance Matrix: (Units=1/GPa)
#
#
# Indices 1 2 3 4 5 6 
#
# 1 0.013698 -0.002776 -0.002985 0.000000 0.001041 0.000000
# 2 -0.002776 0.011894 -0.001924 0.000001 0.000682 0.000000
# 3 -0.002985 -0.001924 0.010253 -0.000002 0.007548 -0.000002
# 4 0.000000 0.000001 -0.000002 0.040557 0.000002 -0.002008
# 5 0.001041 0.000682 0.007548 0.000002 0.047066 0.000003
# 6 0.000000 0.000000 -0.000002 -0.002008 0.000003 0.074611
#
#
# Mechanical properties :
#
#
# Convention : Reuss Voigt Hill
#
# Bulk Modulus (GPa) = 48.84007 55.57245 52.20626
# Shear Modulus (GPa) = 22.69900 27.24053 24.96977
#
# Velocity S-wave (km/s) = 3.48750 3.82049 3.65778
# Velocity P-wave (km/s) = 6.51049 7.01702 6.76849
#
# Compressibility (1/GPa) = 0.02047499
#
# Stress axis : x y z
#
# Youngs Moduli (GPa) = 73.00191 84.07631 97.53659
#
# Poissons Ratio (x) = 0.23340 0.29117
# Poissons Ratio (y) = 0.20266 0.18762
# Poissons Ratio (z) = 0.21793 0.16173
#
# Static dielectric constant tensor:
#      x y z
#    x 3.393280 0.000020 -0.249170 
#    y 0.000020 3.369560 -0.000020 
#    z -0.249170 -0.000020 3.845970 
# 
# 
# High freq. dielectric constant tensor:
#      x y z
#    x 1.715460 0.000000 -0.020250 
#    y 0.000000 1.693740 0.000000 
#    z -0.020250 0.000000 1.730850 
# 
# From -- ./inp_files/150413.got.cif
#   From: 2010.06.25/outbox.cif.g09.slc.cpg/sg12_76_cif.got.tgz:150413.got - 2010.06.28 00:19:55.
