data_PCOD8113702
_publ_section_title
;
Structure prediction by ZEFSAII (Michael W. Deem and Ramdas Pophale) SiO2 
 PCOD8113702
Probable space group: C 2/M
;
_chemical_formula_sum "Si O2"
_cell_formula_units_Z 56
_cell_length_a 16.425574
_cell_length_b 18.791355
_cell_length_c 9.948157
_cell_angle_alpha 90.000000
_cell_angle_beta 68.461575
_cell_angle_gamma 90.000000
_cell_volume 2856.171907
_symmetry_space_group_name_H-M "C 2/M"
_symmetry_group_IT_number 12
_symmetry_cell_setting 'monoclinic'
loop_
_space_group_symop_operation_xyz
x,y,z
-x,y,-z
-x,-y,-z
x,-y,z
1/2+x,1/2+y,z
1/2-x,1/2+y,-z
1/2-x,1/2-y,-z
1/2+x,1/2-y,z
loop_
_atom_site_type_symbol
_atom_site_label
_atom_site_fract_x
_atom_site_fract_y
_atom_site_fract_z
Si Si1 0.981575 0.721928 0.660362
Si Si2 0.299606 0.817380 0.902945
Si Si3 0.226856 0.584885 0.849535
Si Si4 0.336059 0.173999 0.353391
Si Si5 0.915100 0.121556 0.680805
Si Si6 0.223884 0.173301 0.672324
Si Si7 0.093220 0.922296 0.613690
O O1 0.892976 0.698193 0.782506
O O2 0.970652 0.806258 0.656256
O O3 0.000000 0.690702 0.500000
O O4 0.062333 0.696392 0.703369
O O5 0.242985 0.847981 0.813820
O O6 0.250000 0.750000 0.000000
O O7 0.321904 0.879668 0.995090
O O8 0.224092 0.500000 0.857333
O O9 0.180220 0.609612 0.740296
O O10 0.325312 0.615268 0.816071
O O11 0.300128 0.149903 0.521546
O O12 0.281604 0.241258 0.331669
O O13 0.884104 0.105020 0.548784
O O14 0.988097 0.067259 0.692834
O O15 0.133356 0.134006 0.693149
O O16 0.136162 0.000000 0.610328
#
# Coordination Sequence:
#
# PCOD8113702 Si02
#       7
#     8   8   8   8   8   8   8
#     4  12  21  40  69 101 133 169 226 284 327 390
#     4  12  25  43  66  98 136 177 223 273 340 402
#     4  12  26  46  68  96 137 180 224 276 343 409
#     4  11  22  39  67  98 130 175 226 276 326 392
#     4  11  19  36  64  99 135 172 212 270 339 401
#     4  11  21  38  63  96 135 175 224 274 322 398
#     4  11  21  33  59 101 139 172 216 269 331 402
#
# _framework density 19.606663000000001
#
# number of rings (size 3 to 8) (size 9 to 14) (size 15 to 20)
#    0.000    0.571    8.571    1.714    0.000    1.143 
#    0.000    3.571    0.000    2.571    0.000    0.000 
#    0.000    0.000    0.000    0.000    0.000    0.000 
#
# Total GULP energy -347027.338491 kJ/mol
# GULP energy per Si atom -12393.833518 kJ/mol
# Density = 1.956204 g / cm^3
# Si number density = 19.606663 Si / 1000 Ang^3
#
#
#
# Elastic Constant Matrix: (Units=GPa)
#
#
# Indices 1 2 3 4 5 6 
#
# 1 97.9626 40.0175 49.5510 0.0000 -0.0109 0.0000
# 2 40.0175 98.6873 43.3249 0.0000 8.6197 0.0000
# 3 49.5510 43.3249 121.5575 0.0000 3.4651 0.0000
# 4 0.0000 0.0000 0.0000 22.4960 0.0000 3.1853
# 5 -0.0109 8.6197 3.4651 0.0000 36.8895 0.0000
# 6 0.0000 0.0000 0.0000 3.1853 0.0000 22.6913
#
#
#
# Elastic Compliance Matrix: (Units=1/GPa)
#
#
# Indices 1 2 3 4 5 6 
#
# 1 0.013998 -0.003876 -0.004362 0.000000 0.001320 0.000000
# 2 -0.003876 0.013304 -0.003081 0.000000 -0.002820 0.000000
# 3 -0.004362 -0.003081 0.011112 0.000000 -0.000325 0.000000
# 4 0.000000 0.000000 0.000000 0.045354 0.000000 -0.006367
# 5 0.001320 -0.002820 -0.000325 0.000000 0.027798 0.000000
# 6 0.000000 0.000000 0.000000 -0.006367 0.000000 0.044964
#
#
# Mechanical properties :
#
#
# Convention : Reuss Voigt Hill
#
# Bulk Modulus (GPa) = 63.39245 64.88826 64.14035
# Shear Modulus (GPa) = 27.11102 28.76962 27.94032
#
# Velocity S-wave (km/s) = 3.72256 3.83474 3.77907
# Velocity P-wave (km/s) = 7.13295 7.26456 7.19905
#
# Compressibility (1/GPa) = 0.01577475
#
# Stress axis : x y z
#
# Youngs Moduli (GPa) = 71.43850 75.16597 89.99176
#
# Poissons Ratio (x) = 0.29138 0.39255
# Poissons Ratio (y) = 0.27693 0.27728
# Poissons Ratio (z) = 0.31162 0.23160
#
# Static dielectric constant tensor:
#      x y z
#    x 3.589200 0.000000 -0.007840 
#    y 0.000000 3.539200 0.000000 
#    z -0.007840 0.000000 3.659920 
# 
# 
# High freq. dielectric constant tensor:
#      x y z
#    x 1.767750 0.000000 -0.002710 
#    y 0.000000 1.748130 0.000000 
#    z -0.002710 0.000000 1.754200 
# 
# From -- ./inp_files/75854.got.cif
#   From: 2010.06.25/outbox.cif.g09.slc.cpg/sg12_38_cif.got.tgz:75854.got - 2010.06.28 00:19:55.
