data_PCOD8113937
_publ_section_title
;
Structure prediction by ZEFSAII (Michael W. Deem and Ramdas Pophale) SiO2 
 PCOD8113937
Probable space group: C 2/M
;
_chemical_formula_sum "Si O2"
_cell_formula_units_Z 64
_cell_length_a 26.606989
_cell_length_b 22.608092
_cell_length_c 17.403811
_cell_angle_alpha 90.000000
_cell_angle_beta 161.026956
_cell_angle_gamma 90.000000
_cell_volume 3403.706211
_symmetry_space_group_name_H-M "C 2/M"
_symmetry_group_IT_number 12
_symmetry_cell_setting 'monoclinic'
loop_
_space_group_symop_operation_xyz
x,y,z
-x,y,-z
-x,-y,-z
x,-y,z
1/2+x,1/2+y,z
1/2-x,1/2+y,-z
1/2-x,1/2-y,-z
1/2+x,1/2-y,z
loop_
_atom_site_type_symbol
_atom_site_label
_atom_site_fract_x
_atom_site_fract_y
_atom_site_fract_z
Si Si1 0.053486 0.373277 0.359604
Si Si2 0.385031 0.128759 0.270063
Si Si3 0.136003 0.067348 0.135999
Si Si4 0.748575 0.930637 0.365780
Si Si5 0.446771 0.750000 0.196771
Si Si6 0.558746 0.373279 0.864857
Si Si7 0.514153 0.930637 0.896941
Si Si8 0.388374 0.730919 0.276751
O O1 0.220653 0.399412 0.618537
O O2 0.980612 0.397715 0.176240
O O3 0.938570 0.391357 0.262885
O O4 0.075735 0.301559 0.382098
O O5 0.500000 0.100360 0.500000
O O6 0.396912 0.198726 0.293827
O O7 0.210060 0.108641 0.034373
O O8 0.182407 0.000000 0.182404
O O9 0.075098 0.100585 0.972970
O O10 0.000000 0.067927 0.000000
O O11 0.638489 0.911224 0.276976
O O12 0.910645 0.897717 0.606264
O O13 0.779624 0.000000 0.414766
O O14 0.665980 0.913737 0.165976
O O15 0.463016 0.698439 0.156659
O O16 0.443453 0.712158 0.271603
O O17 0.287156 0.787842 0.958999
O O18 0.509324 0.000000 0.874167
O O19 0.500000 0.700260 0.500000
#
# Coordination Sequence:
#
# PCOD8113937 Si02
#       8
#     8   8   8   8   8   8   8   8
#     4  11  20  37  59  86 119 148 190 236 293 350
#     4   9  17  33  54  83 118 153 182 228 288 355
#     4  11  24  41  63  85 109 154 208 252 289 340
#     4   9  19  38  61  80 103 145 199 244 279 331
#     4   9  20  30  51  86 114 150 179 225 290 342
#     4  11  20  37  59  86 119 148 190 236 293 350
#     4   9  19  38  61  80 103 145 199 244 279 331
#     4   8  15  31  52  73 108 153 198 222 250 328
#
# _framework density 18.803034
#
# number of rings (size 3 to 8) (size 9 to 14) (size 15 to 20)
#    0.000    2.375    1.250    3.000    1.750    3.000 
#    0.000    6.250    0.000    1.500    0.000    0.000 
#    0.000    0.000    0.000    0.000    0.000    0.000 
#
# Total GULP energy -396633.625640 kJ/mol
# GULP energy per Si atom -12394.800801 kJ/mol
# Density = 1.876024 g / cm^3
# Si number density = 18.803034 Si / 1000 Ang^3
#
#
#
# Elastic Constant Matrix: (Units=GPa)
#
#
# Indices 1 2 3 4 5 6 
#
# 1 103.9194 43.7964 57.9075 0.0000 -9.5236 0.0000
# 2 43.7964 87.7517 48.3019 0.0000 -3.9473 0.0000
# 3 57.9075 48.3019 128.0756 0.0000 -11.6517 0.0000
# 4 0.0000 0.0000 0.0000 28.8679 0.0000 -3.0599
# 5 -9.5236 -3.9473 -11.6517 0.0000 30.3031 0.0000
# 6 0.0000 0.0000 0.0000 -3.0599 0.0000 25.3846
#
#
#
# Elastic Compliance Matrix: (Units=1/GPa)
#
#
# Indices 1 2 3 4 5 6 
#
# 1 0.014257 -0.004516 -0.004548 0.000000 0.002144 0.000000
# 2 -0.004516 0.015813 -0.004004 0.000000 -0.000899 0.000000
# 3 -0.004548 -0.004004 0.011602 0.000000 0.002510 0.000000
# 4 0.000000 0.000000 0.000000 0.035089 0.000000 0.004230
# 5 0.002144 -0.000899 0.002510 0.000000 0.034522 0.000000
# 6 0.000000 0.000000 0.000000 0.004230 0.000000 0.039904
#
#
# Mechanical properties :
#
#
# Convention : Reuss Voigt Hill
#
# Bulk Modulus (GPa) = 64.36033 68.86203 66.61118
# Shear Modulus (GPa) = 27.39724 28.22717 27.81221
#
# Velocity S-wave (km/s) = 3.82129 3.87874 3.85012
# Velocity P-wave (km/s) = 7.33299 7.53404 7.43420
#
# Compressibility (1/GPa) = 0.01553752
#
# Stress axis : x y z
#
# Youngs Moduli (GPa) = 70.14278 63.23956 86.18853
#
# Poissons Ratio (x) = 0.28557 0.39198
# Poissons Ratio (y) = 0.31674 0.34507
# Poissons Ratio (z) = 0.31900 0.25319
#
# Static dielectric constant tensor:
#      x y z
#    x 3.545850 0.000000 -0.200490 
#    y 0.000000 3.268910 0.000000 
#    z -0.200490 0.000000 3.774290 
# 
# 
# High freq. dielectric constant tensor:
#      x y z
#    x 1.725850 0.000000 -0.013080 
#    y 0.000000 1.705470 0.000000 
#    z -0.013080 0.000000 1.740750 
# 
# From -- ./inp_files/294164.got.cif
#   From: 2010.06.25/outbox.cif.g09.slc.cpg/sg12_148_cif.got.tgz:294164.got - 2010.06.28 00:19:55.
