data_PCOD8113486
_publ_section_title
;
Structure prediction by ZEFSAII (Michael W. Deem and Ramdas Pophale) SiO2 
 PCOD8113486
Probable space group: C 2/M
;
_chemical_formula_sum "Si O2"
_cell_formula_units_Z 48
_cell_length_a 23.864603
_cell_length_b 11.710244
_cell_length_c 8.954518
_cell_angle_alpha 90.000000
_cell_angle_beta 68.194646
_cell_angle_gamma 90.000000
_cell_volume 2323.386261
_symmetry_space_group_name_H-M "C 2/M"
_symmetry_group_IT_number 12
_symmetry_cell_setting 'monoclinic'
loop_
_space_group_symop_operation_xyz
x,y,z
-x,y,-z
-x,-y,-z
x,-y,z
1/2+x,1/2+y,z
1/2-x,1/2+y,-z
1/2-x,1/2-y,-z
1/2+x,1/2-y,z
loop_
_atom_site_type_symbol
_atom_site_label
_atom_site_fract_x
_atom_site_fract_y
_atom_site_fract_z
Si Si1 0.574864 0.500000 0.120222
Si Si2 0.432934 0.758450 0.238910
Si Si3 0.315440 0.871669 0.437209
Si Si4 0.843425 0.788363 0.901799
Si Si5 0.751048 0.252944 0.247161
Si Si6 0.441659 0.862642 0.901150
Si Si7 0.948030 0.000000 0.205715
O O1 0.609826 0.389905 0.137412
O O2 0.507729 0.500000 0.252738
O O3 0.552741 0.500000 0.971889
O O4 0.378493 0.806167 0.391243
O O5 0.498341 0.804544 0.231284
O O6 0.419010 0.623180 0.271811
O O7 0.428988 0.803579 0.073011
O O8 0.269958 0.843601 0.616528
O O9 0.282653 0.852736 0.310453
O O10 0.334825 0.000000 0.429641
O O11 0.806211 0.800763 0.786221
O O12 0.882215 0.670021 0.862991
O O13 0.798728 0.801441 0.086188
O O14 0.448676 0.000000 0.906566
#
# Coordination Sequence:
#
# PCOD8113486 Si02
#       7
#     4   8   8   8   8   8   4
#     4  11  18  34  63  93 125 153 203 263 313 359
#     4  11  20  37  60  95 122 161 206 257 315 361
#     4  11  23  44  64  89 126 166 211 258 312 382
#     4  11  22  40  63  93 126 160 208 260 313 371
#     4  10  25  42  59  93 124 168 209 250 313 375
#     4  11  20  34  61  93 124 158 207 260 312 365
#     4  11  18  34  63  97 127 157 199 264 303 386
#
# _framework density 20.659500000000001
#
# number of rings (size 3 to 8) (size 9 to 14) (size 15 to 20)
#    0.000    1.167    5.000    3.000    2.333    0.667 
#    9.000    0.833    0.000    3.000    0.000    0.000 
#    0.000    0.000    0.000    0.000    0.000    0.000 
#
# Total GULP energy -297317.612527 kJ/mol
# GULP energy per Si atom -12388.233855 kJ/mol
# Density = 2.061248 g / cm^3
# Si number density = 20.659500 Si / 1000 Ang^3
#
#
#
# Elastic Constant Matrix: (Units=GPa)
#
#
# Indices 1 2 3 4 5 6 
#
# 1 119.2032 33.4693 26.1404 0.0000 -1.8726 0.0000
# 2 33.4693 161.8672 14.6335 0.0000 -10.4902 0.0000
# 3 26.1404 14.6335 50.1446 0.0000 2.6919 0.0000
# 4 0.0000 0.0000 0.0000 12.7459 0.0000 -9.5757
# 5 -1.8726 -10.4902 2.6919 0.0000 24.4032 0.0000
# 6 0.0000 0.0000 0.0000 -9.5757 0.0000 30.0032
#
#
#
# Elastic Compliance Matrix: (Units=1/GPa)
#
#
# Indices 1 2 3 4 5 6 
#
# 1 0.009876 -0.001576 -0.004721 0.000000 0.000601 0.000000
# 2 -0.001576 0.006815 -0.001326 0.000000 0.002955 0.000000
# 3 -0.004721 -0.001326 0.022976 0.000000 -0.003467 0.000000
# 4 0.000000 0.000000 0.000000 0.103202 0.000000 0.032938
# 5 0.000601 0.002955 -0.003467 0.000000 0.042677 0.000000
# 6 0.000000 0.000000 0.000000 0.032938 0.000000 0.043842
#
#
# Mechanical properties :
#
#
# Convention : Reuss Voigt Hill
#
# Bulk Modulus (GPa) = 40.94660 53.30013 47.12336
# Shear Modulus (GPa) = 19.78038 30.56189 25.17113
#
# Velocity S-wave (km/s) = 3.09762 3.85036 3.49432
# Velocity P-wave (km/s) = 5.71458 6.75443 6.25615
#
# Compressibility (1/GPa) = 0.02442205
#
# Stress axis : x y z
#
# Youngs Moduli (GPa) = 101.25229 146.73066 43.52319
#
# Poissons Ratio (x) = 0.23131 0.20546
# Poissons Ratio (y) = 0.15961 0.05770
# Poissons Ratio (z) = 0.47799 0.19452
#
# Static dielectric constant tensor:
#      x y z
#    x 4.256090 0.000000 -0.087580 
#    y 0.000000 3.806980 0.000000 
#    z -0.087580 0.000000 3.477860 
# 
# 
# High freq. dielectric constant tensor:
#      x y z
#    x 1.831390 0.000000 -0.012940 
#    y 0.000000 1.809150 0.000000 
#    z -0.012940 0.000000 1.768440 
# 
# From -- ./inp_files/94948.got.cif
#   From: 2010.06.25/outbox.cif.g09.slc.cpg/sg12_48_cif.got.tgz:94948.got - 2010.06.28 00:19:55.
