data_PCOD8113947
_publ_section_title
;
Structure prediction by ZEFSAII (Michael W. Deem and Ramdas Pophale) SiO2 
 PCOD8113947
Probable space group: C 2/M
;
_chemical_formula_sum "Si O2"
_cell_formula_units_Z 36
_cell_length_a 15.297525
_cell_length_b 23.660831
_cell_length_c 4.975828
_cell_angle_alpha 90.000000
_cell_angle_beta 100.453517
_cell_angle_gamma 90.000000
_cell_volume 1771.119241
_symmetry_space_group_name_H-M "C 2/M"
_symmetry_group_IT_number 12
_symmetry_cell_setting 'monoclinic'
loop_
_space_group_symop_operation_xyz
x,y,z
-x,y,-z
-x,-y,-z
x,-y,z
1/2+x,1/2+y,z
1/2-x,1/2+y,-z
1/2-x,1/2-y,-z
1/2+x,1/2-y,z
loop_
_atom_site_type_symbol
_atom_site_label
_atom_site_fract_x
_atom_site_fract_y
_atom_site_fract_z
Si Si1 0.233145 0.711246 0.741609
Si Si2 0.176402 0.437401 0.122021
Si Si3 0.944305 0.653052 0.209945
Si Si4 0.563996 0.500000 0.287051
Si Si5 0.712307 0.590178 0.304802
O O1 0.250000 0.750000 0.500000
O O2 0.130879 0.693008 0.709233
O O3 0.299647 0.656961 0.768398
O O4 0.250000 0.750000 0.000000
O O5 0.141419 0.500000 0.165940
O O6 0.095316 0.401214 0.964439
O O7 0.253582 0.440831 0.942683
O O8 0.215059 0.411230 0.417121
O O9 0.000000 0.633007 0.500000
O O10 0.000000 0.684060 0.000000
O O11 0.500000 0.500000 0.500000
O O12 0.622658 0.557399 0.335599
O O13 0.500000 0.500000 0.000000
#
# Coordination Sequence:
#
# PCOD8113947 Si02
#       5
#     8   8   8   4   8
#     4  11  23  43  68  89 119 176 224 258 321 404
#     4  11  20  37  64  90 125 174 200 241 314 398
#     4  11  23  39  60  94 130 159 206 272 324 364
#     4  12  24  40  64  96 132 168 214 284 342 372
#     4  11  22  41  63  92 128 164 222 262 317 400
#
# _framework density 20.326129999999999
#
# number of rings (size 3 to 8) (size 9 to 14) (size 15 to 20)
#    0.000    0.889    2.222    8.000    0.000    0.889 
#    0.000    6.667    0.000    0.000    0.000    0.000 
#    0.000    0.000    0.000    0.000    0.000    0.000 
#
# Total GULP energy -223131.790458 kJ/mol
# GULP energy per Si atom -12396.210581 kJ/mol
# Density = 2.027987 g / cm^3
# Si number density = 20.326130 Si / 1000 Ang^3
#
#
#
# Elastic Constant Matrix: (Units=GPa)
#
#
# Indices 1 2 3 4 5 6 
#
# 1 107.4478 64.1602 31.6390 0.0000 -7.7277 0.0000
# 2 64.1602 166.3982 67.5504 0.0000 4.1127 0.0000
# 3 31.6390 67.5504 151.0266 0.0000 6.6537 0.0000
# 4 0.0000 0.0000 0.0000 43.1726 0.0000 -4.0135
# 5 -7.7277 4.1127 6.6537 0.0000 48.6626 0.0000
# 6 0.0000 0.0000 0.0000 -4.0135 0.0000 24.7576
#
#
#
# Elastic Compliance Matrix: (Units=1/GPa)
#
#
# Indices 1 2 3 4 5 6 
#
# 1 0.012411 -0.004578 -0.000660 0.000000 0.002448 0.000000
# 2 -0.004578 0.009033 -0.003034 0.000000 -0.001076 0.000000
# 3 -0.000660 -0.003034 0.008159 0.000000 -0.000964 0.000000
# 4 0.000000 0.000000 0.000000 0.023517 0.000000 0.003812
# 5 0.002448 -0.001076 -0.000964 0.000000 0.021161 0.000000
# 6 0.000000 0.000000 0.000000 0.003812 0.000000 0.041010
#
#
# Mechanical properties :
#
#
# Convention : Reuss Voigt Hill
#
# Bulk Modulus (GPa) = 76.57518 83.50798 80.04158
# Shear Modulus (GPa) = 36.71391 40.75342 38.73366
#
# Velocity S-wave (km/s) = 4.25460 4.48255 4.37006
# Velocity P-wave (km/s) = 7.86706 8.24405 8.05776
#
# Compressibility (1/GPa) = 0.01305906
#
# Stress axis : x y z
#
# Youngs Moduli (GPa) = 80.57410 110.70504 122.56261
#
# Poissons Ratio (x) = 0.50680 0.08093
# Poissons Ratio (y) = 0.36886 0.37183
# Poissons Ratio (z) = 0.05320 0.33586
#
# Static dielectric constant tensor:
#      x y z
#    x 3.856240 0.000000 -0.077340 
#    y 0.000000 3.971120 0.000000 
#    z -0.077340 0.000000 4.319600 
# 
# 
# High freq. dielectric constant tensor:
#      x y z
#    x 1.785090 0.000000 -0.015370 
#    y 0.000000 1.791350 0.000000 
#    z -0.015370 0.000000 1.823440 
# 
# From -- ./inp_files/11162.got.cif
#   From: 2010.06.25/outbox.cif.g09.slc.cpg/sg12_6_cif.got.tgz:11162.got - 2010.06.28 00:19:55.
