data_PCOD8113027
_publ_section_title
;
Structure prediction by ZEFSAII (Michael W. Deem and Ramdas Pophale) SiO2 
 PCOD8113027
Probable space group: C 2/M
;
_chemical_formula_sum "Si O2"
_cell_formula_units_Z 40
_cell_length_a 9.066875
_cell_length_b 12.292546
_cell_length_c 14.290404
_cell_angle_alpha 90.000000
_cell_angle_beta 99.817127
_cell_angle_gamma 90.000000
_cell_volume 1569.414181
_symmetry_space_group_name_H-M "C 2/M"
_symmetry_group_IT_number 12
_symmetry_cell_setting 'monoclinic'
loop_
_space_group_symop_operation_xyz
x,y,z
-x,y,-z
-x,-y,-z
x,-y,z
1/2+x,1/2+y,z
1/2-x,1/2+y,-z
1/2-x,1/2-y,-z
1/2+x,1/2-y,z
loop_
_atom_site_type_symbol
_atom_site_label
_atom_site_fract_x
_atom_site_fract_y
_atom_site_fract_z
Si Si1 0.197087 0.370134 0.648160
Si Si2 0.851080 0.873367 0.849147
Si Si3 0.033693 0.319407 0.902128
Si Si4 0.834031 0.870196 0.469926
Si Si5 0.105104 0.374875 0.299028
O O1 0.192341 0.500000 0.651911
O O2 0.325519 0.335741 0.737941
O O3 0.231814 0.329765 0.546454
O O4 0.038113 0.322366 0.664647
O O5 0.996913 0.810087 0.902755
O O6 0.703667 0.843247 0.893200
O O7 0.885371 0.000000 0.861984
O O8 0.912339 0.366593 0.814980
O O9 0.000000 0.371816 0.000000
O O10 0.759003 0.826220 0.362906
O O11 0.000000 0.822350 0.500000
O O12 0.841947 0.000000 0.471898
O O13 0.112261 0.500000 0.328008
#
# Coordination Sequence:
#
# PCOD8113027 Si02
#       5
#     8   8   8   8   8
#     4   8  15  31  54  79 117 165 206 252 311 378
#     4  10  23  43  66  95 131 171 216 268 327 387
#     4  11  23  42  66  95 130 169 220 275 321 382
#     4   9  16  27  49  86 126 161 203 257 315 376
#     4   9  18  33  56  86 122 168 213 256 316 380
#
# _framework density 25.487216
#
# number of rings (size 3 to 8) (size 9 to 14) (size 15 to 20)
#    0.000    2.600    0.000    3.000    0.000    6.000 
#    0.000    5.000    0.000    0.000    0.000    0.000 
#    0.000    0.000    0.000    0.000    0.000    0.000 
#
# Total GULP energy -247960.413266 kJ/mol
# GULP energy per Si atom -12398.020663 kJ/mol
# Density = 2.542921 g / cm^3
# Si number density = 25.487216 Si / 1000 Ang^3
#
#
#
# Elastic Constant Matrix: (Units=GPa)
#
#
# Indices 1 2 3 4 5 6 
#
# 1 89.9034 3.3651 52.2996 0.0000 9.7951 0.0000
# 2 3.3651 42.8534 11.3098 0.0000 10.2785 0.0000
# 3 52.2996 11.3098 177.8339 0.0000 -8.3573 0.0000
# 4 0.0000 0.0000 0.0000 27.7695 0.0000 7.7547
# 5 9.7951 10.2785 -8.3573 0.0000 31.5206 0.0000
# 6 0.0000 0.0000 0.0000 7.7547 0.0000 34.4841
#
#
#
# Elastic Compliance Matrix: (Units=1/GPa)
#
#
# Indices 1 2 3 4 5 6 
#
# 1 0.014443 0.001587 -0.004642 0.000000 -0.006236 0.000000
# 2 0.001587 0.026229 -0.002592 0.000000 -0.009733 0.000000
# 3 -0.004642 -0.002592 0.007352 0.000000 0.004237 0.000000
# 4 0.000000 0.000000 0.000000 0.038424 0.000000 -0.008641
# 5 -0.006236 -0.009733 0.004237 0.000000 0.037961 0.000000
# 6 0.000000 0.000000 0.000000 -0.008641 0.000000 0.030942
#
#
# Mechanical properties :
#
#
# Convention : Reuss Voigt Hill
#
# Bulk Modulus (GPa) = 27.22518 49.39332 38.30925
# Shear Modulus (GPa) = 27.95026 34.99591 31.47308
#
# Velocity S-wave (km/s) = 3.31515 3.70953 3.51787
# Velocity P-wave (km/s) = 5.03574 6.14566 5.61818
#
# Compressibility (1/GPa) = 0.03673070
#
# Stress axis : x y z
#
# Youngs Moduli (GPa) = 69.23617 38.12502 136.01233
#
# Poissons Ratio (x) = -0.06049 0.63132
# Poissons Ratio (y) = -0.10985 0.35257
# Poissons Ratio (z) = 0.32137 0.09883
#
# Static dielectric constant tensor:
#      x y z
#    x 4.409550 0.000000 0.151260 
#    y 0.000000 4.883710 0.000000 
#    z 0.151260 0.000000 4.828250 
# 
# 
# High freq. dielectric constant tensor:
#      x y z
#    x 1.994540 0.000000 0.011240 
#    y 0.000000 2.056310 0.000000 
#    z 0.011240 0.000000 2.028470 
# 
# From -- ./inp_files/194555.got.cif
#   From: 2010.06.25/outbox.cif.g09.slc.cpg/sg12_98_cif.got.tgz:194555.got - 2010.06.28 00:19:55.
