data_PCOD8113342
_publ_section_title
;
Structure prediction by ZEFSAII (Michael W. Deem and Ramdas Pophale) SiO2 
 PCOD8113342
Probable space group: C 2/M
;
_chemical_formula_sum "Si O2"
_cell_formula_units_Z 48
_cell_length_a 21.195719
_cell_length_b 23.261861
_cell_length_c 6.759718
_cell_angle_alpha 90.000000
_cell_angle_beta 40.584127
_cell_angle_gamma 90.000000
_cell_volume 2168.258777
_symmetry_space_group_name_H-M "C 2/M"
_symmetry_group_IT_number 12
_symmetry_cell_setting 'monoclinic'
loop_
_space_group_symop_operation_xyz
x,y,z
-x,y,-z
-x,-y,-z
x,-y,z
1/2+x,1/2+y,z
1/2-x,1/2+y,-z
1/2-x,1/2-y,-z
1/2+x,1/2-y,z
loop_
_atom_site_type_symbol
_atom_site_label
_atom_site_fract_x
_atom_site_fract_y
_atom_site_fract_z
Si Si1 0.105146 0.227899 0.854649
Si Si2 0.657800 0.219444 0.120047
Si Si3 0.902884 0.669133 0.351949
Si Si4 0.214630 0.870340 0.385932
Si Si5 0.727159 0.935878 0.395708
Si Si6 0.394302 0.565300 0.690932
O O1 0.159993 0.284048 0.627364
O O2 0.155917 0.169025 0.679482
O O3 0.104882 0.236709 0.093216
O O4 0.000000 0.230444 0.000000
O O5 0.580657 0.198787 0.471538
O O6 0.750000 0.250000 0.000000
O O7 0.694257 0.162194 0.924084
O O8 0.846721 0.609959 0.520345
O O9 0.000000 0.654533 0.000000
O O10 0.255780 0.923759 0.412974
O O11 0.142184 0.892538 0.392026
O O12 0.683419 0.000000 0.477479
O O13 0.828062 0.930837 0.041338
O O14 0.500000 0.587567 0.500000
O O15 0.398800 0.500000 0.598896
#
# Coordination Sequence:
#
# PCOD8113342 Si02
#       6
#     8   8   8   8   8   8
#     4  11  26  41  65 104 142 177 228 277 349 415
#     4  12  23  43  68  96 138 184 223 282 344 417
#     4  11  24  45  69 100 136 181 228 284 341 407
#     4  12  23  40  68  97 137 176 229 275 345 411
#     4  11  24  44  69  97 137 180 229 288 338 401
#     4  10  24  43  65  98 138 183 232 283 340 403
#
# _framework density 22.137578999999999
#
# number of rings (size 3 to 8) (size 9 to 14) (size 15 to 20)
#    0.000    0.833    5.000    2.000    2.333    3.000 
#    0.000    2.500    0.000    1.000    0.000    0.000 
#    0.000    0.000    0.000    0.000    0.000    0.000 
#
# Total GULP energy -297544.615021 kJ/mol
# GULP energy per Si atom -12397.692293 kJ/mol
# Density = 2.208719 g / cm^3
# Si number density = 22.137579 Si / 1000 Ang^3
#
#
#
# Elastic Constant Matrix: (Units=GPa)
#
#
# Indices 1 2 3 4 5 6 
#
# 1 97.3245 11.3547 33.8315 0.0000 24.8808 0.0000
# 2 11.3547 91.2738 28.8779 0.0000 9.7576 0.0000
# 3 33.8315 28.8779 119.1354 0.0000 16.1193 0.0000
# 4 0.0000 0.0000 0.0000 32.4027 0.0000 1.2056
# 5 24.8808 9.7576 16.1193 0.0000 34.7459 0.0000
# 6 0.0000 0.0000 0.0000 1.2056 0.0000 22.0813
#
#
#
# Elastic Compliance Matrix: (Units=1/GPa)
#
#
# Indices 1 2 3 4 5 6 
#
# 1 0.013323 0.000079 -0.002677 0.000000 -0.008321 0.000000
# 2 0.000079 0.012016 -0.002636 0.000000 -0.002208 0.000000
# 3 -0.002677 -0.002636 0.010065 0.000000 -0.002012 0.000000
# 4 0.000000 0.000000 0.000000 0.030924 0.000000 -0.001688
# 5 -0.008321 -0.002208 -0.002012 0.000000 0.036292 0.000000
# 6 0.000000 0.000000 0.000000 -0.001688 0.000000 0.045379
#
#
# Mechanical properties :
#
#
# Convention : Reuss Voigt Hill
#
# Bulk Modulus (GPa) = 40.10163 50.65131 45.37647
# Shear Modulus (GPa) = 29.97926 33.42396 31.70161
#
# Velocity S-wave (km/s) = 3.68397 3.88987 3.78832
# Velocity P-wave (km/s) = 6.02076 6.56541 6.29898
#
# Compressibility (1/GPa) = 0.02493664
#
# Stress axis : x y z
#
# Youngs Moduli (GPa) = 75.05571 83.21966 99.35135
#
# Poissons Ratio (x) = -0.00657 0.26595
# Poissons Ratio (y) = -0.00593 0.26193
# Poissons Ratio (z) = 0.20091 0.21940
#
# Static dielectric constant tensor:
#      x y z
#    x 3.894730 0.000000 0.183960 
#    y 0.000000 4.237110 0.000000 
#    z 0.183960 0.000000 4.104730 
# 
# 
# High freq. dielectric constant tensor:
#      x y z
#    x 1.868510 0.000000 0.014940 
#    y 0.000000 1.872780 0.000000 
#    z 0.014940 0.000000 1.875880 
# 
# From -- ./inp_files/21781.got.cif
#   From: 2010.06.25/outbox.cif.g09.slc.cpg/sg12_11_cif.got.tgz:21781.got - 2010.06.28 00:19:55.
