data_PCOD8113675
_publ_section_title
;
Structure prediction by ZEFSAII (Michael W. Deem and Ramdas Pophale) SiO2 
 PCOD8113675
Probable space group: C 2/M
;
_chemical_formula_sum "Si O2"
_cell_formula_units_Z 52
_cell_length_a 10.472617
_cell_length_b 27.551778
_cell_length_c 10.483701
_cell_angle_alpha 90.000000
_cell_angle_beta 81.433012
_cell_angle_gamma 90.000000
_cell_volume 2991.207536
_symmetry_space_group_name_H-M "C 2/M"
_symmetry_group_IT_number 12
_symmetry_cell_setting 'monoclinic'
loop_
_space_group_symop_operation_xyz
x,y,z
-x,y,-z
-x,-y,-z
x,-y,z
1/2+x,1/2+y,z
1/2-x,1/2+y,-z
1/2-x,1/2-y,-z
1/2+x,1/2-y,z
loop_
_atom_site_type_symbol
_atom_site_label
_atom_site_fract_x
_atom_site_fract_y
_atom_site_fract_z
Si Si1 0.000000 0.786678 0.000000
Si Si2 0.141559 0.230441 0.420332
Si Si3 0.944456 0.289928 0.798536
Si Si4 0.176445 0.552456 0.079418
Si Si5 0.764317 0.849217 0.034352
Si Si6 0.100772 0.446481 0.797199
Si Si7 0.706439 0.154499 0.747255
O O1 0.884665 0.819777 0.070084
O O2 0.047083 0.755963 0.111248
O O3 0.250000 0.250000 0.500000
O O4 0.131644 0.272053 0.314392
O O5 0.183359 0.177575 0.358990
O O6 0.000000 0.222616 0.500000
O O7 0.868004 0.331413 0.883792
O O8 0.083262 0.311170 0.743560
O O9 0.241246 0.500000 0.097802
O O10 0.281164 0.595198 0.080224
O O11 0.054136 0.559769 0.192042
O O12 0.130083 0.555415 0.941528
O O13 0.755418 0.843343 0.884312
O O14 0.141839 0.500000 0.735791
O O15 0.173399 0.401767 0.714588
#
# Coordination Sequence:
#
# PCOD8113675 Si02
#       7
#     4   8   8   8   8   8   8
#     4  12  22  30  47  80 109 144 172 210 264 322
#     4  12  26  40  53  74 110 151 188 221 258 312
#     4  12  21  35  54  79 107 139 177 219 263 322
#     4   8  14  26  45  73 108 136 161 204 261 324
#     4  11  20  31  52  80 109 139 174 215 268 323
#     4   8  14  26  48  78 104 128 167 212 263 318
#     4  11  19  34  56  79 107 139 175 220 269 312
#
# _framework density 17.384283
#
# number of rings (size 3 to 8) (size 9 to 14) (size 15 to 20)
#    0.000    1.538    6.154    2.308    0.000    0.000 
#    0.000    0.385    0.000    0.462    0.000    3.231 
#    0.000    0.000    0.000    0.000    0.000    0.000 
#
# Total GULP energy -322220.019814 kJ/mol
# GULP energy per Si atom -12393.077685 kJ/mol
# Density = 1.734472 g / cm^3
# Si number density = 17.384283 Si / 1000 Ang^3
#
#
#
# Elastic Constant Matrix: (Units=GPa)
#
#
# Indices 1 2 3 4 5 6 
#
# 1 54.4093 29.9368 23.9933 0.0000 -15.0613 0.0000
# 2 29.9368 147.1244 37.4835 0.0000 -16.3869 0.0000
# 3 23.9933 37.4835 63.6163 0.0000 -8.5283 0.0000
# 4 0.0000 0.0000 0.0000 53.8772 0.0000 58.2396
# 5 -15.0613 -16.3869 -8.5283 0.0000 24.3617 0.0000
# 6 0.0000 0.0000 0.0000 58.2396 0.0000 121.9659
#
#
#
# Elastic Compliance Matrix: (Units=1/GPa)
#
#
# Indices 1 2 3 4 5 6 
#
# 1 0.025988 -0.002176 -0.006885 0.000000 0.012193 0.000000
# 2 -0.002176 0.008552 -0.003806 0.000000 0.003075 0.000000
# 3 -0.006885 -0.003806 0.020612 0.000000 0.000399 0.000000
# 4 0.000000 0.000000 0.000000 0.038362 0.000000 -0.018318
# 5 0.012193 0.003075 0.000399 0.000000 0.050794 0.000000
# 6 0.000000 0.000000 0.000000 -0.018318 0.000000 0.016946
#
#
# Mechanical properties :
#
#
# Convention : Reuss Voigt Hill
#
# Bulk Modulus (GPa) = 33.99275 49.77524 41.88399
# Shear Modulus (GPa) = 25.40742 51.62338 38.51540
#
# Velocity S-wave (km/s) = 3.82713 5.45526 4.71205
# Velocity P-wave (km/s) = 6.25503 8.26888 7.33143
#
# Compressibility (1/GPa) = 0.02941804
#
# Stress axis : x y z
#
# Youngs Moduli (GPa) = 38.47996 116.93352 48.51558
#
# Poissons Ratio (x) = 0.25443 0.33402
# Poissons Ratio (y) = 0.08373 0.18465
# Poissons Ratio (z) = 0.26493 0.44505
#
# Static dielectric constant tensor:
#      x y z
#    x 3.105270 0.000000 -0.139750 
#    y 0.000000 3.745580 0.000000 
#    z -0.139750 0.000000 2.934410 
# 
# 
# High freq. dielectric constant tensor:
#      x y z
#    x 1.653660 0.000000 -0.010600 
#    y 0.000000 1.686940 0.000000 
#    z -0.010600 0.000000 1.631080 
# 
# From -- ./inp_files/136289.got.cif
#   From: 2010.06.25/outbox.cif.g09.slc.cpg/sg12_69_cif.got.tgz:136289.got - 2010.06.28 00:19:55.
