data_PCOD8113359
_publ_section_title
;
Structure prediction by ZEFSAII (Michael W. Deem and Ramdas Pophale) SiO2 
 PCOD8113359
Probable space group: C 2/M
;
_chemical_formula_sum "Si O2"
_cell_formula_units_Z 32
_cell_length_a 12.524698
_cell_length_b 24.821203
_cell_length_c 5.601020
_cell_angle_alpha 90.000000
_cell_angle_beta 50.547130
_cell_angle_gamma 90.000000
_cell_volume 1344.489785
_symmetry_space_group_name_H-M "C 2/M"
_symmetry_group_IT_number 12
_symmetry_cell_setting 'monoclinic'
loop_
_space_group_symop_operation_xyz
x,y,z
-x,y,-z
-x,-y,-z
x,-y,z
1/2+x,1/2+y,z
1/2-x,1/2+y,-z
1/2-x,1/2-y,-z
1/2+x,1/2-y,z
loop_
_atom_site_type_symbol
_atom_site_label
_atom_site_fract_x
_atom_site_fract_y
_atom_site_fract_z
Si Si1 0.916780 0.268937 0.362577
Si Si2 0.340824 0.661729 0.647490
Si Si3 0.154312 0.629518 0.328694
Si Si4 0.152245 0.060332 0.683078
O O1 0.814590 0.216744 0.529241
O O2 0.843583 0.328183 0.450098
O O3 0.000000 0.274716 0.500000
O O4 0.000000 0.259638 0.000000
O O5 0.500000 0.667405 0.500000
O O6 0.324661 0.603337 0.554739
O O7 0.226959 0.663395 0.014925
O O8 0.241926 0.575758 0.256750
O O9 0.000000 0.608865 0.500000
O O10 0.182521 0.000000 0.545642
O O11 0.000000 0.065012 0.000000
#
# Coordination Sequence:
#
# PCOD8113359 Si02
#       4
#     8   8   8   8
#     4  10  24  43  72 109 149 191 237 294 364 439
#     4  11  23  44  72 105 140 193 237 296 354 434
#     4  11  26  45  69 106 147 185 232 301 368 426
#     4  11  25  45  73 103 137 189 248 299 353 427
#
# _framework density 23.800850000000001
#
# number of rings (size 3 to 8) (size 9 to 14) (size 15 to 20)
#    0.000    1.250    2.500    1.500   10.500    3.000 
#    0.000    1.250    0.000    0.000    0.000    0.000 
#    0.000    0.000    0.000    0.000    0.000    0.000 
#
# Total GULP energy -198268.732749 kJ/mol
# GULP energy per Si atom -12391.795797 kJ/mol
# Density = 2.374668 g / cm^3
# Si number density = 23.800850 Si / 1000 Ang^3
#
#
#
# Elastic Constant Matrix: (Units=GPa)
#
#
# Indices 1 2 3 4 5 6 
#
# 1 84.5483 47.6340 20.9164 0.0000 -28.5661 0.0000
# 2 47.6340 189.0480 39.5195 0.0000 -10.5013 0.0000
# 3 20.9164 39.5195 139.8667 0.0000 -14.0781 0.0000
# 4 0.0000 0.0000 0.0000 75.2988 0.0000 -2.0443
# 5 -28.5661 -10.5013 -14.0781 0.0000 40.4747 0.0000
# 6 0.0000 0.0000 0.0000 -2.0443 0.0000 40.3927
#
#
#
# Elastic Compliance Matrix: (Units=1/GPa)
#
#
# Indices 1 2 3 4 5 6 
#
# 1 0.017978 -0.003794 -0.000455 0.000000 0.011546 0.000000
# 2 -0.003794 0.006457 -0.001407 0.000000 -0.001492 0.000000
# 3 -0.000455 -0.001407 0.007820 0.000000 0.002034 0.000000
# 4 0.000000 0.000000 0.000000 0.013299 0.000000 0.000673
# 5 0.011546 -0.001492 0.002034 0.000000 0.033177 0.000000
# 6 0.000000 0.000000 0.000000 0.000673 0.000000 0.024791
#
#
# Mechanical properties :
#
#
# Convention : Reuss Voigt Hill
#
# Bulk Modulus (GPa) = 47.74491 69.95586 58.85039
# Shear Modulus (GPa) = 41.04628 51.59278 46.31953
#
# Velocity S-wave (km/s) = 4.15730 4.66089 4.41628
# Velocity P-wave (km/s) = 6.56871 7.64338 7.12633
#
# Compressibility (1/GPa) = 0.02094464
#
# Stress axis : x y z
#
# Youngs Moduli (GPa) = 55.62210 154.87457 127.87748
#
# Poissons Ratio (x) = 0.58753 0.05812
# Poissons Ratio (y) = 0.21101 0.17995
# Poissons Ratio (z) = 0.02528 0.21794
#
# Static dielectric constant tensor:
#      x y z
#    x 4.558310 0.000000 0.097620 
#    y 0.000000 4.609280 0.000000 
#    z 0.097620 0.000000 3.948740 
# 
# 
# High freq. dielectric constant tensor:
#      x y z
#    x 1.972760 0.000000 -0.007540 
#    y 0.000000 1.953950 0.000000 
#    z -0.007540 0.000000 1.935350 
# 
# From -- ./inp_files/6610.got.cif
#   From: 2010.06.25/outbox.cif.g09.slc.cpg/sg12_4_cif.got.tgz:6610.got - 2010.06.28 00:19:55.
