data_PCOD8113802
_publ_section_title
;
Structure prediction by ZEFSAII (Michael W. Deem and Ramdas Pophale) SiO2 
 PCOD8113802
Probable space group: C 2/M
;
_chemical_formula_sum "Si O2"
_cell_formula_units_Z 40
_cell_length_a 28.425791
_cell_length_b 8.743065
_cell_length_c 10.314598
_cell_angle_alpha 90.000000
_cell_angle_beta 59.427483
_cell_angle_gamma 90.000000
_cell_volume 2207.113728
_symmetry_space_group_name_H-M "C 2/M"
_symmetry_group_IT_number 12
_symmetry_cell_setting 'monoclinic'
loop_
_space_group_symop_operation_xyz
x,y,z
-x,y,-z
-x,-y,-z
x,-y,z
1/2+x,1/2+y,z
1/2-x,1/2+y,-z
1/2-x,1/2-y,-z
1/2+x,1/2-y,z
loop_
_atom_site_type_symbol
_atom_site_label
_atom_site_fract_x
_atom_site_fract_y
_atom_site_fract_z
Si Si1 0.508822 0.669020 0.140563
Si Si2 0.279612 0.322321 0.580753
Si Si3 0.609079 0.322982 0.699779
Si Si4 0.274199 0.680594 0.095283
Si Si5 0.617836 0.177875 0.963107
O O1 0.524105 0.500000 0.170817
O O2 0.449866 0.723180 0.280590
O O3 0.500000 0.665793 0.000000
O O4 0.558219 0.782524 0.106587
O O5 0.263630 0.500000 0.612917
O O6 0.250000 0.250000 0.500000
O O7 0.344772 0.299474 0.473403
O O8 0.261886 0.237186 0.734448
O O9 0.606866 0.500000 0.749701
O O10 0.622723 0.220884 0.805419
O O11 0.271157 0.500000 0.092910
O O12 0.336896 0.731153 0.020060
O O13 0.250000 0.750000 0.000000
O O14 0.628919 0.000000 0.964125
#
# Coordination Sequence:
#
# PCOD8113802 Si02
#       5
#     8   8   8   8   8
#     4   8  15  29  48  73 106 144 180 219 269 323
#     4  11  21  35  57  85 114 148 185 227 276 327
#     4   9  18  32  52  78 111 146 181 221 271 326
#     4  12  25  41  58  79 110 148 188 231 279 335
#     4  11  20  31  51  79 110 143 182 227 275 326
#
# _framework density 18.123215999999999
#
# number of rings (size 3 to 8) (size 9 to 14) (size 15 to 20)
#    0.000    1.800    2.000    5.400    0.000    4.400 
#    0.000    0.000    0.000    1.200    0.000    8.400 
#    0.000    0.000    0.000    0.000    0.000    0.000 
#
# Total GULP energy -247958.008548 kJ/mol
# GULP energy per Si atom -12397.900427 kJ/mol
# Density = 1.808197 g / cm^3
# Si number density = 18.123216 Si / 1000 Ang^3
#
#
#
# Elastic Constant Matrix: (Units=GPa)
#
#
# Indices 1 2 3 4 5 6 
#
# 1 127.5679 59.9452 72.3186 0.0000 -22.1735 0.0000
# 2 59.9452 141.5400 51.9248 0.0000 -3.8978 0.0000
# 3 72.3186 51.9248 91.0515 0.0000 -8.7033 0.0000
# 4 0.0000 0.0000 0.0000 26.2276 0.0000 -1.7186
# 5 -22.1735 -3.8978 -8.7033 0.0000 33.2882 0.0000
# 6 0.0000 0.0000 0.0000 -1.7186 0.0000 30.8276
#
#
#
# Elastic Compliance Matrix: (Units=1/GPa)
#
#
# Indices 1 2 3 4 5 6 
#
# 1 0.016763 -0.002877 -0.010911 0.000000 0.007976 0.000000
# 2 -0.002877 0.009431 -0.003252 0.000000 -0.001662 0.000000
# 3 -0.010911 -0.003252 0.021305 0.000000 -0.002078 0.000000
# 4 0.000000 0.000000 0.000000 0.038268 0.000000 0.002133
# 5 0.007976 -0.001662 -0.002078 0.000000 0.034616 0.000000
# 6 0.000000 0.000000 0.000000 0.002133 0.000000 0.032557
#
#
# Mechanical properties :
#
#
# Convention : Reuss Voigt Hill
#
# Bulk Modulus (GPa) = 74.52367 80.94851 77.73609
# Shear Modulus (GPa) = 26.11082 29.80006 27.95544
#
# Velocity S-wave (km/s) = 3.79982 4.05940 3.93175
# Velocity P-wave (km/s) = 7.77569 8.16910 7.97482
#
# Compressibility (1/GPa) = 0.01341856
#
# Stress axis : x y z
#
# Youngs Moduli (GPa) = 59.65637 106.03484 46.93793
#
# Poissons Ratio (x) = 0.30506 0.51213
# Poissons Ratio (y) = 0.17163 0.15264
# Poissons Ratio (z) = 0.65090 0.34483
#
# Static dielectric constant tensor:
#      x y z
#    x 8.718200 0.000000 -9.808790 
#    y 0.000000 3.400180 0.000000 
#    z -9.808790 0.000000 20.308250 
# 
# 
# High freq. dielectric constant tensor:
#      x y z
#    x 1.703900 0.000000 -0.040490 
#    y 0.000000 1.709200 0.000000 
#    z -0.040490 0.000000 1.670830 
# 
# From -- ./inp_files/107783.got.cif
#   From: 2010.06.25/outbox.cif.g09.slc.cpg/sg12_54_cif.got.tgz:107783.got - 2010.06.28 00:19:55.
