data_PCOD8113259
_publ_section_title
;
Structure prediction by ZEFSAII (Michael W. Deem and Ramdas Pophale) SiO2 
 PCOD8113259
Probable space group: C 2/M
;
_chemical_formula_sum "Si O2"
_cell_formula_units_Z 36
_cell_length_a 8.697164
_cell_length_b 19.880557
_cell_length_c 9.594485
_cell_angle_alpha 90.000000
_cell_angle_beta 77.327645
_cell_angle_gamma 90.000000
_cell_volume 1618.518613
_symmetry_space_group_name_H-M "C 2/M"
_symmetry_group_IT_number 12
_symmetry_cell_setting 'monoclinic'
loop_
_space_group_symop_operation_xyz
x,y,z
-x,y,-z
-x,-y,-z
x,-y,z
1/2+x,1/2+y,z
1/2-x,1/2+y,-z
1/2-x,1/2-y,-z
1/2+x,1/2-y,z
loop_
_atom_site_type_symbol
_atom_site_label
_atom_site_fract_x
_atom_site_fract_y
_atom_site_fract_z
Si Si1 0.875194 0.500000 0.149773
Si Si2 0.612205 0.000000 0.349493
Si Si3 0.176455 0.876153 0.289453
Si Si4 0.293794 0.224383 0.803329
Si Si5 0.696339 0.622852 0.607774
Si Si6 0.500000 0.754944 0.000000
O O1 0.761325 0.434195 0.181058
O O2 0.995874 0.500000 0.247907
O O3 0.000000 0.500000 0.000000
O O4 0.500000 0.000000 0.500000
O O5 0.726091 0.936730 0.322571
O O6 0.213687 0.804444 0.216020
O O7 0.238681 0.879695 0.436276
O O8 0.988528 0.883372 0.328273
O O9 0.281370 0.189077 0.655753
O O10 0.140480 0.205595 0.925343
O O11 0.443253 0.202933 0.872041
#
# Coordination Sequence:
#
# PCOD8113259 Si02
#       6
#     4   4   8   8   8   4
#     4  12  29  47  71 107 144 188 240 290 358 425
#     4  12  25  47  71 103 140 186 231 300 348 417
#     4  11  24  46  71 104 143 187 232 293 354 424
#     4  11  23  43  68 105 139 189 236 289 354 420
#     4  11  24  45  74 102 140 185 238 290 358 415
#     4  10  24  40  64  96 152 184 224 288 358 410
#
# _framework density 22.242560000000001
#
# number of rings (size 3 to 8) (size 9 to 14) (size 15 to 20)
#    0.000    0.889    4.444    1.333    4.667    3.556 
#    4.000    1.111    0.000    0.000    0.000    0.000 
#    0.000    0.000    0.000    0.000    0.000    0.000 
#
# Total GULP energy -223019.701190 kJ/mol
# GULP energy per Si atom -12389.983399 kJ/mol
# Density = 2.219194 g / cm^3
# Si number density = 22.242560 Si / 1000 Ang^3
#
#
#
# Elastic Constant Matrix: (Units=GPa)
#
#
# Indices 1 2 3 4 5 6 
#
# 1 113.4830 38.0231 47.9269 0.0000 16.3362 0.0000
# 2 38.0231 139.9439 36.9008 0.0000 -1.9634 0.0000
# 3 47.9269 36.9008 107.0910 0.0000 2.3913 0.0000
# 4 0.0000 0.0000 0.0000 25.3124 0.0000 4.9282
# 5 16.3362 -1.9634 2.3913 0.0000 45.5131 0.0000
# 6 0.0000 0.0000 0.0000 4.9282 0.0000 23.9516
#
#
#
# Elastic Compliance Matrix: (Units=1/GPa)
#
#
# Indices 1 2 3 4 5 6 
#
# 1 0.012057 -0.002130 -0.004569 0.000000 -0.004179 0.000000
# 2 -0.002130 0.008247 -0.001916 0.000000 0.001221 0.000000
# 3 -0.004569 -0.001916 0.012022 0.000000 0.000925 0.000000
# 4 0.000000 0.000000 0.000000 0.041155 0.000000 -0.008468
# 5 -0.004179 0.001221 0.000925 0.000000 0.023476 0.000000
# 6 0.000000 0.000000 0.000000 -0.008468 0.000000 0.043493
#
#
# Mechanical properties :
#
#
# Convention : Reuss Voigt Hill
#
# Bulk Modulus (GPa) = 66.23815 67.35772 66.79793
# Shear Modulus (GPa) = 30.72962 34.79988 32.76475
#
# Velocity S-wave (km/s) = 3.72098 3.95975 3.84222
# Velocity P-wave (km/s) = 6.95021 7.15927 7.05552
#
# Compressibility (1/GPa) = 0.01509704
#
# Stress axis : x y z
#
# Youngs Moduli (GPa) = 82.94267 121.26135 83.18184
#
# Poissons Ratio (x) = 0.25826 0.38002
# Poissons Ratio (y) = 0.17665 0.15935
# Poissons Ratio (z) = 0.37892 0.23230
#
# Static dielectric constant tensor:
#      x y z
#    x 4.515010 0.000000 0.146090 
#    y 0.000000 3.404260 0.000000 
#    z 0.146090 0.000000 4.105770 
# 
# 
# High freq. dielectric constant tensor:
#      x y z
#    x 1.905000 0.000000 0.007940 
#    y 0.000000 1.854470 0.000000 
#    z 0.007940 0.000000 1.885370 
# 
# From -- ./inp_files/38028.got.cif
#   From: 2010.06.25/outbox.cif.g09.slc.cpg/sg12_20_cif.got.tgz:38028.got - 2010.06.28 00:19:55.
