data_PCOD8113202
_publ_section_title
;
Structure prediction by ZEFSAII (Michael W. Deem and Ramdas Pophale) SiO2 
 PCOD8113202
Probable space group: C 2/M
;
_chemical_formula_sum "Si O2"
_cell_formula_units_Z 56
_cell_length_a 19.238324
_cell_length_b 14.002108
_cell_length_c 22.519400
_cell_angle_alpha 90.000000
_cell_angle_beta 153.711029
_cell_angle_gamma 90.000000
_cell_volume 2686.716211
_symmetry_space_group_name_H-M "C 2/M"
_symmetry_group_IT_number 12
_symmetry_cell_setting 'monoclinic'
loop_
_space_group_symop_operation_xyz
x,y,z
-x,y,-z
-x,-y,-z
x,-y,z
1/2+x,1/2+y,z
1/2-x,1/2+y,-z
1/2-x,1/2-y,-z
1/2+x,1/2-y,z
loop_
_atom_site_type_symbol
_atom_site_label
_atom_site_fract_x
_atom_site_fract_y
_atom_site_fract_z
Si Si1 0.684150 0.396427 0.215098
Si Si2 0.356362 0.711515 0.349898
Si Si3 0.753322 0.715695 0.936615
Si Si4 0.663482 0.603451 0.059194
Si Si5 0.427784 0.111328 0.810620
Si Si6 0.336488 0.113050 0.605842
Si Si7 0.986843 0.211040 0.656871
O O1 0.746927 0.500000 0.284518
O O2 0.802291 0.317012 0.330068
O O3 0.662688 0.394236 0.128638
O O4 0.506953 0.379031 0.102161
O O5 0.500000 0.676854 0.500000
O O6 0.210401 0.641386 0.250129
O O7 0.405127 0.714708 0.319007
O O8 0.727193 0.812846 0.879143
O O9 0.594688 0.663296 0.792239
O O10 0.750000 0.750000 0.000000
O O11 0.910815 0.658553 0.042924
O O12 0.727288 0.500000 0.086120
O O13 0.391759 0.139275 0.714938
O O14 0.452039 0.000000 0.835472
O O15 0.424598 0.182114 0.626310
O O16 0.152354 0.136538 0.460797
O O17 0.364233 0.000000 0.612672
#
# Coordination Sequence:
#
# PCOD8113202 Si02
#       7
#     8   8   8   8   8   8   8
#     4   9  18  34  58  87 119 158 200 248 316 385
#     4  12  23  39  66  96 131 169 217 271 327 390
#     4  12  23  39  66  97 130 167 220 276 324 380
#     4   9  18  34  59  85 116 160 202 247 315 387
#     4  11  25  44  67  96 133 177 222 269 326 391
#     4  10  23  47  70  93 130 176 225 269 321 396
#     4  11  24  41  70 100 127 172 220 272 331 387
#
# _framework density 20.843288999999999
#
# number of rings (size 3 to 8) (size 9 to 14) (size 15 to 20)
#    0.000    1.429    5.714    0.857    0.000    4.000 
#    0.000    0.714    0.000    0.000    0.000    0.000 
#    0.000    0.000    0.000    0.000    0.000    0.000 
#
# Total GULP energy -346985.928583 kJ/mol
# GULP energy per Si atom -12392.354592 kJ/mol
# Density = 2.079585 g / cm^3
# Si number density = 20.843289 Si / 1000 Ang^3
#
#
#
# Elastic Constant Matrix: (Units=GPa)
#
#
# Indices 1 2 3 4 5 6 
#
# 1 76.4941 23.9127 13.3566 -0.0042 2.8046 -0.0013
# 2 23.9127 91.3238 30.5379 0.0192 4.6612 0.0048
# 3 13.3566 30.5379 125.2871 0.0154 8.7126 0.0056
# 4 -0.0042 0.0192 0.0154 16.9327 0.0053 -10.2353
# 5 2.8046 4.6612 8.7126 0.0053 28.6062 0.0004
# 6 -0.0013 0.0048 0.0056 -10.2353 0.0004 19.3053
#
#
#
# Elastic Compliance Matrix: (Units=1/GPa)
#
#
# Indices 1 2 3 4 5 6 
#
# 1 0.014301 -0.003502 -0.000626 0.000014 -0.000641 0.000009
# 2 -0.003502 0.012812 -0.002685 -0.000021 -0.000926 -0.000014
# 3 -0.000626 -0.002685 0.008856 -0.000008 -0.002198 -0.000006
# 4 0.000014 -0.000021 -0.000008 0.086910 -0.000012 0.046078
# 5 -0.000641 -0.000926 -0.002198 -0.000012 0.035841 -0.000007
# 6 0.000009 -0.000014 -0.000006 0.046078 -0.000007 0.076228
#
#
# Mechanical properties :
#
#
# Convention : Reuss Voigt Hill
#
# Bulk Modulus (GPa) = 44.76068 47.63550 46.19809
# Shear Modulus (GPa) = 19.52955 27.98871 23.75913
#
# Velocity S-wave (km/s) = 3.06432 3.66842 3.37989
# Velocity P-wave (km/s) = 5.83451 6.39115 6.11917
#
# Compressibility (1/GPa) = 0.02234104
#
# Stress axis : x y z
#
# Youngs Moduli (GPa) = 69.92697 78.05002 112.92050
#
# Poissons Ratio (x) = 0.27336 0.07073
# Poissons Ratio (y) = 0.24491 0.30320
# Poissons Ratio (z) = 0.04380 0.20957
#
# Static dielectric constant tensor:
#      x y z
#    x 3.600030 -0.000010 0.230820 
#    y -0.000010 3.715680 -0.000020 
#    z 0.230820 -0.000020 4.040180 
# 
# 
# High freq. dielectric constant tensor:
#      x y z
#    x 1.804310 0.000000 0.014720 
#    y 0.000000 1.810560 0.000000 
#    z 0.014720 0.000000 1.826830 
# 
# From -- ./inp_files/316798.got.cif
#   From: 2010.06.25/outbox.cif.g09.slc.cpg/sg12_159_cif.got.tgz:316798.got - 2010.06.28 00:19:55.
