data_PCOD8113804
_publ_section_title
;
Structure prediction by ZEFSAII (Michael W. Deem and Ramdas Pophale) SiO2 
 PCOD8113804
Probable space group: C 2/M
;
_chemical_formula_sum "Si O2"
_cell_formula_units_Z 40
_cell_length_a 24.391196
_cell_length_b 8.566156
_cell_length_c 20.863021
_cell_angle_alpha 90.000000
_cell_angle_beta 149.201204
_cell_angle_gamma 90.000000
_cell_volume 2231.964484
_symmetry_space_group_name_H-M "C 2/M"
_symmetry_group_IT_number 12
_symmetry_cell_setting 'monoclinic'
loop_
_space_group_symop_operation_xyz
x,y,z
-x,y,-z
-x,-y,-z
x,-y,z
1/2+x,1/2+y,z
1/2-x,1/2+y,-z
1/2-x,1/2-y,-z
1/2+x,1/2-y,z
loop_
_atom_site_type_symbol
_atom_site_label
_atom_site_fract_x
_atom_site_fract_y
_atom_site_fract_z
Si Si1 0.083910 0.318042 0.174961
Si Si2 0.580403 0.317406 0.497278
Si Si3 0.366212 0.818909 0.313940
Si Si4 0.852313 0.318842 0.904335
Si Si5 0.256775 0.182708 0.436401
O O1 0.105770 0.500000 0.210293
O O2 0.126364 0.271739 0.147629
O O3 0.144745 0.215062 0.288267
O O4 0.957216 0.280602 0.052018
O O5 0.594491 0.500000 0.524235
O O6 0.628095 0.225349 0.605629
O O7 0.455175 0.275656 0.362848
O O8 0.644686 0.268410 0.499036
O O9 0.248067 0.777967 0.169001
O O10 0.389727 0.000000 0.328501
O O11 0.823844 0.500000 0.880069
O O12 0.250000 0.250000 0.500000
O O13 0.279720 0.000000 0.461352
#
# Coordination Sequence:
#
# PCOD8113804 Si02
#       5
#     8   8   8   8   8
#     4   9  18  33  53  78 108 142 180 218 263 318
#     4  11  21  35  53  75 106 143 181 220 268 320
#     4  11  20  31  51  81 112 140 174 221 270 320
#     4   9  17  31  53  79 110 144 174 214 269 322
#     4  12  24  38  56  79 108 143 182 224 265 316
#
# _framework density 17.921431999999999
#
# number of rings (size 3 to 8) (size 9 to 14) (size 15 to 20)
#    0.000    1.600    2.000    7.800    0.000    0.800 
#    0.000    2.000    0.000    1.200    0.000    0.000 
#    0.000    0.000    0.000    0.000    0.000    0.000 
#
# Total GULP energy -248034.792599 kJ/mol
# GULP energy per Si atom -12401.739630 kJ/mol
# Density = 1.788064 g / cm^3
# Si number density = 17.921432 Si / 1000 Ang^3
#
#
#
# Elastic Constant Matrix: (Units=GPa)
#
#
# Indices 1 2 3 4 5 6 
#
# 1 88.9667 18.9207 46.7010 0.0000 11.3069 0.0000
# 2 18.9207 77.8365 31.3459 0.0000 3.7195 0.0000
# 3 46.7010 31.3459 104.3673 0.0000 22.0241 0.0000
# 4 0.0000 0.0000 0.0000 30.8972 0.0000 3.3945
# 5 11.3069 3.7195 22.0241 0.0000 32.0994 0.0000
# 6 0.0000 0.0000 0.0000 3.3945 0.0000 25.7276
#
#
#
# Elastic Compliance Matrix: (Units=1/GPa)
#
#
# Indices 1 2 3 4 5 6 
#
# 1 0.014789 -0.001096 -0.006099 0.000000 -0.000898 0.000000
# 2 -0.001096 0.014762 -0.004284 0.000000 0.001615 0.000000
# 3 -0.006099 -0.004284 0.015247 0.000000 -0.007816 0.000000
# 4 0.000000 0.000000 0.000000 0.032841 0.000000 -0.004333
# 5 -0.000898 0.001615 -0.007816 0.000000 0.036645 0.000000
# 6 0.000000 0.000000 0.000000 -0.004333 0.000000 0.039441
#
#
# Mechanical properties :
#
#
# Convention : Reuss Voigt Hill
#
# Bulk Modulus (GPa) = 45.78797 51.67840 48.73319
# Shear Modulus (GPa) = 27.17948 29.35837 28.26893
#
# Velocity S-wave (km/s) = 3.89857 4.05182 3.97593
# Velocity P-wave (km/s) = 6.77273 7.12660 6.95191
#
# Compressibility (1/GPa) = 0.02183980
#
# Stress axis : x y z
#
# Youngs Moduli (GPa) = 67.61873 67.74193 65.58781
#
# Poissons Ratio (x) = 0.07424 0.40002
# Poissons Ratio (y) = 0.07410 0.28098
# Poissons Ratio (z) = 0.41240 0.29021
#
# Static dielectric constant tensor:
#      x y z
#    x 3.118230 0.000000 0.322350 
#    y 0.000000 3.328230 0.000000 
#    z 0.322350 0.000000 3.458960 
# 
# 
# High freq. dielectric constant tensor:
#      x y z
#    x 1.661390 0.000000 0.032360 
#    y 0.000000 1.700950 0.000000 
#    z 0.032360 0.000000 1.693890 
# 
# From -- ./inp_files/179661.got.cif
#   From: 2010.06.25/outbox.cif.g09.slc.cpg/sg12_90_cif.got.tgz:179661.got - 2010.06.28 00:19:55.
