data_PCOD8113555
_publ_section_title
;
Structure prediction by ZEFSAII (Michael W. Deem and Ramdas Pophale) SiO2 
 PCOD8113555
Probable space group: C 2/M
;
_chemical_formula_sum "Si O2"
_cell_formula_units_Z 40
_cell_length_a 12.902962
_cell_length_b 15.117914
_cell_length_c 24.898482
_cell_angle_alpha 90.000000
_cell_angle_beta 158.305295
_cell_angle_gamma 90.000000
_cell_volume 1795.385293
_symmetry_space_group_name_H-M "C 2/M"
_symmetry_group_IT_number 12
_symmetry_cell_setting 'monoclinic'
loop_
_space_group_symop_operation_xyz
x,y,z
-x,y,-z
-x,-y,-z
x,-y,z
1/2+x,1/2+y,z
1/2-x,1/2+y,-z
1/2-x,1/2-y,-z
1/2+x,1/2-y,z
loop_
_atom_site_type_symbol
_atom_site_label
_atom_site_fract_x
_atom_site_fract_y
_atom_site_fract_z
Si Si1 0.854700 0.155570 0.596644
Si Si2 0.141006 0.271618 0.215000
Si Si3 0.696319 0.181567 0.358551
Si Si4 0.421511 0.901690 0.903087
Si Si5 0.140763 0.598551 0.710820
O O1 0.737728 0.222997 0.584364
O O2 0.609862 0.097458 0.453322
O O3 0.020648 0.211190 0.629665
O O4 0.083469 0.092058 0.735394
O O5 0.050217 0.302405 0.230238
O O6 0.965954 0.329128 0.086395
O O7 0.112127 0.166173 0.189098
O O8 0.478012 0.123908 0.287568
O O9 0.000000 0.132620 0.500000
O O10 0.547022 0.000000 0.953101
O O11 0.500000 0.867144 0.000000
O O12 0.268917 0.500000 0.775212
#
# Coordination Sequence:
#
# PCOD8113555 Si02
#       5
#     8   8   8   8   8
#     4   9  18  31  48  73 106 133 160 209 256 300
#     4   9  19  33  50  72 107 131 167 210 260 299
#     4  11  16  31  51  74 104 138 167 205 252 313
#     4   9  18  34  55  73  94 130 174 216 256 297
#     4  11  20  31  50  78 109 138 169 204 255 310
#
# _framework density 22.279339
#
# number of rings (size 3 to 8) (size 9 to 14) (size 15 to 20)
#    1.200    1.000    4.000    1.800    0.000    1.200 
#    0.000    4.000    0.000    0.600    0.000    0.000 
#    0.000    0.000    0.000    0.000    0.000    0.000 
#
# Total GULP energy -247826.047963 kJ/mol
# GULP energy per Si atom -12391.302398 kJ/mol
# Density = 2.222863 g / cm^3
# Si number density = 22.279339 Si / 1000 Ang^3
#
#
#
# Elastic Constant Matrix: (Units=GPa)
#
#
# Indices 1 2 3 4 5 6 
#
# 1 59.3312 25.2829 49.6713 0.0048 -44.1615 0.0025
# 2 25.2829 146.1207 35.9523 0.0016 -32.7071 0.0005
# 3 49.6713 35.9523 72.0020 0.0286 -41.9410 0.0080
# 4 0.0048 0.0016 0.0286 19.1812 0.0004 -9.8961
# 5 -44.1615 -32.7071 -41.9410 0.0004 45.0452 0.0015
# 6 0.0025 0.0005 0.0080 -9.8961 0.0015 11.1131
#
#
#
# Elastic Compliance Matrix: (Units=1/GPa)
#
#
# Indices 1 2 3 4 5 6 
#
# 1 0.075409 0.005097 -0.020424 0.000008 0.058614 -0.000003
# 2 0.005097 0.008578 -0.002755 0.000003 0.008661 0.000002
# 3 -0.020424 -0.002755 0.036109 -0.000112 0.011597 -0.000123
# 4 0.000008 0.000003 -0.000112 0.096443 -0.000098 0.085881
# 5 0.058614 0.008661 0.011597 -0.000098 0.096750 -0.000122
# 6 -0.000003 0.000002 -0.000123 0.085881 -0.000122 0.166459
#
#
# Mechanical properties :
#
#
# Convention : Reuss Voigt Hill
#
# Bulk Modulus (GPa) = 11.91430 55.47409 33.69419
# Shear Modulus (GPa) = 9.19305 26.17107 17.68206
#
# Velocity S-wave (km/s) = 2.03353 3.43108 2.82024
# Velocity P-wave (km/s) = 3.29741 6.37572 5.07556
#
# Compressibility (1/GPa) = 0.08393275
#
# Stress axis : x y z
#
# Youngs Moduli (GPa) = 13.26105 116.57583 27.69374
#
# Poissons Ratio (x) = -0.59424 0.56563
# Poissons Ratio (y) = -0.06760 0.07629
# Poissons Ratio (z) = 0.27085 0.32113
#
# Static dielectric constant tensor:
#      x y z
#    x 3.731440 -0.000010 -0.272940 
#    y -0.000010 3.716920 -0.000050 
#    z -0.272940 -0.000050 3.621200 
# 
# 
# High freq. dielectric constant tensor:
#      x y z
#    x 1.859160 0.000000 -0.023450 
#    y 0.000000 1.858520 0.000000 
#    z -0.023450 0.000000 1.860060 
# 
# From -- ./inp_files/305215.got.cif
#   From: 2010.06.25/outbox.cif.g09.slc.cpg/sg12_153_cif.got.tgz:305215.got - 2010.06.28 00:19:55.
