data_PCOD8113643
_publ_section_title
;
Structure prediction by ZEFSAII (Michael W. Deem and Ramdas Pophale) SiO2 
 PCOD8113643
Probable space group: C 2/M
;
_chemical_formula_sum "Si O2"
_cell_formula_units_Z 56
_cell_length_a 23.029550
_cell_length_b 15.885031
_cell_length_c 9.580569
_cell_angle_alpha 90.000000
_cell_angle_beta 43.997561
_cell_angle_gamma 90.000000
_cell_volume 2434.540198
_symmetry_space_group_name_H-M "C 2/M"
_symmetry_group_IT_number 12
_symmetry_cell_setting 'monoclinic'
loop_
_space_group_symop_operation_xyz
x,y,z
-x,y,-z
-x,-y,-z
x,-y,z
1/2+x,1/2+y,z
1/2-x,1/2+y,-z
1/2-x,1/2-y,-z
1/2+x,1/2-y,z
loop_
_atom_site_type_symbol
_atom_site_label
_atom_site_fract_x
_atom_site_fract_y
_atom_site_fract_z
Si Si1 0.810048 0.673275 0.628235
Si Si2 0.000315 0.901633 0.727107
Si Si3 0.910624 0.217214 0.251865
Si Si4 0.630145 0.403097 0.266516
Si Si5 0.179439 0.399557 0.094859
Si Si6 0.658722 0.199348 0.877769
Si Si7 0.260535 0.406940 0.497588
O O1 0.885780 0.724324 0.425534
O O2 0.844636 0.634240 0.711572
O O3 0.727088 0.729361 0.795119
O O4 0.788378 0.595079 0.565006
O O5 0.008490 0.840815 0.848504
O O6 0.086198 0.887209 0.491021
O O7 0.922773 0.864320 0.771582
O O8 0.989805 0.000000 0.787199
O O9 0.918191 0.268664 0.090585
O O10 0.835975 0.155234 0.348235
O O11 0.626550 0.500000 0.236148
O O12 0.724714 0.371641 0.104958
O O13 0.164805 0.500000 0.108404
O O14 0.124380 0.345613 0.078703
O O15 0.701845 0.122009 0.723620
O O16 0.293485 0.500000 0.473859
#
# Coordination Sequence:
#
# PCOD8113643 Si02
#       7
#     8   8   8   8   8   8   8
#     4   9  18  28  40  62  91 121 148 186 237 274
#     4   9  15  27  45  66  91 125 163 194 215 256
#     4   9  17  28  43  64  90 123 152 188 235 269
#     4   8  16  26  41  66  92 120 161 194 217 253
#     4  11  19  29  45  66  93 128 157 184 223 275
#     4   9  18  28  40  61  89 123 154 186 231 273
#     4   9  15  26  41  59  82 115 153 183 214 268
#
# _framework density 23.002291
#
# number of rings (size 3 to 8) (size 9 to 14) (size 15 to 20)
#    0.000    2.857    0.000    6.000    0.000    1.143 
#    0.000    0.000    0.000    3.429    0.000   17.000 
#    0.000    9.143    0.000  527.143    0.000    0.000 
#
# Total GULP energy -346906.032582 kJ/mol
# GULP energy per Si atom -12389.501164 kJ/mol
# Density = 2.294994 g / cm^3
# Si number density = 23.002291 Si / 1000 Ang^3
#
#
#
# Elastic Constant Matrix: (Units=GPa)
#
#
# Indices 1 2 3 4 5 6 
#
# 1 90.7303 39.4376 18.8425 0.0000 34.2659 0.0000
# 2 39.4376 96.0533 27.0559 0.0000 22.4009 0.0000
# 3 18.8425 27.0559 42.8264 0.0000 11.7384 0.0000
# 4 0.0000 0.0000 0.0000 18.3784 0.0000 10.0208
# 5 34.2659 22.4009 11.7384 0.0000 27.2745 0.0000
# 6 0.0000 0.0000 0.0000 10.0208 0.0000 36.8307
#
#
#
# Elastic Compliance Matrix: (Units=1/GPa)
#
#
# Indices 1 2 3 4 5 6 
#
# 1 0.021755 -0.002939 -0.001004 0.000000 -0.024486 0.000000
# 2 -0.002939 0.014759 -0.006486 0.000000 -0.005638 0.000000
# 3 -0.001004 -0.006486 0.029572 0.000000 -0.006139 0.000000
# 4 0.000000 0.000000 0.000000 0.063890 0.000000 -0.017383
# 5 -0.024486 -0.005638 -0.006139 0.000000 0.074700 0.000000
# 6 0.000000 0.000000 0.000000 -0.017383 0.000000 0.031881
#
#
# Mechanical properties :
#
#
# Convention : Reuss Voigt Hill
#
# Bulk Modulus (GPa) = 22.10950 44.47578 33.29264
# Shear Modulus (GPa) = 18.34927 26.11498 22.23212
#
# Velocity S-wave (km/s) = 2.82745 3.37311 3.11226
# Velocity P-wave (km/s) = 4.50467 5.87774 5.23640
#
# Compressibility (1/GPa) = 0.04522942
#
# Stress axis : x y z
#
# Youngs Moduli (GPa) = 45.96605 67.75324 33.81595
#
# Poissons Ratio (x) = 0.19914 0.03394
# Poissons Ratio (y) = 0.13510 0.21933
# Poissons Ratio (z) = 0.04613 0.43944
#
# Static dielectric constant tensor:
#      x y z
#    x 2.448130 0.000000 -0.726060 
#    y 0.000000 4.130550 0.000000 
#    z -0.726060 0.000000 3.589970 
# 
# 
# High freq. dielectric constant tensor:
#      x y z
#    x 1.901200 0.000000 0.038210 
#    y 0.000000 1.901680 0.000000 
#    z 0.038210 0.000000 1.884190 
# 
# From -- ./inp_files/98076.got.cif
#   From: 2010.06.25/outbox.cif.g09.slc.cpg/sg12_50_cif.got.tgz:98076.got - 2010.06.28 00:19:55.
