data_PCOD8113615
_publ_section_title
;
Structure prediction by ZEFSAII (Michael W. Deem and Ramdas Pophale) SiO2 
 PCOD8113615
Probable space group: C 2/M
;
_chemical_formula_sum "Si O2"
_cell_formula_units_Z 56
_cell_length_a 19.157509
_cell_length_b 17.872284
_cell_length_c 9.160694
_cell_angle_alpha 90.000000
_cell_angle_beta 65.433254
_cell_angle_gamma 90.000000
_cell_volume 2852.590690
_symmetry_space_group_name_H-M "C 2/M"
_symmetry_group_IT_number 12
_symmetry_cell_setting 'monoclinic'
loop_
_space_group_symop_operation_xyz
x,y,z
-x,y,-z
-x,-y,-z
x,-y,z
1/2+x,1/2+y,z
1/2-x,1/2+y,-z
1/2-x,1/2-y,-z
1/2+x,1/2-y,z
loop_
_atom_site_type_symbol
_atom_site_label
_atom_site_fract_x
_atom_site_fract_y
_atom_site_fract_z
Si Si1 0.076924 0.780765 0.361255
Si Si2 0.893533 0.119319 0.134603
Si Si3 0.587306 0.210232 0.890509
Si Si4 0.221638 0.586072 0.281856
Si Si5 0.319046 0.190701 0.931925
Si Si6 0.528275 0.418139 0.217431
Si Si7 0.330545 0.783544 0.478924
O O1 0.105912 0.726795 0.208428
O O2 0.062617 0.863747 0.310813
O O3 0.139402 0.780703 0.436870
O O4 0.000000 0.747218 0.500000
O O5 0.900133 0.204121 0.074849
O O6 0.809599 0.093484 0.252997
O O7 0.944973 0.109055 0.234588
O O8 0.918998 0.072384 0.971917
O O9 0.609500 0.200726 0.702657
O O10 0.500000 0.184399 0.000000
O O11 0.649429 0.165372 0.936343
O O12 0.194250 0.500000 0.314223
O O13 0.209937 0.617141 0.127722
O O14 0.174070 0.636841 0.435599
O O15 0.250000 0.250000 0.000000
O O16 0.522160 0.500000 0.295523
O O17 0.250000 0.750000 0.500000
#
# Coordination Sequence:
#
# PCOD8113615 Si02
#       7
#     8   8   8   8   8   8   8
#     4  11  22  37  56  84 120 159 207 255 302 361
#     4  11  18  34  59  89 119 162 205 242 300 373
#     4  12  20  37  66  94 116 156 207 260 307 360
#     4  11  23  39  62  89 127 164 202 256 319 365
#     4  11  20  39  63  89 118 156 212 254 298 365
#     4  11  21  33  52  86 131 167 201 240 297 377
#     4  11  23  39  62  91 122 161 210 259 308 362
#
# _framework density 19.631278999999999
#
# number of rings (size 3 to 8) (size 9 to 14) (size 15 to 20)
#    0.000    0.857    5.714    4.286    0.000    0.286 
#    0.000    1.429    0.000   16.286    0.000    0.000 
#    0.000    0.000    0.000    0.000    0.000    0.000 
#
# Total GULP energy -347110.358716 kJ/mol
# GULP energy per Si atom -12396.798526 kJ/mol
# Density = 1.958660 g / cm^3
# Si number density = 19.631279 Si / 1000 Ang^3
#
#
#
# Elastic Constant Matrix: (Units=GPa)
#
#
# Indices 1 2 3 4 5 6 
#
# 1 123.7144 50.1588 47.8266 0.0000 18.1313 0.0000
# 2 50.1588 111.4427 37.2250 0.0000 13.4828 0.0000
# 3 47.8266 37.2250 105.6620 0.0000 6.0783 0.0000
# 4 0.0000 0.0000 0.0000 22.3299 0.0000 3.0211
# 5 18.1313 13.4828 6.0783 0.0000 41.8143 0.0000
# 6 0.0000 0.0000 0.0000 3.0211 0.0000 13.8027
#
#
#
# Elastic Compliance Matrix: (Units=1/GPa)
#
#
# Indices 1 2 3 4 5 6 
#
# 1 0.011433 -0.003494 -0.003755 0.000000 -0.003285 0.000000
# 2 -0.003494 0.011569 -0.002387 0.000000 -0.001868 0.000000
# 3 -0.003755 -0.002387 0.011967 0.000000 0.000658 0.000000
# 4 0.000000 0.000000 0.000000 0.046149 0.000000 -0.010101
# 5 -0.003285 -0.001868 0.000658 0.000000 0.025846 0.000000
# 6 0.000000 0.000000 0.000000 -0.010101 0.000000 0.074661
#
#
# Mechanical properties :
#
#
# Convention : Reuss Voigt Hill
#
# Bulk Modulus (GPa) = 63.70622 67.91555 65.81089
# Shear Modulus (GPa) = 24.25660 29.29662 26.77661
#
# Velocity S-wave (km/s) = 3.51894 3.86728 3.69721
# Velocity P-wave (km/s) = 7.00231 7.38998 7.19876
#
# Compressibility (1/GPa) = 0.01569705
#
# Stress axis : x y z
#
# Youngs Moduli (GPa) = 87.46722 86.43666 83.56447
#
# Poissons Ratio (x) = 0.30202 0.31378
# Poissons Ratio (y) = 0.30562 0.19945
# Poissons Ratio (z) = 0.32844 0.20631
#
# Static dielectric constant tensor:
#      x y z
#    x 3.765730 0.000000 0.035210 
#    y 0.000000 3.370340 0.000000 
#    z 0.035210 0.000000 3.723330 
# 
# 
# High freq. dielectric constant tensor:
#      x y z
#    x 1.776360 0.000000 0.003920 
#    y 0.000000 1.726840 0.000000 
#    z 0.003920 0.000000 1.771790 
# 
# From -- ./inp_files/75867.got.cif
#   From: 2010.06.25/outbox.cif.g09.slc.cpg/sg12_38_cif.got.tgz:75867.got - 2010.06.28 00:19:55.
