data_PCOD8113057
_publ_section_title
;
Structure prediction by ZEFSAII (Michael W. Deem and Ramdas Pophale) SiO2 
 PCOD8113057
Probable space group: C 2/M
;
_chemical_formula_sum "Si O2"
_cell_formula_units_Z 36
_cell_length_a 11.564568
_cell_length_b 19.302371
_cell_length_c 7.916466
_cell_angle_alpha 90.000000
_cell_angle_beta 117.779896
_cell_angle_gamma 90.000000
_cell_volume 1563.469193
_symmetry_space_group_name_H-M "C 2/M"
_symmetry_group_IT_number 12
_symmetry_cell_setting 'monoclinic'
loop_
_space_group_symop_operation_xyz
x,y,z
-x,y,-z
-x,-y,-z
x,-y,z
1/2+x,1/2+y,z
1/2-x,1/2+y,-z
1/2-x,1/2-y,-z
1/2+x,1/2-y,z
loop_
_atom_site_type_symbol
_atom_site_label
_atom_site_fract_x
_atom_site_fract_y
_atom_site_fract_z
Si Si1 0.358304 0.077836 0.445346
Si Si2 0.645513 0.075738 0.160298
Si Si3 0.098655 0.843159 0.212751
Si Si4 0.757103 0.722167 0.819164
Si Si5 0.000000 0.189551 0.500000
O O1 0.500000 0.111449 0.500000
O O2 0.342421 0.077003 0.632735
O O3 0.237975 0.119415 0.281054
O O4 0.353502 0.000000 0.366561
O O5 0.731522 0.139227 0.153158
O O6 0.694588 0.000000 0.127043
O O7 0.500000 0.088957 0.000000
O O8 0.126216 0.760398 0.203459
O O9 0.038170 0.856123 0.358682
O O10 0.000000 0.870014 0.000000
O O11 0.622239 0.738152 0.629372
O O12 0.750000 0.750000 0.000000
#
# Coordination Sequence:
#
# PCOD8113057 Si02
#       5
#     8   8   8   8   4
#     4  10  24  45  70 104 145 191 240 296 364 435
#     4  10  23  43  68 101 137 185 239 292 360 429
#     4  12  26  45  72 106 142 190 244 301 370 429
#     4  12  26  43  70 104 142 185 241 298 367 434
#     4  12  26  46  67 104 141 190 236 296 372 430
#
# _framework density 23.025718999999999
#
# number of rings (size 3 to 8) (size 9 to 14) (size 15 to 20)
#    0.000    0.889    4.444    1.333    4.667    0.444 
#    0.000    2.222    0.000    0.000    0.000    0.000 
#    0.000    0.000    0.000    0.000    0.000    0.000 
#
# Total GULP energy -223106.026608 kJ/mol
# GULP energy per Si atom -12394.779256 kJ/mol
# Density = 2.297331 g / cm^3
# Si number density = 23.025719 Si / 1000 Ang^3
#
#
#
# Elastic Constant Matrix: (Units=GPa)
#
#
# Indices 1 2 3 4 5 6 
#
# 1 121.0845 54.3867 60.4624 0.0000 7.7624 0.0000
# 2 54.3867 126.6705 41.1947 0.0000 6.1243 0.0000
# 3 60.4624 41.1947 173.4808 0.0000 19.8935 0.0000
# 4 0.0000 0.0000 0.0000 28.9520 0.0000 7.2875
# 5 7.7624 6.1243 19.8935 0.0000 50.9601 0.0000
# 6 0.0000 0.0000 0.0000 7.2875 0.0000 40.9714
#
#
#
# Elastic Compliance Matrix: (Units=1/GPa)
#
#
# Indices 1 2 3 4 5 6 
#
# 1 0.011587 -0.003967 -0.003087 0.000000 -0.000083 0.000000
# 2 -0.003967 0.009916 -0.000947 0.000000 -0.000218 0.000000
# 3 -0.003087 -0.000947 0.007326 0.000000 -0.002276 0.000000
# 4 0.000000 0.000000 0.000000 0.036159 0.000000 -0.006431
# 5 -0.000083 -0.000218 -0.002276 0.000000 0.020550 0.000000
# 6 0.000000 0.000000 0.000000 -0.006431 0.000000 0.025551
#
#
# Mechanical properties :
#
#
# Convention : Reuss Voigt Hill
#
# Bulk Modulus (GPa) = 77.95802 81.48038 79.71920
# Shear Modulus (GPa) = 38.06088 41.85617 39.95853
#
# Velocity S-wave (km/s) = 4.07009 4.26819 4.17032
# Velocity P-wave (km/s) = 7.48451 7.73004 7.60826
#
# Compressibility (1/GPa) = 0.01282742
#
# Stress axis : x y z
#
# Youngs Moduli (GPa) = 86.30105 100.84345 136.49882
#
# Poissons Ratio (x) = 0.40006 0.42136
# Poissons Ratio (y) = 0.34237 0.12928
# Poissons Ratio (z) = 0.26640 0.09551
#
# Static dielectric constant tensor:
#      x y z
#    x 4.165530 0.000000 0.221680 
#    y 0.000000 4.796000 0.000000 
#    z 0.221680 0.000000 4.433050 
# 
# 
# High freq. dielectric constant tensor:
#      x y z
#    x 1.901400 0.000000 0.008760 
#    y 0.000000 1.890800 0.000000 
#    z 0.008760 0.000000 1.935010 
# 
# From -- ./inp_files/48994.got.cif
#   From: 2010.06.25/outbox.cif.g09.slc.cpg/sg12_25_cif.got.tgz:48994.got - 2010.06.28 00:19:55.
