data_PCOD8113042
_publ_section_title
;
Structure prediction by ZEFSAII (Michael W. Deem and Ramdas Pophale) SiO2 
 PCOD8113042
Probable space group: C 2/M
;
_chemical_formula_sum "Si O2"
_cell_formula_units_Z 48
_cell_length_a 18.597464
_cell_length_b 28.133900
_cell_length_c 8.663900
_cell_angle_alpha 90.000000
_cell_angle_beta 150.019526
_cell_angle_gamma 90.000000
_cell_volume 2265.221365
_symmetry_space_group_name_H-M "C 2/M"
_symmetry_group_IT_number 12
_symmetry_cell_setting 'monoclinic'
loop_
_space_group_symop_operation_xyz
x,y,z
-x,y,-z
-x,-y,-z
x,-y,z
1/2+x,1/2+y,z
1/2-x,1/2+y,-z
1/2-x,1/2-y,-z
1/2+x,1/2-y,z
loop_
_atom_site_type_symbol
_atom_site_label
_atom_site_fract_x
_atom_site_fract_y
_atom_site_fract_z
Si Si1 0.557453 0.945571 0.277988
Si Si2 0.961235 0.203564 0.105546
Si Si3 0.252244 0.725269 0.174885
Si Si4 0.616892 0.555086 0.103223
Si Si5 0.612254 0.384150 0.835097
Si Si6 0.613364 0.128845 0.831073
O O1 0.720580 0.925184 0.574915
O O2 0.457518 0.910859 0.192147
O O3 0.552426 0.000000 0.334313
O O4 0.500000 0.945031 0.000000
O O5 0.090088 0.220478 0.457742
O O6 0.881572 0.157311 0.025807
O O7 0.000000 0.193510 0.000000
O O8 0.842762 0.244733 0.883753
O O9 0.250000 0.750000 0.000000
O O10 0.184245 0.672697 0.051697
O O11 0.618933 0.500000 0.138809
O O12 0.500000 0.579162 0.000000
O O13 0.563587 0.567714 0.831513
O O14 0.500000 0.367568 0.500000
O O15 0.763858 0.396731 0.040437
O O16 0.500000 0.150435 0.500000
#
# Coordination Sequence:
#
# PCOD8113042 Si02
#       6
#     8   8   8   8   8   8
#     4  10  24  44  66  97 135 176 225 281 337 400
#     4  12  26  44  67  98 134 175 225 280 338 407
#     4  12  24  46  69  97 134 176 224 280 341 406
#     4  10  23  43  67  95 134 178 220 276 340 401
#     4  12  24  43  65  96 134 176 221 278 339 397
#     4  12  24  42  69  98 130 177 226 274 339 399
#
# _framework density 21.189982000000001
#
# number of rings (size 3 to 8) (size 9 to 14) (size 15 to 20)
#    0.000    0.667    5.000    2.500    2.333    3.333 
#    0.000    0.000    0.000    0.000    0.000    0.000 
#    0.000    0.000    0.000    0.000    0.000    0.000 
#
# Total GULP energy -297478.016999 kJ/mol
# GULP energy per Si atom -12394.917375 kJ/mol
# Density = 2.114175 g / cm^3
# Si number density = 21.189982 Si / 1000 Ang^3
#
#
#
# Elastic Constant Matrix: (Units=GPa)
#
#
# Indices 1 2 3 4 5 6 
#
# 1 161.3116 53.7493 51.9464 0.0000 23.3569 0.0000
# 2 53.7493 52.3244 38.5764 0.0000 16.5357 0.0000
# 3 51.9464 38.5764 89.8058 0.0000 11.7824 0.0000
# 4 0.0000 0.0000 0.0000 36.6832 0.0000 -0.5692
# 5 23.3569 16.5357 11.7824 0.0000 41.5446 0.0000
# 6 0.0000 0.0000 0.0000 -0.5692 0.0000 51.1365
#
#
#
# Elastic Compliance Matrix: (Units=1/GPa)
#
#
# Indices 1 2 3 4 5 6 
#
# 1 0.009758 -0.008023 -0.001971 0.000000 -0.001734 0.000000
# 2 -0.008023 0.037402 -0.010453 0.000000 -0.007412 0.000000
# 3 -0.001971 -0.010453 0.016695 0.000000 0.000534 0.000000
# 4 0.000000 0.000000 0.000000 0.027265 0.000000 0.000303
# 5 -0.001734 -0.007412 0.000534 0.000000 0.027844 0.000000
# 6 0.000000 0.000000 0.000000 0.000303 0.000000 0.019559
#
#
# Mechanical properties :
#
#
# Convention : Reuss Voigt Hill
#
# Bulk Modulus (GPa) = 43.55046 65.77623 54.66334
# Shear Modulus (GPa) = 26.72797 36.48416 31.60606
#
# Velocity S-wave (km/s) = 3.55540 4.15392 3.86626
# Velocity P-wave (km/s) = 6.11976 7.35631 6.76634
#
# Compressibility (1/GPa) = 0.02296187
#
# Stress axis : x y z
#
# Youngs Moduli (GPa) = 102.47867 26.73672 59.89807
#
# Poissons Ratio (x) = 0.21451 0.11803
# Poissons Ratio (y) = 0.82220 0.62611
# Poissons Ratio (z) = 0.20194 0.27947
#
# Static dielectric constant tensor:
#      x y z
#    x 4.053000 0.000000 0.177390 
#    y 0.000000 3.843680 0.000000 
#    z 0.177390 0.000000 3.980570 
# 
# 
# High freq. dielectric constant tensor:
#      x y z
#    x 1.841810 0.000000 0.011630 
#    y 0.000000 1.831960 0.000000 
#    z 0.011630 0.000000 1.838630 
# 
# From -- ./inp_files/80826.got.cif
#   From: 2010.06.25/outbox.cif.g09.slc.cpg/sg12_41_cif.got.tgz:80826.got - 2010.06.28 00:19:55.
