data_PCOD8113545
_publ_section_title
;
Structure prediction by ZEFSAII (Michael W. Deem and Ramdas Pophale) SiO2 
 PCOD8113545
Probable space group: C 2/M
;
_chemical_formula_sum "Si O2"
_cell_formula_units_Z 48
_cell_length_a 20.083389
_cell_length_b 28.055753
_cell_length_c 8.869239
_cell_angle_alpha 90.000000
_cell_angle_beta 153.891948
_cell_angle_gamma 90.000000
_cell_volume 2199.188625
_symmetry_space_group_name_H-M "C 2/M"
_symmetry_group_IT_number 12
_symmetry_cell_setting 'monoclinic'
loop_
_space_group_symop_operation_xyz
x,y,z
-x,y,-z
-x,-y,-z
x,-y,z
1/2+x,1/2+y,z
1/2-x,1/2+y,-z
1/2-x,1/2-y,-z
1/2+x,1/2-y,z
loop_
_atom_site_type_symbol
_atom_site_label
_atom_site_fract_x
_atom_site_fract_y
_atom_site_fract_z
Si Si1 0.663370 0.860527 0.779770
Si Si2 0.098104 0.553967 0.427508
Si Si3 0.770703 0.446606 0.625317
Si Si4 0.167593 0.861181 0.573026
Si Si5 0.361836 0.219178 0.825357
Si Si6 0.414182 0.297704 0.169697
O O1 0.500000 0.841054 0.500000
O O2 0.645261 0.909229 0.651402
O O3 0.771912 0.873339 0.138471
O O4 0.745088 0.818528 0.850431
O O5 0.115576 0.500000 0.525219
O O6 0.207249 0.561452 0.507079
O O7 0.926269 0.563292 0.029960
O O8 0.712576 0.500000 0.538202
O O9 0.645791 0.410117 0.435852
O O10 0.287625 0.829600 0.726579
O O11 0.006054 0.835467 0.254839
O O12 0.250000 0.250000 0.500000
O O13 0.500000 0.204668 0.000000
O O14 0.407798 0.248079 0.068410
O O15 0.500000 0.287191 0.500000
#
# Coordination Sequence:
#
# PCOD8113545 Si02
#       6
#     8   8   8   8   8   8
#     4  11  23  37  65  93 119 172 218 260 320 385
#     4   9  19  36  59  95 130 162 215 273 318 374
#     4   9  19  37  63  95 130 166 209 268 325 382
#     4  11  24  42  63  94 132 170 209 265 328 380
#     4  12  27  45  69  98 126 172 219 267 321 382
#     4  10  26  48  61  92 139 170 210 270 326 386
#
# _framework density 21.826232000000001
#
# number of rings (size 3 to 8) (size 9 to 14) (size 15 to 20)
#    0.000    1.667    3.333    1.000    7.000    4.333 
#    0.000    0.833    0.000    5.000    0.000    0.000 
#    0.000    0.000    0.000    0.000    0.000    0.000 
#
# Total GULP energy -297677.063449 kJ/mol
# GULP energy per Si atom -12403.210977 kJ/mol
# Density = 2.177655 g / cm^3
# Si number density = 21.826232 Si / 1000 Ang^3
#
#
#
# Elastic Constant Matrix: (Units=GPa)
#
#
# Indices 1 2 3 4 5 6 
#
# 1 124.8176 65.3735 26.9635 0.0000 16.6283 0.0000
# 2 65.3735 118.1219 22.9691 0.0000 -1.1134 0.0000
# 3 26.9635 22.9691 51.8668 0.0000 5.4438 0.0000
# 4 0.0000 0.0000 0.0000 16.8568 0.0000 -13.6996
# 5 16.6283 -1.1134 5.4438 0.0000 35.7063 0.0000
# 6 0.0000 0.0000 0.0000 -13.6996 0.0000 37.0594
#
#
#
# Elastic Compliance Matrix: (Units=1/GPa)
#
#
# Indices 1 2 3 4 5 6 
#
# 1 0.012911 -0.006578 -0.003198 0.000000 -0.005730 0.000000
# 2 -0.006578 0.012645 -0.002585 0.000000 0.003852 0.000000
# 3 -0.003198 -0.002585 0.022296 0.000000 -0.001991 0.000000
# 4 0.000000 0.000000 0.000000 0.084799 0.000000 0.031347
# 5 -0.005730 0.003852 -0.001991 0.000000 0.031098 0.000000
# 6 0.000000 0.000000 0.000000 0.031347 0.000000 0.038572
#
#
# Mechanical properties :
#
#
# Convention : Reuss Voigt Hill
#
# Bulk Modulus (GPa) = 43.22965 58.37986 50.80476
# Shear Modulus (GPa) = 21.29913 29.89119 25.59516
#
# Velocity S-wave (km/s) = 3.12725 3.70470 3.42815
# Velocity P-wave (km/s) = 5.73488 6.71605 6.24477
#
# Compressibility (1/GPa) = 0.02313227
#
# Stress axis : x y z
#
# Youngs Moduli (GPa) = 77.45417 79.08227 44.85116
#
# Poissons Ratio (x) = 0.52018 0.14341
# Poissons Ratio (y) = 0.50947 0.11592
# Poissons Ratio (z) = 0.24766 0.20440
#
# Static dielectric constant tensor:
#      x y z
#    x 4.176880 0.000000 0.041740 
#    y 0.000000 4.487120 0.000000 
#    z 0.041740 0.000000 3.750970 
# 
# 
# High freq. dielectric constant tensor:
#      x y z
#    x 1.870900 0.000000 -0.006080 
#    y 0.000000 1.862990 0.000000 
#    z -0.006080 0.000000 1.839390 
# 
# From -- ./inp_files/91264.got.cif
#   From: 2010.06.25/outbox.cif.g09.slc.cpg/sg12_46_cif.got.tgz:91264.got - 2010.06.28 00:19:55.
