data_PCOD8113447
_publ_section_title
;
Structure prediction by ZEFSAII (Michael W. Deem and Ramdas Pophale) SiO2 
 PCOD8113447
Probable space group: C 2/M
;
_chemical_formula_sum "Si O2"
_cell_formula_units_Z 44
_cell_length_a 8.495065
_cell_length_b 21.477061
_cell_length_c 12.185194
_cell_angle_alpha 90.000000
_cell_angle_beta 71.615177
_cell_angle_gamma 90.000000
_cell_volume 2109.704960
_symmetry_space_group_name_H-M "C 2/M"
_symmetry_group_IT_number 12
_symmetry_cell_setting 'monoclinic'
loop_
_space_group_symop_operation_xyz
x,y,z
-x,y,-z
-x,-y,-z
x,-y,z
1/2+x,1/2+y,z
1/2-x,1/2+y,-z
1/2-x,1/2-y,-z
1/2+x,1/2-y,z
loop_
_atom_site_type_symbol
_atom_site_label
_atom_site_fract_x
_atom_site_fract_y
_atom_site_fract_z
Si Si1 0.692300 0.309331 0.944094
Si Si2 0.500000 0.122146 0.500000
Si Si3 0.406798 0.329507 0.631333
Si Si4 0.617540 0.931257 0.076920
Si Si5 0.268799 0.704920 0.317797
Si Si6 0.644059 0.929464 0.683779
O O1 0.755607 0.375604 0.975663
O O2 0.752940 0.301581 0.806817
O O3 0.500000 0.312533 0.000000
O O4 0.750000 0.250000 0.000000
O O5 0.638082 0.162675 0.409461
O O6 0.403429 0.080446 0.432883
O O7 0.500000 0.346260 0.500000
O O8 0.541004 0.310924 0.693883
O O9 0.272033 0.275484 0.638761
O O10 0.300815 0.389243 0.690520
O O11 0.515048 0.913294 0.207935
O O12 0.703047 0.000000 0.074241
O O13 0.500000 0.936104 0.000000
O O14 0.700579 0.000000 0.689062
#
# Coordination Sequence:
#
# PCOD8113447 Si02
#       6
#     8   4   8   8   8   8
#     4  12  27  44  69 101 136 175 229 291 338 397
#     4  12  21  46  72 100 135 174 224 280 340 410
#     4  12  24  41  64  97 136 174 221 276 338 406
#     4  10  24  46  69  95 133 183 228 276 343 409
#     4  12  25  42  68 101 133 176 223 283 349 401
#     4  11  25  44  68  98 138 182 225 276 336 408
#
# _framework density 20.855996999999999
#
# number of rings (size 3 to 8) (size 9 to 14) (size 15 to 20)
#    0.000    0.545    4.545    3.545    7.636    0.727 
#    0.000    0.909    0.000    0.000    0.000    0.000 
#    0.000    0.000    0.000    0.000    0.000    0.000 
#
# Total GULP energy -272837.379524 kJ/mol
# GULP energy per Si atom -12401.699069 kJ/mol
# Density = 2.080853 g / cm^3
# Si number density = 20.855997 Si / 1000 Ang^3
#
#
#
# Elastic Constant Matrix: (Units=GPa)
#
#
# Indices 1 2 3 4 5 6 
#
# 1 128.7162 81.4033 26.5231 0.0000 -6.3032 0.0000
# 2 81.4033 169.4420 36.5870 0.0000 -19.2902 0.0000
# 3 26.5231 36.5870 102.3082 0.0000 2.5698 0.0000
# 4 0.0000 0.0000 0.0000 27.5505 0.0000 -10.3400
# 5 -6.3032 -19.2902 2.5698 0.0000 31.8571 0.0000
# 6 0.0000 0.0000 0.0000 -10.3400 0.0000 55.8322
#
#
#
# Elastic Compliance Matrix: (Units=1/GPa)
#
#
# Indices 1 2 3 4 5 6 
#
# 1 0.011290 -0.005309 -0.001006 0.000000 -0.000900 0.000000
# 2 -0.005309 0.009465 -0.002130 0.000000 0.004853 0.000000
# 3 -0.001006 -0.002130 0.010856 0.000000 -0.002365 0.000000
# 4 0.000000 0.000000 0.000000 0.039008 0.000000 0.007224
# 5 -0.000900 0.004853 -0.002365 0.000000 0.034341 0.000000
# 6 0.000000 0.000000 0.000000 0.007224 0.000000 0.019249
#
#
# Mechanical properties :
#
#
# Convention : Reuss Voigt Hill
#
# Bulk Modulus (GPa) = 67.93095 76.61037 72.27066
# Shear Modulus (GPa) = 34.24514 40.11150 37.17832
#
# Velocity S-wave (km/s) = 4.05653 4.39026 4.22669
# Velocity P-wave (km/s) = 7.38801 7.90645 7.65162
#
# Compressibility (1/GPa) = 0.01472083
#
# Stress axis : x y z
#
# Youngs Moduli (GPa) = 88.57530 105.65493 92.11241
#
# Poissons Ratio (x) = 0.56094 0.09263
# Poissons Ratio (y) = 0.47026 0.19622
# Poissons Ratio (z) = 0.08907 0.22507
#
# Static dielectric constant tensor:
#      x y z
#    x 3.851640 0.000000 0.227640 
#    y 0.000000 3.607740 0.000000 
#    z 0.227640 0.000000 4.769960 
# 
# 
# High freq. dielectric constant tensor:
#      x y z
#    x 1.811710 0.000000 0.000370 
#    y 0.000000 1.826450 0.000000 
#    z 0.000370 0.000000 1.833020 
# 
# From -- ./inp_files/120613.got.cif
#   From: 2010.06.25/outbox.cif.g09.slc.cpg/sg12_61_cif.got.tgz:120613.got - 2010.06.28 00:19:55.
