data_PCOD8113869
_publ_section_title
;
Structure prediction by ZEFSAII (Michael W. Deem and Ramdas Pophale) SiO2 
 PCOD8113869
Probable space group: C 2/M
;
_chemical_formula_sum "Si O2"
_cell_formula_units_Z 48
_cell_length_a 27.215445
_cell_length_b 10.011747
_cell_length_c 10.021387
_cell_angle_alpha 90.000000
_cell_angle_beta 74.305200
_cell_angle_gamma 90.000000
_cell_volume 2628.763195
_symmetry_space_group_name_H-M "C 2/M"
_symmetry_group_IT_number 12
_symmetry_cell_setting 'monoclinic'
loop_
_space_group_symop_operation_xyz
x,y,z
-x,y,-z
-x,-y,-z
x,-y,z
1/2+x,1/2+y,z
1/2-x,1/2+y,-z
1/2-x,1/2-y,-z
1/2+x,1/2-y,z
loop_
_atom_site_type_symbol
_atom_site_label
_atom_site_fract_x
_atom_site_fract_y
_atom_site_fract_z
Si Si1 0.286113 0.153256 0.145172
Si Si2 0.982726 0.500000 0.665029
Si Si3 0.198773 0.650807 0.180870
Si Si4 0.393816 0.256485 0.097478
Si Si5 0.588991 0.754476 0.224801
Si Si6 0.470447 0.500000 0.657647
Si Si7 0.453302 0.000000 0.133924
Si Si8 0.043289 0.000000 0.855937
O O1 0.236871 0.242064 0.220821
O O2 0.333810 0.235433 0.170822
O O3 0.281697 0.000000 0.203767
O O4 0.292168 0.145130 0.982814
O O5 0.950915 0.371535 0.727621
O O6 0.000000 0.500000 0.500000
O O7 0.032540 0.500000 0.720898
O O8 0.206421 0.500000 0.233172
O O9 0.141887 0.701750 0.254130
O O10 0.419650 0.125171 0.128807
O O11 0.418580 0.375321 0.163293
O O12 0.403773 0.282213 0.934775
O O13 0.566814 0.626018 0.313337
O O14 0.500000 0.500000 0.500000
O O15 0.513486 0.500000 0.739463
O O16 0.500000 0.000000 0.000000
O O17 0.000000 0.000000 0.000000
#
# Coordination Sequence:
#
# PCOD8113869 Si02
#       8
#     8   4   8   8   8   4   4   4
#     4   9  18  31  49  83 116 143 177 228 282 334
#     4  12  24  36  55  83 113 147 190 234 274 331
#     4   9  18  31  52  79 114 147 180 223 284 335
#     4  11  20  34  57  85 113 147 188 231 278 336
#     4  11  20  37  56  81 114 150 189 231 279 334
#     4  12  26  40  55  81 117 153 190 232 278 333
#     4  12  20  34  59  79 109 151 186 228 284 328
#     4  12  22  38  55  83 111 151 194 226 278 338
#
# _framework density 18.259537000000002
#
# number of rings (size 3 to 8) (size 9 to 14) (size 15 to 20)
#    0.000    1.333    5.000    2.000    2.333    0.000 
#    0.000    0.000    0.000    0.000    0.000    7.000 
#    0.000    0.000    0.000    0.000    0.000    0.000 
#
# Total GULP energy -297549.026147 kJ/mol
# GULP energy per Si atom -12397.876089 kJ/mol
# Density = 1.821798 g / cm^3
# Si number density = 18.259537 Si / 1000 Ang^3
#
#
#
# Elastic Constant Matrix: (Units=GPa)
#
#
# Indices 1 2 3 4 5 6 
#
# 1 124.2209 57.6586 19.5938 0.0000 -10.0613 0.0000
# 2 57.6586 153.5368 9.5511 0.0000 -13.8675 0.0000
# 3 19.5938 9.5511 50.3772 0.0000 3.4229 0.0000
# 4 0.0000 0.0000 0.0000 -15.0188 0.0000 13.7280
# 5 -10.0613 -13.8675 3.4229 0.0000 15.7797 0.0000
# 6 0.0000 0.0000 0.0000 13.7280 0.0000 35.8670
#
#
#
# Elastic Compliance Matrix: (Units=1/GPa)
#
#
# Indices 1 2 3 4 5 6 
#
# 1 0.010562 -0.003310 -0.003796 0.000000 0.004649 0.000000
# 2 -0.003310 0.008275 -0.000641 0.000000 0.005301 0.000000
# 3 -0.003796 -0.000641 0.021975 0.000000 -0.007751 0.000000
# 4 0.000000 0.000000 0.000000 -0.049326 0.000000 0.018880
# 5 0.004649 0.005301 -0.007751 0.000000 0.072676 0.000000
# 6 0.000000 0.000000 0.000000 0.018880 0.000000 0.020655
#
#
# Mechanical properties :
#
#
# Convention : Reuss Voigt Hill
#
# Bulk Modulus (GPa) = 39.50103 55.74911 47.62507
# Shear Modulus (GPa) = 45.97643 23.41434 34.69538
#
# Velocity S-wave (km/s) = 5.02335 3.58482 4.36377
# Velocity P-wave (km/s) = 7.43811 6.90886 7.17836
#
# Compressibility (1/GPa) = 0.02531580
#
# Stress axis : x y z
#
# Youngs Moduli (GPa) = 94.67848 120.84696 45.50617
#
# Poissons Ratio (x) = 0.40005 0.17275
# Poissons Ratio (y) = 0.31342 0.02919
# Poissons Ratio (z) = 0.35942 0.07752
#
# Static dielectric constant tensor:
#      x y z
#    x 3.697700 0.000000 -0.147390 
#    y 0.000000 3.602920 0.000000 
#    z -0.147390 0.000000 2.872580 
# 
# 
# High freq. dielectric constant tensor:
#      x y z
#    x 1.723410 0.000000 -0.008280 
#    y 0.000000 1.731940 0.000000 
#    z -0.008280 0.000000 1.647350 
# 
# From -- ./inp_files/94963.got.cif
#   From: 2010.06.25/outbox.cif.g09.slc.cpg/sg12_48_cif.got.tgz:94963.got - 2010.06.28 00:19:55.
