data_PCOD8113059
_publ_section_title
;
Structure prediction by ZEFSAII (Michael W. Deem and Ramdas Pophale) SiO2 
 PCOD8113059
Probable space group: C 2/M
;
_chemical_formula_sum "Si O2"
_cell_formula_units_Z 40
_cell_length_a 19.607732
_cell_length_b 18.431470
_cell_length_c 5.248325
_cell_angle_alpha 90.000000
_cell_angle_beta 65.712278
_cell_angle_gamma 90.000000
_cell_volume 1728.863283
_symmetry_space_group_name_H-M "C 2/M"
_symmetry_group_IT_number 12
_symmetry_cell_setting 'monoclinic'
loop_
_space_group_symop_operation_xyz
x,y,z
-x,y,-z
-x,-y,-z
x,-y,z
1/2+x,1/2+y,z
1/2-x,1/2+y,-z
1/2-x,1/2-y,-z
1/2+x,1/2-y,z
loop_
_atom_site_type_symbol
_atom_site_label
_atom_site_fract_x
_atom_site_fract_y
_atom_site_fract_z
Si Si1 0.730394 0.000000 0.293372
Si Si2 0.953598 0.644752 0.828003
Si Si3 0.807860 0.278353 0.112805
Si Si4 0.541148 0.585809 0.684361
Si Si5 0.698768 0.634597 0.583231
Si Si6 0.132161 0.500000 0.944651
O O1 0.781305 0.927339 0.239365
O O2 0.694864 0.000000 0.068951
O O3 0.669203 0.000000 0.609703
O O4 0.922698 0.567105 0.950009
O O5 0.000000 0.639680 0.500000
O O6 0.885668 0.698990 0.867044
O O7 0.000000 0.674555 0.000000
O O8 0.772751 0.350552 0.299207
O O9 0.825125 0.212467 0.273763
O O10 0.750000 0.250000 0.000000
O O11 0.500000 0.618881 0.500000
O O12 0.534636 0.500000 0.692884
O O13 0.627993 0.607697 0.530050
O O14 0.500000 0.616939 0.000000
#
# Coordination Sequence:
#
# PCOD8113059 Si02
#       6
#     4   8   8   8   8   4
#     4  12  24  43  80 109 134 191 243 296 360 418
#     4  12  27  48  74 108 148 190 239 294 364 427
#     4  11  27  48  72 103 144 193 238 296 349 434
#     4  10  23  43  68 103 138 175 228 292 353 411
#     4  11  25  46  73 103 141 186 245 294 354 428
#     4  12  24  45  74 109 148 183 241 300 351 428
#
# _framework density 23.136588
#
# number of rings (size 3 to 8) (size 9 to 14) (size 15 to 20)
#    0.000    0.800    3.000    3.000    8.400    0.800 
#    0.000    0.000    0.000    0.000    0.000    0.000 
#    0.000    0.000    0.000    0.000    0.000    0.000 
#
# Total GULP energy -248040.680963 kJ/mol
# GULP energy per Si atom -12402.034048 kJ/mol
# Density = 2.308393 g / cm^3
# Si number density = 23.136588 Si / 1000 Ang^3
#
#
#
# Elastic Constant Matrix: (Units=GPa)
#
#
# Indices 1 2 3 4 5 6 
#
# 1 135.2038 22.2139 30.5308 0.0000 3.9265 0.0000
# 2 22.2139 57.5260 7.2386 0.0000 -10.1161 0.0000
# 3 30.5308 7.2386 93.3060 0.0000 -1.9983 0.0000
# 4 0.0000 0.0000 0.0000 7.5849 0.0000 11.8918
# 5 3.9265 -10.1161 -1.9983 0.0000 47.2574 0.0000
# 6 0.0000 0.0000 0.0000 11.8918 0.0000 32.4077
#
#
#
# Elastic Compliance Matrix: (Units=1/GPa)
#
#
# Indices 1 2 3 4 5 6 
#
# 1 0.008556 -0.003246 -0.002580 0.000000 -0.001515 0.000000
# 2 -0.003246 0.019458 -0.000353 0.000000 0.004420 0.000000
# 3 -0.002580 -0.000353 0.011603 0.000000 0.000629 0.000000
# 4 0.000000 0.000000 0.000000 0.310435 0.000000 -0.113913
# 5 -0.001515 0.004420 0.000629 0.000000 0.022259 0.000000
# 6 0.000000 0.000000 0.000000 -0.113913 0.000000 0.072657
#
#
# Mechanical properties :
#
#
# Convention : Reuss Voigt Hill
#
# Bulk Modulus (GPa) = 36.68456 45.11140 40.89798
# Shear Modulus (GPa) = 10.72012 32.52017 21.62015
#
# Velocity S-wave (km/s) = 2.15487 3.75316 3.06021
# Velocity P-wave (km/s) = 4.69908 6.19046 5.49560
#
# Compressibility (1/GPa) = 0.02725942
#
# Stress axis : x y z
#
# Youngs Moduli (GPa) = 116.87467 51.39151 86.18768
#
# Poissons Ratio (x) = 0.16680 0.22239
# Poissons Ratio (y) = 0.37934 0.03041
# Poissons Ratio (z) = 0.30157 0.01814
#
# Static dielectric constant tensor:
#      x y z
#    x 4.296310 0.000000 -0.023640 
#    y 0.000000 -12.494970 0.000000 
#    z -0.023640 0.000000 3.740870 
# 
# 
# High freq. dielectric constant tensor:
#      x y z
#    x 1.928570 0.000000 -0.001570 
#    y 0.000000 1.924180 0.000000 
#    z -0.001570 0.000000 1.908090 
# 
# From -- ./inp_files/15182.got.cif
#   From: 2010.06.25/outbox.cif.g09.slc.cpg/sg12_8_cif.got.tgz:15182.got - 2010.06.28 00:19:55.
