data_PCOD8113360
_publ_section_title
;
Structure prediction by ZEFSAII (Michael W. Deem and Ramdas Pophale) SiO2 
 PCOD8113360
Probable space group: C 2/M
;
_chemical_formula_sum "Si O2"
_cell_formula_units_Z 28
_cell_length_a 5.091955
_cell_length_b 20.791535
_cell_length_c 11.731498
_cell_angle_alpha 90.000000
_cell_angle_beta 116.425895
_cell_angle_gamma 90.000000
_cell_volume 1112.231954
_symmetry_space_group_name_H-M "C 2/M"
_symmetry_group_IT_number 12
_symmetry_cell_setting 'monoclinic'
loop_
_space_group_symop_operation_xyz
x,y,z
-x,y,-z
-x,-y,-z
x,-y,z
1/2+x,1/2+y,z
1/2-x,1/2+y,-z
1/2-x,1/2-y,-z
1/2+x,1/2-y,z
loop_
_atom_site_type_symbol
_atom_site_label
_atom_site_fract_x
_atom_site_fract_y
_atom_site_fract_z
Si Si1 0.654890 0.363208 0.915284
Si Si2 0.050156 0.208692 0.341942
Si Si3 0.220922 0.000000 0.866369
Si Si4 0.000000 0.607702 0.500000
Si Si5 0.684651 0.000000 0.381358
O O1 0.573170 0.312188 0.803575
O O2 0.539335 0.434997 0.858735
O O3 0.500000 0.339790 0.000000
O O4 0.000000 0.363649 0.000000
O O5 0.284709 0.266414 0.369891
O O6 0.205074 0.149537 0.435062
O O7 0.312706 0.000000 0.752941
O O8 0.500000 0.000000 0.000000
O O9 0.986567 0.563654 0.610436
O O10 0.000000 0.000000 0.500000
#
# Coordination Sequence:
#
# PCOD8113360 Si02
#       5
#     8   8   4   4   4
#     4  11  25  46  75 109 151 193 248 308 374 446
#     4  12  28  47  75 105 148 201 252 304 365 438
#     4  10  24  43  78 110 148 188 242 310 384 442
#     4  11  28  46  78 108 150 191 252 308 380 443
#     4  11  25  47  78 112 149 193 243 315 385 447
#
# _framework density 25.174606000000001
#
# number of rings (size 3 to 8) (size 9 to 14) (size 15 to 20)
#    0.000    0.857    0.000    4.714   16.000    4.571 
#    0.000    0.000    0.000    0.000    0.000    0.000 
#    0.000    0.000    0.000    0.000    0.000    0.000 
#
# Total GULP energy -173681.895454 kJ/mol
# GULP energy per Si atom -12405.849675 kJ/mol
# Density = 2.511731 g / cm^3
# Si number density = 25.174606 Si / 1000 Ang^3
#
#
#
# Elastic Constant Matrix: (Units=GPa)
#
#
# Indices 1 2 3 4 5 6 
#
# 1 92.1587 8.5390 10.2964 0.0000 5.3475 0.0000
# 2 8.5390 108.9350 21.1148 0.0000 15.8128 0.0000
# 3 10.2964 21.1148 119.0856 0.0000 -4.0823 0.0000
# 4 0.0000 0.0000 0.0000 14.7980 0.0000 -1.6494
# 5 5.3475 15.8128 -4.0823 0.0000 41.0236 0.0000
# 6 0.0000 0.0000 0.0000 -1.6494 0.0000 27.1756
#
#
#
# Elastic Compliance Matrix: (Units=1/GPa)
#
#
# Indices 1 2 3 4 5 6 
#
# 1 0.011077 -0.000496 -0.000916 0.000000 -0.001344 0.000000
# 2 -0.000496 0.010174 -0.001900 0.000000 -0.004046 0.000000
# 3 -0.000916 -0.001900 0.008873 0.000000 0.001735 0.000000
# 4 0.000000 0.000000 0.000000 0.068037 0.000000 0.004129
# 5 -0.001344 -0.004046 0.001735 0.000000 0.026284 0.000000
# 6 0.000000 0.000000 0.000000 0.004129 0.000000 0.037048
#
#
# Mechanical properties :
#
#
# Convention : Reuss Voigt Hill
#
# Bulk Modulus (GPa) = 42.55081 44.45328 43.50204
# Shear Modulus (GPa) = 28.41720 35.28137 31.84929
#
# Velocity S-wave (km/s) = 3.36341 3.74768 3.56073
# Velocity P-wave (km/s) = 5.65883 6.03516 5.85002
#
# Compressibility (1/GPa) = 0.02350132
#
# Stress axis : x y z
#
# Youngs Moduli (GPa) = 90.27636 98.28770 112.70356
#
# Poissons Ratio (x) = 0.04872 0.10323
# Poissons Ratio (y) = 0.04475 0.21412
# Poissons Ratio (z) = 0.08269 0.18673
#
# Static dielectric constant tensor:
#      x y z
#    x 4.373680 0.000000 0.075220 
#    y 0.000000 5.208420 0.000000 
#    z 0.075220 0.000000 4.622750 
# 
# 
# High freq. dielectric constant tensor:
#      x y z
#    x 1.999140 0.000000 -0.001940 
#    y 0.000000 2.019010 0.000000 
#    z -0.001940 0.000000 2.023830 
# 
# From -- ./inp_files/114480.got.cif
#   From: 2010.06.25/outbox.cif.g09.slc.cpg/sg12_58_cif.got.tgz:114480.got - 2010.06.28 00:19:55.
