data_PCOD8113879
_publ_section_title
;
Structure prediction by ZEFSAII (Michael W. Deem and Ramdas Pophale) SiO2 
 PCOD8113879
Probable space group: C 2/M
;
_chemical_formula_sum "Si O2"
_cell_formula_units_Z 64
_cell_length_a 26.786333
_cell_length_b 20.289506
_cell_length_c 17.930515
_cell_angle_alpha 90.000000
_cell_angle_beta 20.056270
_cell_angle_gamma 90.000000
_cell_volume 3341.944626
_symmetry_space_group_name_H-M "C 2/M"
_symmetry_group_IT_number 12
_symmetry_cell_setting 'monoclinic'
loop_
_space_group_symop_operation_xyz
x,y,z
-x,y,-z
-x,-y,-z
x,-y,z
1/2+x,1/2+y,z
1/2-x,1/2+y,-z
1/2-x,1/2-y,-z
1/2+x,1/2-y,z
loop_
_atom_site_type_symbol
_atom_site_label
_atom_site_fract_x
_atom_site_fract_y
_atom_site_fract_z
Si Si1 0.900766 0.312012 0.931346
Si Si2 0.352492 0.620641 0.161498
Si Si3 0.446149 0.690126 0.355608
Si Si4 0.444464 0.925114 0.363683
Si Si5 0.398177 0.574509 0.933261
Si Si6 0.103096 0.374676 0.284793
Si Si7 0.851412 0.271879 0.164196
Si Si8 0.897723 0.222700 0.714709
O O1 0.999165 0.249352 0.773082
O O2 0.989830 0.378678 0.792434
O O3 0.860264 0.311034 0.074781
O O4 0.754635 0.312990 0.087057
O O5 0.226806 0.588407 0.387578
O O6 0.311126 0.696314 0.202203
O O7 0.500000 0.614502 0.000000
O O8 0.365725 0.582209 0.065884
O O9 0.471999 0.622258 0.275131
O O10 0.274044 0.697045 0.608739
O O11 0.526924 0.687487 0.321543
O O12 0.523943 0.912134 0.329794
O O13 0.469187 0.000000 0.303672
O O14 0.447191 0.500000 0.848325
O O15 0.254965 0.590432 0.087008
O O16 0.131953 0.298743 0.222998
O O17 0.000000 0.380016 0.500000
O O18 0.000000 0.278127 0.000000
O O19 0.000000 0.216315 0.500000
#
# Coordination Sequence:
#
# PCOD8113879 Si02
#       8
#     8   8   8   8   8   8   8   8
#     4  12  22  40  65  92 122 161 203 250 302 360
#     4  11  23  41  63  91 126 160 200 254 311 361
#     4  12  22  40  65  92 122 161 203 250 302 360
#     4  12  25  39  60  92 129 165 199 244 305 371
#     4  12  25  39  60  92 129 165 199 244 305 371
#     4  11  20  34  60  94 127 157 194 247 312 367
#     4  11  24  42  66  95 120 153 209 265 301 342
#     4  11  20  36  65  93 123 155 200 252 306 360
#
# _framework density 19.150525999999999
#
# number of rings (size 3 to 8) (size 9 to 14) (size 15 to 20)
#    0.000    0.500    7.500    1.875    0.000    3.000 
#    0.000    0.625    0.000    1.500    0.000    0.000 
#    0.000    0.000    0.000    0.000    0.000    0.000 
#
# Total GULP energy -397041.437204 kJ/mol
# GULP energy per Si atom -12407.544913 kJ/mol
# Density = 1.910694 g / cm^3
# Si number density = 19.150526 Si / 1000 Ang^3
#
#
#
# Elastic Constant Matrix: (Units=GPa)
#
#
# Indices 1 2 3 4 5 6 
#
# 1 28.2762 12.1376 21.7710 0.0059 -7.1492 -0.0039
# 2 12.1376 138.2942 53.1034 -0.0045 2.0500 0.0038
# 3 21.7710 53.1034 114.2065 -0.0062 -4.1413 0.0083
# 4 0.0059 -0.0045 -0.0062 23.4266 0.0025 9.8938
# 5 -7.1492 2.0500 -4.1413 0.0025 24.6010 -0.0044
# 6 -0.0039 0.0038 0.0083 9.8938 -0.0044 5.3134
#
#
#
# Elastic Compliance Matrix: (Units=1/GPa)
#
#
# Indices 1 2 3 4 5 6 
#
# 1 0.044664 -0.001205 -0.007525 -0.000178 0.011813 0.000388
# 2 -0.001205 0.008886 -0.003966 0.000010 -0.001758 -0.000022
# 3 -0.007525 -0.003966 0.012041 0.000062 0.000170 -0.000138
# 4 -0.000178 0.000010 0.000062 0.199844 -0.000129 -0.372118
# 5 0.011813 -0.001758 0.000170 -0.000129 0.044257 0.000286
# 6 0.000388 -0.000022 -0.000138 -0.372118 0.000286 0.881105
#
#
# Mechanical properties :
#
#
# Convention : Reuss Voigt Hill
#
# Bulk Modulus (GPa) = 24.87723 50.53345 37.70534
# Shear Modulus (GPa) = 4.06640 23.58585 13.82613
#
# Velocity S-wave (km/s) = 1.45877 3.51323 2.68987
# Velocity P-wave (km/s) = 3.98195 6.54995 5.42023
#
# Compressibility (1/GPa) = 0.04019741
#
# Stress axis : x y z
#
# Youngs Moduli (GPa) = 22.38944 112.54231 83.05159
#
# Poissons Ratio (x) = 0.13566 0.62500
# Poissons Ratio (y) = 0.02699 0.32934
# Poissons Ratio (z) = 0.16849 0.44629
#
# Static dielectric constant tensor:
#      x y z
#    x 3.462310 -0.000010 0.000820 
#    y -0.000010 3.442590 0.000010 
#    z 0.000820 0.000010 3.647890 
# 
# 
# High freq. dielectric constant tensor:
#      x y z
#    x 1.745080 0.000000 -0.000300 
#    y 0.000000 1.725700 0.000000 
#    z -0.000300 0.000000 1.756370 
# 
# From -- ./inp_files/294138.got.cif
#   From: 2010.06.25/outbox.cif.g09.slc.cpg/sg12_148_cif.got.tgz:294138.got - 2010.06.28 00:19:55.
