data_PCOD8113403
_publ_section_title
;
Structure prediction by ZEFSAII (Michael W. Deem and Ramdas Pophale) SiO2 
 PCOD8113403
Probable space group: C 2/M
;
_chemical_formula_sum "Si O2"
_cell_formula_units_Z 56
_cell_length_a 9.314136
_cell_length_b 24.718888
_cell_length_c 11.952296
_cell_angle_alpha 90.000000
_cell_angle_beta 68.692164
_cell_angle_gamma 90.000000
_cell_volume 2563.726479
_symmetry_space_group_name_H-M "C 2/M"
_symmetry_group_IT_number 12
_symmetry_cell_setting 'monoclinic'
loop_
_space_group_symop_operation_xyz
x,y,z
-x,y,-z
-x,-y,-z
x,-y,z
1/2+x,1/2+y,z
1/2-x,1/2+y,-z
1/2-x,1/2-y,-z
1/2+x,1/2-y,z
loop_
_atom_site_type_symbol
_atom_site_label
_atom_site_fract_x
_atom_site_fract_y
_atom_site_fract_z
Si Si1 0.648059 0.061521 0.017453
Si Si2 0.330595 0.858415 0.570692
Si Si3 0.118226 0.227362 0.116454
Si Si4 0.160898 0.845388 0.408051
Si Si5 0.258637 0.564515 0.226821
Si Si6 0.788680 0.243147 0.271379
Si Si7 0.094915 0.891923 0.189374
O O1 0.698741 0.086425 0.123207
O O2 0.602806 0.000000 0.054575
O O3 0.500000 0.090725 0.000000
O O4 0.788157 0.063579 0.890751
O O5 0.500000 0.834643 0.500000
O O6 0.246864 0.879211 0.481287
O O7 0.351203 0.909499 0.647931
O O8 0.220161 0.811879 0.655017
O O9 0.141422 0.252309 0.232955
O O10 0.133119 0.162859 0.111653
O O11 0.939745 0.243614 0.145998
O O12 0.250000 0.250000 0.000000
O O13 0.279400 0.796115 0.351623
O O14 0.125412 0.884286 0.312919
O O15 0.000000 0.821862 0.500000
O O16 0.258163 0.500000 0.233987
O O17 0.426613 0.587367 0.207287
#
# Coordination Sequence:
#
# PCOD8113403 Si02
#       7
#     8   8   8   8   8   8   8
#     4  10  24  44  70  98 127 169 221 277 336 401
#     4  12  24  40  67  96 131 181 226 280 335 388
#     4  11  24  38  60  98 135 172 218 271 335 397
#     4  11  22  42  64  96 134 175 230 273 322 401
#     4  11  24  45  70  98 131 174 228 277 337 403
#     4  11  22  41  62  92 133 180 224 267 327 405
#     4  11  23  42  66  95 135 176 218 275 333 403
#
# _framework density 21.843202999999999
#
# number of rings (size 3 to 8) (size 9 to 14) (size 15 to 20)
#    0.000    1.000    2.857    3.857    4.000    4.857 
#    0.000    2.143    0.000    0.000    0.000    0.000 
#    0.000    0.000    0.000    0.000    0.000    0.000 
#
# Total GULP energy -347085.197812 kJ/mol
# GULP energy per Si atom -12395.899922 kJ/mol
# Density = 2.179349 g / cm^3
# Si number density = 21.843203 Si / 1000 Ang^3
#
#
#
# Elastic Constant Matrix: (Units=GPa)
#
#
# Indices 1 2 3 4 5 6 
#
# 1 130.5842 34.5230 55.4425 0.0000 10.1637 0.0000
# 2 34.5230 70.4967 50.1415 0.0000 14.0990 0.0000
# 3 55.4425 50.1415 120.8018 0.0000 2.3253 0.0000
# 4 0.0000 0.0000 0.0000 27.8322 0.0000 -2.3398
# 5 10.1637 14.0990 2.3253 0.0000 53.7238 0.0000
# 6 0.0000 0.0000 0.0000 -2.3398 0.0000 30.9280
#
#
#
# Elastic Compliance Matrix: (Units=1/GPa)
#
#
# Indices 1 2 3 4 5 6 
#
# 1 0.009829 -0.001964 -0.003673 0.000000 -0.001185 0.000000
# 2 -0.001964 0.021911 -0.008097 0.000000 -0.005028 0.000000
# 3 -0.003673 -0.008097 0.013281 0.000000 0.002245 0.000000
# 4 0.000000 0.000000 0.000000 0.036160 0.000000 0.002736
# 5 -0.001185 -0.005028 0.002245 0.000000 0.020060 0.000000
# 6 0.000000 0.000000 0.000000 0.002736 0.000000 0.032540
#
#
# Mechanical properties :
#
#
# Convention : Reuss Voigt Hill
#
# Bulk Modulus (GPa) = 56.96603 66.89963 61.93283
# Shear Modulus (GPa) = 29.92222 34.61516 32.26869
#
# Velocity S-wave (km/s) = 3.70518 3.98516 3.84772
# Velocity P-wave (km/s) = 6.66638 7.20202 6.93937
#
# Compressibility (1/GPa) = 0.01755432
#
# Stress axis : x y z
#
# Youngs Moduli (GPa) = 101.74210 45.63864 75.29389
#
# Poissons Ratio (x) = 0.08962 0.27656
# Poissons Ratio (y) = 0.19980 0.60963
# Poissons Ratio (z) = 0.37370 0.36952
#
# Static dielectric constant tensor:
#      x y z
#    x 4.134570 0.000000 0.190450 
#    y 0.000000 3.669380 0.000000 
#    z 0.190450 0.000000 4.264910 
# 
# 
# High freq. dielectric constant tensor:
#      x y z
#    x 1.879200 0.000000 0.005830 
#    y 0.000000 1.829560 0.000000 
#    z 0.005830 0.000000 1.868890 
# 
# From -- ./inp_files/124248.got.cif
#   From: 2010.06.25/outbox.cif.g09.slc.cpg/sg12_63_cif.got.tgz:124248.got - 2010.06.28 00:19:55.
