data_PCOD8113911
_publ_section_title
;
Structure prediction by ZEFSAII (Michael W. Deem and Ramdas Pophale) SiO2 
 PCOD8113911
Probable space group: C 2/M
;
_chemical_formula_sum "Si O2"
_cell_formula_units_Z 48
_cell_length_a 13.066464
_cell_length_b 32.565504
_cell_length_c 10.859569
_cell_angle_alpha 90.000000
_cell_angle_beta 147.172912
_cell_angle_gamma 90.000000
_cell_volume 2505.026483
_symmetry_space_group_name_H-M "C 2/M"
_symmetry_group_IT_number 12
_symmetry_cell_setting 'monoclinic'
loop_
_space_group_symop_operation_xyz
x,y,z
-x,y,-z
-x,-y,-z
x,-y,z
1/2+x,1/2+y,z
1/2-x,1/2+y,-z
1/2-x,1/2-y,-z
1/2+x,1/2-y,z
loop_
_atom_site_type_symbol
_atom_site_label
_atom_site_fract_x
_atom_site_fract_y
_atom_site_fract_z
Si Si1 0.220650 0.500000 0.368822
Si Si2 0.485739 0.567367 0.340375
Si Si3 0.192060 0.705016 0.403384
Si Si4 0.559622 0.655842 0.810361
Si Si5 0.639352 0.802619 0.754070
Si Si6 0.796391 0.784520 0.244880
Si Si7 0.694989 0.000000 0.051995
O O1 0.332258 0.541244 0.519671
O O2 0.194474 0.500000 0.197466
O O3 0.012902 0.500000 0.219328
O O4 0.500000 0.577497 0.500000
O O5 0.470238 0.608283 0.245921
O O6 0.301625 0.541142 0.118593
O O7 0.250000 0.750000 0.500000
O O8 0.351087 0.674394 0.616036
O O9 0.166176 0.702049 0.228974
O O10 0.986671 0.695254 0.249129
O O11 0.678532 0.677667 0.821770
O O12 0.693765 0.663067 0.065839
O O13 0.500000 0.812605 0.500000
O O14 0.759176 0.759597 0.870519
O O15 0.000000 0.771742 0.500000
#
# Coordination Sequence:
#
# PCOD8113911 Si02
#       7
#     4   8   8   8   8   8   4
#     4   8  15  29  52  77 105 137 172 197 255 337
#     4   9  17  31  50  76 112 138 167 214 258 317
#     4  11  20  36  54  74 100 141 183 225 273 313
#     4  11  22  34  52  79 109 143 180 226 268 309
#     4  11  22  38  51  72 102 142 190 228 265 316
#     4   9  18  34  51  73 101 135 184 224 263 319
#     4   8  15  29  52  77 103 144 163 196 267 323
#
# _framework density 19.161473000000001
#
# number of rings (size 3 to 8) (size 9 to 14) (size 15 to 20)
#    0.000    2.167    5.000    3.000    0.000    2.667 
#    0.000    3.333    0.000    0.000    0.000    2.333 
#    0.000    6.667    0.000    0.000    0.000    0.000 
#
# Total GULP energy -297397.401744 kJ/mol
# GULP energy per Si atom -12391.558406 kJ/mol
# Density = 1.911786 g / cm^3
# Si number density = 19.161473 Si / 1000 Ang^3
#
#
#
# Elastic Constant Matrix: (Units=GPa)
#
#
# Indices 1 2 3 4 5 6 
#
# 1 61.8509 14.3377 19.5164 0.0000 13.8020 0.0000
# 2 14.3377 151.9031 64.4499 0.0000 14.4170 0.0000
# 3 19.5164 64.4499 103.7606 0.0000 21.4607 0.0000
# 4 0.0000 0.0000 0.0000 28.1008 0.0000 -3.8423
# 5 13.8020 14.4170 21.4607 0.0000 26.0638 0.0000
# 6 0.0000 0.0000 0.0000 -3.8423 0.0000 19.2015
#
#
#
# Elastic Compliance Matrix: (Units=1/GPa)
#
#
# Indices 1 2 3 4 5 6 
#
# 1 0.018607 -0.000287 -0.001587 0.000000 -0.008388 0.000000
# 2 -0.000287 0.008948 -0.005438 0.000000 -0.000320 0.000000
# 3 -0.001587 -0.005438 0.015087 0.000000 -0.008575 0.000000
# 4 0.000000 0.000000 0.000000 0.036587 0.000000 0.007321
# 5 -0.008388 -0.000320 -0.008575 0.000000 0.050047 0.000000
# 6 0.000000 0.000000 0.000000 0.007321 0.000000 0.053544
#
#
# Mechanical properties :
#
#
# Convention : Reuss Voigt Hill
#
# Bulk Modulus (GPa) = 35.68986 57.12471 46.40729
# Shear Modulus (GPa) = 24.18012 29.28728 26.73370
#
# Velocity S-wave (km/s) = 3.55620 3.91378 3.73926
# Velocity P-wave (km/s) = 5.96056 7.09229 6.55091
#
# Compressibility (1/GPa) = 0.02801916
#
# Stress axis : x y z
#
# Youngs Moduli (GPa) = 53.74357 111.76079 66.28247
#
# Poissons Ratio (x) = 0.03207 0.10517
# Poissons Ratio (y) = 0.01542 0.36042
# Poissons Ratio (z) = 0.08527 0.60771
#
# Static dielectric constant tensor:
#      x y z
#    x 33.713530 0.000000 -5.869850 
#    y 0.000000 3.278650 0.000000 
#    z -5.869850 0.000000 5.334610 
# 
# 
# High freq. dielectric constant tensor:
#      x y z
#    x 1.718010 0.000000 0.020000 
#    y 0.000000 1.718210 0.000000 
#    z 0.020000 0.000000 1.755180 
# 
# From -- ./inp_files/150344.got.cif
#   From: 2010.06.25/outbox.cif.g09.slc.cpg/sg12_76_cif.got.tgz:150344.got - 2010.06.28 00:19:55.
