data_PCOD8113001
_publ_section_title
;
Structure prediction by ZEFSAII (Michael W. Deem and Ramdas Pophale) SiO2 
 PCOD8113001
Probable space group: C 2/M
;
_chemical_formula_sum "Si O2"
_cell_formula_units_Z 48
_cell_length_a 9.220027
_cell_length_b 15.459638
_cell_length_c 29.304411
_cell_angle_alpha 90.000000
_cell_angle_beta 144.828129
_cell_angle_gamma 90.000000
_cell_volume 2406.081991
_symmetry_space_group_name_H-M "C 2/M"
_symmetry_group_IT_number 12
_symmetry_cell_setting 'monoclinic'
loop_
_space_group_symop_operation_xyz
x,y,z
-x,y,-z
-x,-y,-z
x,-y,z
1/2+x,1/2+y,z
1/2-x,1/2+y,-z
1/2-x,1/2-y,-z
1/2+x,1/2-y,z
loop_
_atom_site_type_symbol
_atom_site_label
_atom_site_fract_x
_atom_site_fract_y
_atom_site_fract_z
Si Si1 0.475673 0.817154 0.545778
Si Si2 0.224124 0.598081 0.422548
Si Si3 0.631512 0.899339 0.081521
Si Si4 0.049544 0.719542 0.302650
Si Si5 0.012863 0.744529 0.192032
Si Si6 0.205678 0.594599 0.919180
O O1 0.500000 0.850250 0.500000
O O2 0.250000 0.750000 0.500000
O O3 0.431029 0.895070 0.570101
O O4 0.757399 0.786128 0.626230
O O5 0.500000 0.644659 0.500000
O O6 0.272530 0.500000 0.422241
O O7 0.072985 0.634339 0.340013
O O8 0.421437 0.881936 0.065517
O O9 0.868166 0.836619 0.152851
O O10 0.722946 0.000000 0.104723
O O11 0.500000 0.874719 0.000000
O O12 0.120193 0.711605 0.268052
O O13 0.762306 0.750424 0.225930
O O14 0.840454 0.667814 0.129703
O O15 0.106449 0.500000 0.877030
O O16 0.500000 0.589774 0.000000
#
# Coordination Sequence:
#
# PCOD8113001 Si02
#       6
#     8   8   8   8   8   8
#     4  12  20  40  69  89 121 168 213 256 307 383
#     4  11  24  42  64  93 125 161 214 269 316 378
#     4  10  23  43  65  90 126 171 213 256 310 378
#     4  12  23  39  62  94 123 167 204 254 322 376
#     4  12  24  39  64  95 128 166 212 258 321 383
#     4  10  23  43  65  91 124 165 214 263 309 371
#
# _framework density 19.949445999999998
#
# number of rings (size 3 to 8) (size 9 to 14) (size 15 to 20)
#    0.000    0.833    6.667    0.500    2.333    3.000 
#    0.000    0.833    0.000    0.000    0.000    0.000 
#    0.000    0.000    0.000    0.000    0.000    0.000 
#
# Total GULP energy -297427.131840 kJ/mol
# GULP energy per Si atom -12392.797160 kJ/mol
# Density = 1.990404 g / cm^3
# Si number density = 19.949446 Si / 1000 Ang^3
#
#
#
# Elastic Constant Matrix: (Units=GPa)
#
#
# Indices 1 2 3 4 5 6 
#
# 1 60.1217 28.1536 21.1730 0.0004 7.0452 0.0000
# 2 28.1536 86.5396 44.3449 0.0001 -3.2057 0.0000
# 3 21.1730 44.3449 94.0142 0.0003 -5.3814 0.0000
# 4 0.0004 0.0001 0.0003 19.4008 0.0001 2.8184
# 5 7.0452 -3.2057 -5.3814 0.0001 49.9788 0.0000
# 6 0.0000 0.0000 0.0000 2.8184 0.0000 22.8579
#
#
#
# Elastic Compliance Matrix: (Units=1/GPa)
#
#
# Indices 1 2 3 4 5 6 
#
# 1 0.020454 -0.005698 -0.002118 0.000000 -0.003477 0.000000
# 2 -0.005698 0.016828 -0.006587 0.000000 0.001173 0.000000
# 3 -0.002118 -0.006587 0.014302 0.000000 0.001416 0.000000
# 4 0.000000 0.000000 0.000000 0.052484 0.000000 -0.006471
# 5 -0.003477 0.001173 0.001416 0.000000 0.020726 0.000000
# 6 0.000000 0.000000 0.000000 -0.006471 0.000000 0.044546
#
#
# Mechanical properties :
#
#
# Convention : Reuss Voigt Hill
#
# Bulk Modulus (GPa) = 43.90152 47.55761 45.72956
# Shear Modulus (GPa) = 24.30257 28.24777 26.27517
#
# Velocity S-wave (km/s) = 3.49407 3.76702 3.63311
# Velocity P-wave (km/s) = 6.19130 6.54304 6.36960
#
# Compressibility (1/GPa) = 0.02277826
#
# Stress axis : x y z
#
# Youngs Moduli (GPa) = 48.88926 59.42525 69.92157
#
# Poissons Ratio (x) = 0.33860 0.14809
# Poissons Ratio (y) = 0.27856 0.46058
# Poissons Ratio (z) = 0.10355 0.39144
#
# Static dielectric constant tensor:
#      x y z
#    x 3.963110 0.000000 -0.474700 
#    y 0.000000 3.640220 0.000000 
#    z -0.474700 0.000000 5.060640 
# 
# 
# High freq. dielectric constant tensor:
#      x y z
#    x 1.796800 0.000000 -0.001340 
#    y 0.000000 1.763630 0.000000 
#    z -0.001340 0.000000 1.781060 
# 
# From -- ./inp_files/251428.got.cif
#   From: 2010.06.25/outbox.cif.g09.slc.cpg/sg12_126_cif.got.tgz:251428.got - 2010.06.28 00:19:55.
