data_PCOD8113848
_publ_section_title
;
Structure prediction by ZEFSAII (Michael W. Deem and Ramdas Pophale) SiO2 
 PCOD8113848
Probable space group: C 2/M
;
_chemical_formula_sum "Si O2"
_cell_formula_units_Z 48
_cell_length_a 11.157083
_cell_length_b 22.641998
_cell_length_c 17.550781
_cell_angle_alpha 90.000000
_cell_angle_beta 31.662980
_cell_angle_gamma 90.000000
_cell_volume 2327.322028
_symmetry_space_group_name_H-M "C 2/M"
_symmetry_group_IT_number 12
_symmetry_cell_setting 'monoclinic'
loop_
_space_group_symop_operation_xyz
x,y,z
-x,y,-z
-x,-y,-z
x,-y,z
1/2+x,1/2+y,z
1/2-x,1/2+y,-z
1/2-x,1/2-y,-z
1/2+x,1/2-y,z
loop_
_atom_site_type_symbol
_atom_site_label
_atom_site_fract_x
_atom_site_fract_y
_atom_site_fract_z
Si Si1 0.881191 0.934712 0.804915
Si Si2 0.446656 0.751024 0.608974
Si Si3 0.747205 0.932712 0.605740
Si Si4 0.481996 0.900948 0.119621
Si Si5 0.700026 0.346860 0.559776
Si Si6 0.019975 0.735957 0.077619
O O1 0.718910 0.932671 0.818512
O O2 0.079308 0.885325 0.691506
O O3 0.992397 0.000000 0.747616
O O4 0.731009 0.925395 0.962163
O O5 0.500000 0.718314 0.500000
O O6 0.525459 0.705331 0.630924
O O7 0.574239 0.813844 0.534748
O O8 0.181908 0.766791 0.765059
O O9 0.559573 0.912955 0.769271
O O10 0.717614 0.890401 0.550501
O O11 0.000000 0.924999 0.500000
O O12 0.700282 0.000000 0.606220
O O13 0.473200 0.832978 0.103409
O O14 0.250000 0.750000 0.000000
O O15 0.000000 0.758190 0.000000
#
# Coordination Sequence:
#
# PCOD8113848 Si02
#       6
#     8   8   8   8   8   8
#     4  11  20  35  58  90 126 165 213 271 327 381
#     4  11  25  41  62  89 127 173 215 263 328 390
#     4  11  20  33  56  90 124 162 207 263 322 382
#     4  11  20  35  57  91 130 164 210 267 330 383
#     4  11  22  38  62  89 126 159 211 263 326 389
#     4  12  26  43  68  97 134 174 222 269 325 394
#
# _framework density 20.624562999999998
#
# number of rings (size 3 to 8) (size 9 to 14) (size 15 to 20)
#    0.000    0.833    5.000    4.000    9.333    0.000 
#    0.000    0.000    0.000    2.000    0.000    1.167 
#    0.000    0.000    0.000    0.000    0.000    0.000 
#
# Total GULP energy -297552.029955 kJ/mol
# GULP energy per Si atom -12398.001248 kJ/mol
# Density = 2.057762 g / cm^3
# Si number density = 20.624563 Si / 1000 Ang^3
#
#
#
# Elastic Constant Matrix: (Units=GPa)
#
#
# Indices 1 2 3 4 5 6 
#
# 1 66.9070 14.8459 41.8729 0.0583 -6.3226 0.0176
# 2 14.8459 111.7642 49.8151 0.1700 -10.8710 0.0178
# 3 41.8729 49.8151 164.8168 0.2428 -0.6250 0.0625
# 4 0.0583 0.1700 0.2428 -23.7838 0.0206 -3.0973
# 5 -6.3226 -10.8710 -0.6250 0.0206 30.2790 -0.0105
# 6 0.0176 0.0178 0.0625 -3.0973 -0.0105 16.5138
#
#
#
# Elastic Compliance Matrix: (Units=1/GPa)
#
#
# Indices 1 2 3 4 5 6 
#
# 1 0.018177 -0.000003 -0.004603 0.000001 0.003700 0.000001
# 2 -0.000003 0.010760 -0.003237 0.000046 0.003796 0.000012
# 3 -0.004603 -0.003237 0.008208 0.000050 -0.001954 -0.000015
# 4 0.000001 0.000046 0.000050 -0.041042 0.000043 -0.007698
# 5 0.003700 0.003796 -0.001954 0.000043 0.035121 0.000030
# 6 0.000001 0.000012 -0.000015 -0.007698 0.000030 0.059112
#
#
# Mechanical properties :
#
#
# Convention : Reuss Voigt Hill
#
# Bulk Modulus (GPa) = 46.60186 61.83953 54.22070
# Shear Modulus (GPa) = 44.17976 20.39876 32.28926
#
# Velocity S-wave (km/s) = 4.63330 3.14833 3.96102
# Velocity P-wave (km/s) = 7.16014 6.57758 6.87503
#
# Compressibility (1/GPa) = 0.02145837
#
# Stress axis : x y z
#
# Youngs Moduli (GPa) = 55.01402 92.93946 121.83711
#
# Poissons Ratio (x) = 0.00028 0.56083
# Poissons Ratio (y) = 0.00017 0.39438
# Poissons Ratio (z) = 0.25324 0.30084
#
# Static dielectric constant tensor:
#      x y z
#    x 3.597340 -0.000150 0.737980 
#    y -0.000150 3.841540 -0.000270 
#    z 0.737980 -0.000270 5.574610 
# 
# 
# High freq. dielectric constant tensor:
#      x y z
#    x 1.753900 0.000000 0.019820 
#    y 0.000000 1.814820 0.000000 
#    z 0.019820 0.000000 1.826850 
# 
# From -- ./inp_files/160425.got.cif
#   From: 2010.06.25/outbox.cif.g09.slc.cpg/sg12_81_cif.got.tgz:160425.got - 2010.06.28 00:19:55.
