data_PCOD8113918
_publ_section_title
;
Structure prediction by ZEFSAII (Michael W. Deem and Ramdas Pophale) SiO2 
 PCOD8113918
Probable space group: C 2/M
;
_chemical_formula_sum "Si O2"
_cell_formula_units_Z 56
_cell_length_a 18.595145
_cell_length_b 20.175275
_cell_length_c 16.268486
_cell_angle_alpha 90.000000
_cell_angle_beta 152.544298
_cell_angle_gamma 90.000000
_cell_volume 2814.013306
_symmetry_space_group_name_H-M "C 2/M"
_symmetry_group_IT_number 12
_symmetry_cell_setting 'monoclinic'
loop_
_space_group_symop_operation_xyz
x,y,z
-x,y,-z
-x,-y,-z
x,-y,z
1/2+x,1/2+y,z
1/2-x,1/2+y,-z
1/2-x,1/2-y,-z
1/2+x,1/2-y,z
loop_
_atom_site_type_symbol
_atom_site_label
_atom_site_fract_x
_atom_site_fract_y
_atom_site_fract_z
Si Si1 0.673054 0.352510 0.950501
Si Si2 0.150744 0.717786 0.012164
Si Si3 0.353316 0.577198 0.637541
Si Si4 0.110471 0.425206 0.718048
Si Si5 0.785339 0.620762 0.342092
Si Si6 0.200645 0.689722 0.389804
Si Si7 0.179231 0.768301 0.653468
O O1 0.653958 0.296855 0.001451
O O2 0.516869 0.392948 0.774782
O O3 0.724799 0.318404 0.919282
O O4 0.800941 0.405058 0.109857
O O5 0.977894 0.692465 0.819182
O O6 0.209418 0.700885 0.163376
O O7 0.340455 0.500000 0.600371
O O8 0.334297 0.586118 0.716489
O O9 0.220775 0.619609 0.456423
O O10 0.051269 0.500000 0.666297
O O11 0.223204 0.418044 0.753034
O O12 0.960220 0.379326 0.555946
O O13 0.744074 0.697307 0.288837
O O14 0.250000 0.750000 0.500000
O O15 0.308786 0.689330 0.418001
O O16 0.000000 0.763785 0.500000
#
# Coordination Sequence:
#
# PCOD8113918 Si02
#       7
#     8   8   8   8   8   8   8
#     4  11  22  38  61  87 123 166 212 265 318 375
#     4  11  23  40  65  92 125 162 216 269 322 379
#     4  12  25  41  61  92 131 170 214 267 327 390
#     4  11  21  35  54  85 128 174 213 250 309 391
#     4  11  20  36  58  86 128 173 209 254 318 387
#     4  12  24  41  68  94 126 172 220 271 322 382
#     4  12  22  39  66  97 133 166 212 276 331 376
#
# _framework density 19.900404000000002
#
# number of rings (size 3 to 8) (size 9 to 14) (size 15 to 20)
#    0.000    0.571    5.714    4.286    2.000    0.571 
#    0.000    2.143    0.000    6.429    0.000    0.000 
#    0.000    0.000    0.000    0.000    0.000    0.000 
#
# Total GULP energy -347284.554595 kJ/mol
# GULP energy per Si atom -12403.019807 kJ/mol
# Density = 1.985511 g / cm^3
# Si number density = 19.900404 Si / 1000 Ang^3
#
#
#
# Elastic Constant Matrix: (Units=GPa)
#
#
# Indices 1 2 3 4 5 6 
#
# 1 87.5853 34.8632 24.5434 0.0000 -5.8255 0.0000
# 2 34.8632 101.0394 31.9089 0.0000 -3.2575 0.0000
# 3 24.5434 31.9089 109.6976 0.0000 -6.9602 0.0000
# 4 0.0000 0.0000 0.0000 26.5763 0.0000 0.0181
# 5 -5.8255 -3.2575 -6.9602 0.0000 33.7023 0.0000
# 6 0.0000 0.0000 0.0000 0.0181 0.0000 21.8835
#
#
#
# Elastic Compliance Matrix: (Units=1/GPa)
#
#
# Indices 1 2 3 4 5 6 
#
# 1 0.013650 -0.004103 -0.001759 0.000000 0.001600 0.000000
# 2 -0.004103 0.012137 -0.002617 0.000000 -0.000077 0.000000
# 3 -0.001759 -0.002617 0.010371 0.000000 0.001585 0.000000
# 4 0.000000 0.000000 0.000000 0.037628 0.000000 -0.000031
# 5 0.001600 -0.000077 0.001585 0.000000 0.030268 0.000000
# 6 0.000000 0.000000 0.000000 -0.000031 0.000000 0.045697
#
#
# Mechanical properties :
#
#
# Convention : Reuss Voigt Hill
#
# Bulk Modulus (GPa) = 52.08359 53.43925 52.76142
# Shear Modulus (GPa) = 28.88364 30.23287 29.55826
#
# Velocity S-wave (km/s) = 3.81387 3.90193 3.85815
# Velocity P-wave (km/s) = 6.75449 6.87108 6.81303
#
# Compressibility (1/GPa) = 0.01919991
#
# Stress axis : x y z
#
# Youngs Moduli (GPa) = 73.26091 82.39373 96.41877
#
# Poissons Ratio (x) = 0.33804 0.16961
# Poissons Ratio (y) = 0.30057 0.25236
# Poissons Ratio (z) = 0.12887 0.21565
#
# Static dielectric constant tensor:
#      x y z
#    x 3.786520 0.000000 -0.040340 
#    y 0.000000 3.475890 0.000000 
#    z -0.040340 0.000000 3.545710 
# 
# 
# High freq. dielectric constant tensor:
#      x y z
#    x 1.779530 0.000000 0.003530 
#    y 0.000000 1.753320 0.000000 
#    z 0.003530 0.000000 1.778430 
# 
# From -- ./inp_files/75993.got.cif
#   From: 2010.06.25/outbox.cif.g09.slc.cpg/sg12_38_cif.got.tgz:75993.got - 2010.06.28 00:19:55.
