data_PCOD8113982
_publ_section_title
;
Structure prediction by ZEFSAII (Michael W. Deem and Ramdas Pophale) SiO2 
 PCOD8113982
Probable space group: C 2/M
;
_chemical_formula_sum "Si O2"
_cell_formula_units_Z 56
_cell_length_a 22.644008
_cell_length_b 13.307150
_cell_length_c 15.692172
_cell_angle_alpha 90.000000
_cell_angle_beta 143.824488
_cell_angle_gamma 90.000000
_cell_volume 2791.035088
_symmetry_space_group_name_H-M "C 2/M"
_symmetry_group_IT_number 12
_symmetry_cell_setting 'monoclinic'
loop_
_space_group_symop_operation_xyz
x,y,z
-x,y,-z
-x,-y,-z
x,-y,z
1/2+x,1/2+y,z
1/2-x,1/2+y,-z
1/2-x,1/2-y,-z
1/2+x,1/2-y,z
loop_
_atom_site_type_symbol
_atom_site_label
_atom_site_fract_x
_atom_site_fract_y
_atom_site_fract_z
Si Si1 0.919666 0.609662 0.696162
Si Si2 0.023260 0.180193 0.270259
Si Si3 0.918967 0.390529 0.504387
Si Si4 0.272265 0.616016 0.412986
Si Si5 0.559946 0.709286 0.650899
Si Si6 0.739061 0.756103 0.761053
Si Si7 0.429747 0.612700 0.996829
O O1 0.971036 0.500000 0.777397
O O2 0.994710 0.705303 0.786380
O O3 0.877009 0.605285 0.551235
O O4 0.829172 0.628875 0.654030
O O5 0.139492 0.166758 0.429592
O O6 0.959949 0.153840 0.282232
O O7 0.992032 0.107259 0.157478
O O8 0.949249 0.500000 0.506277
O O9 0.827349 0.349556 0.344138
O O10 0.017936 0.322710 0.611309
O O11 0.298676 0.500000 0.426116
O O12 0.254681 0.671035 0.303215
O O13 0.500000 0.659114 0.500000
O O14 0.679569 0.708490 0.772982
O O15 0.845924 0.801574 0.910070
O O16 0.386785 0.500000 0.930790
O O17 0.500000 0.644439 0.000000
#
# Coordination Sequence:
#
# PCOD8113982 Si02
#       7
#     8   8   8   8   8   8   8
#     4   9  18  31  55  88 112 142 195 244 293 340
#     4  11  20  39  60  84 121 153 189 243 295 341
#     4   9  17  30  55  86 112 142 186 243 296 335
#     4  11  21  34  58  87 114 154 200 243 292 342
#     4   9  18  35  59  86 113 144 196 242 291 330
#     4  11  21  38  56  81 118 154 192 241 283 340
#     4  11  26  41  58  87 121 157 191 229 294 364
#
# _framework density 20.064240999999999
#
# number of rings (size 3 to 8) (size 9 to 14) (size 15 to 20)
#    0.000    1.857    4.286    2.143    2.000    3.714 
#    0.000    2.857    0.000    2.571    0.000    0.000 
#    0.000    0.000    0.000    0.000    0.000    0.000 
#
# Total GULP energy -346929.475428 kJ/mol
# GULP energy per Si atom -12390.338408 kJ/mol
# Density = 2.001857 g / cm^3
# Si number density = 20.064241 Si / 1000 Ang^3
#
#
#
# Elastic Constant Matrix: (Units=GPa)
#
#
# Indices 1 2 3 4 5 6 
#
# 1 145.1500 23.5443 34.4532 0.0000 -10.6134 0.0000
# 2 23.5443 67.8766 19.1397 0.0000 -4.1125 0.0000
# 3 34.4532 19.1397 54.2463 0.0000 -4.8851 0.0000
# 4 0.0000 0.0000 0.0000 23.6255 0.0000 -3.2298
# 5 -10.6134 -4.1125 -4.8851 0.0000 27.4153 0.0000
# 6 0.0000 0.0000 0.0000 -3.2298 0.0000 11.0308
#
#
#
# Elastic Compliance Matrix: (Units=1/GPa)
#
#
# Indices 1 2 3 4 5 6 
#
# 1 0.008383 -0.001476 -0.004605 0.000000 0.002203 0.000000
# 2 -0.001476 0.016677 -0.004851 0.000000 0.001066 0.000000
# 3 -0.004605 -0.004851 0.023217 0.000000 0.001627 0.000000
# 4 0.000000 0.000000 0.000000 0.044092 0.000000 0.012910
# 5 0.002203 0.001066 0.001627 0.000000 0.037779 0.000000
# 6 0.000000 0.000000 0.000000 0.012910 0.000000 0.094435
#
#
# Mechanical properties :
#
#
# Convention : Reuss Voigt Hill
#
# Bulk Modulus (GPa) = 37.85904 46.83859 42.34882
# Shear Modulus (GPa) = 19.58853 25.09002 22.33928
#
# Velocity S-wave (km/s) = 3.12795 3.54006 3.34037
# Velocity P-wave (km/s) = 5.65291 6.33280 6.00249
#
# Compressibility (1/GPa) = 0.02641377
#
# Stress axis : x y z
#
# Youngs Moduli (GPa) = 119.28891 59.96305 43.07134
#
# Poissons Ratio (x) = 0.08849 0.19835
# Poissons Ratio (y) = 0.17604 0.20893
# Poissons Ratio (z) = 0.54934 0.29087
#
# Static dielectric constant tensor:
#      x y z
#    x 4.041820 0.000000 -0.116190 
#    y 0.000000 3.852000 0.000000 
#    z -0.116190 0.000000 3.192870 
# 
# 
# High freq. dielectric constant tensor:
#      x y z
#    x 1.806270 0.000000 -0.010980 
#    y 0.000000 1.783230 0.000000 
#    z -0.010980 0.000000 1.732000 
# 
# From -- ./inp_files/233725.got.cif
#   From: 2010.06.25/outbox.cif.g09.slc.cpg/sg12_117_cif.got.tgz:233725.got - 2010.06.28 00:19:55.
