data_PCOD8113377
_publ_section_title
;
Structure prediction by ZEFSAII (Michael W. Deem and Ramdas Pophale) SiO2 
 PCOD8113377
Probable space group: C 2/M
;
_chemical_formula_sum "Si O2"
_cell_formula_units_Z 24
_cell_length_a 8.606795
_cell_length_b 12.428350
_cell_length_c 11.469948
_cell_angle_alpha 90.000000
_cell_angle_beta 64.262366
_cell_angle_gamma 90.000000
_cell_volume 1105.200049
_symmetry_space_group_name_H-M "C 2/M"
_symmetry_group_IT_number 12
_symmetry_cell_setting 'monoclinic'
loop_
_space_group_symop_operation_xyz
x,y,z
-x,y,-z
-x,-y,-z
x,-y,z
1/2+x,1/2+y,z
1/2-x,1/2+y,-z
1/2-x,1/2-y,-z
1/2+x,1/2-y,z
loop_
_atom_site_type_symbol
_atom_site_label
_atom_site_fract_x
_atom_site_fract_y
_atom_site_fract_z
Si Si1 0.566824 0.825076 0.853748
Si Si2 0.280292 0.500000 0.418572
Si Si3 0.944287 0.880742 0.781704
Si Si4 0.997638 0.500000 0.694854
O O1 0.772147 0.836746 0.777233
O O2 0.508057 0.701598 0.859522
O O3 0.478829 0.894486 0.780487
O O4 0.500000 0.867342 0.000000
O O5 0.404106 0.394272 0.365601
O O6 0.148580 0.500000 0.353735
O O7 0.186184 0.500000 0.572679
O O8 0.911015 0.000000 0.848950
#
# Coordination Sequence:
#
# PCOD8113377 Si02
#       4
#     8   4   8   4
#     4  12  24  43  68 100 135 176 213 271 332 390
#     4   9  23  44  65 102 124 177 224 271 328 377
#     4  10  24  44  65  99 131 174 220 267 327 387
#     4  11  22  42  72  94 136 171 224 270 326 397
#
# _framework density 21.715523999999998
#
# number of rings (size 3 to 8) (size 9 to 14) (size 15 to 20)
#    1.000    0.333    1.667    3.500    0.000    4.667 
#    0.000    0.000    0.000    0.000    0.000    0.000 
#    0.000    0.000    0.000    0.000    0.000    0.000 
#
# Total GULP energy -148730.815616 kJ/mol
# GULP energy per Si atom -12394.234635 kJ/mol
# Density = 2.166610 g / cm^3
# Si number density = 21.715524 Si / 1000 Ang^3
#
#
#
# Elastic Constant Matrix: (Units=GPa)
#
#
# Indices 1 2 3 4 5 6 
#
# 1 100.4245 52.5981 4.8151 0.0000 -3.8157 0.0000
# 2 52.5981 140.1900 26.2344 0.0000 14.9822 0.0000
# 3 4.8151 26.2344 75.0596 0.0000 13.1210 0.0000
# 4 0.0000 0.0000 0.0000 22.5374 0.0000 -0.8300
# 5 -3.8157 14.9822 13.1210 0.0000 25.4601 0.0000
# 6 0.0000 0.0000 0.0000 -0.8300 0.0000 27.2810
#
#
#
# Elastic Compliance Matrix: (Units=1/GPa)
#
#
# Indices 1 2 3 4 5 6 
#
# 1 0.012996 -0.005452 0.000187 0.000000 0.005059 0.000000
# 2 -0.005452 0.010201 -0.002224 0.000000 -0.005674 0.000000
# 3 0.000187 -0.002224 0.015226 0.000000 -0.006510 0.000000
# 4 0.000000 0.000000 0.000000 0.044420 0.000000 0.001351
# 5 0.005059 -0.005674 -0.006510 0.000000 0.046729 0.000000
# 6 0.000000 0.000000 0.000000 0.001351 0.000000 0.036697
#
#
# Mechanical properties :
#
#
# Convention : Reuss Voigt Hill
#
# Bulk Modulus (GPa) = 42.64969 53.66326 48.15648
# Shear Modulus (GPa) = 26.44627 30.52414 28.48521
#
# Velocity S-wave (km/s) = 3.49356 3.75325 3.62573
# Velocity P-wave (km/s) = 5.99634 6.59910 6.30493
#
# Compressibility (1/GPa) = 0.02344683
#
# Stress axis : x y z
#
# Youngs Moduli (GPa) = 76.94387 98.02716 65.67715
#
# Poissons Ratio (x) = 0.53444 -0.01231
# Poissons Ratio (y) = 0.41949 0.14606
# Poissons Ratio (z) = -0.01442 0.21800
#
# Static dielectric constant tensor:
#      x y z
#    x 3.961780 0.000000 -0.274270 
#    y 0.000000 3.893660 0.000000 
#    z -0.274270 0.000000 3.689570 
# 
# 
# High freq. dielectric constant tensor:
#      x y z
#    x 1.869920 0.000000 -0.013760 
#    y 0.000000 1.850920 0.000000 
#    z -0.013760 0.000000 1.830610 
# 
# From -- ./inp_files/116775.got.cif
#   From: 2010.06.25/outbox.cif.g09.slc.cpg/sg12_59_cif.got.tgz:116775.got - 2010.06.28 00:19:55.
