data_PCOD8113125
_publ_section_title
;
Structure prediction by ZEFSAII (Michael W. Deem and Ramdas Pophale) SiO2 
 PCOD8113125
Probable space group: C 2/M
;
_chemical_formula_sum "Si O2"
_cell_formula_units_Z 40
_cell_length_a 9.328402
_cell_length_b 18.111633
_cell_length_c 11.167522
_cell_angle_alpha 90.000000
_cell_angle_beta 93.757800
_cell_angle_gamma 90.000000
_cell_volume 1882.725243
_symmetry_space_group_name_H-M "C 2/M"
_symmetry_group_IT_number 12
_symmetry_cell_setting 'monoclinic'
loop_
_space_group_symop_operation_xyz
x,y,z
-x,y,-z
-x,-y,-z
x,-y,z
1/2+x,1/2+y,z
1/2-x,1/2+y,-z
1/2-x,1/2-y,-z
1/2+x,1/2-y,z
loop_
_atom_site_type_symbol
_atom_site_label
_atom_site_fract_x
_atom_site_fract_y
_atom_site_fract_z
Si Si1 0.830313 0.826779 0.498986
Si Si2 0.216235 0.328468 0.242058
Si Si3 0.711775 0.411692 0.259867
Si Si4 0.014398 0.415356 0.871361
Si Si5 0.011278 0.798689 0.141128
O O1 0.750000 0.750000 0.500000
O O2 0.769589 0.858355 0.372505
O O3 0.788727 0.880661 0.605192
O O4 0.000000 0.814979 0.500000
O O5 0.141235 0.403424 0.194427
O O6 0.096052 0.263107 0.224605
O O7 0.347377 0.299706 0.171908
O O8 0.696136 0.500000 0.263514
O O9 0.582185 0.378132 0.173835
O O10 0.858118 0.383247 0.204374
O O11 0.050020 0.500000 0.892460
O O12 0.000000 0.375275 0.000000
O O13 0.000000 0.781581 0.000000
#
# Coordination Sequence:
#
# PCOD8113125 Si02
#       5
#     8   8   8   8   8
#     4  12  25  45  68  95 131 177 220 278 329 390
#     4  12  23  41  67  97 130 173 224 273 330 394
#     4  11  25  44  67  99 136 177 224 273 329 397
#     4  10  23  44  68  98 137 176 218 272 331 397
#     4  12  24  41  67  99 132 173 220 277 337 396
#
# _framework density 21.245799000000002
#
# number of rings (size 3 to 8) (size 9 to 14) (size 15 to 20)
#    0.000    0.600    4.000    3.600    2.800    2.400 
#    0.000    2.000    0.000    0.000    0.000    0.000 
#    0.000    0.000    0.000    0.000    0.000    0.000 
#
# Total GULP energy -247846.035026 kJ/mol
# GULP energy per Si atom -12392.301751 kJ/mol
# Density = 2.119744 g / cm^3
# Si number density = 21.245799 Si / 1000 Ang^3
#
#
#
# Elastic Constant Matrix: (Units=GPa)
#
#
# Indices 1 2 3 4 5 6 
#
# 1 157.0975 34.0956 59.8041 0.0000 -7.9458 0.0000
# 2 34.0956 79.8585 32.7466 0.0000 -0.3215 0.0000
# 3 59.8041 32.7466 151.4558 0.0000 2.1586 0.0000
# 4 0.0000 0.0000 0.0000 40.9944 0.0000 -5.2575
# 5 -7.9458 -0.3215 2.1586 0.0000 48.3017 0.0000
# 6 0.0000 0.0000 0.0000 -5.2575 0.0000 48.4990
#
#
#
# Elastic Compliance Matrix: (Units=1/GPa)
#
#
# Indices 1 2 3 4 5 6 
#
# 1 0.007949 -0.002296 -0.002662 0.000000 0.001411 0.000000
# 2 -0.002296 0.014406 -0.002205 0.000000 -0.000183 0.000000
# 3 -0.002662 -0.002205 0.008142 0.000000 -0.000817 0.000000
# 4 0.000000 0.000000 0.000000 0.024737 0.000000 0.002682
# 5 0.001411 -0.000183 -0.000817 0.000000 0.020971 0.000000
# 6 0.000000 0.000000 0.000000 0.002682 0.000000 0.020910
#
#
# Mechanical properties :
#
#
# Convention : Reuss Voigt Hill
#
# Bulk Modulus (GPa) = 61.84634 71.30049 66.57342
# Shear Modulus (GPa) = 42.79620 45.01005 43.90313
#
# Velocity S-wave (km/s) = 4.49301 4.60775 4.55074
# Velocity P-wave (km/s) = 7.48928 7.87027 7.68214
#
# Compressibility (1/GPa) = 0.01616911
#
# Stress axis : x y z
#
# Youngs Moduli (GPa) = 125.80654 69.41457 122.81553
#
# Poissons Ratio (x) = 0.15940 0.32697
# Poissons Ratio (y) = 0.28890 0.27086
# Poissons Ratio (z) = 0.33493 0.15309
#
# Static dielectric constant tensor:
#      x y z
#    x 3.963910 0.000000 -0.487370 
#    y 0.000000 3.723430 0.000000 
#    z -0.487370 0.000000 3.294790 
# 
# 
# High freq. dielectric constant tensor:
#      x y z
#    x 1.850120 0.000000 -0.001520 
#    y 0.000000 1.824900 0.000000 
#    z -0.001520 0.000000 1.852870 
# 
# From -- ./inp_files/119033.got.cif
#   From: 2010.06.25/outbox.cif.g09.slc.cpg/sg12_60_cif.got.tgz:119033.got - 2010.06.28 00:19:55.
