data_PCOD8113346
_publ_section_title
;
Structure prediction by ZEFSAII (Michael W. Deem and Ramdas Pophale) SiO2 
 PCOD8113346
Probable space group: C 2/M
;
_chemical_formula_sum "Si O2"
_cell_formula_units_Z 64
_cell_length_a 18.448734
_cell_length_b 29.357681
_cell_length_c 9.593794
_cell_angle_alpha 90.000000
_cell_angle_beta 34.835434
_cell_angle_gamma 90.000000
_cell_volume 2968.131178
_symmetry_space_group_name_H-M "C 2/M"
_symmetry_group_IT_number 12
_symmetry_cell_setting 'monoclinic'
loop_
_space_group_symop_operation_xyz
x,y,z
-x,y,-z
-x,-y,-z
x,-y,z
1/2+x,1/2+y,z
1/2-x,1/2+y,-z
1/2-x,1/2-y,-z
1/2+x,1/2-y,z
loop_
_atom_site_type_symbol
_atom_site_label
_atom_site_fract_x
_atom_site_fract_y
_atom_site_fract_z
Si Si1 0.888907 0.318619 0.272755
Si Si2 0.892698 0.574221 0.280073
Si Si3 0.887188 0.287713 0.588847
Si Si4 0.792743 0.804752 0.675760
Si Si5 0.997764 0.875594 0.659465
Si Si6 0.064688 0.549289 0.252445
Si Si7 0.220313 0.637930 0.048208
Si Si8 0.595911 0.448366 0.720496
O O1 0.882964 0.372309 0.285385
O O2 0.914026 0.298612 0.385471
O O3 0.761139 0.302783 0.396490
O O4 0.000000 0.299901 0.000000
O O5 0.748830 0.554524 0.500983
O O6 0.945636 0.560286 0.344369
O O7 0.000000 0.556032 0.000000
O O8 0.786708 0.246441 0.747380
O O9 0.859006 0.334693 0.712830
O O10 0.000000 0.265613 0.500000
O O11 0.932347 0.826708 0.439945
O O12 0.716531 0.835979 0.906056
O O13 0.062046 0.913273 0.653309
O O14 0.000000 0.895334 0.500000
O O15 0.851828 0.866307 0.923878
O O16 0.126916 0.500000 0.114373
O O17 0.170278 0.588261 0.086430
O O18 0.000000 0.545223 0.500000
O O19 0.565766 0.500000 0.721563
O O20 0.500000 0.436160 0.000000
#
# Coordination Sequence:
#
# PCOD8113346 Si02
#       8
#     8   8   8   8   8   8   8   8
#     4  11  23  40  68  96 136 177 228 289 344 416
#     4  11  23  45  71 101 138 184 233 291 351 416
#     4  12  24  41  68 101 132 177 229 283 356 419
#     4  11  23  45  63  98 136 174 229 288 346 423
#     4  10  24  43  66  94 133 180 227 285 350 416
#     4  11  25  42  66 101 137 175 231 293 352 419
#     4  11  23  42  69  97 133 183 224 283 362 415
#     4  11  26  45  68 100 139 186 236 285 353 431
#
# _framework density 21.562387999999999
#
# number of rings (size 3 to 8) (size 9 to 14) (size 15 to 20)
#    0.000    1.000    1.250    6.375    5.250    2.750 
#    0.000    0.625    0.000    0.000    0.000    0.000 
#    0.000    0.000    0.000    0.000    0.000    0.000 
#
# Total GULP energy -396452.209971 kJ/mol
# GULP energy per Si atom -12389.131562 kJ/mol
# Density = 2.151331 g / cm^3
# Si number density = 21.562388 Si / 1000 Ang^3
#
#
#
# Elastic Constant Matrix: (Units=GPa)
#
#
# Indices 1 2 3 4 5 6 
#
# 1 159.9873 36.4277 46.2965 0.0000 4.5188 0.0000
# 2 36.4277 97.7184 18.1924 0.0000 -14.8125 0.0000
# 3 46.2965 18.1924 90.7154 0.0000 -14.3629 0.0000
# 4 0.0000 0.0000 0.0000 29.4036 0.0000 -1.2060
# 5 4.5188 -14.8125 -14.3629 0.0000 21.0939 0.0000
# 6 0.0000 0.0000 0.0000 -1.2060 0.0000 31.3768
#
#
#
# Elastic Compliance Matrix: (Units=1/GPa)
#
#
# Indices 1 2 3 4 5 6 
#
# 1 0.008694 -0.003483 -0.004955 0.000000 -0.007682 0.000000
# 2 -0.003483 0.012955 0.000827 0.000000 0.010407 0.000000
# 3 -0.004955 0.000827 0.015295 0.000000 0.012057 0.000000
# 4 0.000000 0.000000 0.000000 0.034063 0.000000 0.001309
# 5 -0.007682 0.010407 0.012057 0.000000 0.064570 0.000000
# 6 0.000000 0.000000 0.000000 0.001309 0.000000 0.031921
#
#
# Mechanical properties :
#
#
# Convention : Reuss Voigt Hill
#
# Bulk Modulus (GPa) = 46.03345 61.13939 53.58642
# Shear Modulus (GPa) = 26.32093 32.87517 29.59805
#
# Velocity S-wave (km/s) = 3.49762 3.90892 3.70898
# Velocity P-wave (km/s) = 6.14056 6.98492 6.57630
#
# Compressibility (1/GPa) = 0.02172333
#
# Stress axis : x y z
#
# Youngs Moduli (GPa) = 115.01613 77.18747 65.37932
#
# Poissons Ratio (x) = 0.26886 0.32396
# Poissons Ratio (y) = 0.40062 -0.05408
# Poissons Ratio (z) = 0.56991 -0.06385
#
# Static dielectric constant tensor:
#      x y z
#    x 4.274880 0.000000 -0.070540 
#    y 0.000000 4.357700 0.000000 
#    z -0.070540 0.000000 4.016780 
# 
# 
# High freq. dielectric constant tensor:
#      x y z
#    x 1.865400 0.000000 0.001110 
#    y 0.000000 1.856860 0.000000 
#    z 0.001110 0.000000 1.839190 
# 
# From -- ./inp_files/80708.got.cif
#   From: 2010.06.25/outbox.cif.g09.slc.cpg/sg12_41_cif.got.tgz:80708.got - 2010.06.28 00:19:55.
