data_PCOD8113395
_publ_section_title
;
Structure prediction by ZEFSAII (Michael W. Deem and Ramdas Pophale) SiO2 
 PCOD8113395
Probable space group: C 2/M
;
_chemical_formula_sum "Si O2"
_cell_formula_units_Z 48
_cell_length_a 15.762749
_cell_length_b 8.642365
_cell_length_c 28.909040
_cell_angle_alpha 90.000000
_cell_angle_beta 144.541536
_cell_angle_gamma 90.000000
_cell_volume 2284.601968
_symmetry_space_group_name_H-M "C 2/M"
_symmetry_group_IT_number 12
_symmetry_cell_setting 'monoclinic'
loop_
_space_group_symop_operation_xyz
x,y,z
-x,y,-z
-x,-y,-z
x,-y,z
1/2+x,1/2+y,z
1/2-x,1/2+y,-z
1/2-x,1/2-y,-z
1/2+x,1/2-y,z
loop_
_atom_site_type_symbol
_atom_site_label
_atom_site_fract_x
_atom_site_fract_y
_atom_site_fract_z
Si Si1 0.648310 0.676679 0.662996
Si Si2 0.347763 0.181647 0.503220
Si Si3 0.311780 0.681718 0.817270
Si Si4 0.331524 0.823517 0.655917
Si Si5 0.118708 0.183230 0.912426
Si Si6 0.870533 0.817362 0.188205
O O1 0.622056 0.500000 0.666820
O O2 0.505527 0.740285 0.574419
O O3 0.685719 0.777283 0.724489
O O4 0.782199 0.689967 0.686989
O O5 0.250000 0.250000 0.500000
O O6 0.274112 0.218029 0.421608
O O7 0.365327 0.000000 0.517344
O O8 0.314493 0.500000 0.827133
O O9 0.467088 0.743450 0.867279
O O10 0.276813 0.766157 0.850425
O O11 0.495992 0.762210 0.725432
O O12 0.324703 0.000000 0.634981
O O13 0.135444 0.242498 0.867211
O O14 0.124044 0.000000 0.916212
O O15 0.250000 0.250000 0.000000
O O16 0.891192 0.000000 0.199158
#
# Coordination Sequence:
#
# PCOD8113395 Si02
#       6
#     8   8   8   8   8   8
#     4  11  23  40  63  91 124 165 212 263 316 375
#     4  12  25  40  59  85 123 167 213 265 316 371
#     4  11  23  42  66  96 130 169 214 261 316 379
#     4  11  23  40  63  91 124 165 212 263 316 375
#     4  10  24  44  68  95 130 167 208 260 317 382
#     4  11  23  42  66  96 130 169 214 261 316 379
#
# _framework density 21.010223
#
# number of rings (size 3 to 8) (size 9 to 14) (size 15 to 20)
#    0.000    1.000    1.667    5.000    0.000    7.333 
#    0.000    3.333    0.000    0.000    0.000    0.000 
#    0.000    0.000    0.000    0.000    0.000    0.000 
#
# Total GULP energy -297764.662165 kJ/mol
# GULP energy per Si atom -12406.860924 kJ/mol
# Density = 2.096240 g / cm^3
# Si number density = 21.010223 Si / 1000 Ang^3
#
#
#
# Elastic Constant Matrix: (Units=GPa)
#
#
# Indices 1 2 3 4 5 6 
#
# 1 145.4214 32.7319 49.3554 0.0000 0.7361 0.0001
# 2 32.7319 62.7097 10.3326 0.0000 4.5236 0.0001
# 3 49.3554 10.3326 118.0170 0.0000 2.9084 0.0000
# 4 0.0000 0.0000 0.0000 38.4936 0.0000 -0.3070
# 5 0.7361 4.5236 2.9084 0.0000 22.6404 0.0000
# 6 0.0001 0.0001 0.0000 -0.3070 0.0000 35.7263
#
#
#
# Elastic Compliance Matrix: (Units=1/GPa)
#
#
# Indices 1 2 3 4 5 6 
#
# 1 0.008972 -0.004192 -0.003410 0.000000 0.000984 0.000000
# 2 -0.004192 0.018353 0.000234 0.000000 -0.003561 0.000000
# 3 -0.003410 0.000234 0.009909 0.000000 -0.001209 0.000000
# 4 0.000000 0.000000 0.000000 0.025980 0.000000 0.000223
# 5 0.000984 -0.003561 -0.001209 0.000000 0.045004 0.000000
# 6 0.000000 0.000000 0.000000 0.000223 0.000000 0.027993
#
#
# Mechanical properties :
#
#
# Convention : Reuss Voigt Hill
#
# Bulk Modulus (GPa) = 44.44738 56.77643 50.61191
# Shear Modulus (GPa) = 31.55669 34.95395 33.25532
#
# Velocity S-wave (km/s) = 3.87973 4.08323 3.98278
# Velocity P-wave (km/s) = 6.42423 7.02227 6.72990
#
# Compressibility (1/GPa) = 0.02249851
#
# Stress axis : x y z
#
# Youngs Moduli (GPa) = 111.45290 54.48694 100.92322
#
# Poissons Ratio (x) = 0.22843 0.34410
# Poissons Ratio (y) = 0.46726 -0.02364
# Poissons Ratio (z) = 0.38000 -0.01276
#
# Static dielectric constant tensor:
#      x y z
#    x 4.050970 0.000000 -0.056220 
#    y 0.000000 3.767230 0.000000 
#    z -0.056220 0.000000 2.130260 
# 
# 
# High freq. dielectric constant tensor:
#      x y z
#    x 1.841310 0.000000 0.000600 
#    y 0.000000 1.828230 0.000000 
#    z 0.000600 0.000000 1.817060 
# 
# From -- ./inp_files/378557.got.cif
#   From: 2010.06.25/outbox.cif.g09.slc.cpg/sg12_190_cif.got.tgz:378557.got - 2010.06.28 00:19:55.
