data_PCOD8113613
_publ_section_title
;
Structure prediction by ZEFSAII (Michael W. Deem and Ramdas Pophale) SiO2 
 PCOD8113613
Probable space group: C 2/M
;
_chemical_formula_sum "Si O2"
_cell_formula_units_Z 40
_cell_length_a 19.180443
_cell_length_b 11.018236
_cell_length_c 12.236973
_cell_angle_alpha 90.000000
_cell_angle_beta 53.895041
_cell_angle_gamma 90.000000
_cell_volume 2089.407824
_symmetry_space_group_name_H-M "C 2/M"
_symmetry_group_IT_number 12
_symmetry_cell_setting 'monoclinic'
loop_
_space_group_symop_operation_xyz
x,y,z
-x,y,-z
-x,-y,-z
x,-y,z
1/2+x,1/2+y,z
1/2-x,1/2+y,-z
1/2-x,1/2-y,-z
1/2+x,1/2-y,z
loop_
_atom_site_type_symbol
_atom_site_label
_atom_site_fract_x
_atom_site_fract_y
_atom_site_fract_z
Si Si1 0.446558 0.139684 0.654017
Si Si2 0.617404 0.861224 0.905314
Si Si3 0.648169 0.500000 0.913551
Si Si4 0.738763 0.229444 0.137864
Si Si5 0.519844 0.767858 0.801941
Si Si6 0.974164 0.000000 0.182976
O O1 0.500000 0.183609 0.500000
O O2 0.361770 0.222443 0.740563
O O3 0.505252 0.153794 0.707239
O O4 0.418608 0.000000 0.668533
O O5 0.718639 0.844148 0.838644
O O6 0.600188 0.822643 0.795812
O O7 0.590021 0.000000 0.949915
O O8 0.562696 0.776231 0.039735
O O9 0.710691 0.613989 0.863501
O O10 0.590695 0.500000 0.858181
O O11 0.577269 0.500000 0.072863
O O12 0.750000 0.250000 0.000000
O O13 0.541185 0.629356 0.743049
#
# Coordination Sequence:
#
# PCOD8113613 Si02
#       6
#     8   8   4   8   8   4
#     4  11  24  42  63  87 123 163 199 246 306 366
#     4  11  21  34  59  90 120 151 197 257 300 346
#     4  11  18  34  55  86 121 152 196 247 301 354
#     4  12  22  35  60  90 121 151 201 256 293 353
#     4  11  20  37  58  88 120 157 199 244 302 360
#     4  11  18  34  59  88 118 156 196 250 309 345
#
# _framework density 19.144182000000001
#
# number of rings (size 3 to 8) (size 9 to 14) (size 15 to 20)
#    0.000    0.800    7.000    3.600    1.400    0.000 
#    1.800    1.500    0.000    0.000    0.000    0.000 
#    0.000    0.000    0.000    0.000    0.000    0.000 
#
# Total GULP energy -247866.899604 kJ/mol
# GULP energy per Si atom -12393.344980 kJ/mol
# Density = 1.910061 g / cm^3
# Si number density = 19.144182 Si / 1000 Ang^3
#
#
#
# Elastic Constant Matrix: (Units=GPa)
#
#
# Indices 1 2 3 4 5 6 
#
# 1 132.2367 25.6303 57.3070 0.0000 5.8593 0.0000
# 2 25.6303 94.4141 14.9432 0.0000 -5.6873 0.0000
# 3 57.3070 14.9432 95.6021 0.0000 2.9594 0.0000
# 4 0.0000 0.0000 0.0000 17.1043 0.0000 2.4651
# 5 5.8593 -5.6873 2.9594 0.0000 21.5189 0.0000
# 6 0.0000 0.0000 0.0000 2.4651 0.0000 34.6192
#
#
#
# Elastic Compliance Matrix: (Units=1/GPa)
#
#
# Indices 1 2 3 4 5 6 
#
# 1 0.010686 -0.002112 -0.005994 0.000000 -0.002643 0.000000
# 2 -0.002112 0.011490 -0.000645 0.000000 0.003700 0.000000
# 3 -0.005994 -0.000645 0.014169 0.000000 -0.000487 0.000000
# 4 0.000000 0.000000 0.000000 0.059071 0.000000 -0.004206
# 5 -0.002643 0.003700 -0.000487 0.000000 0.048235 0.000000
# 6 0.000000 0.000000 0.000000 -0.004206 0.000000 0.029185
#
#
# Mechanical properties :
#
#
# Convention : Reuss Voigt Hill
#
# Bulk Modulus (GPa) = 53.06561 57.55711 55.31136
# Shear Modulus (GPa) = 25.43004 29.60663 27.51833
#
# Velocity S-wave (km/s) = 3.64860 3.93683 3.79545
# Velocity P-wave (km/s) = 6.74750 7.12708 6.93988
#
# Compressibility (1/GPa) = 0.01884460
#
# Stress axis : x y z
#
# Youngs Moduli (GPa) = 93.57999 87.03382 70.57814
#
# Poissons Ratio (x) = 0.18377 0.42302
# Poissons Ratio (y) = 0.19759 0.04551
# Poissons Ratio (z) = 0.56089 0.05612
#
# Static dielectric constant tensor:
#      x y z
#    x 3.890840 0.000000 0.004360 
#    y 0.000000 3.650170 0.000000 
#    z 0.004360 0.000000 3.018160 
# 
# 
# High freq. dielectric constant tensor:
#      x y z
#    x 1.769590 0.000000 0.007900 
#    y 0.000000 1.756220 0.000000 
#    z 0.007900 0.000000 1.676310 
# 
# From -- ./inp_files/153332.got.cif
#   From: 2010.06.25/outbox.cif.g09.slc.cpg/sg12_77_cif.got.tgz:153332.got - 2010.06.28 00:19:55.
