data_PCOD8113930
_publ_section_title
;
Structure prediction by ZEFSAII (Michael W. Deem and Ramdas Pophale) SiO2 
 PCOD8113930
Probable space group: C 2/M
;
_chemical_formula_sum "Si O2"
_cell_formula_units_Z 48
_cell_length_a 18.629374
_cell_length_b 15.792875
_cell_length_c 16.194783
_cell_angle_alpha 90.000000
_cell_angle_beta 149.228342
_cell_angle_gamma 90.000000
_cell_volume 2437.700410
_symmetry_space_group_name_H-M "C 2/M"
_symmetry_group_IT_number 12
_symmetry_cell_setting 'monoclinic'
loop_
_space_group_symop_operation_xyz
x,y,z
-x,y,-z
-x,-y,-z
x,-y,z
1/2+x,1/2+y,z
1/2-x,1/2+y,-z
1/2-x,1/2-y,-z
1/2+x,1/2-y,z
loop_
_atom_site_type_symbol
_atom_site_label
_atom_site_fract_x
_atom_site_fract_y
_atom_site_fract_z
Si Si1 0.384860 0.899042 0.197027
Si Si2 0.142175 0.324284 0.180266
Si Si3 0.994926 0.000000 0.356215
Si Si4 0.633822 0.773387 0.688468
Si Si5 0.775442 0.000000 0.285884
Si Si6 0.898390 0.711888 0.675106
Si Si7 0.387409 0.339567 0.170646
O O1 0.356014 0.868084 0.262890
O O2 0.537220 0.861940 0.320311
O O3 0.386641 0.000000 0.195366
O O4 0.262742 0.862077 0.017194
O O5 0.243573 0.248320 0.253727
O O6 0.183312 0.416177 0.186319
O O7 0.128311 0.330655 0.264043
O O8 0.000000 0.295450 0.000000
O O9 0.877841 0.000000 0.310169
O O10 0.980550 0.920877 0.281915
O O11 0.146023 0.000000 0.548652
O O12 0.500000 0.760136 0.500000
O O13 0.636613 0.709061 0.767694
O O14 0.750000 0.750000 0.500000
O O15 0.017444 0.784881 0.798031
#
# Coordination Sequence:
#
# PCOD8113930 Si02
#       7
#     8   8   4   8   4   8   8
#     4  11  24  43  66  94 124 166 218 263 305 372
#     4  12  23  37  60  90 126 158 199 259 316 375
#     4  11  20  36  64  88 120 157 213 251 301 370
#     4  11  22  41  66  88 122 168 215 253 309 376
#     4  11  23  34  56  96 126 157 195 259 322 366
#     4  11  24  41  62  90 130 165 203 256 322 377
#     4  11  21  41  65  91 121 166 213 256 306 375
#
# _framework density 19.690688999999999
#
# number of rings (size 3 to 8) (size 9 to 14) (size 15 to 20)
#    0.000    0.833    2.500    8.250    1.167    0.333 
#    1.500    0.000    1.833    1.500    0.000    0.000 
#    0.000    0.000    0.000    0.000    0.000    0.000 
#
# Total GULP energy -297545.334326 kJ/mol
# GULP energy per Si atom -12397.722264 kJ/mol
# Density = 1.964587 g / cm^3
# Si number density = 19.690689 Si / 1000 Ang^3
#
#
#
# Elastic Constant Matrix: (Units=GPa)
#
#
# Indices 1 2 3 4 5 6 
#
# 1 83.2584 44.9112 29.9931 -0.0002 3.5995 -0.0016
# 2 44.9112 122.5587 34.4989 -0.0003 14.4823 -0.0002
# 3 29.9931 34.4989 110.2927 -0.0014 22.4604 -0.0018
# 4 -0.0002 -0.0003 -0.0014 48.0172 -0.0003 73.5476
# 5 3.5995 14.4823 22.4604 -0.0003 25.5861 -0.0015
# 6 -0.0016 -0.0002 -0.0018 73.5476 -0.0015 -305.7898
#
#
#
# Elastic Compliance Matrix: (Units=1/GPa)
#
#
# Indices 1 2 3 4 5 6 
#
# 1 0.015962 -0.005328 -0.003447 0.000000 0.003796 0.000000
# 2 -0.005328 0.010942 -0.001054 0.000000 -0.004519 0.000000
# 3 -0.003447 -0.001054 0.012315 0.000000 -0.009729 0.000000
# 4 0.000000 0.000000 0.000000 0.015219 0.000000 0.003660
# 5 0.003796 -0.004519 -0.009729 0.000000 0.049648 0.000000
# 6 0.000000 0.000000 0.000000 0.003660 0.000000 -0.002390
#
#
# Mechanical properties :
#
#
# Convention : Reuss Voigt Hill
#
# Bulk Modulus (GPa) = 51.11801 59.43513 55.27657
# Shear Modulus (GPa) = 39.10059 -32.65684 3.22187
#
# Velocity S-wave (km/s) = 4.46100 -4.07688 1.28054
# Velocity P-wave (km/s) = 7.24920 2.84406 5.50634
#
# Compressibility (1/GPa) = 0.01956258
#
# Stress axis : x y z
#
# Youngs Moduli (GPa) = 62.64742 91.38946 81.20071
#
# Poissons Ratio (x) = 0.48688 0.27994
# Poissons Ratio (y) = 0.33375 0.08555
# Poissons Ratio (z) = 0.21598 0.09629
#
# Static dielectric constant tensor:
#      x y z
#    x 3.754120 0.000000 0.048340 
#    y 0.000000 3.803250 0.000000 
#    z 0.048340 0.000000 3.724030 
# 
# 
# High freq. dielectric constant tensor:
#      x y z
#    x 1.763280 0.000000 0.003720 
#    y 0.000000 1.766060 0.000000 
#    z 0.003720 0.000000 1.780130 
# 
# From -- ./inp_files/112758.got.cif
#   From: 2010.06.25/outbox.cif.g09.slc.cpg/sg12_57_cif.got.tgz:112758.got - 2010.06.28 00:19:55.
