data_PCOD8113694
_publ_section_title
;
Structure prediction by ZEFSAII (Michael W. Deem and Ramdas Pophale) SiO2 
 PCOD8113694
Probable space group: C 2/M
;
_chemical_formula_sum "Si O2"
_cell_formula_units_Z 60
_cell_length_a 17.859054
_cell_length_b 27.922151
_cell_length_c 11.482046
_cell_angle_alpha 90.000000
_cell_angle_beta 32.782815
_cell_angle_gamma 90.000000
_cell_volume 3100.200854
_symmetry_space_group_name_H-M "C 2/M"
_symmetry_group_IT_number 12
_symmetry_cell_setting 'monoclinic'
loop_
_space_group_symop_operation_xyz
x,y,z
-x,y,-z
-x,-y,-z
x,-y,z
1/2+x,1/2+y,z
1/2-x,1/2+y,-z
1/2-x,1/2-y,-z
1/2+x,1/2-y,z
loop_
_atom_site_type_symbol
_atom_site_label
_atom_site_fract_x
_atom_site_fract_y
_atom_site_fract_z
Si Si1 0.764199 0.209321 0.689823
Si Si2 0.204242 0.301833 0.019710
Si Si3 0.953988 0.445670 0.693644
Si Si4 0.000000 0.222742 0.000000
Si Si5 0.930547 0.700634 0.472829
Si Si6 0.913617 0.147174 0.307265
Si Si7 0.697942 0.610975 0.974491
Si Si8 0.783239 0.610787 0.610903
O O1 0.755248 0.182220 0.825570
O O2 0.892392 0.244547 0.538010
O O3 0.804663 0.170696 0.539418
O O4 0.630173 0.241273 0.836504
O O5 0.250000 0.250000 0.000000
O O6 0.250446 0.335911 0.064251
O O7 0.038909 0.302556 0.225804
O O8 0.954565 0.500000 0.738078
O O9 0.798071 0.424714 0.918617
O O10 0.000000 0.441714 0.500000
O O11 0.072029 0.415906 0.609405
O O12 0.015120 0.188112 0.867124
O O13 0.802395 0.667834 0.604194
O O14 0.000000 0.680235 0.500000
O O15 0.826859 0.107241 0.348920
O O16 0.032606 0.114909 0.216104
O O17 0.715370 0.592539 0.819295
#
# Coordination Sequence:
#
# PCOD8113694 Si02
#       8
#     8   8   8   4   8   8   8   8
#     4  12  26  34  49  79 116 156 205 246 270 322
#     4  12  22  34  53  77 112 151 200 237 282 324
#     4   9  19  36  63  93 114 137 185 245 299 352
#     4  12  22  38  50  72 111 164 205 232 274 340
#     4  12  19  34  52  75 104 152 197 241 275 323
#     4  12  24  37  53  79 117 161 191 233 289 340
#     4  11  20  36  58  82 111 149 186 235 285 344
#     4  11  19  36  57  82 113 148 186 226 292 353
#
# _framework density 19.353583
#
# number of rings (size 3 to 8) (size 9 to 14) (size 15 to 20)
#    0.000    0.667    6.667    3.200    1.867    0.000 
#    0.000    0.667    0.000    3.200    0.000    3.733 
#    0.000    0.000    0.000    0.000    0.000    0.000 
#
# Total GULP energy -371671.211048 kJ/mol
# GULP energy per Si atom -12389.040368 kJ/mol
# Density = 1.930953 g / cm^3
# Si number density = 19.353583 Si / 1000 Ang^3
#
#
#
# Elastic Constant Matrix: (Units=GPa)
#
#
# Indices 1 2 3 4 5 6 
#
# 1 64.3050 27.5199 51.6379 -0.0002 -15.8643 0.0002
# 2 27.5199 76.5219 26.2718 -0.0001 -12.5129 0.0001
# 3 51.6379 26.2718 99.1306 -0.0002 -9.3295 0.0003
# 4 -0.0002 -0.0001 -0.0002 22.7920 0.0001 -5.1449
# 5 -15.8643 -12.5129 -9.3295 0.0001 40.9051 -0.0001
# 6 0.0002 0.0001 0.0003 -5.1449 -0.0001 14.7898
#
#
#
# Elastic Compliance Matrix: (Units=1/GPa)
#
#
# Indices 1 2 3 4 5 6 
#
# 1 0.030720 -0.005075 -0.013983 0.000000 0.007173 0.000000
# 2 -0.005075 0.015755 -0.001291 0.000000 0.002557 0.000000
# 3 -0.013983 -0.001291 0.017543 0.000000 -0.001817 0.000000
# 4 0.000000 0.000000 0.000000 0.047614 0.000000 0.016564
# 5 0.007173 0.002557 -0.001817 0.000000 0.027596 0.000000
# 6 0.000000 0.000000 0.000000 0.016564 0.000000 0.073376
#
#
# Mechanical properties :
#
#
# Convention : Reuss Voigt Hill
#
# Bulk Modulus (GPa) = 42.88055 50.09077 46.48566
# Shear Modulus (GPa) = 19.15163 24.66592 21.90877
#
# Velocity S-wave (km/s) = 3.14915 3.57387 3.36821
# Velocity P-wave (km/s) = 5.95209 6.55501 6.26081
#
# Compressibility (1/GPa) = 0.02332060
#
# Stress axis : x y z
#
# Youngs Moduli (GPa) = 32.55163 63.47367 57.00432
#
# Poissons Ratio (x) = 0.32211 0.79706
# Poissons Ratio (y) = 0.16519 0.07361
# Poissons Ratio (z) = 0.45515 0.08196
#
# Static dielectric constant tensor:
#      x y z
#    x 3.429150 0.000000 -0.222010 
#    y 0.000000 3.255450 0.000000 
#    z -0.222010 0.000000 3.775120 
# 
# 
# High freq. dielectric constant tensor:
#      x y z
#    x 1.743390 0.000000 -0.029320 
#    y 0.000000 1.703700 0.000000 
#    z -0.029320 0.000000 1.754250 
# 
# From -- ./inp_files/161080.got.cif
#   From: 2010.06.25/outbox.cif.g09.slc.cpg/sg12_81_cif.got.tgz:161080.got - 2010.06.28 00:19:55.
