data_PCOD8113160
_publ_section_title
;
Structure prediction by ZEFSAII (Michael W. Deem and Ramdas Pophale) SiO2 
 PCOD8113160
Probable space group: C 2/M
;
_chemical_formula_sum "Si O2"
_cell_formula_units_Z 32
_cell_length_a 7.926952
_cell_length_b 22.997408
_cell_length_c 13.474302
_cell_angle_alpha 90.000000
_cell_angle_beta 37.239609
_cell_angle_gamma 90.000000
_cell_volume 1486.463189
_symmetry_space_group_name_H-M "C 2/M"
_symmetry_group_IT_number 12
_symmetry_cell_setting 'monoclinic'
loop_
_space_group_symop_operation_xyz
x,y,z
-x,y,-z
-x,-y,-z
x,-y,z
1/2+x,1/2+y,z
1/2-x,1/2+y,-z
1/2-x,1/2-y,-z
1/2+x,1/2-y,z
loop_
_atom_site_type_symbol
_atom_site_label
_atom_site_fract_x
_atom_site_fract_y
_atom_site_fract_z
Si Si1 0.191370 0.065601 0.315048
Si Si2 0.307098 0.141745 0.898646
Si Si3 0.274724 0.234778 0.310388
Si Si4 0.117633 0.834604 0.200866
O O1 0.502663 0.084393 0.202672
O O2 0.063331 0.106666 0.288542
O O3 0.000000 0.070862 0.500000
O O4 0.199521 0.000000 0.270072
O O5 0.462206 0.196034 0.772372
O O6 0.309878 0.152367 0.016329
O O7 0.000000 0.130606 0.000000
O O8 0.243989 0.215903 0.211065
O O9 0.334275 0.303913 0.291897
O O10 0.000000 0.217467 0.500000
#
# Coordination Sequence:
#
# PCOD8113160 Si02
#       4
#     8   8   8   8
#     4  10  23  45  67  88 119 162 210 257 310 369
#     4  11  23  39  62  94 130 162 204 254 306 367
#     4  11  22  38  59  89 129 167 203 244 302 368
#     4  11  22  37  62  93 125 163 204 252 304 363
#
# _framework density 21.527609999999999
#
# number of rings (size 3 to 8) (size 9 to 14) (size 15 to 20)
#    0.000    1.250    0.000    9.000    0.000    6.500 
#    0.000    0.000    0.000    3.750    0.000    0.000 
#    0.000    0.000    0.000    0.000    0.000    0.000 
#
# Total GULP energy -198246.566158 kJ/mol
# GULP energy per Si atom -12390.410385 kJ/mol
# Density = 2.147861 g / cm^3
# Si number density = 21.527610 Si / 1000 Ang^3
#
#
#
# Elastic Constant Matrix: (Units=GPa)
#
#
# Indices 1 2 3 4 5 6 
#
# 1 87.9862 52.6144 54.2507 0.0000 -12.6064 0.0000
# 2 52.6144 185.0291 68.7166 0.0000 -1.5616 0.0000
# 3 54.2507 68.7166 145.7026 0.0000 -7.5126 0.0000
# 4 0.0000 0.0000 0.0000 17.3921 0.0000 -6.8117
# 5 -12.6064 -1.5616 -7.5126 0.0000 21.2885 0.0000
# 6 0.0000 0.0000 0.0000 -6.8117 0.0000 30.9904
#
#
#
# Elastic Compliance Matrix: (Units=1/GPa)
#
#
# Indices 1 2 3 4 5 6 
#
# 1 0.017225 -0.003159 -0.004491 0.000000 0.008383 0.000000
# 2 -0.003159 0.007140 -0.002302 0.000000 -0.002160 0.000000
# 3 -0.004491 -0.002302 0.009651 0.000000 0.000577 0.000000
# 4 0.000000 0.000000 0.000000 0.062913 0.000000 0.013828
# 5 0.008383 -0.002160 0.000577 0.000000 0.051984 0.000000
# 6 0.000000 0.000000 0.000000 0.013828 0.000000 0.035308
#
#
# Mechanical properties :
#
#
# Convention : Reuss Voigt Hill
#
# Bulk Modulus (GPa) = 70.87087 85.54239 78.20663
# Shear Modulus (GPa) = 23.94298 30.14328 27.04313
#
# Velocity S-wave (km/s) = 3.33858 3.74600 3.54815
# Velocity P-wave (km/s) = 6.91765 7.65065 7.29337
#
# Compressibility (1/GPa) = 0.01411017
#
# Stress axis : x y z
#
# Youngs Moduli (GPa) = 58.05492 140.06123 103.61467
#
# Poissons Ratio (x) = 0.44250 0.46536
# Poissons Ratio (y) = 0.18342 0.23855
# Poissons Ratio (z) = 0.26074 0.32246
#
# Static dielectric constant tensor:
#      x y z
#    x 3.908730 0.000000 -0.060280 
#    y 0.000000 4.012720 0.000000 
#    z -0.060280 0.000000 3.988120 
# 
# 
# High freq. dielectric constant tensor:
#      x y z
#    x 1.841050 0.000000 0.004220 
#    y 0.000000 1.832270 0.000000 
#    z 0.004220 0.000000 1.860260 
# 
# From -- ./inp_files/38336.got.cif
#   From: 2010.06.25/outbox.cif.g09.slc.cpg/sg12_20_cif.got.tgz:38336.got - 2010.06.28 00:19:55.
