data_PCOD8113422
_publ_section_title
;
Structure prediction by ZEFSAII (Michael W. Deem and Ramdas Pophale) SiO2 
 PCOD8113422
Probable space group: C 2/M
;
_chemical_formula_sum "Si O2"
_cell_formula_units_Z 58
_cell_length_a 8.714647
_cell_length_b 20.059632
_cell_length_c 15.596969
_cell_angle_alpha 90.000000
_cell_angle_beta 104.404589
_cell_angle_gamma 90.000000
_cell_volume 2640.833086
_symmetry_space_group_name_H-M "C 2/M"
_symmetry_group_IT_number 12
_symmetry_cell_setting 'monoclinic'
loop_
_space_group_symop_operation_xyz
x,y,z
-x,y,-z
-x,-y,-z
x,-y,z
1/2+x,1/2+y,z
1/2-x,1/2+y,-z
1/2-x,1/2-y,-z
1/2+x,1/2-y,z
loop_
_atom_site_type_symbol
_atom_site_label
_atom_site_fract_x
_atom_site_fract_y
_atom_site_fract_z
Si Si1 0.372248 0.656175 0.603737
Si Si2 0.923039 0.725171 0.358067
Si Si3 0.975729 0.076055 0.775268
Si Si4 0.834825 0.613976 0.574605
Si Si5 0.679058 0.076103 0.236754
Si Si6 0.000000 0.500000 0.500000
Si Si7 0.393634 0.682573 0.903502
Si Si8 0.953841 0.693688 0.165897
O O1 0.244698 0.709209 0.622572
O O2 0.534493 0.698018 0.613128
O O3 0.394863 0.596557 0.674327
O O4 0.317588 0.621652 0.508284
O O5 0.908540 0.717563 0.254392
O O6 0.060560 0.680142 0.416172
O O7 0.164791 0.083768 0.799086
O O8 0.908574 0.121046 0.841255
O O9 0.925092 0.000000 0.785452
O O10 0.772942 0.598929 0.661255
O O11 0.944797 0.554502 0.560541
O O12 0.543101 0.122962 0.178859
O O13 0.617260 0.000000 0.226455
O O14 0.210846 0.686100 0.908460
O O15 0.438034 0.751912 0.864893
O O16 0.500000 0.667764 0.000000
#
# Coordination Sequence:
#
# PCOD8113422 Si02
#       8
#     8   8   8   8   8   2   8   8
#     4  12  24  41  64  94 133 176 228 286 333 385
#     4  11  22  40  61  92 129 172 222 269 335 390
#     4  11  26  45  67  96 135 180 224 282 344 408
#     4  11  24  38  62  96 136 183 231 281 322 387
#     4  10  24  45  67  96 141 189 232 274 332 399
#     4  12  20  40  60  90 144 168 248 282 326 388
#     4  12  25  46  75 106 135 168 218 282 351 420
#     4  11  22  42  70 103 133 173 220 274 338 415
#
# _framework density 21.962765999999998
#
# number of rings (size 3 to 8) (size 9 to 14) (size 15 to 20)
#    0.000    0.828    4.828    1.655    4.828    1.379 
#    0.000    1.379    0.000    2.069    0.000    0.000 
#    0.000    0.000    0.000    0.000    0.000    0.000 
#
# Total GULP energy -359272.814620 kJ/mol
# GULP energy per Si atom -12388.717746 kJ/mol
# Density = 2.191278 g / cm^3
# Si number density = 21.962766 Si / 1000 Ang^3
#
#
#
# Elastic Constant Matrix: (Units=GPa)
#
#
# Indices 1 2 3 4 5 6 
#
# 1 77.1757 37.3358 10.4972 0.0000 16.2715 0.0000
# 2 37.3358 152.3425 38.1104 0.0000 10.8876 0.0000
# 3 10.4972 38.1104 81.1083 0.0000 29.3454 0.0000
# 4 0.0000 0.0000 0.0000 16.4991 0.0000 4.8702
# 5 16.2715 10.8876 29.3454 0.0000 32.4917 0.0000
# 6 0.0000 0.0000 0.0000 4.8702 0.0000 20.4416
#
#
#
# Elastic Compliance Matrix: (Units=1/GPa)
#
#
# Indices 1 2 3 4 5 6 
#
# 1 0.016652 -0.004231 0.003471 0.000000 -0.010057 0.000000
# 2 -0.004231 0.008535 -0.004745 0.000000 0.003544 0.000000
# 3 0.003471 -0.004745 0.021038 0.000000 -0.019149 0.000000
# 4 0.000000 0.000000 0.000000 0.065194 0.000000 -0.015533
# 5 -0.010057 0.003544 -0.019149 0.000000 0.051921 0.000000
# 6 0.000000 0.000000 0.000000 -0.015533 0.000000 0.052621
#
#
# Mechanical properties :
#
#
# Convention : Reuss Voigt Hill
#
# Bulk Modulus (GPa) = 28.39627 53.61257 41.00442
# Shear Modulus (GPa) = 20.94610 28.86534 24.90572
#
# Velocity S-wave (km/s) = 3.09157 3.62924 3.37114
# Velocity P-wave (km/s) = 5.06962 6.48271 5.81922
#
# Compressibility (1/GPa) = 0.03521589
#
# Stress axis : x y z
#
# Youngs Moduli (GPa) = 60.05138 117.16799 47.53373
#
# Poissons Ratio (x) = 0.49571 -0.16501
# Poissons Ratio (y) = 0.25407 0.22555
# Poissons Ratio (z) = -0.20846 0.55597
#
# Static dielectric constant tensor:
#      x y z
#    x 4.028980 0.000000 0.008370 
#    y 0.000000 4.113600 0.000000 
#    z 0.008370 0.000000 3.875010 
# 
# 
# High freq. dielectric constant tensor:
#      x y z
#    x 1.869630 0.000000 -0.002880 
#    y 0.000000 1.879110 0.000000 
#    z -0.002880 0.000000 1.845640 
# 
# From -- ./inp_files/258203.got.cif
#   From: 2010.06.25/outbox.cif.g09.slc.cpg/sg12_130_cif.got.tgz:258203.got - 2010.06.28 00:19:55.
