data_PCOD8113066
_publ_section_title
;
Structure prediction by ZEFSAII (Michael W. Deem and Ramdas Pophale) SiO2 
 PCOD8113066
Probable space group: C 2/M
;
_chemical_formula_sum "Si O2"
_cell_formula_units_Z 40
_cell_length_a 11.045369
_cell_length_b 22.389809
_cell_length_c 12.503557
_cell_angle_alpha 90.000000
_cell_angle_beta 35.893722
_cell_angle_gamma 90.000000
_cell_volume 1812.892027
_symmetry_space_group_name_H-M "C 2/M"
_symmetry_group_IT_number 12
_symmetry_cell_setting 'monoclinic'
loop_
_space_group_symop_operation_xyz
x,y,z
-x,y,-z
-x,-y,-z
x,-y,z
1/2+x,1/2+y,z
1/2-x,1/2+y,-z
1/2-x,1/2-y,-z
1/2+x,1/2-y,z
loop_
_atom_site_type_symbol
_atom_site_label
_atom_site_fract_x
_atom_site_fract_y
_atom_site_fract_z
Si Si1 0.023785 0.627281 0.774905
Si Si2 0.316336 0.567804 0.715201
Si Si3 0.523355 0.253068 0.111909
Si Si4 0.431079 0.622953 0.847179
Si Si5 0.834077 0.567594 0.533603
O O1 0.097963 0.582729 0.815645
O O2 0.147204 0.611619 0.579766
O O3 0.090812 0.694605 0.760053
O O4 0.776798 0.618290 0.932012
O O5 0.500000 0.574882 0.500000
O O6 0.309124 0.500000 0.765407
O O7 0.353899 0.616565 0.780673
O O8 0.442469 0.315708 0.217994
O O9 0.500000 0.253417 0.000000
O O10 0.750000 0.250000 0.000000
O O11 0.602041 0.572018 0.748179
O O12 0.875670 0.500000 0.466407
O O13 0.000000 0.588695 0.500000
#
# Coordination Sequence:
#
# PCOD8113066 Si02
#       5
#     8   8   8   8   8
#     4  11  23  43  70  97 131 179 223 277 340 398
#     4  11  22  41  66  99 139 172 220 284 335 394
#     4  10  23  43  69 101 137 172 229 286 332 406
#     4  11  24  42  70  96 133 179 220 273 339 401
#     4  11  26  44  62  97 138 173 225 279 327 401
#
# _framework density 22.064191999999998
#
# number of rings (size 3 to 8) (size 9 to 14) (size 15 to 20)
#    0.000    1.200    2.000    4.200    5.600    4.800 
#    0.000    2.000    0.000    0.000    0.000    0.000 
#    0.000    0.000    0.000    0.000    0.000    0.000 
#
# Total GULP energy -247852.649584 kJ/mol
# GULP energy per Si atom -12392.632479 kJ/mol
# Density = 2.201397 g / cm^3
# Si number density = 22.064192 Si / 1000 Ang^3
#
#
#
# Elastic Constant Matrix: (Units=GPa)
#
#
# Indices 1 2 3 4 5 6 
#
# 1 144.3182 46.3019 26.3332 0.0012 2.5663 -0.0008
# 2 46.3019 109.9374 33.4843 0.0000 24.1193 0.0000
# 3 26.3332 33.4843 52.6492 0.0009 -7.6301 -0.0011
# 4 0.0012 0.0000 0.0009 34.7527 -0.0009 6.5130
# 5 2.5663 24.1193 -7.6301 -0.0009 41.0798 0.0007
# 6 -0.0008 0.0000 -0.0011 6.5130 0.0007 36.7662
#
#
#
# Elastic Compliance Matrix: (Units=1/GPa)
#
#
# Indices 1 2 3 4 5 6 
#
# 1 0.008268 -0.003047 -0.002069 0.000000 0.000888 0.000000
# 2 -0.003047 0.015906 -0.010192 0.000000 -0.011042 0.000000
# 3 -0.002069 -0.010192 0.028154 -0.000001 0.011343 0.000001
# 4 0.000000 0.000000 -0.000001 0.029763 0.000001 -0.005272
# 5 0.000888 -0.011042 0.011343 0.000001 0.032877 0.000000
# 6 0.000000 0.000000 0.000001 -0.005272 0.000000 0.028133
#
#
# Mechanical properties :
#
#
# Convention : Reuss Voigt Hill
#
# Bulk Modulus (GPa) = 46.05658 57.68263 51.86961
# Shear Modulus (GPa) = 27.63097 35.90543 31.76820
#
# Velocity S-wave (km/s) = 3.54262 4.03838 3.79860
# Velocity P-wave (km/s) = 6.13619 6.92420 6.54207
#
# Compressibility (1/GPa) = 0.02171242
#
# Stress axis : x y z
#
# Youngs Moduli (GPa) = 120.94152 62.86837 35.51832
#
# Poissons Ratio (x) = 0.19157 0.07348
# Poissons Ratio (y) = 0.36852 0.36201
# Poissons Ratio (z) = 0.25022 0.64078
#
# Static dielectric constant tensor:
#      x y z
#    x 4.154870 0.000000 -0.109840 
#    y 0.000000 4.821560 0.000000 
#    z -0.109840 0.000000 3.766020 
# 
# 
# High freq. dielectric constant tensor:
#      x y z
#    x 1.880740 0.000000 -0.007080 
#    y 0.000000 1.875580 0.000000 
#    z -0.007080 0.000000 1.845580 
# 
# From -- ./inp_files/133640.got.cif
#   From: 2010.06.25/outbox.cif.g09.slc.cpg/sg12_67_cif.got.tgz:133640.got - 2010.06.28 00:19:55.
