data_PCOD8113433
_publ_section_title
;
Structure prediction by ZEFSAII (Michael W. Deem and Ramdas Pophale) SiO2 
 PCOD8113433
Probable space group: C 2/M
;
_chemical_formula_sum "Si O2"
_cell_formula_units_Z 44
_cell_length_a 9.241537
_cell_length_b 21.166381
_cell_length_c 10.637346
_cell_angle_alpha 90.000000
_cell_angle_beta 87.941456
_cell_angle_gamma 90.000000
_cell_volume 2079.427280
_symmetry_space_group_name_H-M "C 2/M"
_symmetry_group_IT_number 12
_symmetry_cell_setting 'monoclinic'
loop_
_space_group_symop_operation_xyz
x,y,z
-x,y,-z
-x,-y,-z
x,-y,z
1/2+x,1/2+y,z
1/2-x,1/2+y,-z
1/2-x,1/2-y,-z
1/2+x,1/2-y,z
loop_
_atom_site_type_symbol
_atom_site_label
_atom_site_fract_x
_atom_site_fract_y
_atom_site_fract_z
Si Si1 0.889879 0.367143 0.206550
Si Si2 0.000000 0.728996 0.000000
Si Si3 0.120116 0.130345 0.598515
Si Si4 0.404883 0.202391 0.612516
Si Si5 0.766714 0.500000 0.556191
Si Si6 0.904638 0.813677 0.784706
Si Si7 0.057167 0.500000 0.706568
O O1 0.716555 0.367330 0.227131
O O2 0.929177 0.441130 0.196913
O O3 0.987106 0.344841 0.319432
O O4 0.910589 0.319998 0.088131
O O5 0.090265 0.778949 0.080550
O O6 0.267151 0.166718 0.560732
O O7 0.160929 0.057328 0.593983
O O8 0.000000 0.146510 0.500000
O O9 0.057227 0.154470 0.736244
O O10 0.500000 0.233050 0.500000
O O11 0.346616 0.258592 0.697293
O O12 0.820128 0.500000 0.408329
O O13 0.901862 0.500000 0.645529
#
# Coordination Sequence:
#
# PCOD8113433 Si02
#       7
#     8   4   8   8   4   8   4
#     4  11  23  41  67  93 123 169 217 261 315 377
#     4  10  24  45  70  91 126 168 216 272 318 372
#     4  12  24  38  63  97 134 172 208 256 321 386
#     4  11  21  37  60  92 131 167 207 260 317 384
#     4  11  23  42  64  94 135 171 210 257 319 382
#     4  11  24  41  64  94 128 166 212 266 325 377
#     4  11  22  41  68  94 128 170 214 266 308 381
#
# _framework density 21.159673000000002
#
# number of rings (size 3 to 8) (size 9 to 14) (size 15 to 20)
#    0.000    0.909    1.818    6.818    0.000    4.727 
#    0.000    0.000    0.000    1.091    0.000    0.000 
#    0.000    0.000    0.000    0.000    0.000    0.000 
#
# Total GULP energy -272578.308744 kJ/mol
# GULP energy per Si atom -12389.923125 kJ/mol
# Density = 2.111151 g / cm^3
# Si number density = 21.159673 Si / 1000 Ang^3
#
#
#
# Elastic Constant Matrix: (Units=GPa)
#
#
# Indices 1 2 3 4 5 6 
#
# 1 129.1533 45.6849 48.1102 0.0000 6.8773 0.0000
# 2 45.6849 115.8753 35.0878 0.0000 21.4889 0.0000
# 3 48.1102 35.0878 87.2581 0.0000 17.7324 0.0000
# 4 0.0000 0.0000 0.0000 20.1805 0.0000 -3.5776
# 5 6.8773 21.4889 17.7324 0.0000 16.5067 0.0000
# 6 0.0000 0.0000 0.0000 -3.5776 0.0000 39.8133
#
#
#
# Elastic Compliance Matrix: (Units=1/GPa)
#
#
# Indices 1 2 3 4 5 6 
#
# 1 0.010895 -0.003755 -0.005844 0.000000 0.006626 0.000000
# 2 -0.003755 0.012951 -0.000037 0.000000 -0.015255 0.000000
# 3 -0.005844 -0.000037 0.018156 0.000000 -0.017021 0.000000
# 4 0.000000 0.000000 0.000000 0.050355 0.000000 0.004525
# 5 0.006626 -0.015255 -0.017021 0.000000 0.095965 0.000000
# 6 0.000000 0.000000 0.000000 0.004525 0.000000 0.025524
#
#
# Mechanical properties :
#
#
# Convention : Reuss Voigt Hill
#
# Bulk Modulus (GPa) = 43.99469 65.56141 54.77805
# Shear Modulus (GPa) = 20.77333 28.86037 24.81685
#
# Velocity S-wave (km/s) = 3.13667 3.69715 3.42839
# Velocity P-wave (km/s) = 5.82711 7.01973 6.45104
#
# Compressibility (1/GPa) = 0.02273002
#
# Stress axis : x y z
#
# Youngs Moduli (GPa) = 91.78653 77.21632 55.07765
#
# Poissons Ratio (x) = 0.28993 0.32186
# Poissons Ratio (y) = 0.34464 0.00206
# Poissons Ratio (z) = 0.53637 0.00289
#
# Static dielectric constant tensor:
#      x y z
#    x 3.934530 0.000000 -0.041720 
#    y 0.000000 4.014520 0.000000 
#    z -0.041720 0.000000 3.820850 
# 
# 
# High freq. dielectric constant tensor:
#      x y z
#    x 1.840610 0.000000 -0.000500 
#    y 0.000000 1.839960 0.000000 
#    z -0.000500 0.000000 1.809960 
# 
# From -- ./inp_files/120792.got.cif
#   From: 2010.06.25/outbox.cif.g09.slc.cpg/sg12_61_cif.got.tgz:120792.got - 2010.06.28 00:19:55.
