data_PCOD8113633
_publ_section_title
;
Structure prediction by ZEFSAII (Michael W. Deem and Ramdas Pophale) SiO2 
 PCOD8113633
Probable space group: C 2/M
;
_chemical_formula_sum "Si O2"
_cell_formula_units_Z 48
_cell_length_a 22.420786
_cell_length_b 16.581797
_cell_length_c 8.828753
_cell_angle_alpha 90.000000
_cell_angle_beta 49.596838
_cell_angle_gamma 90.000000
_cell_volume 2499.500050
_symmetry_space_group_name_H-M "C 2/M"
_symmetry_group_IT_number 12
_symmetry_cell_setting 'monoclinic'
loop_
_space_group_symop_operation_xyz
x,y,z
-x,y,-z
-x,-y,-z
x,-y,z
1/2+x,1/2+y,z
1/2-x,1/2+y,-z
1/2-x,1/2-y,-z
1/2+x,1/2-y,z
loop_
_atom_site_type_symbol
_atom_site_label
_atom_site_fract_x
_atom_site_fract_y
_atom_site_fract_z
Si Si1 0.776138 0.093093 0.337273
Si Si2 0.551601 0.774601 0.554697
Si Si3 0.175460 0.330317 0.756197
Si Si4 0.466006 0.908743 0.888964
Si Si5 0.227063 0.278152 0.203565
Si Si6 0.919572 0.819900 0.209199
O O1 0.703859 0.122407 0.560730
O O2 0.774230 0.142183 0.181449
O O3 0.857865 0.107482 0.290667
O O4 0.765794 0.000000 0.316341
O O5 0.500000 0.744474 0.500000
O O6 0.511246 0.851391 0.699140
O O7 0.636225 0.800358 0.354639
O O8 0.560707 0.697554 0.648527
O O9 0.251682 0.293863 0.714090
O O10 0.115533 0.260597 0.807082
O O11 0.126913 0.388075 0.949537
O O12 0.475999 0.000000 0.813983
O O13 0.500000 0.897104 0.000000
O O14 0.250000 0.250000 0.000000
O O15 0.000000 0.846410 0.000000
#
# Coordination Sequence:
#
# PCOD8113633 Si02
#       6
#     8   8   8   8   8   8
#     4  11  23  40  66  93 123 158 204 265 310 349
#     4  12  22  37  59  89 121 161 199 246 304 360
#     4  11  18  39  65  89 118 162 207 249 299 365
#     4  11  21  35  59  92 125 154 192 250 316 367
#     4  11  23  39  62  90 123 164 209 246 300 376
#     4  11  20  39  64  89 117 157 215 250 289 367
#
# _framework density 19.20384
#
# number of rings (size 3 to 8) (size 9 to 14) (size 15 to 20)
#    0.000    0.833    6.667    2.500    2.333    2.667 
#    0.000    3.333    0.000    0.500    0.000    0.000 
#    0.000    0.000    0.000    0.000    0.000    0.000 
#
# Total GULP energy -297632.623626 kJ/mol
# GULP energy per Si atom -12401.359318 kJ/mol
# Density = 1.916013 g / cm^3
# Si number density = 19.203840 Si / 1000 Ang^3
#
#
#
# Elastic Constant Matrix: (Units=GPa)
#
#
# Indices 1 2 3 4 5 6 
#
# 1 111.8933 35.9166 36.8412 0.0000 2.9142 0.0000
# 2 35.9166 97.0916 41.4033 0.0000 5.9916 0.0000
# 3 36.8412 41.4033 118.9820 0.0000 -7.1968 0.0000
# 4 0.0000 0.0000 0.0000 17.1579 0.0000 -3.6147
# 5 2.9142 5.9916 -7.1968 0.0000 41.7331 0.0000
# 6 0.0000 0.0000 0.0000 -3.6147 0.0000 20.2258
#
#
#
# Elastic Compliance Matrix: (Units=1/GPa)
#
#
# Indices 1 2 3 4 5 6 
#
# 1 0.010656 -0.002902 -0.002334 0.000000 -0.000730 0.000000
# 2 -0.002902 0.013145 -0.003818 0.000000 -0.002343 0.000000
# 3 -0.002334 -0.003818 0.010609 0.000000 0.002541 0.000000
# 4 0.000000 0.000000 0.000000 0.060562 0.000000 0.010824
# 5 -0.000730 -0.002343 0.002541 0.000000 0.024787 0.000000
# 6 0.000000 0.000000 0.000000 0.010824 0.000000 0.051376
#
#
# Mechanical properties :
#
#
# Convention : Reuss Voigt Hill
#
# Bulk Modulus (GPa) = 61.33259 61.80991 61.57125
# Shear Modulus (GPa) = 25.68347 30.07710 27.88028
#
# Velocity S-wave (km/s) = 3.66103 3.96182 3.81439
# Velocity P-wave (km/s) = 7.06243 7.29275 7.17851
#
# Compressibility (1/GPa) = 0.01630455
#
# Stress axis : x y z
#
# Youngs Moduli (GPa) = 93.84447 76.07174 94.25566
#
# Poissons Ratio (x) = 0.22073 0.21999
# Poissons Ratio (y) = 0.27230 0.35983
# Poissons Ratio (z) = 0.21903 0.29042
#
# Static dielectric constant tensor:
#      x y z
#    x 3.760210 0.000000 -0.120790 
#    y 0.000000 3.346520 0.000000 
#    z -0.120790 0.000000 3.564850 
# 
# 
# High freq. dielectric constant tensor:
#      x y z
#    x 1.750400 0.000000 -0.014790 
#    y 0.000000 1.718250 0.000000 
#    z -0.014790 0.000000 1.752270 
# 
# From -- ./inp_files/74554.got.cif
#   From: 2010.06.25/outbox.cif.g09.slc.cpg/sg12_38_cif.got.tgz:74554.got - 2010.06.28 00:19:55.
