data_PCOD8113145
_publ_section_title
;
Structure prediction by ZEFSAII (Michael W. Deem and Ramdas Pophale) SiO2 
 PCOD8113145
Probable space group: C 2/M
;
_chemical_formula_sum "Si O2"
_cell_formula_units_Z 32
_cell_length_a 4.951773
_cell_length_b 17.357910
_cell_length_c 15.132066
_cell_angle_alpha 90.000000
_cell_angle_beta 87.419907
_cell_angle_gamma 90.000000
_cell_volume 1299.319350
_symmetry_space_group_name_H-M "C 2/M"
_symmetry_group_IT_number 12
_symmetry_cell_setting 'monoclinic'
loop_
_space_group_symop_operation_xyz
x,y,z
-x,y,-z
-x,-y,-z
x,-y,z
1/2+x,1/2+y,z
1/2-x,1/2+y,-z
1/2-x,1/2-y,-z
1/2+x,1/2-y,z
loop_
_atom_site_type_symbol
_atom_site_label
_atom_site_fract_x
_atom_site_fract_y
_atom_site_fract_z
Si Si1 0.050798 0.804459 0.316474
Si Si2 0.817500 0.586975 0.763629
Si Si3 0.964243 0.301194 0.101878
Si Si4 0.169071 0.412877 0.580773
O O1 0.349190 0.767126 0.308747
O O2 0.071638 0.855967 0.407023
O O3 0.966585 0.866995 0.243192
O O4 0.745373 0.500000 0.791121
O O5 0.994125 0.623738 0.839362
O O6 0.983761 0.591092 0.670455
O O7 0.167521 0.232173 0.125192
O O8 0.000000 0.326174 0.000000
O O9 0.274499 0.500000 0.562839
O O10 0.000000 0.382318 0.500000
#
# Coordination Sequence:
#
# PCOD8113145 Si02
#       4
#     8   8   8   8
#     4  12  24  43  66  94 131 172 225 278 330 390
#     4  11  24  43  69 100 137 178 226 277 335 397
#     4  10  23  44  70 100 135 175 219 270 337 405
#     4  10  24  46  68  96 137 183 227 275 336 399
#
# _framework density 24.628278000000002
#
# number of rings (size 3 to 8) (size 9 to 14) (size 15 to 20)
#    0.000    1.250    2.500    2.250    3.500    2.500 
#    0.000    3.750    0.000    4.500    0.000    0.000 
#    0.000    0.000    0.000    0.000    0.000    0.000 
#
# Total GULP energy -198248.598527 kJ/mol
# GULP energy per Si atom -12390.537408 kJ/mol
# Density = 2.457222 g / cm^3
# Si number density = 24.628278 Si / 1000 Ang^3
#
#
#
# Elastic Constant Matrix: (Units=GPa)
#
#
# Indices 1 2 3 4 5 6 
#
# 1 93.4664 32.8189 31.2908 0.0000 18.4259 0.0000
# 2 32.8189 168.1892 78.8537 0.0000 37.1083 0.0000
# 3 31.2908 78.8537 139.5403 0.0000 26.5263 0.0000
# 4 0.0000 0.0000 0.0000 34.7656 0.0000 16.6362
# 5 18.4259 37.1083 26.5263 0.0000 34.5468 0.0000
# 6 0.0000 0.0000 0.0000 16.6362 0.0000 13.5848
#
#
#
# Elastic Compliance Matrix: (Units=1/GPa)
#
#
# Indices 1 2 3 4 5 6 
#
# 1 0.012367 -0.000668 -0.001497 0.000000 -0.004729 0.000000
# 2 -0.000668 0.009378 -0.003867 0.000000 -0.006748 0.000000
# 3 -0.001497 -0.003867 0.010241 0.000000 -0.002911 0.000000
# 4 0.000000 0.000000 0.000000 0.069480 0.000000 -0.085087
# 5 -0.004729 -0.006748 -0.002911 0.000000 0.040952 0.000000
# 6 0.000000 0.000000 0.000000 -0.085087 0.000000 0.177811
#
#
# Mechanical properties :
#
#
# Convention : Reuss Voigt Hill
#
# Bulk Modulus (GPa) = 50.19517 76.34697 63.27107
# Shear Modulus (GPa) = 14.75220 33.79494 24.27357
#
# Velocity S-wave (km/s) = 2.45009 3.70834 3.14283
# Velocity P-wave (km/s) = 5.33191 7.02871 6.23827
#
# Compressibility (1/GPa) = 0.01992224
#
# Stress axis : x y z
#
# Youngs Moduli (GPa) = 80.86050 106.63586 97.65108
#
# Poissons Ratio (x) = 0.07124 0.14615
# Poissons Ratio (y) = 0.05402 0.37760
# Poissons Ratio (z) = 0.12102 0.41234
#
# Static dielectric constant tensor:
#      x y z
#    x 4.368890 0.000000 0.440380 
#    y 0.000000 4.905310 0.000000 
#    z 0.440380 0.000000 4.816210 
# 
# 
# High freq. dielectric constant tensor:
#      x y z
#    x 1.976280 0.000000 0.028780 
#    y 0.000000 1.990550 0.000000 
#    z 0.028780 0.000000 1.984400 
# 
# From -- ./inp_files/190893.got.cif
#   From: 2010.06.25/outbox.cif.g09.slc.cpg/sg12_96_cif.got.tgz:190893.got - 2010.06.28 00:19:55.
