data_PCOD8113401
_publ_section_title
;
Structure prediction by ZEFSAII (Michael W. Deem and Ramdas Pophale) SiO2 
 PCOD8113401
Probable space group: C 2/M
;
_chemical_formula_sum "Si O2"
_cell_formula_units_Z 36
_cell_length_a 8.523041
_cell_length_b 17.189771
_cell_length_c 11.781120
_cell_angle_alpha 90.000000
_cell_angle_beta 108.473457
_cell_angle_gamma 90.000000
_cell_volume 1637.099585
_symmetry_space_group_name_H-M "C 2/M"
_symmetry_group_IT_number 12
_symmetry_cell_setting 'monoclinic'
loop_
_space_group_symop_operation_xyz
x,y,z
-x,y,-z
-x,-y,-z
x,-y,z
1/2+x,1/2+y,z
1/2-x,1/2+y,-z
1/2-x,1/2-y,-z
1/2+x,1/2-y,z
loop_
_atom_site_type_symbol
_atom_site_label
_atom_site_fract_x
_atom_site_fract_y
_atom_site_fract_z
Si Si1 0.303848 0.909103 0.446750
Si Si2 0.618370 0.000000 0.190357
Si Si3 0.764439 0.500000 0.038011
Si Si4 0.076238 0.809997 0.257553
Si Si5 0.760771 0.153008 0.332965
Si Si6 0.500000 0.629406 0.000000
O O1 0.500000 0.896419 0.500000
O O2 0.228237 0.869966 0.315679
O O3 0.213738 0.862610 0.527746
O O4 0.257674 0.000000 0.437396
O O5 0.420445 0.000000 0.157470
O O6 0.684333 0.924871 0.266901
O O7 0.677395 0.000000 0.076578
O O8 0.662759 0.422591 0.037526
O O9 0.131593 0.721809 0.283924
O O10 0.933298 0.827763 0.314510
O O11 0.006892 0.817877 0.113885
#
# Coordination Sequence:
#
# PCOD8113401 Si02
#       6
#     8   4   4   8   8   4
#     4  11  26  46  77 108 141 189 239 299 360 424
#     4  11  24  46  74 102 143 195 243 293 352 426
#     4  10  24  44  70 104 146 191 245 289 349 426
#     4  12  28  45  73 105 152 186 240 294 361 423
#     4  12  26  48  72 108 143 188 240 298 362 418
#     4  11  26  44  72 109 148 190 236 293 356 424
#
# _framework density 21.990106999999998
#
# number of rings (size 3 to 8) (size 9 to 14) (size 15 to 20)
#    0.000    0.667    3.333    2.667   10.889    3.556 
#    0.000    0.000    0.000    0.000    0.000    0.000 
#    0.000    0.000    0.000    0.000    0.000    0.000 
#
# Total GULP energy -223286.317184 kJ/mol
# GULP energy per Si atom -12404.795399 kJ/mol
# Density = 2.194006 g / cm^3
# Si number density = 21.990107 Si / 1000 Ang^3
#
#
#
# Elastic Constant Matrix: (Units=GPa)
#
#
# Indices 1 2 3 4 5 6 
#
# 1 115.2657 52.1690 42.0287 0.0000 8.8061 0.0000
# 2 52.1690 170.0845 39.2272 0.0000 10.8750 0.0000
# 3 42.0287 39.2272 65.2193 0.0000 -2.5262 0.0000
# 4 0.0000 0.0000 0.0000 -322.8103 0.0000 65.3840
# 5 8.8061 10.8750 -2.5262 0.0000 33.6037 0.0000
# 6 0.0000 0.0000 0.0000 65.3840 0.0000 27.2293
#
#
#
# Elastic Compliance Matrix: (Units=1/GPa)
#
#
# Indices 1 2 3 4 5 6 
#
# 1 0.012316 -0.001999 -0.006854 0.000000 -0.003096 0.000000
# 2 -0.001999 0.007371 -0.003227 0.000000 -0.002104 0.000000
# 3 -0.006854 -0.003227 0.021865 0.000000 0.004484 0.000000
# 4 0.000000 0.000000 0.000000 -0.002084 0.000000 0.005005
# 5 -0.003096 -0.002104 0.004484 0.000000 0.031588 0.000000
# 6 0.000000 0.000000 0.000000 0.005005 0.000000 0.024708
#
#
# Mechanical properties :
#
#
# Convention : Reuss Voigt Hill
#
# Bulk Modulus (GPa) = 57.49931 68.60214 63.05073
# Shear Modulus (GPa) = 39.77034 -37.91915 0.92560
#
# Velocity S-wave (km/s) = 4.25733 -4.15706 0.64948
# Velocity P-wave (km/s) = 7.09725 2.86758 5.41267
#
# Compressibility (1/GPa) = 0.01739151
#
# Stress axis : x y z
#
# Youngs Moduli (GPa) = 81.19464 135.66069 45.73586
#
# Poissons Ratio (x) = 0.27116 0.31349
# Poissons Ratio (y) = 0.16229 0.14759
# Poissons Ratio (z) = 0.55654 0.43778
#
# Static dielectric constant tensor:
#      x y z
#    x 4.155850 0.000000 -0.072570 
#    y 0.000000 3.987330 0.000000 
#    z -0.072570 0.000000 4.261410 
# 
# 
# High freq. dielectric constant tensor:
#      x y z
#    x 1.877810 0.000000 -0.000080 
#    y 0.000000 1.874140 0.000000 
#    z -0.000080 0.000000 1.878170 
# 
# From -- ./inp_files/119261.got.cif
#   From: 2010.06.25/outbox.cif.g09.slc.cpg/sg12_60_cif.got.tgz:119261.got - 2010.06.28 00:19:55.
