data_PCOD8113711
_publ_section_title
;
Structure prediction by ZEFSAII (Michael W. Deem and Ramdas Pophale) SiO2 
 PCOD8113711
Probable space group: C 2/M
;
_chemical_formula_sum "Si O2"
_cell_formula_units_Z 48
_cell_length_a 11.225231
_cell_length_b 29.837129
_cell_length_c 13.270141
_cell_angle_alpha 90.000000
_cell_angle_beta 32.644550
_cell_angle_gamma 90.000000
_cell_volume 2397.504676
_symmetry_space_group_name_H-M "C 2/M"
_symmetry_group_IT_number 12
_symmetry_cell_setting 'monoclinic'
loop_
_space_group_symop_operation_xyz
x,y,z
-x,y,-z
-x,-y,-z
x,-y,z
1/2+x,1/2+y,z
1/2-x,1/2+y,-z
1/2-x,1/2-y,-z
1/2+x,1/2-y,z
loop_
_atom_site_type_symbol
_atom_site_label
_atom_site_fract_x
_atom_site_fract_y
_atom_site_fract_z
Si Si1 0.526409 0.705930 0.225201
Si Si2 0.647897 0.635731 0.491942
Si Si3 0.805041 0.934226 0.207752
Si Si4 0.768325 0.336811 0.719814
Si Si5 0.435552 0.195059 0.806294
Si Si6 0.182233 0.549200 0.513863
O O1 0.479573 0.668998 0.342573
O O2 0.369255 0.700436 0.240569
O O3 0.475368 0.756746 0.296832
O O4 0.783620 0.701136 0.012722
O O5 0.500000 0.626370 0.500000
O O6 0.695259 0.587756 0.509764
O O7 0.872062 0.660739 0.300429
O O8 0.865238 0.882948 0.189004
O O9 0.575286 0.938029 0.310983
O O10 0.789430 0.957781 0.327064
O O11 0.000000 0.955360 0.000000
O O12 0.790631 0.324209 0.819491
O O13 0.000000 0.344800 0.500000
O O14 0.205072 0.500000 0.550429
#
# Coordination Sequence:
#
# PCOD8113711 Si02
#       6
#     8   8   8   8   8   8
#     4  11  24  40  62  92 125 163 204 247 297 357
#     4  12  26  43  62  85 121 167 208 254 301 353
#     4  11  19  37  67  96 125 153 188 249 318 365
#     4  12  20  37  66  93 128 162 195 250 307 359
#     4  11  24  40  62  92 125 163 204 247 297 357
#     4  11  24  42  61  92 123 151 203 253 305 373
#
# _framework density 20.020817000000001
#
# number of rings (size 3 to 8) (size 9 to 14) (size 15 to 20)
#    0.000    0.667    6.667    3.000    2.333    2.333 
#    0.000    0.000    0.000    0.000    0.000    4.667 
#    0.000    0.000    0.000    0.000    0.000    0.000 
#
# Total GULP energy -297562.248101 kJ/mol
# GULP energy per Si atom -12398.427004 kJ/mol
# Density = 1.997525 g / cm^3
# Si number density = 20.020817 Si / 1000 Ang^3
#
#
#
# Elastic Constant Matrix: (Units=GPa)
#
#
# Indices 1 2 3 4 5 6 
#
# 1 110.2210 35.2430 21.0100 0.0000 -12.8970 0.0000
# 2 35.2430 141.2411 11.3522 0.0000 -9.8393 0.0000
# 3 21.0100 11.3522 103.2096 0.0000 -0.0702 0.0000
# 4 0.0000 0.0000 0.0000 -8.9309 0.0000 5.6320
# 5 -12.8970 -9.8393 -0.0702 0.0000 13.2224 0.0000
# 6 0.0000 0.0000 0.0000 5.6320 0.0000 14.9334
#
#
#
# Elastic Compliance Matrix: (Units=1/GPa)
#
#
# Indices 1 2 3 4 5 6 
#
# 1 0.011200 -0.001971 -0.002057 0.000000 0.009447 0.000000
# 2 -0.001971 0.007884 -0.000463 0.000000 0.003941 0.000000
# 3 -0.002057 -0.000463 0.010157 0.000000 -0.002297 0.000000
# 4 0.000000 0.000000 0.000000 -0.090457 0.000000 0.034115
# 5 0.009447 0.003941 -0.002297 0.000000 0.087764 0.000000
# 6 0.000000 0.000000 0.000000 0.034115 0.000000 0.054098
#
#
# Mechanical properties :
#
#
# Convention : Reuss Voigt Hill
#
# Bulk Modulus (GPa) = 49.36144 54.43133 51.89638
# Shear Modulus (GPa) = 51.87719 22.98277 37.42998
#
# Velocity S-wave (km/s) = 5.09587 3.39181 4.32852
# Velocity P-wave (km/s) = 7.70275 6.52576 7.13856
#
# Compressibility (1/GPa) = 0.02025873
#
# Stress axis : x y z
#
# Youngs Moduli (GPa) = 89.28200 126.84260 98.45337
#
# Poissons Ratio (x) = 0.25005 0.20250
# Poissons Ratio (y) = 0.17601 0.04560
# Poissons Ratio (z) = 0.18363 0.05875
#
# Static dielectric constant tensor:
#      x y z
#    x 3.423200 0.000000 0.021990 
#    y 0.000000 3.793390 0.000000 
#    z 0.021990 0.000000 3.838470 
# 
# 
# High freq. dielectric constant tensor:
#      x y z
#    x 1.750390 0.000000 0.001220 
#    y 0.000000 1.797900 0.000000 
#    z 0.001220 0.000000 1.791480 
# 
# From -- ./inp_files/209271.got.cif
#   From: 2010.06.25/outbox.cif.g09.slc.cpg/sg12_105_cif.got.tgz:209271.got - 2010.06.28 00:19:55.
