data_PCOD8113705
_publ_section_title
;
Structure prediction by ZEFSAII (Michael W. Deem and Ramdas Pophale) SiO2 
 PCOD8113705
Probable space group: C 2/M
;
_chemical_formula_sum "Si O2"
_cell_formula_units_Z 56
_cell_length_a 15.823958
_cell_length_b 17.650072
_cell_length_c 14.912293
_cell_angle_alpha 90.000000
_cell_angle_beta 49.074149
_cell_angle_gamma 90.000000
_cell_volume 3146.833969
_symmetry_space_group_name_H-M "C 2/M"
_symmetry_group_IT_number 12
_symmetry_cell_setting 'monoclinic'
loop_
_space_group_symop_operation_xyz
x,y,z
-x,y,-z
-x,-y,-z
x,-y,z
1/2+x,1/2+y,z
1/2-x,1/2+y,-z
1/2-x,1/2-y,-z
1/2+x,1/2-y,z
loop_
_atom_site_type_symbol
_atom_site_label
_atom_site_fract_x
_atom_site_fract_y
_atom_site_fract_z
Si Si1 0.590404 0.711218 0.015039
Si Si2 0.257082 0.160362 0.162364
Si Si3 0.528782 0.719835 0.379218
Si Si4 0.908706 0.081846 0.484372
Si Si5 0.742505 0.588910 0.987140
Si Si6 0.340209 0.914839 0.269566
Si Si7 0.465541 0.821638 0.790224
O O1 0.693046 0.762729 0.911860
O O2 0.641011 0.629560 0.005047
O O3 0.500000 0.700061 0.000000
O O4 0.537271 0.750729 0.139505
O O5 0.149962 0.181050 0.295742
O O6 0.345961 0.119512 0.165334
O O7 0.225569 0.102810 0.104745
O O8 0.500000 0.747675 0.500000
O O9 0.439424 0.656064 0.404215
O O10 0.528350 0.791819 0.315183
O O11 0.783806 0.088463 0.606072
O O12 0.000000 0.086116 0.500000
O O13 0.922600 0.000000 0.424850
O O14 0.737912 0.500000 0.968672
O O15 0.861070 0.622667 0.874173
O O16 0.421225 0.867994 0.276699
O O17 0.385334 0.000000 0.232688
#
# Coordination Sequence:
#
# PCOD8113705 Si02
#       7
#     8   8   8   8   8   8   8
#     4  11  21  38  61  84 118 150 190 244 289 343
#     4  11  19  37  58  89 118 147 189 241 293 347
#     4  11  20  36  61  85 110 158 198 233 288 337
#     4   9  18  31  50  80 115 146 180 228 283 334
#     4  11  23  38  60  85 116 156 193 236 294 347
#     4  11  21  34  57  88 120 148 182 238 298 342
#     4  11  22  39  57  87 120 149 195 239 285 352
#
# _framework density 17.795663999999999
#
# number of rings (size 3 to 8) (size 9 to 14) (size 15 to 20)
#    0.000    1.286    7.143    1.714    0.000    1.429 
#    0.000    2.143    0.000    1.714    0.000    0.000 
#    0.000    0.000    0.000    0.000    0.000    0.000 
#
# Total GULP energy -347102.140884 kJ/mol
# GULP energy per Si atom -12396.505032 kJ/mol
# Density = 1.775516 g / cm^3
# Si number density = 17.795664 Si / 1000 Ang^3
#
#
#
# Elastic Constant Matrix: (Units=GPa)
#
#
# Indices 1 2 3 4 5 6 
#
# 1 89.3775 57.2052 36.7613 0.0000 -0.9217 0.0000
# 2 57.2052 130.5235 40.7617 0.0000 2.6985 0.0000
# 3 36.7613 40.7617 94.2498 0.0000 5.5968 0.0000
# 4 0.0000 0.0000 0.0000 19.4525 0.0000 -2.6901
# 5 -0.9217 2.6985 5.5968 0.0000 24.9234 0.0000
# 6 0.0000 0.0000 0.0000 -2.6901 0.0000 18.4955
#
#
#
# Elastic Compliance Matrix: (Units=1/GPa)
#
#
# Indices 1 2 3 4 5 6 
#
# 1 0.016805 -0.006154 -0.004023 0.000000 0.002191 0.000000
# 2 -0.006154 0.011112 -0.002352 0.000000 -0.000903 0.000000
# 3 -0.004023 -0.002352 0.013368 0.000000 -0.002896 0.000000
# 4 0.000000 0.000000 0.000000 0.052462 0.000000 0.007630
# 5 0.002191 -0.000903 -0.002896 0.000000 0.040952 0.000000
# 6 0.000000 0.000000 0.000000 0.007630 0.000000 0.055177
#
#
# Mechanical properties :
#
#
# Convention : Reuss Voigt Hill
#
# Bulk Modulus (GPa) = 61.62562 64.84525 63.23543
# Shear Modulus (GPa) = 22.69191 24.53578 23.61384
#
# Velocity S-wave (km/s) = 3.57478 3.71718 3.64668
# Velocity P-wave (km/s) = 7.19329 7.41223 7.30358
#
# Compressibility (1/GPa) = 0.01622702
#
# Stress axis : x y z
#
# Youngs Moduli (GPa) = 59.50752 89.99539 74.80348
#
# Poissons Ratio (x) = 0.55383 0.30094
# Poissons Ratio (y) = 0.36621 0.17592
# Poissons Ratio (z) = 0.23940 0.21165
#
# Static dielectric constant tensor:
#      x y z
#    x 3.196220 0.000000 -0.098560 
#    y 0.000000 3.488680 0.000000 
#    z -0.098560 0.000000 3.240860 
# 
# 
# High freq. dielectric constant tensor:
#      x y z
#    x 1.674790 0.000000 -0.016980 
#    y 0.000000 1.691110 0.000000 
#    z -0.016980 0.000000 1.685550 
# 
# From -- ./inp_files/145642.got.cif
#   From: 2010.06.25/outbox.cif.g09.slc.cpg/sg12_73_cif.got.tgz:145642.got - 2010.06.28 00:19:55.
