data_PCOD8113451
_publ_section_title
;
Structure prediction by ZEFSAII (Michael W. Deem and Ramdas Pophale) SiO2 
 PCOD8113451
Probable space group: C 2/M
;
_chemical_formula_sum "Si O2"
_cell_formula_units_Z 24
_cell_length_a 6.745084
_cell_length_b 13.204532
_cell_length_c 15.981422
_cell_angle_alpha 90.000000
_cell_angle_beta 39.410848
_cell_angle_gamma 90.000000
_cell_volume 903.681219
_symmetry_space_group_name_H-M "C 2/M"
_symmetry_group_IT_number 12
_symmetry_cell_setting 'monoclinic'
loop_
_space_group_symop_operation_xyz
x,y,z
-x,y,-z
-x,-y,-z
x,-y,z
1/2+x,1/2+y,z
1/2-x,1/2+y,-z
1/2-x,1/2-y,-z
1/2+x,1/2-y,z
loop_
_atom_site_type_symbol
_atom_site_label
_atom_site_fract_x
_atom_site_fract_y
_atom_site_fract_z
Si Si1 0.568578 0.174896 0.387519
Si Si2 0.768845 0.110464 0.664167
Si Si3 0.258834 0.115311 0.145463
O O1 0.500000 0.121573 0.500000
O O2 0.448194 0.115175 0.346230
O O3 0.469966 0.297592 0.423764
O O4 0.943488 0.181340 0.251893
O O5 0.584780 0.118823 0.812452
O O6 0.938662 0.000000 0.606360
O O7 0.176347 0.000000 0.146277
O O8 0.500000 0.162762 0.000000
#
# Coordination Sequence:
#
# PCOD8113451 Si02
#       3
#     8   8   8
#     4  12  25  46  69 104 138 177 232 281 334 407
#     4  11  25  44  71 102 138 181 225 280 344 401
#     4  10  24  46  71 102 139 180 228 281 340 406
#
# _framework density 26.558036999999999
#
# number of rings (size 3 to 8) (size 9 to 14) (size 15 to 20)
#    0.000    1.000    3.333    2.000    0.000    6.000 
#    0.000    5.000    0.000    0.000    0.000    0.000 
#    0.000    0.000    0.000    0.000    0.000    0.000 
#
# Total GULP energy -148688.242763 kJ/mol
# GULP energy per Si atom -12390.686897 kJ/mol
# Density = 2.649759 g / cm^3
# Si number density = 26.558037 Si / 1000 Ang^3
#
#
#
# Elastic Constant Matrix: (Units=GPa)
#
#
# Indices 1 2 3 4 5 6 
#
# 1 163.8393 40.5944 84.2276 -0.0298 44.5146 0.0162
# 2 40.5944 127.9902 23.2933 0.0495 5.7073 0.0020
# 3 84.2276 23.2933 201.4460 0.0755 49.3836 0.0384
# 4 -0.0298 0.0495 0.0755 21.4716 0.0376 1.6671
# 5 44.5146 5.7073 49.3836 0.0376 50.5162 -0.0095
# 6 0.0162 0.0020 0.0384 1.6671 -0.0095 32.9207
#
#
#
# Elastic Compliance Matrix: (Units=1/GPa)
#
#
# Indices 1 2 3 4 5 6 
#
# 1 0.009417 -0.002319 -0.002235 0.000037 -0.005851 -0.000005
# 2 -0.002319 0.008552 -0.000373 -0.000024 0.001442 0.000003
# 3 -0.002235 -0.000373 0.007166 -0.000018 -0.004994 -0.000008
# 4 0.000037 -0.000024 -0.000018 0.046757 -0.000047 -0.002368
# 5 -0.005851 0.001442 -0.004994 -0.000047 0.029671 0.000020
# 6 -0.000005 0.000003 -0.000008 -0.002368 0.000020 0.030496
#
#
# Mechanical properties :
#
#
# Convention : Reuss Voigt Hill
#
# Bulk Modulus (GPa) = 65.43707 87.72289 76.57998
# Shear Modulus (GPa) = 34.01226 43.99236 39.00231
#
# Velocity S-wave (km/s) = 3.58254 4.07438 3.83635
# Velocity P-wave (km/s) = 6.46572 7.43212 6.96570
#
# Compressibility (1/GPa) = 0.01528186
#
# Stress axis : x y z
#
# Youngs Moduli (GPa) = 106.19312 116.92915 139.55214
#
# Poissons Ratio (x) = 0.27117 0.31186
# Poissons Ratio (y) = 0.24627 0.05200
# Poissons Ratio (z) = 0.23731 0.04357
#
# Static dielectric constant tensor:
#      x y z
#    x 4.982580 -0.000010 0.375110 
#    y -0.000010 4.996470 0.000020 
#    z 0.375110 0.000020 5.020730 
# 
# 
# High freq. dielectric constant tensor:
#      x y z
#    x 2.076150 0.000000 0.035070 
#    y 0.000000 2.072890 0.000000 
#    z 0.035070 0.000000 2.065730 
# 
# From -- ./inp_files/35894.got.cif
#   From: 2010.06.25/outbox.cif.g09.slc.cpg/sg12_18_cif.got.tgz:35894.got - 2010.06.28 00:19:55.
