data_PCOD8113638
_publ_section_title
;
Structure prediction by ZEFSAII (Michael W. Deem and Ramdas Pophale) SiO2 
 PCOD8113638
Probable space group: C 2/M
;
_chemical_formula_sum "Si O2"
_cell_formula_units_Z 56
_cell_length_a 27.500302
_cell_length_b 9.219181
_cell_length_c 17.458016
_cell_angle_alpha 90.000000
_cell_angle_beta 126.906867
_cell_angle_gamma 90.000000
_cell_volume 3539.194011
_symmetry_space_group_name_H-M "C 2/M"
_symmetry_group_IT_number 12
_symmetry_cell_setting 'monoclinic'
loop_
_space_group_symop_operation_xyz
x,y,z
-x,y,-z
-x,-y,-z
x,-y,z
1/2+x,1/2+y,z
1/2-x,1/2+y,-z
1/2-x,1/2-y,-z
1/2+x,1/2-y,z
loop_
_atom_site_type_symbol
_atom_site_label
_atom_site_fract_x
_atom_site_fract_y
_atom_site_fract_z
Si Si1 0.902246 0.831136 0.889912
Si Si2 0.480042 0.171231 0.719525
Si Si3 0.208266 0.672586 0.280722
Si Si4 0.176314 0.671529 0.577958
Si Si5 0.014630 0.167719 0.892198
Si Si6 0.155356 0.328936 0.389522
Si Si7 0.038927 0.672203 0.467060
O O1 0.841880 0.734570 0.824787
O O2 0.953269 0.780398 0.877354
O O3 0.886414 0.000000 0.862976
O O4 0.927440 0.803295 0.999040
O O5 0.525464 0.246271 0.822953
O O6 0.413279 0.229562 0.678748
O O7 0.491855 0.220218 0.642660
O O8 0.487070 0.000000 0.734598
O O9 0.211020 0.500000 0.275516
O O10 0.274178 0.741816 0.324547
O O11 0.191696 0.728535 0.350562
O O12 0.185003 0.500000 0.598004
O O13 0.186401 0.718579 0.498639
O O14 0.109032 0.722776 0.540046
O O15 0.009090 0.000000 0.866951
O O16 0.151308 0.500000 0.384035
O O17 0.038495 0.500000 0.470198
O O18 0.000000 0.740058 0.500000
#
# Coordination Sequence:
#
# PCOD8113638 Si02
#       7
#     8   8   8   8   8   8   8
#     4   9  18  30  42  58  85 121 154 181 210 251
#     4   9  15  26  45  66  89 114 145 181 216 255
#     4  11  19  27  40  61  89 117 148 181 213 250
#     4   9  17  29  44  60  84 116 148 177 210 257
#     4   9  17  29  43  61  86 116 151 184 214 253
#     4   8  15  26  38  57  85 116 145 173 204 245
#     4   8  15  29  49  70  89 112 144 181 218 261
#
# _framework density 15.822812000000001
#
# number of rings (size 3 to 8) (size 9 to 14) (size 15 to 20)
#    0.000    3.000    1.429    3.429    0.000    0.571 
#    0.000    5.000    0.000    1.714    0.000    1.000 
#    0.000    0.000    0.000    0.000    0.000    0.000 
#
# Total GULP energy -346999.506571 kJ/mol
# GULP energy per Si atom -12392.839520 kJ/mol
# Density = 1.578680 g / cm^3
# Si number density = 15.822812 Si / 1000 Ang^3
#
#
#
# Elastic Constant Matrix: (Units=GPa)
#
#
# Indices 1 2 3 4 5 6 
#
# 1 72.0935 26.9397 51.5286 0.0000 -4.7391 0.0000
# 2 26.9397 47.5288 47.6853 0.0000 1.2646 0.0000
# 3 51.5286 47.6853 116.2003 0.0000 1.6409 0.0000
# 4 0.0000 0.0000 0.0000 26.9749 0.0000 2.0456
# 5 -4.7391 1.2646 1.6409 0.0000 19.1682 0.0000
# 6 0.0000 0.0000 0.0000 2.0456 0.0000 11.2945
#
#
#
# Elastic Compliance Matrix: (Units=1/GPa)
#
#
# Indices 1 2 3 4 5 6 
#
# 1 0.021547 -0.004598 -0.007757 0.000000 0.006295 0.000000
# 2 -0.004598 0.036770 -0.013016 0.000000 -0.002448 0.000000
# 3 -0.007757 -0.013016 0.017423 0.000000 -0.002551 0.000000
# 4 0.000000 0.000000 0.000000 0.037588 0.000000 -0.006808
# 5 0.006295 -0.002448 -0.002551 0.000000 0.054106 0.000000
# 6 0.000000 0.000000 0.000000 -0.006808 0.000000 0.089772
#
#
# Mechanical properties :
#
#
# Convention : Reuss Voigt Hill
#
# Bulk Modulus (GPa) = 40.00257 54.23663 47.11960
# Shear Modulus (GPa) = 15.80881 18.79880 17.30380
#
# Velocity S-wave (km/s) = 3.16431 3.45060 3.31055
# Velocity P-wave (km/s) = 6.21988 7.08713 6.66762
#
# Compressibility (1/GPa) = 0.02499840
#
# Stress axis : x y z
#
# Youngs Moduli (GPa) = 46.40992 27.19621 57.39562
#
# Poissons Ratio (x) = 0.12505 0.44522
# Poissons Ratio (y) = 0.21339 0.74705
# Poissons Ratio (z) = 0.36000 0.35398
#
# Static dielectric constant tensor:
#      x y z
#    x 2.990510 0.000000 -0.087740 
#    y 0.000000 2.682230 0.000000 
#    z -0.087740 0.000000 3.068410 
# 
# 
# High freq. dielectric constant tensor:
#      x y z
#    x 1.565530 0.000000 0.004070 
#    y 0.000000 1.585260 0.000000 
#    z 0.004070 0.000000 1.610760 
# 
# From -- ./inp_files/292657.got.cif
#   From: 2010.06.25/outbox.cif.g09.slc.cpg/sg12_147_cif.got.tgz:292657.got - 2010.06.28 00:19:55.
