data_PCOD8113262
_publ_section_title
;
Structure prediction by ZEFSAII (Michael W. Deem and Ramdas Pophale) SiO2 
 PCOD8113262
Probable space group: C 2/M
;
_chemical_formula_sum "Si O2"
_cell_formula_units_Z 36
_cell_length_a 8.622570
_cell_length_b 17.027388
_cell_length_c 13.031047
_cell_angle_alpha 90.000000
_cell_angle_beta 59.958546
_cell_angle_gamma 90.000000
_cell_volume 1656.201371
_symmetry_space_group_name_H-M "C 2/M"
_symmetry_group_IT_number 12
_symmetry_cell_setting 'monoclinic'
loop_
_space_group_symop_operation_xyz
x,y,z
-x,y,-z
-x,-y,-z
x,-y,z
1/2+x,1/2+y,z
1/2-x,1/2+y,-z
1/2-x,1/2-y,-z
1/2+x,1/2-y,z
loop_
_atom_site_type_symbol
_atom_site_label
_atom_site_fract_x
_atom_site_fract_y
_atom_site_fract_z
Si Si1 0.288648 0.087662 0.556212
Si Si2 0.238928 0.692634 0.249716
Si Si3 0.121522 0.500000 0.807280
Si Si4 0.763284 0.000000 0.988428
Si Si5 0.662364 0.845427 0.671548
Si Si6 0.500000 0.632823 0.000000
O O1 0.500000 0.081499 0.500000
O O2 0.204251 0.127983 0.684366
O O3 0.248044 0.140825 0.469796
O O4 0.206900 0.000000 0.572224
O O5 0.231340 0.777547 0.304935
O O6 0.384406 0.689903 0.110843
O O7 0.045782 0.676265 0.266167
O O8 0.202580 0.500000 0.892478
O O9 0.191377 0.424412 0.725004
O O10 0.905989 0.500000 0.879358
O O11 0.874743 0.921487 0.971710
#
# Coordination Sequence:
#
# PCOD8113262 Si02
#       6
#     8   8   4   4   8   4
#     4   9  19  38  67  94 124 168 217 264 319 379
#     4  11  25  39  66  95 135 170 213 265 324 375
#     4  11  22  44  67  92 127 176 216 262 321 377
#     4  10  24  40  66  93 131 169 219 263 310 384
#     4  11  23  43  66  96 129 167 219 267 321 379
#     4  11  24  42  64  97 134 168 214 259 320 386
#
# _framework density 21.736487
#
# number of rings (size 3 to 8) (size 9 to 14) (size 15 to 20)
#    0.000    1.556    3.333    0.667    7.778    2.667 
#    0.000    0.000    0.000    2.667    0.000    0.000 
#    0.000    0.000    0.000    0.000    0.000    0.000 
#
# Total GULP energy -223283.318395 kJ/mol
# GULP energy per Si atom -12404.628800 kJ/mol
# Density = 2.168701 g / cm^3
# Si number density = 21.736487 Si / 1000 Ang^3
#
#
#
# Elastic Constant Matrix: (Units=GPa)
#
#
# Indices 1 2 3 4 5 6 
#
# 1 43.0157 16.6515 9.5019 0.0000 11.5710 0.0000
# 2 16.6515 139.6911 31.4993 0.0000 14.4087 0.0000
# 3 9.5019 31.4993 110.7645 0.0000 4.9221 0.0000
# 4 0.0000 0.0000 0.0000 32.7471 0.0000 -0.4435
# 5 11.5710 14.4087 4.9221 0.0000 21.9176 0.0000
# 6 0.0000 0.0000 0.0000 -0.4435 0.0000 -3.4647
#
#
#
# Elastic Compliance Matrix: (Units=1/GPa)
#
#
# Indices 1 2 3 4 5 6 
#
# 1 0.027745 -0.001640 -0.001324 0.000000 -0.013272 0.000000
# 2 -0.001640 0.008231 -0.002018 0.000000 -0.004092 0.000000
# 3 -0.001324 -0.002018 0.009723 0.000000 -0.000158 0.000000
# 4 0.000000 0.000000 0.000000 0.030484 0.000000 -0.003902
# 5 -0.013272 -0.004092 -0.000158 0.000000 0.055358 0.000000
# 6 0.000000 0.000000 0.000000 -0.003902 0.000000 -0.288126
#
#
# Mechanical properties :
#
#
# Convention : Reuss Voigt Hill
#
# Bulk Modulus (GPa) = 27.98409 45.41964 36.70186
# Shear Modulus (GPa) = -37.11673 25.96124 -5.57774
#
# Velocity S-wave (km/s) = -4.13677 3.45970 -1.60363
# Velocity P-wave (km/s) = 3.14880 6.07457 3.67324
#
# Compressibility (1/GPa) = 0.03573460
#
# Stress axis : x y z
#
# Youngs Moduli (GPa) = 36.04307 121.48687 102.85190
#
# Poissons Ratio (x) = 0.19920 0.13617
# Poissons Ratio (y) = 0.05910 0.20759
# Poissons Ratio (z) = 0.04772 0.24520
#
# Static dielectric constant tensor:
#      x y z
#    x 3.728450 0.000000 0.117250 
#    y 0.000000 3.934660 0.000000 
#    z 0.117250 0.000000 4.027250 
# 
# 
# High freq. dielectric constant tensor:
#      x y z
#    x 1.839190 0.000000 0.011720 
#    y 0.000000 1.859740 0.000000 
#    z 0.011720 0.000000 1.863530 
# 
# From -- ./inp_files/118805.got.cif
#   From: 2010.06.25/outbox.cif.g09.slc.cpg/sg12_60_cif.got.tgz:118805.got - 2010.06.28 00:19:55.
