data_PCOD8113612
_publ_section_title
;
Structure prediction by ZEFSAII (Michael W. Deem and Ramdas Pophale) SiO2 
 PCOD8113612
Probable space group: C 2/M
;
_chemical_formula_sum "Si O2"
_cell_formula_units_Z 48
_cell_length_a 9.875705
_cell_length_b 29.492641
_cell_length_c 18.843619
_cell_angle_alpha 90.000000
_cell_angle_beta 150.453985
_cell_angle_gamma 90.000000
_cell_volume 2706.455023
_symmetry_space_group_name_H-M "C 2/M"
_symmetry_group_IT_number 12
_symmetry_cell_setting 'monoclinic'
loop_
_space_group_symop_operation_xyz
x,y,z
-x,y,-z
-x,-y,-z
x,-y,z
1/2+x,1/2+y,z
1/2-x,1/2+y,-z
1/2-x,1/2-y,-z
1/2+x,1/2-y,z
loop_
_atom_site_type_symbol
_atom_site_label
_atom_site_fract_x
_atom_site_fract_y
_atom_site_fract_z
Si Si1 0.735663 0.053103 0.707411
Si Si2 0.119999 0.947957 0.381652
Si Si3 0.881403 0.790378 0.343333
Si Si4 0.740140 0.878504 0.833018
Si Si5 0.802749 0.111870 0.341699
Si Si6 0.454753 0.215678 0.676041
O O1 0.894551 0.067003 0.707482
O O2 0.415431 0.062193 0.549243
O O3 0.833804 0.087037 0.813620
O O4 0.788065 0.000000 0.750642
O O5 0.893115 0.925319 0.327120
O O6 0.049530 0.000000 0.353308
O O7 0.785382 0.841902 0.287860
O O8 0.676316 0.769932 0.308800
O O9 0.202464 0.793014 0.508420
O O10 0.855279 0.757754 0.263025
O O11 0.497175 0.902195 0.767164
O O12 0.636066 0.829840 0.757653
O O13 0.000000 0.869255 0.000000
O O14 0.000000 0.118213 0.500000
#
# Coordination Sequence:
#
# PCOD8113612 Si02
#       6
#     8   8   8   8   8   8
#     4   9  18  34  54  81 111 139 177 223 269 315
#     4   9  18  32  56  84 108 135 178 232 269 304
#     4   9  16  30  52  74 100 127 172 222 258 300
#     4  11  22  36  53  78 113 146 176 216 268 323
#     4  11  18  34  54  80 108 137 182 224 259 311
#     4   9  17  31  49  75 100 132 170 215 262 307
#
# _framework density 17.735377
#
# number of rings (size 3 to 8) (size 9 to 14) (size 15 to 20)
#    0.000    2.333    5.000    1.000    0.000    2.667 
#    0.000    7.500    0.000    2.000    0.000    0.000 
#    0.000    0.000    0.000    0.000    0.000    0.000 
#
# Total GULP energy -297413.473913 kJ/mol
# GULP energy per Si atom -12392.228080 kJ/mol
# Density = 1.769501 g / cm^3
# Si number density = 17.735377 Si / 1000 Ang^3
#
#
#
# Elastic Constant Matrix: (Units=GPa)
#
#
# Indices 1 2 3 4 5 6 
#
# 1 107.3958 65.4946 32.8403 0.0010 -0.6038 -0.0010
# 2 65.4946 79.8983 31.5314 0.0002 -10.2886 -0.0007
# 3 32.8403 31.5314 53.4348 0.0072 0.4576 -0.0052
# 4 0.0010 0.0002 0.0072 9.0943 0.0007 2.9476
# 5 -0.6038 -10.2886 0.4576 0.0007 14.5137 -0.0009
# 6 -0.0010 -0.0007 -0.0052 2.9476 -0.0009 44.6043
#
#
#
# Elastic Compliance Matrix: (Units=1/GPa)
#
#
# Indices 1 2 3 4 5 6 
#
# 1 0.020581 -0.017457 -0.002249 0.000001 -0.011448 0.000000
# 2 -0.017457 0.033461 -0.009216 0.000007 0.023285 -0.000001
# 3 -0.002249 -0.009216 0.025599 -0.000020 -0.007434 0.000004
# 4 0.000001 0.000007 -0.000020 0.112366 -0.000001 -0.007425
# 5 -0.011448 0.023285 -0.007434 -0.000001 0.085165 0.000001
# 6 0.000000 -0.000001 0.000004 -0.007425 0.000001 0.022910
#
#
# Mechanical properties :
#
#
# Convention : Reuss Voigt Hill
#
# Bulk Modulus (GPa) = 45.87929 55.60684 50.74307
# Shear Modulus (GPa) = 13.69145 21.03331 17.36238
#
# Velocity S-wave (km/s) = 2.78148 3.44750 3.13224
# Velocity P-wave (km/s) = 6.02000 6.87522 6.46178
#
# Compressibility (1/GPa) = 0.02179633
#
# Stress axis : x y z
#
# Youngs Moduli (GPa) = 48.58849 29.88524 39.06468
#
# Poissons Ratio (x) = 0.52171 0.08787
# Poissons Ratio (y) = 0.84822 0.36001
# Poissons Ratio (z) = 0.10930 0.27541
#
# Static dielectric constant tensor:
#      x y z
#    x 3.602930 0.000000 0.023860 
#    y 0.000000 3.347270 0.000000 
#    z 0.023860 0.000000 2.920420 
# 
# 
# High freq. dielectric constant tensor:
#      x y z
#    x 1.694810 0.000000 0.010500 
#    y 0.000000 1.689030 0.000000 
#    z 0.010500 0.000000 1.637400 
# 
# From -- ./inp_files/260414.got.cif
#   From: 2010.06.25/outbox.cif.g09.slc.cpg/sg12_131_cif.got.tgz:260414.got - 2010.06.28 00:19:55.
