data_PCOD8113482
_publ_section_title
;
Structure prediction by ZEFSAII (Michael W. Deem and Ramdas Pophale) SiO2 
 PCOD8113482
Probable space group: C 2/M
;
_chemical_formula_sum "Si O2"
_cell_formula_units_Z 64
_cell_length_a 15.358492
_cell_length_b 25.458625
_cell_length_c 11.513173
_cell_angle_alpha 90.000000
_cell_angle_beta 38.284376
_cell_angle_gamma 90.000000
_cell_volume 2789.108646
_symmetry_space_group_name_H-M "C 2/M"
_symmetry_group_IT_number 12
_symmetry_cell_setting 'monoclinic'
loop_
_space_group_symop_operation_xyz
x,y,z
-x,y,-z
-x,-y,-z
x,-y,z
1/2+x,1/2+y,z
1/2-x,1/2+y,-z
1/2-x,1/2-y,-z
1/2+x,1/2-y,z
loop_
_atom_site_type_symbol
_atom_site_label
_atom_site_fract_x
_atom_site_fract_y
_atom_site_fract_z
Si Si1 0.185152 0.366783 0.931111
Si Si2 0.051496 0.162067 0.201214
Si Si3 0.584267 0.756409 0.026639
Si Si4 0.761336 0.849404 0.602340
Si Si5 0.648294 0.246895 0.380304
Si Si6 0.868349 0.634450 0.497990
Si Si7 0.142039 0.909163 0.901160
Si Si8 0.611964 0.941298 0.205291
O O1 0.329438 0.343533 0.828235
O O2 0.071440 0.319315 0.063347
O O3 0.211895 0.381504 0.768380
O O4 0.140157 0.418823 0.046902
O O5 0.914653 0.133533 0.396273
O O6 0.024510 0.224049 0.200317
O O7 0.093809 0.138611 0.032454
O O8 0.748154 0.738586 0.837706
O O9 0.500000 0.740487 0.000000
O O10 0.765571 0.786810 0.625730
O O11 0.648667 0.863354 0.622566
O O12 0.500000 0.274365 0.500000
O O13 0.603663 0.192581 0.485884
O O14 0.727423 0.611771 0.701528
O O15 0.002561 0.597183 0.385441
O O16 0.243620 0.945999 0.872041
O O17 0.000000 0.937650 0.000000
O O18 0.549141 0.000000 0.259403
#
# Coordination Sequence:
#
# PCOD8113482 Si02
#       8
#     8   8   8   8   8   8   8   8
#     4  10  25  41  64  93 138 182 237 280 329 405
#     4  11  20  39  65  98 141 180 218 272 338 409
#     4  11  22  36  62  99 139 178 224 271 338 408
#     4  11  23  39  64  98 141 187 228 272 333 409
#     4  11  23  38  59  98 143 186 229 267 330 413
#     4  12  24  41  69 100 144 178 225 281 347 406
#     4  11  22  44  72 106 132 170 216 283 347 420
#     4  11  28  49  73  98 131 179 231 293 348 394
#
# _framework density 22.946397999999999
#
# number of rings (size 3 to 8) (size 9 to 14) (size 15 to 20)
#    0.000    1.000    2.500    4.875    7.000    1.250 
#    0.000    1.250    0.000    6.000    0.000    0.000 
#    0.000    0.000    0.000    0.000    0.000    0.000 
#
# Total GULP energy -396749.904932 kJ/mol
# GULP energy per Si atom -12398.434529 kJ/mol
# Density = 2.289417 g / cm^3
# Si number density = 22.946398 Si / 1000 Ang^3
#
#
#
# Elastic Constant Matrix: (Units=GPa)
#
#
# Indices 1 2 3 4 5 6 
#
# 1 86.2092 14.6892 16.8460 0.0000 9.8109 0.0000
# 2 14.6892 98.3915 22.7157 0.0000 7.4725 0.0000
# 3 16.8460 22.7157 105.6397 0.0000 7.5514 0.0001
# 4 0.0000 0.0000 0.0000 18.9042 0.0000 -0.9590
# 5 9.8109 7.4725 7.5514 0.0000 38.6187 -0.0001
# 6 0.0000 0.0000 0.0001 -0.9590 -0.0001 13.1966
#
#
#
# Elastic Compliance Matrix: (Units=1/GPa)
#
#
# Indices 1 2 3 4 5 6 
#
# 1 0.012414 -0.001306 -0.001513 0.000000 -0.002605 0.000000
# 2 -0.001306 0.010936 -0.002044 0.000000 -0.001384 0.000000
# 3 -0.001513 -0.002044 0.010234 0.000000 -0.001221 0.000000
# 4 0.000000 0.000000 0.000000 0.053094 0.000000 0.003858
# 5 -0.002605 -0.001384 -0.001221 0.000000 0.027063 0.000000
# 6 0.000000 0.000000 0.000000 0.003858 0.000000 0.076058
#
#
# Mechanical properties :
#
#
# Convention : Reuss Voigt Hill
#
# Bulk Modulus (GPa) = 41.91467 44.30471 43.10969
# Shear Modulus (GPa) = 24.09900 29.87651 26.98775
#
# Velocity S-wave (km/s) = 3.24424 3.61226 3.43318
# Velocity P-wave (km/s) = 5.68678 6.06199 5.87738
#
# Compressibility (1/GPa) = 0.02385800
#
# Stress axis : x y z
#
# Youngs Moduli (GPa) = 80.55208 91.44454 97.71150
#
# Poissons Ratio (x) = 0.11946 0.14779
# Poissons Ratio (y) = 0.10523 0.19974
# Poissons Ratio (z) = 0.12184 0.18693
#
# Static dielectric constant tensor:
#      x y z
#    x 4.303520 0.000000 -0.107030 
#    y 0.000000 3.538350 0.000000 
#    z -0.107030 0.000000 4.421300 
# 
# 
# High freq. dielectric constant tensor:
#      x y z
#    x 1.919370 0.000000 -0.002290 
#    y 0.000000 1.845880 0.000000 
#    z -0.002290 0.000000 1.928870 
# 
# From -- ./inp_files/149726.got.cif
#   From: 2010.06.25/outbox.cif.g09.slc.cpg/sg12_75_cif.got.tgz:149726.got - 2010.06.28 00:19:55.
