data_PCOD8113995
_publ_section_title
;
Structure prediction by ZEFSAII (Michael W. Deem and Ramdas Pophale) SiO2 
 PCOD8113995
Probable space group: C 2/M
;
_chemical_formula_sum "Si O2"
_cell_formula_units_Z 56
_cell_length_a 26.172795
_cell_length_b 14.363415
_cell_length_c 8.527107
_cell_angle_alpha 90.000000
_cell_angle_beta 119.906327
_cell_angle_gamma 90.000000
_cell_volume 2778.748995
_symmetry_space_group_name_H-M "C 2/M"
_symmetry_group_IT_number 12
_symmetry_cell_setting 'monoclinic'
loop_
_space_group_symop_operation_xyz
x,y,z
-x,y,-z
-x,-y,-z
x,-y,z
1/2+x,1/2+y,z
1/2-x,1/2+y,-z
1/2-x,1/2-y,-z
1/2+x,1/2-y,z
loop_
_atom_site_type_symbol
_atom_site_label
_atom_site_fract_x
_atom_site_fract_y
_atom_site_fract_z
Si Si1 0.098490 0.258967 0.994835
Si Si2 0.583013 0.897621 0.242332
Si Si3 0.381462 0.603671 0.439666
Si Si4 0.676870 0.343701 0.350515
Si Si5 0.183141 0.742487 0.846410
Si Si6 0.197919 0.651581 0.554174
Si Si7 0.482020 0.750220 0.642695
O O1 0.144290 0.292553 0.932604
O O2 0.039489 0.217822 0.826849
O O3 0.080292 0.348959 0.068705
O O4 0.127759 0.177389 0.143200
O O5 0.650680 0.914729 0.398702
O O6 0.551312 0.833410 0.321529
O O7 0.553366 0.000000 0.185397
O O8 0.394882 0.500000 0.394273
O O9 0.349283 0.588680 0.557843
O O10 0.340578 0.657880 0.252133
O O11 0.441631 0.659674 0.560890
O O12 0.735534 0.388355 0.361488
O O13 0.694505 0.250134 0.464794
O O14 0.179812 0.663632 0.707894
O O15 0.250000 0.750000 0.000000
O O16 0.500000 0.789097 0.500000
#
# Coordination Sequence:
#
# PCOD8113995 Si02
#       7
#     8   8   8   8   8   8   8
#     4  11  21  38  65  92 126 165 213 257 321 366
#     4  11  24  41  66  95 125 167 217 265 319 382
#     4  11  24  43  66  95 127 171 216 258 318 382
#     4   9  18  35  62  89 124 165 205 260 310 373
#     4  11  20  39  68  91 128 171 203 261 321 375
#     4   9  17  36  61  90 124 168 204 252 321 369
#     4  12  23  43  66  90 128 172 209 265 317 376
#
# _framework density 20.152954999999999
#
# number of rings (size 3 to 8) (size 9 to 14) (size 15 to 20)
#    0.000    1.429    7.143    0.429    2.000    2.286 
#    0.000    5.000    0.000    0.000    0.000    0.000 
#    0.000    0.000    0.000    0.000    0.000    0.000 
#
# Total GULP energy -347105.385363 kJ/mol
# GULP energy per Si atom -12396.620906 kJ/mol
# Density = 2.010709 g / cm^3
# Si number density = 20.152955 Si / 1000 Ang^3
#
#
#
# Elastic Constant Matrix: (Units=GPa)
#
#
# Indices 1 2 3 4 5 6 
#
# 1 131.5605 42.6492 50.5079 0.0000 -9.3405 0.0000
# 2 42.6492 91.4437 29.8982 0.0000 -3.3201 0.0000
# 3 50.5079 29.8982 130.3890 0.0000 8.2483 0.0000
# 4 0.0000 0.0000 0.0000 12.6019 0.0000 -3.9548
# 5 -9.3405 -3.3201 8.2483 0.0000 54.5105 0.0000
# 6 0.0000 0.0000 0.0000 -3.9548 0.0000 0.6121
#
#
#
# Elastic Compliance Matrix: (Units=1/GPa)
#
#
# Indices 1 2 3 4 5 6 
#
# 1 0.010154 -0.003606 -0.003234 0.000000 0.002010 0.000000
# 2 -0.003606 0.013173 -0.001651 0.000000 0.000434 0.000000
# 3 -0.003234 -0.001651 0.009432 0.000000 -0.002082 0.000000
# 4 0.000000 0.000000 0.000000 -0.077224 0.000000 -0.498925
# 5 0.002010 0.000434 -0.002082 0.000000 0.019031 0.000000
# 6 0.000000 0.000000 0.000000 -0.498925 0.000000 -1.589797
#
#
# Mechanical properties :
#
#
# Convention : Reuss Voigt Hill
#
# Bulk Modulus (GPa) = 63.37891 66.61154 64.99522
# Shear Modulus (GPa) = -3.13875 28.90076 12.88100
#
# Velocity S-wave (km/s) = -1.24934 3.79102 2.53091
# Velocity P-wave (km/s) = 5.42550 7.23099 6.39231
#
# Compressibility (1/GPa) = 0.01577812
#
# Stress axis : x y z
#
# Youngs Moduli (GPa) = 98.48279 75.91259 106.01843
#
# Poissons Ratio (x) = 0.27371 0.34283
# Poissons Ratio (y) = 0.35509 0.17508
# Poissons Ratio (z) = 0.31846 0.12536
#
# Static dielectric constant tensor:
#      x y z
#    x 4.193000 0.000000 0.005770 
#    y 0.000000 3.218390 0.000000 
#    z 0.005770 0.000000 3.988970 
# 
# 
# High freq. dielectric constant tensor:
#      x y z
#    x 1.805880 0.000000 0.003540 
#    y 0.000000 1.742700 0.000000 
#    z 0.003540 0.000000 1.800170 
# 
# From -- ./inp_files/104709.got.cif
#   From: 2010.06.25/outbox.cif.g09.slc.cpg/sg12_53_cif.got.tgz:104709.got - 2010.06.28 00:19:55.
