data_PCOD8113864
_publ_section_title
;
Structure prediction by ZEFSAII (Michael W. Deem and Ramdas Pophale) SiO2 
 PCOD8113864
Probable space group: C 2/M
;
_chemical_formula_sum "Si O2"
_cell_formula_units_Z 56
_cell_length_a 8.498391
_cell_length_b 29.120427
_cell_length_c 18.064412
_cell_angle_alpha 90.000000
_cell_angle_beta 45.115978
_cell_angle_gamma 90.000000
_cell_volume 3167.529004
_symmetry_space_group_name_H-M "C 2/M"
_symmetry_group_IT_number 12
_symmetry_cell_setting 'monoclinic'
loop_
_space_group_symop_operation_xyz
x,y,z
-x,y,-z
-x,-y,-z
x,-y,z
1/2+x,1/2+y,z
1/2-x,1/2+y,-z
1/2-x,1/2-y,-z
1/2+x,1/2-y,z
loop_
_atom_site_type_symbol
_atom_site_label
_atom_site_fract_x
_atom_site_fract_y
_atom_site_fract_z
Si Si1 0.686856 0.198823 0.500000
Si Si2 0.985607 0.354811 0.300859
Si Si3 0.894855 0.200806 0.113072
Si Si4 0.265930 0.200806 0.113072
Si Si5 0.111816 0.854811 0.300859
Si Si6 0.011058 0.049931 0.617010
Si Si7 0.137913 0.450069 0.617010
O O1 0.500000 0.198880 0.500000
O O2 0.750000 0.250000 0.500000
O O3 0.595678 0.173985 0.602547
O O4 0.903318 0.173985 0.397453
O O5 0.803979 0.350020 0.297348
O O6 0.026622 0.407865 0.311428
O O7 0.220413 0.337726 0.193522
O O8 0.774594 0.250000 0.150271
O O9 0.088035 0.203822 0.107977
O O10 0.000000 0.187009 0.000000
O O11 0.199023 0.162274 0.193522
O O12 0.500000 0.187009 0.000000
O O13 0.039093 0.907865 0.311428
O O14 0.833232 0.050782 0.611179
O O15 0.254091 0.056758 0.500000
O O16 0.001426 0.000000 0.661228
O O17 0.014890 0.500000 0.661228
#
# Coordination Sequence:
#
# PCOD8113864 Si02
#       7
#     8   8   8   8   8   8   8
#     4  12  24  36  49  72 107 143 178 215 261 316
#     4  11  20  34  55  80 108 140 175 217 265 315
#     4  11  22  38  57  79 105 138 179 222 263 313
#     4  11  22  38  57  79 105 138 179 222 263 313
#     4  11  20  34  55  80 108 140 175 217 265 315
#     4   8  14  27  50  79 107 137 175 215 256 309
#     4   8  14  27  50  79 107 137 175 215 256 309
#
# _framework density 17.679395
#
# number of rings (size 3 to 8) (size 9 to 14) (size 15 to 20)
#    0.000    1.714    1.429    7.286    0.000    0.000 
#    0.000    0.000    0.000    5.143    0.000    0.000 
#    0.000    0.000    0.000    0.000    0.000    0.000 
#
# Total GULP energy -347126.208237 kJ/mol
# GULP energy per Si atom -12397.364580 kJ/mol
# Density = 1.763916 g / cm^3
# Si number density = 17.679395 Si / 1000 Ang^3
#
#
#
# Elastic Constant Matrix: (Units=GPa)
#
#
# Indices 1 2 3 4 5 6 
#
# 1 114.5603 48.1920 40.7421 0.0000 -0.1905 0.0000
# 2 48.1920 177.2269 88.8325 0.0000 0.4672 0.0000
# 3 40.7421 88.8325 111.7095 0.0000 0.1577 0.0000
# 4 0.0000 0.0000 0.0000 19.4557 0.0000 0.0401
# 5 -0.1905 0.4672 0.1577 0.0000 28.6287 0.0000
# 6 0.0000 0.0000 0.0000 0.0401 0.0000 15.9654
#
#
#
# Elastic Compliance Matrix: (Units=1/GPa)
#
#
# Indices 1 2 3 4 5 6 
#
# 1 0.010271 -0.001522 -0.002536 0.000000 0.000107 0.000000
# 2 -0.001522 0.009608 -0.007085 0.000000 -0.000128 0.000000
# 3 -0.002536 -0.007085 0.015511 0.000000 0.000013 0.000000
# 4 0.000000 0.000000 0.000000 0.051399 0.000000 -0.000129
# 5 0.000107 -0.000128 0.000013 0.000000 0.034933 0.000000
# 6 0.000000 0.000000 0.000000 -0.000129 0.000000 0.062636
#
#
# Mechanical properties :
#
#
# Convention : Reuss Voigt Hill
#
# Bulk Modulus (GPa) = 76.31258 84.33665 80.32462
# Shear Modulus (GPa) = 23.69534 27.85862 25.77698
#
# Velocity S-wave (km/s) = 3.66495 3.97390 3.82255
# Velocity P-wave (km/s) = 7.82097 8.29836 8.06320
#
# Compressibility (1/GPa) = 0.01310400
#
# Stress axis : x y z
#
# Youngs Moduli (GPa) = 97.35772 104.07949 64.47173
#
# Poissons Ratio (x) = 0.15844 0.16348
# Poissons Ratio (y) = 0.14821 0.45678
# Poissons Ratio (z) = 0.24687 0.73741
#
# Static dielectric constant tensor:
#      x y z
#    x 3.240530 0.000000 0.000580 
#    y 0.000000 3.754840 0.000000 
#    z 0.000580 0.000000 3.290700 
# 
# 
# High freq. dielectric constant tensor:
#      x y z
#    x 1.679150 0.000000 -0.000130 
#    y 0.000000 1.694210 0.000000 
#    z -0.000130 0.000000 1.667500 
# 
# From -- ./inp_files/260088.got.cif
#   From: 2010.06.25/outbox.cif.g09.slc.cpg/sg12_131_cif.got.tgz:260088.got - 2010.06.28 00:19:55.
