data_PCOD8113797
_publ_section_title
;
Structure prediction by ZEFSAII (Michael W. Deem and Ramdas Pophale) SiO2 
 PCOD8113797
Probable space group: C 2/M
;
_chemical_formula_sum "Si O2"
_cell_formula_units_Z 40
_cell_length_a 28.939923
_cell_length_b 9.136086
_cell_length_c 12.567082
_cell_angle_alpha 90.000000
_cell_angle_beta 135.705376
_cell_angle_gamma 90.000000
_cell_volume 2320.405967
_symmetry_space_group_name_H-M "C 2/M"
_symmetry_group_IT_number 12
_symmetry_cell_setting 'monoclinic'
loop_
_space_group_symop_operation_xyz
x,y,z
-x,y,-z
-x,-y,-z
x,-y,z
1/2+x,1/2+y,z
1/2-x,1/2+y,-z
1/2-x,1/2-y,-z
1/2+x,1/2-y,z
loop_
_atom_site_type_symbol
_atom_site_label
_atom_site_fract_x
_atom_site_fract_y
_atom_site_fract_z
Si Si1 0.927531 0.673800 0.403849
Si Si2 0.146779 0.670155 0.512335
Si Si3 0.681276 0.330751 0.375004
Si Si4 0.202281 0.833681 0.177772
Si Si5 0.314111 0.826574 0.058222
O O1 0.930029 0.500000 0.408521
O O2 0.903061 0.728163 0.479164
O O3 0.877281 0.726462 0.229849
O O4 0.000000 0.740545 0.500000
O O5 0.136517 0.500000 0.470840
O O6 0.130816 0.758124 0.376616
O O7 0.220892 0.701839 0.674583
O O8 0.690892 0.500000 0.419472
O O9 0.750000 0.250000 0.500000
O O10 0.659218 0.312469 0.215230
O O11 0.195813 0.000000 0.125456
O O12 0.173887 0.723507 0.043156
O O13 0.304487 0.000000 0.047855
O O14 0.250000 0.750000 0.000000
#
# Coordination Sequence:
#
# PCOD8113797 Si02
#       5
#     8   8   8   8   8
#     4   9  18  33  51  71  98 132 166 201 244 290
#     4   9  16  29  48  70  97 126 161 202 243 286
#     4   9  17  28  44  68  98 128 159 198 243 288
#     4   9  17  30  46  70 100 126 158 200 246 288
#     4  11  20  31  50  74  99 128 162 201 246 291
#
# _framework density 17.238363
#
# number of rings (size 3 to 8) (size 9 to 14) (size 15 to 20)
#    0.000    2.600    2.000    2.400    0.000    4.000 
#    0.000    0.000    0.000    6.600    0.000    8.400 
#    0.000    0.000    0.000    0.000    0.000    0.000 
#
# Total GULP energy -247893.620438 kJ/mol
# GULP energy per Si atom -12394.681022 kJ/mol
# Density = 1.719913 g / cm^3
# Si number density = 17.238363 Si / 1000 Ang^3
#
#
#
# Elastic Constant Matrix: (Units=GPa)
#
#
# Indices 1 2 3 4 5 6 
#
# 1 140.8526 47.3819 70.0976 0.0000 -24.1695 0.0000
# 2 47.3819 72.7693 43.2724 0.0000 -14.6317 0.0000
# 3 70.0976 43.2724 87.7599 0.0000 -12.3551 0.0000
# 4 0.0000 0.0000 0.0000 23.4852 0.0000 -11.9557
# 5 -24.1695 -14.6317 -12.3551 0.0000 30.9008 0.0000
# 6 0.0000 0.0000 0.0000 -11.9557 0.0000 26.7887
#
#
#
# Elastic Compliance Matrix: (Units=1/GPa)
#
#
# Indices 1 2 3 4 5 6 
#
# 1 0.013102 -0.002311 -0.008516 0.000000 0.005748 0.000000
# 2 -0.002311 0.020844 -0.007732 0.000000 0.004971 0.000000
# 3 -0.008516 -0.007732 0.021782 0.000000 -0.001613 0.000000
# 4 0.000000 0.000000 0.000000 0.055098 0.000000 0.024590
# 5 0.005748 0.004971 -0.001613 0.000000 0.038567 0.000000
# 6 0.000000 0.000000 0.000000 0.024590 0.000000 0.048304
#
#
# Mechanical properties :
#
#
# Convention : Reuss Voigt Hill
#
# Bulk Modulus (GPa) = 53.73499 69.20950 61.47225
# Shear Modulus (GPa) = 20.74533 25.61025 23.17779
#
# Velocity S-wave (km/s) = 3.47283 3.85860 3.67078
# Velocity P-wave (km/s) = 6.87896 7.75161 7.32829
#
# Compressibility (1/GPa) = 0.01860985
#
# Stress axis : x y z
#
# Youngs Moduli (GPa) = 76.32708 47.97512 45.90864
#
# Poissons Ratio (x) = 0.11086 0.39096
# Poissons Ratio (y) = 0.17638 0.35498
# Poissons Ratio (z) = 0.65001 0.37095
#
# Static dielectric constant tensor:
#      x y z
#    x 3.814860 0.000000 -0.545770 
#    y 0.000000 3.182970 0.000000 
#    z -0.545770 0.000000 3.289320 
# 
# 
# High freq. dielectric constant tensor:
#      x y z
#    x 1.664160 0.000000 -0.037620 
#    y 0.000000 1.653470 0.000000 
#    z -0.037620 0.000000 1.635050 
# 
# From -- ./inp_files/151854.got.cif
#   From: 2010.06.25/outbox.cif.g09.slc.cpg/sg12_76_cif.got.tgz:151854.got - 2010.06.28 00:19:55.
