data_PCOD8113228
_publ_section_title
;
Structure prediction by ZEFSAII (Michael W. Deem and Ramdas Pophale) SiO2 
 PCOD8113228
Probable space group: C 2/M
;
_chemical_formula_sum "Si O2"
_cell_formula_units_Z 36
_cell_length_a 8.726047
_cell_length_b 12.491636
_cell_length_c 17.228752
_cell_angle_alpha 90.000000
_cell_angle_beta 101.395581
_cell_angle_gamma 90.000000
_cell_volume 1840.957119
_symmetry_space_group_name_H-M "C 2/M"
_symmetry_group_IT_number 12
_symmetry_cell_setting 'monoclinic'
loop_
_space_group_symop_operation_xyz
x,y,z
-x,y,-z
-x,-y,-z
x,-y,z
1/2+x,1/2+y,z
1/2-x,1/2+y,-z
1/2-x,1/2-y,-z
1/2+x,1/2-y,z
loop_
_atom_site_type_symbol
_atom_site_label
_atom_site_fract_x
_atom_site_fract_y
_atom_site_fract_z
Si Si1 0.696947 0.874327 0.907141
Si Si2 0.500000 0.737017 0.000000
Si Si3 0.603979 0.820976 0.728862
Si Si4 0.709580 0.000000 0.455006
Si Si5 0.348504 0.000000 0.382912
Si Si6 0.249780 0.118114 0.682988
O O1 0.863469 0.840231 0.957378
O O2 0.695066 0.843839 0.816832
O O3 0.672011 0.000000 0.916950
O O4 0.557098 0.812462 0.935934
O O5 0.684109 0.894749 0.671062
O O6 0.422032 0.842266 0.722445
O O7 0.622396 0.697896 0.704807
O O8 0.769570 0.105529 0.413324
O O9 0.524083 0.000000 0.429660
O O10 0.762089 0.000000 0.550534
O O11 0.226599 0.000000 0.718967
#
# Coordination Sequence:
#
# PCOD8113228 Si02
#       6
#     8   4   8   4   4   8
#     4  11  21  39  58  84 111 146 180 234 268 342
#     4  10  24  38  58  82 112 144 184 218 292 324
#     4  11  19  36  61  81 115 145 190 226 282 319
#     4   7  16  34  53  77 119 142 191 221 275 319
#     4   9  16  32  57  85 103 157 181 224 279 331
#     4   9  20  37  53  84 113 150 186 232 267 330
#
# _framework density 19.555043999999999
#
# number of rings (size 3 to 8) (size 9 to 14) (size 15 to 20)
#    0.667    1.556    2.222    2.000    0.000    0.889 
#    2.000    5.556    0.000    1.333    0.000    0.000 
#    0.000    0.000    0.000    0.000    0.000    0.000 
#
# Total GULP energy -223089.739111 kJ/mol
# GULP energy per Si atom -12393.874395 kJ/mol
# Density = 1.951054 g / cm^3
# Si number density = 19.555044 Si / 1000 Ang^3
#
#
#
# Elastic Constant Matrix: (Units=GPa)
#
#
# Indices 1 2 3 4 5 6 
#
# 1 26.5137 28.6031 9.1124 0.0000 -5.2615 0.0000
# 2 28.6031 148.4368 36.0190 0.0000 -13.4127 0.0000
# 3 9.1124 36.0190 111.5333 0.0000 -17.7374 0.0000
# 4 0.0000 0.0000 0.0000 1.1218 0.0000 8.9002
# 5 -5.2615 -13.4127 -17.7374 0.0000 10.7306 0.0000
# 6 0.0000 0.0000 0.0000 8.9002 0.0000 16.3032
#
#
#
# Elastic Compliance Matrix: (Units=1/GPa)
#
#
# Indices 1 2 3 4 5 6 
#
# 1 0.049494 -0.008402 0.001165 0.000000 0.015693 0.000000
# 2 -0.008402 0.009158 -0.001500 0.000000 0.004847 0.000000
# 3 0.001165 -0.001500 0.012410 0.000000 0.019210 0.000000
# 4 0.000000 0.000000 0.000000 -0.267595 0.000000 0.146085
# 5 0.015693 0.004847 0.019210 0.000000 0.138699 0.000000
# 6 0.000000 0.000000 0.000000 0.146085 0.000000 -0.018413
#
#
# Mechanical properties :
#
#
# Convention : Reuss Voigt Hill
#
# Bulk Modulus (GPa) = 18.66071 48.21696 33.43884
# Shear Modulus (GPa) = -122.22145 19.81441 -51.20352
#
# Velocity S-wave (km/s) = -7.91435 3.18663 -5.12261
# Velocity P-wave (km/s) = 8.59957 6.18466 4.22507
#
# Compressibility (1/GPa) = 0.05358853
#
# Stress axis : x y z
#
# Youngs Moduli (GPa) = 20.20438 109.19470 80.57864
#
# Poissons Ratio (x) = 0.91747 -0.09390
# Poissons Ratio (y) = 0.16976 0.12088
# Poissons Ratio (z) = -0.02354 0.16381
#
# Static dielectric constant tensor:
#      x y z
#    x 3.310670 0.000000 -0.241840 
#    y 0.000000 3.592770 0.000000 
#    z -0.241840 0.000000 3.770770 
# 
# 
# High freq. dielectric constant tensor:
#      x y z
#    x 1.742700 0.000000 -0.007410 
#    y 0.000000 1.764530 0.000000 
#    z -0.007410 0.000000 1.763600 
# 
# From -- ./inp_files/254820.got.cif
#   From: 2010.06.25/outbox.cif.g09.slc.cpg/sg12_128_cif.got.tgz:254820.got - 2010.06.28 00:19:55.
