data_PCOD8113350
_publ_section_title
;
Structure prediction by ZEFSAII (Michael W. Deem and Ramdas Pophale) SiO2 
 PCOD8113350
Probable space group: C 2/M
;
_chemical_formula_sum "Si O2"
_cell_formula_units_Z 36
_cell_length_a 12.477496
_cell_length_b 15.648616
_cell_length_c 8.228402
_cell_angle_alpha 90.000000
_cell_angle_beta 105.791679
_cell_angle_gamma 90.000000
_cell_volume 1546.002495
_symmetry_space_group_name_H-M "C 2/M"
_symmetry_group_IT_number 12
_symmetry_cell_setting 'monoclinic'
loop_
_space_group_symop_operation_xyz
x,y,z
-x,y,-z
-x,-y,-z
x,-y,z
1/2+x,1/2+y,z
1/2-x,1/2+y,-z
1/2-x,1/2-y,-z
1/2+x,1/2-y,z
loop_
_atom_site_type_symbol
_atom_site_label
_atom_site_fract_x
_atom_site_fract_y
_atom_site_fract_z
Si Si1 0.389414 0.717359 0.225292
Si Si2 0.500000 0.816420 0.000000
Si Si3 0.192464 0.403630 0.247512
Si Si4 0.939078 0.903238 0.800994
Si Si5 0.281206 0.168023 0.410163
O O1 0.410988 0.755708 0.054998
O O2 0.277958 0.660496 0.193376
O O3 0.493099 0.653498 0.303717
O O4 0.385113 0.799896 0.343309
O O5 0.567739 0.876277 0.150328
O O6 0.217796 0.500000 0.198189
O O7 0.194163 0.404130 0.445518
O O8 0.814573 0.864668 0.753251
O O9 0.935322 0.000000 0.735998
O O10 0.000000 0.898685 0.000000
O O11 0.250000 0.250000 0.500000
#
# Coordination Sequence:
#
# PCOD8113350 Si02
#       5
#     8   4   8   8   8
#     4  11  23  44  68 100 128 180 218 273 332 401
#     4  12  25  42  67 100 134 176 226 270 327 408
#     4  11  25  45  66  96 134 175 222 277 333 390
#     4  11  24  41  67 104 137 169 219 280 337 391
#     4  10  24  43  67  96 132 177 223 271 328 396
#
# _framework density 23.285862000000002
#
# number of rings (size 3 to 8) (size 9 to 14) (size 15 to 20)
#    0.000    1.111    1.111    5.000    3.111    8.000 
#    0.000   10.000    0.000    0.000    0.000    0.000 
#    0.000    0.000    0.000    0.000    0.000    0.000 
#
# Total GULP energy -223020.609690 kJ/mol
# GULP energy per Si atom -12390.033872 kJ/mol
# Density = 2.323286 g / cm^3
# Si number density = 23.285862 Si / 1000 Ang^3
#
#
#
# Elastic Constant Matrix: (Units=GPa)
#
#
# Indices 1 2 3 4 5 6 
#
# 1 121.1568 63.2551 55.1086 0.0000 -14.9154 0.0000
# 2 63.2551 133.6536 51.7102 0.0000 -1.2229 0.0000
# 3 55.1086 51.7102 111.3583 0.0000 3.1952 0.0000
# 4 0.0000 0.0000 0.0000 20.8368 0.0000 6.9737
# 5 -14.9154 -1.2229 3.1952 0.0000 38.7177 0.0000
# 6 0.0000 0.0000 0.0000 6.9737 0.0000 27.6842
#
#
#
# Elastic Compliance Matrix: (Units=1/GPa)
#
#
# Indices 1 2 3 4 5 6 
#
# 1 0.013394 -0.004468 -0.004709 0.000000 0.005407 0.000000
# 2 -0.004468 0.010627 -0.002690 0.000000 -0.001163 0.000000
# 3 -0.004709 -0.002690 0.012644 0.000000 -0.002942 0.000000
# 4 0.000000 0.000000 0.000000 0.052411 0.000000 -0.013202
# 5 0.005407 -0.001163 -0.002942 0.000000 0.028117 0.000000
# 6 0.000000 0.000000 0.000000 -0.013202 0.000000 0.039447
#
#
# Mechanical properties :
#
#
# Convention : Reuss Voigt Hill
#
# Bulk Modulus (GPa) = 77.33385 78.47961 77.90673
# Shear Modulus (GPa) = 27.07336 30.52073 28.79705
#
# Velocity S-wave (km/s) = 3.41347 3.62428 3.52045
# Velocity P-wave (km/s) = 6.98702 7.16169 7.07489
#
# Compressibility (1/GPa) = 0.01293095
#
# Stress axis : x y z
#
# Youngs Moduli (GPa) = 74.66138 94.10271 79.08901
#
# Poissons Ratio (x) = 0.42042 0.37242
# Poissons Ratio (y) = 0.33356 0.21277
# Poissons Ratio (z) = 0.35157 0.25316
#
# Static dielectric constant tensor:
#      x y z
#    x 4.438750 0.000000 -0.441670 
#    y 0.000000 4.666810 0.000000 
#    z -0.441670 0.000000 4.532810 
# 
# 
# High freq. dielectric constant tensor:
#      x y z
#    x 1.910010 0.000000 -0.000200 
#    y 0.000000 1.930370 0.000000 
#    z -0.000200 0.000000 1.912160 
# 
# From -- ./inp_files/47238.got.cif
#   From: 2010.06.25/outbox.cif.g09.slc.cpg/sg12_24_cif.got.tgz:47238.got - 2010.06.28 00:19:55.
