data_PCOD8113286
_publ_section_title
;
Structure prediction by ZEFSAII (Michael W. Deem and Ramdas Pophale) SiO2 
 PCOD8113286
Probable space group: C 2/M
;
_chemical_formula_sum "Si O2"
_cell_formula_units_Z 44
_cell_length_a 9.187450
_cell_length_b 21.733672
_cell_length_c 10.370888
_cell_angle_alpha 90.000000
_cell_angle_beta 80.464044
_cell_angle_gamma 90.000000
_cell_volume 2042.213010
_symmetry_space_group_name_H-M "C 2/M"
_symmetry_group_IT_number 12
_symmetry_cell_setting 'monoclinic'
loop_
_space_group_symop_operation_xyz
x,y,z
-x,y,-z
-x,-y,-z
x,-y,z
1/2+x,1/2+y,z
1/2-x,1/2+y,-z
1/2-x,1/2-y,-z
1/2+x,1/2-y,z
loop_
_atom_site_type_symbol
_atom_site_label
_atom_site_fract_x
_atom_site_fract_y
_atom_site_fract_z
Si Si1 0.645517 0.500000 0.882270
Si Si2 0.528489 0.500000 0.342513
Si Si3 0.000000 0.301128 0.000000
Si Si4 0.930486 0.664672 0.374246
Si Si5 0.074233 0.786199 0.758364
Si Si6 0.886154 0.127532 0.634159
Si Si7 0.184445 0.372752 0.155480
O O1 0.610438 0.500000 0.734682
O O2 0.746116 0.439139 0.888976
O O3 0.500000 0.500000 0.000000
O O4 0.500000 0.500000 0.500000
O O5 0.617032 0.561357 0.295792
O O6 0.051609 0.255940 0.883000
O O7 0.857896 0.341526 0.975641
O O8 0.899363 0.737680 0.360525
O O9 0.772515 0.634167 0.401960
O O10 0.000000 0.652251 0.500000
O O11 0.028482 0.628333 0.253980
O O12 0.207332 0.832610 0.769403
O O13 0.928087 0.824128 0.740174
O O14 0.000000 0.131788 0.500000
#
# Coordination Sequence:
#
# PCOD8113286 Si02
#       7
#     4   4   4   8   8   8   8
#     4  12  28  48  76 101 140 187 238 289 344 420
#     4  10  24  45  70  99 131 181 242 283 337 405
#     4  10  24  41  70  97 138 176 228 290 348 412
#     4  11  24  40  66 104 141 177 221 287 355 401
#     4  11  22  41  68  96 138 181 232 276 342 417
#     4  11  23  42  69  96 136 183 233 282 341 420
#     4  11  25  45  67 101 137 179 234 285 346 409
#
# _framework density 21.545255000000001
#
# number of rings (size 3 to 8) (size 9 to 14) (size 15 to 20)
#    0.000    1.091    1.818    4.364    3.818    7.636 
#    0.000    0.909    0.000    0.000    0.000    0.000 
#    0.000    0.000    0.000    0.000    0.000    0.000 
#
# Total GULP energy -272586.072697 kJ/mol
# GULP energy per Si atom -12390.276032 kJ/mol
# Density = 2.149622 g / cm^3
# Si number density = 21.545255 Si / 1000 Ang^3
#
#
#
# Elastic Constant Matrix: (Units=GPa)
#
#
# Indices 1 2 3 4 5 6 
#
# 1 163.2451 67.4893 54.2074 0.0000 8.5054 0.0000
# 2 67.4893 160.1592 45.8732 0.0000 -5.3921 0.0000
# 3 54.2074 45.8732 90.6603 0.0000 14.7305 0.0000
# 4 0.0000 0.0000 0.0000 20.1093 0.0000 6.2991
# 5 8.5054 -5.3921 14.7305 0.0000 40.6397 0.0000
# 6 0.0000 0.0000 0.0000 6.2991 0.0000 34.8732
#
#
#
# Elastic Compliance Matrix: (Units=1/GPa)
#
#
# Indices 1 2 3 4 5 6 
#
# 1 0.008418 -0.002536 -0.003622 0.000000 -0.000785 0.000000
# 2 -0.002536 0.008304 -0.003135 0.000000 0.002769 0.000000
# 3 -0.003622 -0.003135 0.015648 0.000000 -0.005330 0.000000
# 4 0.000000 0.000000 0.000000 0.052711 0.000000 -0.009521
# 5 -0.000785 0.002769 -0.005330 0.000000 0.027070 0.000000
# 6 0.000000 0.000000 0.000000 -0.009521 0.000000 0.030395
#
#
# Mechanical properties :
#
#
# Convention : Reuss Voigt Hill
#
# Bulk Modulus (GPa) = 72.55403 83.24493 77.89948
# Shear Modulus (GPa) = 30.17000 35.55743 32.86372
#
# Velocity S-wave (km/s) = 3.74613 4.06687 3.90979
# Velocity P-wave (km/s) = 7.24290 7.79575 7.52440
#
# Compressibility (1/GPa) = 0.01378283
#
# Stress axis : x y z
#
# Youngs Moduli (GPa) = 118.79239 120.42879 63.90434
#
# Poissons Ratio (x) = 0.30543 0.23149
# Poissons Ratio (y) = 0.30128 0.20034
# Poissons Ratio (z) = 0.43032 0.37755
#
# Static dielectric constant tensor:
#      x y z
#    x 4.243970 0.000000 0.342580 
#    y 0.000000 4.356570 0.000000 
#    z 0.342580 0.000000 3.459910 
# 
# 
# High freq. dielectric constant tensor:
#      x y z
#    x 1.849790 0.000000 0.025220 
#    y 0.000000 1.856110 0.000000 
#    z 0.025220 0.000000 1.847380 
# 
# From -- ./inp_files/120761.got.cif
#   From: 2010.06.25/outbox.cif.g09.slc.cpg/sg12_61_cif.got.tgz:120761.got - 2010.06.28 00:19:55.
