data_PCOD8113720
_publ_section_title
;
Structure prediction by ZEFSAII (Michael W. Deem and Ramdas Pophale) SiO2 
 PCOD8113720
Probable space group: C 2/M
;
_chemical_formula_sum "Si O2"
_cell_formula_units_Z 44
_cell_length_a 16.327497
_cell_length_b 17.553952
_cell_length_c 11.819226
_cell_angle_alpha 90.000000
_cell_angle_beta 47.350560
_cell_angle_gamma 90.000000
_cell_volume 2491.573813
_symmetry_space_group_name_H-M "C 2/M"
_symmetry_group_IT_number 12
_symmetry_cell_setting 'monoclinic'
loop_
_space_group_symop_operation_xyz
x,y,z
-x,y,-z
-x,-y,-z
x,-y,z
1/2+x,1/2+y,z
1/2-x,1/2+y,-z
1/2-x,1/2-y,-z
1/2+x,1/2-y,z
loop_
_atom_site_type_symbol
_atom_site_label
_atom_site_fract_x
_atom_site_fract_y
_atom_site_fract_z
Si Si1 0.331570 0.881318 0.153314
Si Si2 0.405567 0.412839 0.680307
Si Si3 0.179818 0.000000 0.668415
Si Si4 0.988663 0.880888 0.837264
Si Si5 0.000000 0.249277 0.000000
Si Si6 0.877909 0.500000 0.919985
Si Si7 0.816222 0.000000 0.081559
Si Si8 0.375443 0.000000 0.303261
O O1 0.198842 0.870245 0.277315
O O2 0.366339 0.925754 0.233368
O O3 0.388908 0.799523 0.099256
O O4 0.365675 0.925144 0.007725
O O5 0.500000 0.416176 0.500000
O O6 0.373062 0.500000 0.747905
O O7 0.445113 0.365581 0.751598
O O8 0.230269 0.000000 0.747345
O O9 0.280900 0.000000 0.486329
O O10 0.104480 0.925764 0.719248
O O11 0.007825 0.800821 0.879641
O O12 0.894484 0.926363 0.994516
O O13 0.789212 0.500000 0.902133
O O14 0.003053 0.500000 0.751490
#
# Coordination Sequence:
#
# PCOD8113720 Si02
#       8
#     8   8   4   8   4   4   4   4
#     4  11  20  38  60  89 114 154 201 239 286 344
#     4  11  20  35  64  94 114 144 196 257 295 323
#     4  11  21  37  61  87 119 154 197 248 289 340
#     4  11  20  38  60  89 114 154 201 239 286 344
#     4  12  24  36  62  84 120 168 190 232 290 358
#     4  11  19  38  64  86 112 150 207 250 280 334
#     4  11  19  38  64  86 112 150 207 250 280 334
#     4  11  21  37  61  87 119 154 197 248 289 340
#
# _framework density 17.659521999999999
#
# number of rings (size 3 to 8) (size 9 to 14) (size 15 to 20)
#    0.000    0.909    9.091    2.182    0.000    1.091 
#    0.000    3.636    0.000    0.000    0.000    0.000 
#    0.000    0.000    0.000    0.000    0.000    0.000 
#
# Total GULP energy -272847.031282 kJ/mol
# GULP energy per Si atom -12402.137786 kJ/mol
# Density = 1.761933 g / cm^3
# Si number density = 17.659522 Si / 1000 Ang^3
#
#
#
# Elastic Constant Matrix: (Units=GPa)
#
#
# Indices 1 2 3 4 5 6 
#
# 1 116.6142 42.3784 41.7877 0.0000 -24.3816 0.0000
# 2 42.3784 103.7189 27.0297 0.0000 -12.8010 0.0000
# 3 41.7877 27.0297 72.3390 0.0000 -29.6330 0.0000
# 4 0.0000 0.0000 0.0000 8.4640 0.0000 -0.7257
# 5 -24.3816 -12.8010 -29.6330 0.0000 27.7440 0.0000
# 6 0.0000 0.0000 0.0000 -0.7257 0.0000 24.0174
#
#
#
# Elastic Compliance Matrix: (Units=1/GPa)
#
#
# Indices 1 2 3 4 5 6 
#
# 1 0.012213 -0.003393 -0.003612 0.000000 0.005309 0.000000
# 2 -0.003393 0.011646 -0.002510 0.000000 -0.000290 0.000000
# 3 -0.003612 -0.002510 0.026799 0.000000 0.024291 0.000000
# 4 0.000000 0.000000 0.000000 0.118455 0.000000 0.003579
# 5 0.005309 -0.000290 0.024291 0.000000 0.066521 0.000000
# 6 0.000000 0.000000 0.000000 0.003579 0.000000 0.041745
#
#
# Mechanical properties :
#
#
# Convention : Reuss Voigt Hill
#
# Bulk Modulus (GPa) = 31.61888 57.22928 44.42408
# Shear Modulus (GPa) = 16.28920 24.14349 20.21634
#
# Velocity S-wave (km/s) = 3.04040 3.70153 3.38714
# Velocity P-wave (km/s) = 5.50173 7.12361 6.36454
#
# Compressibility (1/GPa) = 0.03162668
#
# Stress axis : x y z
#
# Youngs Moduli (GPa) = 81.88076 85.86370 37.31496
#
# Poissons Ratio (x) = 0.29137 0.13479
# Poissons Ratio (y) = 0.27786 0.09366
# Poissons Ratio (z) = 0.29578 0.21552
#
# Static dielectric constant tensor:
#      x y z
#    x 3.535360 0.000000 -0.046890 
#    y 0.000000 3.029960 0.000000 
#    z -0.046890 0.000000 3.236660 
# 
# 
# High freq. dielectric constant tensor:
#      x y z
#    x 1.699900 0.000000 -0.003940 
#    y 0.000000 1.650940 0.000000 
#    z -0.003940 0.000000 1.681220 
# 
# From -- ./inp_files/145391.got.cif
#   From: 2010.06.25/outbox.cif.g09.slc.cpg/sg12_73_cif.got.tgz:145391.got - 2010.06.28 00:19:55.
