data_PCOD8113726
_publ_section_title
;
Structure prediction by ZEFSAII (Michael W. Deem and Ramdas Pophale) SiO2 
 PCOD8113726
Probable space group: C 2/M
;
_chemical_formula_sum "Si O2"
_cell_formula_units_Z 40
_cell_length_a 23.939683
_cell_length_b 9.617714
_cell_length_c 18.995359
_cell_angle_alpha 90.000000
_cell_angle_beta 153.364732
_cell_angle_gamma 90.000000
_cell_volume 1960.720087
_symmetry_space_group_name_H-M "C 2/M"
_symmetry_group_IT_number 12
_symmetry_cell_setting 'monoclinic'
loop_
_space_group_symop_operation_xyz
x,y,z
-x,y,-z
-x,-y,-z
x,-y,z
1/2+x,1/2+y,z
1/2-x,1/2+y,-z
1/2-x,1/2-y,-z
1/2+x,1/2-y,z
loop_
_atom_site_type_symbol
_atom_site_label
_atom_site_fract_x
_atom_site_fract_y
_atom_site_fract_z
Si Si1 0.709008 0.000000 0.648802
Si Si2 0.819211 0.500000 0.231599
Si Si3 0.997372 0.000000 0.690885
Si Si4 0.701381 0.000000 0.358732
Si Si5 0.552403 0.000000 0.331867
Si Si6 0.878389 0.722358 0.184307
Si Si7 0.463774 0.500000 0.104062
Si Si8 0.401241 0.727020 0.829296
O O1 0.614868 0.000000 0.478372
O O2 0.791133 0.139295 0.740294
O O3 0.625796 0.000000 0.626832
O O4 0.857657 0.637401 0.232548
O O5 0.672162 0.500000 0.082376
O O6 0.849448 0.000000 0.524309
O O7 0.052748 0.135898 0.715075
O O8 0.051626 0.000000 0.830227
O O9 0.656556 0.000000 0.389059
O O10 0.652138 0.134183 0.263941
O O11 0.466000 0.136855 0.228722
O O12 0.750000 0.750000 0.000000
O O13 0.536543 0.637361 0.162313
O O14 0.500000 0.768092 0.000000
#
# Coordination Sequence:
#
# PCOD8113726 Si02
#       8
#     4   4   4   4   4   8   4   8
#     4  11  22  42  68  90 123 168 221 265 314 368
#     4  11  22  41  67  92 118 171 217 265 306 364
#     4  12  23  41  64  96 134 162 209 267 325 376
#     4  12  26  40  63  98 137 166 195 268 339 379
#     4  11  25  42  65  97 127 165 219 264 318 379
#     4  11  23  41  64  93 128 168 214 261 307 377
#     4  11  19  38  69  90 122 165 216 258 306 372
#     4  11  22  39  63  97 129 168 209 258 315 384
#
# _framework density 20.400668
#
# number of rings (size 3 to 8) (size 9 to 14) (size 15 to 20)
#    0.000    0.800    4.000    5.100    0.000    4.000 
#    0.000    1.000    0.000    2.400    0.000    0.000 
#    0.000    0.000    0.000    0.000    0.000    0.000 
#
# Total GULP energy -248077.396025 kJ/mol
# GULP energy per Si atom -12403.869801 kJ/mol
# Density = 2.035424 g / cm^3
# Si number density = 20.400668 Si / 1000 Ang^3
#
#
#
# Elastic Constant Matrix: (Units=GPa)
#
#
# Indices 1 2 3 4 5 6 
#
# 1 133.3521 69.4106 49.1535 0.0000 -5.1676 0.0000
# 2 69.4106 181.1584 59.8305 0.0000 11.0588 0.0000
# 3 49.1535 59.8305 127.2580 0.0000 5.4959 0.0000
# 4 0.0000 0.0000 0.0000 32.4122 0.0000 3.0088
# 5 -5.1676 11.0588 5.4959 0.0000 40.8309 0.0000
# 6 0.0000 0.0000 0.0000 3.0088 0.0000 15.5994
#
#
#
# Elastic Compliance Matrix: (Units=1/GPa)
#
#
# Indices 1 2 3 4 5 6 
#
# 1 0.010211 -0.003228 -0.002534 0.000000 0.002508 0.000000
# 2 -0.003228 0.007632 -0.002247 0.000000 -0.002173 0.000000
# 3 -0.002534 -0.002247 0.009939 0.000000 -0.001050 0.000000
# 4 0.000000 0.000000 0.000000 0.031415 0.000000 -0.006059
# 5 0.002508 -0.002173 -0.001050 0.000000 0.025539 0.000000
# 6 0.000000 0.000000 0.000000 -0.006059 0.000000 0.065274
#
#
# Mechanical properties :
#
#
# Convention : Reuss Voigt Hill
#
# Bulk Modulus (GPa) = 85.02424 88.72865 86.87645
# Shear Modulus (GPa) = 29.42061 35.32678 32.37369
#
# Velocity S-wave (km/s) = 3.80167 4.16582 3.98791
# Velocity P-wave (km/s) = 7.81268 8.16861 7.99263
#
# Compressibility (1/GPa) = 0.01176135
#
# Stress axis : x y z
#
# Youngs Moduli (GPa) = 97.93715 131.03057 100.61479
#
# Poissons Ratio (x) = 0.42300 0.25500
# Poissons Ratio (y) = 0.31617 0.22612
# Poissons Ratio (z) = 0.24821 0.29447
#
# Static dielectric constant tensor:
#      x y z
#    x 3.731110 0.000000 0.205060 
#    y 0.000000 4.019750 0.000000 
#    z 0.205060 0.000000 3.873320 
# 
# 
# High freq. dielectric constant tensor:
#      x y z
#    x 1.793630 0.000000 0.010510 
#    y 0.000000 1.805590 0.000000 
#    z 0.010510 0.000000 1.812640 
# 
# From -- ./inp_files/353163.got.cif
#   From: 2010.06.25/outbox.cif.g09.slc.cpg/sg12_177_cif.got.tgz:353163.got - 2010.06.28 00:19:55.
