data_PCOD8113965
_publ_section_title
;
Structure prediction by ZEFSAII (Michael W. Deem and Ramdas Pophale) SiO2 
 PCOD8113965
Probable space group: C 2/M
;
_chemical_formula_sum "Si O2"
_cell_formula_units_Z 40
_cell_length_a 10.389024
_cell_length_b 15.781635
_cell_length_c 13.571367
_cell_angle_alpha 90.000000
_cell_angle_beta 68.602371
_cell_angle_gamma 90.000000
_cell_volume 2071.729734
_symmetry_space_group_name_H-M "C 2/M"
_symmetry_group_IT_number 12
_symmetry_cell_setting 'monoclinic'
loop_
_space_group_symop_operation_xyz
x,y,z
-x,y,-z
-x,-y,-z
x,-y,z
1/2+x,1/2+y,z
1/2-x,1/2+y,-z
1/2-x,1/2-y,-z
1/2+x,1/2-y,z
loop_
_atom_site_type_symbol
_atom_site_label
_atom_site_fract_x
_atom_site_fract_y
_atom_site_fract_z
Si Si1 0.060056 0.000000 0.316762
Si Si2 0.403635 0.331187 0.811810
Si Si3 0.208771 0.800654 0.773365
Si Si4 0.161425 0.905996 0.972992
Si Si5 0.196458 0.000000 0.468048
Si Si6 0.852848 0.595322 0.565870
O O1 0.048910 0.081015 0.250400
O O2 0.195593 0.000000 0.349188
O O3 0.945266 0.000000 0.432125
O O4 0.301123 0.282663 0.766452
O O5 0.545563 0.280372 0.800267
O O6 0.314554 0.351587 0.934634
O O7 0.233349 0.859887 0.861365
O O8 0.266739 0.845424 0.660906
O O9 0.226522 0.000000 0.966153
O O10 0.000000 0.914339 0.000000
O O11 0.275081 0.085442 0.482296
O O12 0.869978 0.500000 0.607957
O O13 0.000000 0.637642 0.500000
#
# Coordination Sequence:
#
# PCOD8113965 Si02
#       6
#     4   8   8   8   4   8
#     4  11  20  38  62  80 115 162 196 238 284 354
#     4  11  22  39  60  90 122 151 196 237 297 347
#     4  11  22  37  60  91 120 152 191 251 286 343
#     4   9  18  34  64  90 113 153 198 234 287 351
#     4   9  19  36  61  81 109 156 202 240 279 340
#     4   9  18  37  60  83 114 153 200 237 288 352
#
# _framework density 19.307537
#
# number of rings (size 3 to 8) (size 9 to 14) (size 15 to 20)
#    0.600    1.400    3.000    1.200    1.400    1.600 
#    3.600    2.000    2.200    1.200    0.000    0.000 
#    0.000    0.000    0.000    0.000    0.000    0.000 
#
# Total GULP energy -247823.150950 kJ/mol
# GULP energy per Si atom -12391.157547 kJ/mol
# Density = 1.926359 g / cm^3
# Si number density = 19.307537 Si / 1000 Ang^3
#
#
#
# Elastic Constant Matrix: (Units=GPa)
#
#
# Indices 1 2 3 4 5 6 
#
# 1 90.6112 31.9708 25.5320 0.0000 10.9402 0.0000
# 2 31.9708 61.9586 -4.0638 0.0000 0.6065 0.0000
# 3 25.5320 -4.0638 50.9840 0.0000 8.2036 0.0000
# 4 0.0000 0.0000 0.0000 14.3305 0.0000 4.6939
# 5 10.9402 0.6065 8.2036 0.0000 28.2830 0.0000
# 6 0.0000 0.0000 0.0000 4.6939 0.0000 34.1612
#
#
#
# Elastic Compliance Matrix: (Units=1/GPa)
#
#
# Indices 1 2 3 4 5 6 
#
# 1 0.017342 -0.009487 -0.008805 0.000000 -0.003951 0.000000
# 2 -0.009487 0.021430 0.006234 0.000000 0.001402 0.000000
# 3 -0.008805 0.006234 0.025168 0.000000 -0.004028 0.000000
# 4 0.000000 0.000000 0.000000 0.073070 0.000000 -0.010040
# 5 -0.003951 0.001402 -0.004028 0.000000 0.038023 0.000000
# 6 0.000000 0.000000 0.000000 -0.010040 0.000000 0.030653
#
#
# Mechanical properties :
#
#
# Convention : Reuss Voigt Hill
#
# Bulk Modulus (GPa) = 25.11097 34.49243 29.80170
# Shear Modulus (GPa) = 20.56959 25.36258 22.96609
#
# Velocity S-wave (km/s) = 3.26754 3.62831 3.45264
# Velocity P-wave (km/s) = 5.22204 5.95452 5.60027
#
# Compressibility (1/GPa) = 0.03982323
#
# Stress axis : x y z
#
# Youngs Moduli (GPa) = 57.66494 46.66284 39.73246
#
# Poissons Ratio (x) = 0.44270 0.34984
# Poissons Ratio (y) = 0.54707 -0.24767
# Poissons Ratio (z) = 0.50774 -0.29087
#
# Static dielectric constant tensor:
#      x y z
#    x 3.759740 0.000000 0.311010 
#    y 0.000000 3.326340 0.000000 
#    z 0.311010 0.000000 3.670570 
# 
# 
# High freq. dielectric constant tensor:
#      x y z
#    x 1.738350 0.000000 0.006520 
#    y 0.000000 1.728430 0.000000 
#    z 0.006520 0.000000 1.754960 
# 
# From -- ./inp_files/203856.got.cif
#   From: 2010.06.25/outbox.cif.g09.slc.cpg/sg12_102_cif.got.tgz:203856.got - 2010.06.28 00:19:55.
