data_PCOD8113719
_publ_section_title
;
Structure prediction by ZEFSAII (Michael W. Deem and Ramdas Pophale) SiO2 
 PCOD8113719
Probable space group: C 2/M
;
_chemical_formula_sum "Si O2"
_cell_formula_units_Z 48
_cell_length_a 15.924070
_cell_length_b 14.884424
_cell_length_c 9.603392
_cell_angle_alpha 90.000000
_cell_angle_beta 81.044856
_cell_angle_gamma 90.000000
_cell_volume 2248.456083
_symmetry_space_group_name_H-M "C 2/M"
_symmetry_group_IT_number 12
_symmetry_cell_setting 'monoclinic'
loop_
_space_group_symop_operation_xyz
x,y,z
-x,y,-z
-x,-y,-z
x,-y,z
1/2+x,1/2+y,z
1/2-x,1/2+y,-z
1/2-x,1/2-y,-z
1/2+x,1/2-y,z
loop_
_atom_site_type_symbol
_atom_site_label
_atom_site_fract_x
_atom_site_fract_y
_atom_site_fract_z
Si Si1 0.186678 0.095889 0.259780
Si Si2 0.887644 0.897683 0.239696
Si Si3 0.757747 0.148149 0.042219
Si Si4 0.242094 0.644746 0.485335
Si Si5 0.610973 0.101587 0.290914
Si Si6 0.528677 0.718616 0.335572
O O1 0.234987 0.092244 0.100734
O O2 0.259084 0.103846 0.359725
O O3 0.122349 0.178527 0.289365
O O4 0.138817 0.000000 0.290095
O O5 0.823218 0.894560 0.384647
O O6 0.965471 0.829851 0.245135
O O7 0.921030 0.000000 0.214864
O O8 0.842827 0.865547 0.110203
O O9 0.750000 0.250000 0.000000
O O10 0.676811 0.113611 0.148037
O O11 0.250000 0.750000 0.500000
O O12 0.156435 0.617802 0.427761
O O13 0.534834 0.174670 0.299261
O O14 0.574051 0.000000 0.295981
O O15 0.500000 0.700729 0.500000
#
# Coordination Sequence:
#
# PCOD8113719 Si02
#       6
#     8   8   8   8   8   8
#     4  12  22  36  63  97 129 160 204 260 319 376
#     4  11  23  40  64  94 131 169 208 256 320 381
#     4  11  22  43  67  95 126 163 208 263 317 377
#     4  11  19  38  63  96 127 162 210 261 313 371
#     4  11  23  43  67  91 125 171 217 262 312 373
#     4  12  24  40  62  95 132 170 208 260 316 376
#
# _framework density 21.347984
#
# number of rings (size 3 to 8) (size 9 to 14) (size 15 to 20)
#    0.000    0.667    5.000    5.500    0.000    1.667 
#    0.000    1.667    0.000    4.000    0.000    0.000 
#    0.000    0.000    0.000    0.000    0.000    0.000 
#
# Total GULP energy -297612.656961 kJ/mol
# GULP energy per Si atom -12400.527373 kJ/mol
# Density = 2.129939 g / cm^3
# Si number density = 21.347984 Si / 1000 Ang^3
#
#
#
# Elastic Constant Matrix: (Units=GPa)
#
#
# Indices 1 2 3 4 5 6 
#
# 1 67.1776 40.5972 37.0368 0.0000 14.1242 0.0000
# 2 40.5972 197.2493 36.2324 0.0000 19.1613 0.0000
# 3 37.0368 36.2324 158.2828 0.0000 16.3579 0.0000
# 4 0.0000 0.0000 0.0000 29.5660 0.0000 -1.7660
# 5 14.1242 19.1613 16.3579 0.0000 21.3425 0.0000
# 6 0.0000 0.0000 0.0000 -1.7660 0.0000 30.5785
#
#
#
# Elastic Compliance Matrix: (Units=1/GPa)
#
#
# Indices 1 2 3 4 5 6 
#
# 1 0.020061 -0.002727 -0.003205 0.000000 -0.008372 0.000000
# 2 -0.002727 0.006025 -0.000400 0.000000 -0.003298 0.000000
# 3 -0.003205 -0.000400 0.007497 0.000000 -0.003266 0.000000
# 4 0.000000 0.000000 0.000000 0.033940 0.000000 0.001960
# 5 -0.008372 -0.003298 -0.003266 0.000000 0.057859 0.000000
# 6 0.000000 0.000000 0.000000 0.001960 0.000000 0.032816
#
#
# Mechanical properties :
#
#
# Convention : Reuss Voigt Hill
#
# Bulk Modulus (GPa) = 47.80408 72.27137 60.03773
# Shear Modulus (GPa) = 28.11618 36.88695 32.50157
#
# Velocity S-wave (km/s) = 3.63304 4.16130 3.90611
# Velocity P-wave (km/s) = 6.32772 7.55089 6.96621
#
# Compressibility (1/GPa) = 0.02091871
#
# Stress axis : x y z
#
# Youngs Moduli (GPa) = 49.84838 165.97938 133.39034
#
# Poissons Ratio (x) = 0.45262 0.42747
# Poissons Ratio (y) = 0.13593 0.05339
# Poissons Ratio (z) = 0.15975 0.06643
#
# Static dielectric constant tensor:
#      x y z
#    x 3.752770 0.000000 0.202030 
#    y 0.000000 4.236670 0.000000 
#    z 0.202030 0.000000 5.068040 
# 
# 
# High freq. dielectric constant tensor:
#      x y z
#    x 1.799360 0.000000 0.004720 
#    y 0.000000 1.862200 0.000000 
#    z 0.004720 0.000000 1.847080 
# 
# From -- ./inp_files/73632.got.cif
#   From: 2010.06.25/outbox.cif.g09.slc.cpg/sg12_37_cif.got.tgz:73632.got - 2010.06.28 00:19:55.
