data_PCOD8113938
_publ_section_title
;
Structure prediction by ZEFSAII (Michael W. Deem and Ramdas Pophale) SiO2 
 PCOD8113938
Probable space group: C 2/M
;
_chemical_formula_sum "Si O2"
_cell_formula_units_Z 56
_cell_length_a 18.168392
_cell_length_b 20.307864
_cell_length_c 15.057568
_cell_angle_alpha 90.000000
_cell_angle_beta 150.529252
_cell_angle_gamma 90.000000
_cell_volume 2733.268279
_symmetry_space_group_name_H-M "C 2/M"
_symmetry_group_IT_number 12
_symmetry_cell_setting 'monoclinic'
loop_
_space_group_symop_operation_xyz
x,y,z
-x,y,-z
-x,-y,-z
x,-y,z
1/2+x,1/2+y,z
1/2-x,1/2+y,-z
1/2-x,1/2-y,-z
1/2+x,1/2-y,z
loop_
_atom_site_type_symbol
_atom_site_label
_atom_site_fract_x
_atom_site_fract_y
_atom_site_fract_z
Si Si1 0.916345 0.301036 0.223573
Si Si2 0.243942 0.711943 0.166916
Si Si3 0.182844 0.310037 0.620093
Si Si4 0.634556 0.426611 0.711232
Si Si5 0.156754 0.071879 0.122216
Si Si6 0.962955 0.771717 0.803105
Si Si7 0.641834 0.611419 0.914793
O O1 0.818940 0.236225 0.152048
O O2 0.020751 0.328650 0.411698
O O3 0.034088 0.284247 0.269470
O O4 0.807254 0.358007 0.074145
O O5 0.340329 0.744606 0.345874
O O6 0.246569 0.632566 0.180008
O O7 0.077418 0.743757 0.998844
O O8 0.227811 0.371837 0.728158
O O9 0.300546 0.288221 0.668719
O O10 0.500000 0.415914 0.500000
O O11 0.703529 0.500000 0.767240
O O12 0.586609 0.423340 0.765301
O O13 0.201659 0.000000 0.208246
O O14 0.150943 0.063218 0.009424
O O15 0.000000 0.094687 0.000000
O O16 0.017959 0.837113 0.813607
#
# Coordination Sequence:
#
# PCOD8113938 Si02
#       7
#     8   8   8   8   8   8   8
#     4  11  21  35  60  90 124 152 202 252 294 356
#     4  11  20  37  62  85 118 156 199 253 298 345
#     4  12  22  36  59  94 124 159 199 241 304 360
#     4  11  23  39  61  90 116 152 210 260 301 351
#     4  11  22  38  60  90 127 164 199 242 299 370
#     4  11  20  37  59  89 121 158 202 244 295 363
#     4  11  20  39  62  88 119 159 198 246 307 356
#
# _framework density 20.488292999999999
#
# number of rings (size 3 to 8) (size 9 to 14) (size 15 to 20)
#    0.000    0.857    7.143    3.429    0.000    0.000 
#    0.000    2.143    0.000    1.714    0.000    0.000 
#    0.000    0.000    0.000    0.000    0.000    0.000 
#
# Total GULP energy -346908.795186 kJ/mol
# GULP energy per Si atom -12389.599828 kJ/mol
# Density = 2.044166 g / cm^3
# Si number density = 20.488293 Si / 1000 Ang^3
#
#
#
# Elastic Constant Matrix: (Units=GPa)
#
#
# Indices 1 2 3 4 5 6 
#
# 1 72.1898 25.3078 18.6680 0.0000 -6.4471 0.0000
# 2 25.3078 117.5369 33.2465 0.0000 -3.2161 0.0000
# 3 18.6680 33.2465 88.5782 0.0000 -14.3774 0.0000
# 4 0.0000 0.0000 0.0000 13.1300 0.0000 -15.0738
# 5 -6.4471 -3.2161 -14.3774 0.0000 32.8409 0.0000
# 6 0.0000 0.0000 0.0000 -15.0738 0.0000 -27.3350
#
#
#
# Elastic Compliance Matrix: (Units=1/GPa)
#
#
# Indices 1 2 3 4 5 6 
#
# 1 0.015481 -0.002737 -0.001922 0.000000 0.001930 0.000000
# 2 -0.002737 0.010016 -0.003349 0.000000 -0.001022 0.000000
# 3 -0.001922 -0.003349 0.013819 0.000000 0.005345 0.000000
# 4 0.000000 0.000000 0.000000 0.046637 0.000000 -0.025718
# 5 0.001930 -0.001022 0.005345 0.000000 0.033068 0.000000
# 6 0.000000 0.000000 0.000000 -0.025718 0.000000 -0.022401
#
#
# Mechanical properties :
#
#
# Convention : Reuss Voigt Hill
#
# Bulk Modulus (GPa) = 42.91650 48.08331 45.49990
# Shear Modulus (GPa) = 41.52722 17.13269 29.32996
#
# Velocity S-wave (km/s) = 4.50697 2.89488 3.78768
# Velocity P-wave (km/s) = 6.93369 5.89011 6.43309
#
# Compressibility (1/GPa) = 0.02330106
#
# Stress axis : x y z
#
# Youngs Moduli (GPa) = 64.59422 99.83528 72.36441
#
# Poissons Ratio (x) = 0.27324 0.13910
# Poissons Ratio (y) = 0.17679 0.24233
# Poissons Ratio (z) = 0.12417 0.33432
#
# Static dielectric constant tensor:
#      x y z
#    x 3.930910 0.000000 -0.269040 
#    y 0.000000 3.623500 0.000000 
#    z -0.269040 0.000000 3.647550 
# 
# 
# High freq. dielectric constant tensor:
#      x y z
#    x 1.803100 0.000000 -0.025790 
#    y 0.000000 1.787660 0.000000 
#    z -0.025790 0.000000 1.792590 
# 
# From -- ./inp_files/77615.got.cif
#   From: 2010.06.25/outbox.cif.g09.slc.cpg/sg12_39_cif.got.tgz:77615.got - 2010.06.28 00:19:55.
