data_PCOD8113790
_publ_section_title
;
Structure prediction by ZEFSAII (Michael W. Deem and Ramdas Pophale) SiO2 
 PCOD8113790
Probable space group: C 2/M
;
_chemical_formula_sum "Si O2"
_cell_formula_units_Z 64
_cell_length_a 28.782320
_cell_length_b 8.999350
_cell_length_c 22.441218
_cell_angle_alpha 90.000000
_cell_angle_beta 131.031889
_cell_angle_gamma 90.000000
_cell_volume 4384.832320
_symmetry_space_group_name_H-M "C 2/M"
_symmetry_group_IT_number 12
_symmetry_cell_setting 'monoclinic'
loop_
_space_group_symop_operation_xyz
x,y,z
-x,y,-z
-x,-y,-z
x,-y,z
1/2+x,1/2+y,z
1/2-x,1/2+y,-z
1/2-x,1/2-y,-z
1/2+x,1/2-y,z
loop_
_atom_site_type_symbol
_atom_site_label
_atom_site_fract_x
_atom_site_fract_y
_atom_site_fract_z
Si Si1 0.057634 0.830216 0.216818
Si Si2 0.709158 0.326668 0.633134
Si Si3 0.032005 0.668419 0.084533
Si Si4 0.069893 0.172576 0.359926
Si Si5 0.345039 0.166831 0.761036
Si Si6 0.197194 0.322229 0.495778
Si Si7 0.400424 0.169930 0.406823
Si Si8 0.994595 0.329733 0.592378
O O1 0.013162 0.745823 0.131705
O O2 0.038641 0.802318 0.268999
O O3 0.128669 0.773939 0.268889
O O4 0.054540 0.000000 0.196348
O O5 0.699965 0.500000 0.610470
O O6 0.775297 0.292574 0.719518
O O7 0.704412 0.231130 0.569464
O O8 0.658765 0.275677 0.638931
O O9 0.008269 0.500000 0.068482
O O10 0.107289 0.678514 0.142415
O O11 0.000000 0.745443 0.000000
O O12 0.130600 0.272087 0.416533
O O13 0.017862 0.221976 0.362841
O O14 0.087313 0.000000 0.384272
O O15 0.346559 0.000000 0.736097
O O16 0.201953 0.500000 0.496909
O O17 0.250000 0.250000 0.500000
O O18 0.440679 0.216267 0.383267
O O19 0.440018 0.190989 0.499521
O O20 0.378845 0.000000 0.382740
O O21 0.997004 0.500000 0.616116
#
# Coordination Sequence:
#
# PCOD8113790 Si02
#       8
#     8   8   8   8   8   8   8   8
#     4   9  18  29  43  65  92 117 143 180 216 254
#     4  11  20  31  46  65  88 116 150 186 226 266
#     4   8  15  30  49  66  87 117 148 175 208 256
#     4  11  21  32  45  65  89 116 152 188 226 267
#     4   8  17  30  43  63  90 117 145 177 210 255
#     4  12  24  34  44  59  84 118 156 192 221 259
#     4   9  18  32  47  64  84 110 150 193 233 270
#     4   9  18  32  48  63  82 112 150 194 234 265
#
# _framework density 14.595769000000001
#
# number of rings (size 3 to 8) (size 9 to 14) (size 15 to 20)
#    0.750    1.625    1.250    3.375    0.000    5.750 
#    0.000    1.250    0.000    0.000    0.000    0.000 
#    0.000    1.000    0.000    2.250    0.000    3.500 
#
# Total GULP energy -396482.884990 kJ/mol
# GULP energy per Si atom -12390.090156 kJ/mol
# Density = 1.456255 g / cm^3
# Si number density = 14.595769 Si / 1000 Ang^3
#
#
#
# Elastic Constant Matrix: (Units=GPa)
#
#
# Indices 1 2 3 4 5 6 
#
# 1 97.3230 45.7529 39.3511 0.0000 -5.5927 0.0000
# 2 45.7529 84.9682 40.0680 0.0000 -7.5643 0.0001
# 3 39.3511 40.0680 75.4458 0.0000 -9.8391 0.0000
# 4 0.0000 0.0000 0.0000 17.2949 0.0000 -0.9204
# 5 -5.5927 -7.5643 -9.8391 0.0000 12.0747 0.0000
# 6 0.0000 0.0001 0.0000 -0.9204 0.0000 27.6950
#
#
#
# Elastic Compliance Matrix: (Units=1/GPa)
#
#
# Indices 1 2 3 4 5 6 
#
# 1 0.014908 -0.005841 -0.004756 0.000000 -0.000629 0.000000
# 2 -0.005841 0.018116 -0.006095 0.000000 0.003677 0.000000
# 3 -0.004756 -0.006095 0.020349 0.000000 0.010561 0.000000
# 4 0.000000 0.000000 0.000000 0.057923 0.000000 0.001925
# 5 -0.000629 0.003677 0.010561 0.000000 0.093435 0.000000
# 6 0.000000 0.000000 0.000000 0.001925 0.000000 0.036172
#
#
# Mechanical properties :
#
#
# Convention : Reuss Voigt Hill
#
# Bulk Modulus (GPa) = 50.02575 56.45342 53.23959
# Shear Modulus (GPa) = 17.79688 20.25060 19.02374
#
# Velocity S-wave (km/s) = 3.49566 3.72886 3.61414
# Velocity P-wave (km/s) = 7.11628 7.56975 7.34651
#
# Compressibility (1/GPa) = 0.01998971
#
# Stress axis : x y z
#
# Youngs Moduli (GPa) = 67.07990 55.20075 49.14195
#
# Poissons Ratio (x) = 0.32241 0.23370
# Poissons Ratio (y) = 0.39180 0.29952
# Poissons Ratio (z) = 0.31901 0.33645
#
# Static dielectric constant tensor:
#      x y z
#    x 2.857270 0.000000 0.024990 
#    y 0.000000 2.901340 0.000000 
#    z 0.024990 0.000000 2.693600 
# 
# 
# High freq. dielectric constant tensor:
#      x y z
#    x 1.542290 0.000000 -0.001040 
#    y 0.000000 1.568940 0.000000 
#    z -0.001040 0.000000 1.525010 
# 
# From -- ./inp_files/350977.got.cif
#   From: 2010.06.25/outbox.cif.g09.slc.cpg/sg12_176_cif.got.tgz:350977.got - 2010.06.28 00:19:55.
