data_PCOD8113875
_publ_section_title
;
Structure prediction by ZEFSAII (Michael W. Deem and Ramdas Pophale) SiO2 
 PCOD8113875
Probable space group: C 2/M
;
_chemical_formula_sum "Si O2"
_cell_formula_units_Z 56
_cell_length_a 8.313569
_cell_length_b 31.311243
_cell_length_c 11.104978
_cell_angle_alpha 90.000000
_cell_angle_beta 61.254750
_cell_angle_gamma 90.000000
_cell_volume 2534.483849
_symmetry_space_group_name_H-M "C 2/M"
_symmetry_group_IT_number 12
_symmetry_cell_setting 'monoclinic'
loop_
_space_group_symop_operation_xyz
x,y,z
-x,y,-z
-x,-y,-z
x,-y,z
1/2+x,1/2+y,z
1/2-x,1/2+y,-z
1/2-x,1/2-y,-z
1/2+x,1/2-y,z
loop_
_atom_site_type_symbol
_atom_site_label
_atom_site_fract_x
_atom_site_fract_y
_atom_site_fract_z
Si Si1 0.490067 0.126372 0.637855
Si Si2 0.853678 0.892000 0.647628
Si Si3 0.793782 0.108650 0.074009
Si Si4 0.152177 0.285221 0.290704
Si Si5 0.715255 0.049048 0.909077
Si Si6 0.677470 0.808394 0.012786
Si Si7 0.524840 0.697896 0.286483
O O1 0.500000 0.107932 0.500000
O O2 0.658394 0.110098 0.654632
O O3 0.297229 0.108047 0.760703
O O4 0.500266 0.178065 0.635588
O O5 0.823127 0.923270 0.770916
O O6 0.931874 0.845904 0.659849
O O7 0.000000 0.911448 0.500000
O O8 0.667014 0.140722 0.040928
O O9 0.796932 0.062328 0.009851
O O10 0.000000 0.127160 0.000000
O O11 0.198678 0.283560 0.131372
O O12 0.315729 0.299112 0.319882
O O13 0.074566 0.238535 0.354392
O O14 0.759026 0.000000 0.865928
O O15 0.500000 0.057736 0.000000
O O16 0.500000 0.794442 0.000000
O O17 0.858163 0.797706 0.875424
#
# Coordination Sequence:
#
# PCOD8113875 Si02
#       7
#     8   8   8   8   8   8   8
#     4  11  24  43  64  99 138 183 223 281 333 403
#     4  12  26  43  72 101 136 184 227 278 348 415
#     4  11  22  39  71 101 131 172 225 278 335 405
#     4  11  24  37  60  92 134 181 231 290 330 391
#     4  11  24  47  76 105 136 174 225 285 344 411
#     4  11  20  34  58  91 129 175 226 282 338 395
#     4  12  22  40  59  93 133 178 235 280 341 394
#
# _framework density 22.095227999999999
#
# number of rings (size 3 to 8) (size 9 to 14) (size 15 to 20)
#    0.000    0.714    2.857    7.286    2.000    1.143 
#    0.000    2.857    0.000    0.857    0.000    0.000 
#    0.000    0.000    0.000    0.000    0.000    0.000 
#
# Total GULP energy -347126.476817 kJ/mol
# GULP energy per Si atom -12397.374172 kJ/mol
# Density = 2.204494 g / cm^3
# Si number density = 22.095228 Si / 1000 Ang^3
#
#
#
# Elastic Constant Matrix: (Units=GPa)
#
#
# Indices 1 2 3 4 5 6 
#
# 1 89.5931 26.9946 36.2858 0.0000 4.0405 0.0000
# 2 26.9946 114.6684 46.3595 0.0000 1.8596 0.0000
# 3 36.2858 46.3595 146.4244 0.0000 -4.9558 0.0000
# 4 0.0000 0.0000 0.0000 52.3620 0.0000 -5.4906
# 5 4.0405 1.8596 -4.9558 0.0000 34.4760 0.0000
# 6 0.0000 0.0000 0.0000 -5.4906 0.0000 24.6453
#
#
#
# Elastic Compliance Matrix: (Units=1/GPa)
#
#
# Indices 1 2 3 4 5 6 
#
# 1 0.012897 -0.001939 -0.002643 0.000000 -0.001787 0.000000
# 2 -0.001939 0.010327 -0.002814 0.000000 -0.000734 0.000000
# 3 -0.002643 -0.002814 0.008432 0.000000 0.001674 0.000000
# 4 0.000000 0.000000 0.000000 0.019555 0.000000 0.004356
# 5 -0.001787 -0.000734 0.001674 0.000000 0.029495 0.000000
# 6 0.000000 0.000000 0.000000 0.004356 0.000000 0.041546
#
#
# Mechanical properties :
#
#
# Convention : Reuss Voigt Hill
#
# Bulk Modulus (GPa) = 59.29543 63.32954 61.31249
# Shear Modulus (GPa) = 35.04750 38.36639 36.70694
#
# Velocity S-wave (km/s) = 3.98704 4.17155 4.08033
# Velocity P-wave (km/s) = 6.93468 7.20602 7.07165
#
# Compressibility (1/GPa) = 0.01686471
#
# Stress axis : x y z
#
# Youngs Moduli (GPa) = 77.54010 96.83569 118.59705
#
# Poissons Ratio (x) = 0.18773 0.31340
# Poissons Ratio (y) = 0.15033 0.33373
# Poissons Ratio (z) = 0.20491 0.27249
#
# Static dielectric constant tensor:
#      x y z
#    x 3.954740 0.000000 0.007390 
#    y 0.000000 3.849180 0.000000 
#    z 0.007390 0.000000 4.214920 
# 
# 
# High freq. dielectric constant tensor:
#      x y z
#    x 1.872260 0.000000 -0.001030 
#    y 0.000000 1.844080 0.000000 
#    z -0.001030 0.000000 1.880010 
# 
# From -- ./inp_files/125596.got.cif
#   From: 2010.06.25/outbox.cif.g09.slc.cpg/sg12_63_cif.got.tgz:125596.got - 2010.06.28 00:19:55.
