data_PCOD8113305
_publ_section_title
;
Structure prediction by ZEFSAII (Michael W. Deem and Ramdas Pophale) SiO2 
 PCOD8113305
Probable space group: C 2/M
;
_chemical_formula_sum "Si O2"
_cell_formula_units_Z 44
_cell_length_a 9.174800
_cell_length_b 21.936942
_cell_length_c 11.335473
_cell_angle_alpha 90.000000
_cell_angle_beta 101.517600
_cell_angle_gamma 90.000000
_cell_volume 2235.516519
_symmetry_space_group_name_H-M "C 2/M"
_symmetry_group_IT_number 12
_symmetry_cell_setting 'monoclinic'
loop_
_space_group_symop_operation_xyz
x,y,z
-x,y,-z
-x,-y,-z
x,-y,z
1/2+x,1/2+y,z
1/2-x,1/2+y,-z
1/2-x,1/2-y,-z
1/2+x,1/2-y,z
loop_
_atom_site_type_symbol
_atom_site_label
_atom_site_fract_x
_atom_site_fract_y
_atom_site_fract_z
Si Si1 0.311061 0.117184 0.180379
Si Si2 0.747663 0.500000 0.513215
Si Si3 0.992611 0.146355 0.751352
Si Si4 0.147515 0.933229 0.946334
Si Si5 0.400992 0.235355 0.091715
Si Si6 0.000000 0.101576 0.500000
Si Si7 0.556940 0.000000 0.686989
O O1 0.394321 0.181986 0.188834
O O2 0.416413 0.061695 0.235189
O O3 0.172466 0.123026 0.246088
O O4 0.264527 0.106535 0.037284
O O5 0.646993 0.559950 0.513671
O O6 0.823106 0.500000 0.397819
O O7 0.883808 0.500000 0.626605
O O8 0.112549 0.097001 0.815490
O O9 0.027158 0.209168 0.823421
O O10 0.010821 0.147506 0.613173
O O11 0.213319 0.000000 0.932275
O O12 0.000000 0.937455 0.000000
O O13 0.500000 0.213847 0.000000
O O14 0.250000 0.250000 0.000000
#
# Coordination Sequence:
#
# PCOD8113305 Si02
#       7
#     8   4   8   8   8   4   4
#     4  11  21  40  67  98 132 173 214 274 339 393
#     4  10  24  42  66  96 134 179 216 266 333 397
#     4  11  22  39  64  97 131 177 227 264 322 393
#     4   9  17  29  57  94 122 156 213 266 318 381
#     4  12  23  42  66  95 131 175 220 269 332 394
#     4  11  24  42  68  98 130 177 226 268 310 397
#     4  11  22  44  68  98 135 170 219 275 343 388
#
# _framework density 19.682251999999998
#
# number of rings (size 3 to 8) (size 9 to 14) (size 15 to 20)
#    0.000    1.273    6.364    0.545    3.818    1.455 
#    0.000    3.182    0.000    0.000    0.000    0.000 
#    0.000    0.000    0.000    0.000    0.000    0.000 
#
# Total GULP energy -272680.572760 kJ/mol
# GULP energy per Si atom -12394.571489 kJ/mol
# Density = 1.963745 g / cm^3
# Si number density = 19.682252 Si / 1000 Ang^3
#
#
#
# Elastic Constant Matrix: (Units=GPa)
#
#
# Indices 1 2 3 4 5 6 
#
# 1 80.1572 20.4053 33.2835 0.0000 11.1952 0.0000
# 2 20.4053 108.4154 34.9696 0.0000 5.3594 0.0000
# 3 33.2835 34.9696 122.5513 0.0000 -5.4476 0.0000
# 4 0.0000 0.0000 0.0000 18.9060 0.0000 -1.9795
# 5 11.1952 5.3594 -5.4476 0.0000 25.7265 0.0000
# 6 0.0000 0.0000 0.0000 -1.9795 0.0000 26.7155
#
#
#
# Elastic Compliance Matrix: (Units=1/GPa)
#
#
# Indices 1 2 3 4 5 6 
#
# 1 0.015568 -0.001204 -0.004214 0.000000 -0.007416 0.000000
# 2 -0.001204 0.010449 -0.002754 0.000000 -0.002236 0.000000
# 3 -0.004214 -0.002754 0.010294 0.000000 0.004587 0.000000
# 4 0.000000 0.000000 0.000000 0.053307 0.000000 0.003950
# 5 -0.007416 -0.002236 0.004587 0.000000 0.043535 0.000000
# 6 0.000000 0.000000 0.000000 0.003950 0.000000 0.037724
#
#
# Mechanical properties :
#
#
# Convention : Reuss Voigt Hill
#
# Bulk Modulus (GPa) = 50.08393 54.27118 52.17756
# Shear Modulus (GPa) = 25.78961 29.10063 27.44512
#
# Velocity S-wave (km/s) = 3.62373 3.84933 3.73823
# Velocity P-wave (km/s) = 6.55820 6.88403 6.72309
#
# Compressibility (1/GPa) = 0.01996648
#
# Stress axis : x y z
#
# Youngs Moduli (GPa) = 64.23618 95.70049 97.14318
#
# Poissons Ratio (x) = 0.11524 0.40936
# Poissons Ratio (y) = 0.07735 0.26753
# Poissons Ratio (z) = 0.27069 0.26356
#
# Static dielectric constant tensor:
#      x y z
#    x 3.400610 0.000000 0.082970 
#    y 0.000000 3.711070 0.000000 
#    z 0.082970 0.000000 3.545210 
# 
# 
# High freq. dielectric constant tensor:
#      x y z
#    x 1.756910 0.000000 0.003370 
#    y 0.000000 1.771980 0.000000 
#    z 0.003370 0.000000 1.760900 
# 
# From -- ./inp_files/122139.got.cif
#   From: 2010.06.25/outbox.cif.g09.slc.cpg/sg12_62_cif.got.tgz:122139.got - 2010.06.28 00:19:55.
