data_PCOD8113421
_publ_section_title
;
Structure prediction by ZEFSAII (Michael W. Deem and Ramdas Pophale) SiO2 
 PCOD8113421
Probable space group: C 2/M
;
_chemical_formula_sum "Si O2"
_cell_formula_units_Z 48
_cell_length_a 13.954019
_cell_length_b 17.883724
_cell_length_c 16.517841
_cell_angle_alpha 90.000000
_cell_angle_beta 33.844520
_cell_angle_gamma 90.000000
_cell_volume 2295.724923
_symmetry_space_group_name_H-M "C 2/M"
_symmetry_group_IT_number 12
_symmetry_cell_setting 'monoclinic'
loop_
_space_group_symop_operation_xyz
x,y,z
-x,y,-z
-x,-y,-z
x,-y,z
1/2+x,1/2+y,z
1/2-x,1/2+y,-z
1/2-x,1/2-y,-z
1/2+x,1/2-y,z
loop_
_atom_site_type_symbol
_atom_site_label
_atom_site_fract_x
_atom_site_fract_y
_atom_site_fract_z
Si Si1 0.693975 0.689640 0.355264
Si Si2 0.265910 0.161772 0.479732
Si Si3 0.439167 0.914224 0.633907
Si Si4 0.601122 0.329752 0.849962
Si Si5 0.973730 0.086546 0.791828
Si Si6 0.804991 0.585891 0.139601
O O1 0.500000 0.720501 0.500000
O O2 0.754145 0.644389 0.392538
O O3 0.815783 0.759901 0.254041
O O4 0.695879 0.632140 0.280352
O O5 0.250000 0.250000 0.500000
O O6 0.450339 0.136067 0.382770
O O7 0.118906 0.118269 0.630768
O O8 0.500000 0.902016 0.500000
O O9 0.242517 0.889230 0.779501
O O10 0.455756 0.000000 0.649154
O O11 0.471556 0.369712 0.878191
O O12 0.500000 0.301586 0.000000
O O13 0.785318 0.096347 0.884279
O O14 0.017442 0.000000 0.777021
O O15 0.802021 0.500000 0.169224
O O16 0.000000 0.616145 0.000000
#
# Coordination Sequence:
#
# PCOD8113421 Si02
#       6
#     8   8   8   8   8   8
#     4  12  24  43  70  98 134 172 229 278 330 394
#     4  12  22  40  67 100 134 169 223 278 327 387
#     4  11  23  41  66  97 135 175 220 275 331 392
#     4  12  26  43  67 100 136 178 220 272 339 403
#     4  11  23  42  69  99 133 175 221 275 333 396
#     4  10  24  45  67  96 137 177 218 275 338 398
#
# _framework density 20.908427
#
# number of rings (size 3 to 8) (size 9 to 14) (size 15 to 20)
#    0.000    0.667    5.000    3.000    0.000    4.333 
#    0.000    4.167    0.000    0.000    0.000    0.000 
#    0.000    0.000    0.000    0.000    0.000    0.000 
#
# Total GULP energy -297745.753531 kJ/mol
# GULP energy per Si atom -12406.073064 kJ/mol
# Density = 2.086084 g / cm^3
# Si number density = 20.908427 Si / 1000 Ang^3
#
#
#
# Elastic Constant Matrix: (Units=GPa)
#
#
# Indices 1 2 3 4 5 6 
#
# 1 150.1399 52.3422 43.3333 -0.0048 -4.3556 -0.0016
# 2 52.3422 98.2346 26.8230 0.0280 2.0451 -0.0024
# 3 43.3333 26.8230 97.6656 0.0242 -0.3171 -0.0015
# 4 -0.0048 0.0280 0.0242 19.3584 -0.0050 -3.6431
# 5 -4.3556 2.0451 -0.3171 -0.0050 37.8008 0.0001
# 6 -0.0016 -0.0024 -0.0015 -3.6431 0.0001 38.3860
#
#
#
# Elastic Compliance Matrix: (Units=1/GPa)
#
#
# Indices 1 2 3 4 5 6 
#
# 1 0.008912 -0.003995 -0.002853 0.000012 0.001219 0.000001
# 2 -0.003995 0.012810 -0.001750 -0.000018 -0.001168 -0.000001
# 3 -0.002853 -0.001750 0.011985 -0.000013 -0.000134 -0.000001
# 4 0.000012 -0.000018 -0.000013 0.052597 0.000009 0.004992
# 5 0.001219 -0.001168 -0.000134 0.000009 0.026657 0.000001
# 6 0.000001 -0.000001 -0.000001 0.004992 0.000001 0.026525
#
#
# Mechanical properties :
#
#
# Convention : Reuss Voigt Hill
#
# Bulk Modulus (GPa) = 60.56090 65.67080 63.11585
# Shear Modulus (GPa) = 30.82901 34.01181 32.42041
#
# Velocity S-wave (km/s) = 3.84406 4.03762 3.94203
# Velocity P-wave (km/s) = 6.98069 7.29475 7.13945
#
# Compressibility (1/GPa) = 0.01651230
#
# Stress axis : x y z
#
# Youngs Moduli (GPa) = 112.20853 78.06187 83.43795
#
# Poissons Ratio (x) = 0.31185 0.23805
# Poissons Ratio (y) = 0.44826 0.14598
# Poissons Ratio (z) = 0.32013 0.13657
#
# Static dielectric constant tensor:
#      x y z
#    x 4.207270 0.000000 -0.003410 
#    y 0.000000 3.858010 0.000040 
#    z -0.003410 0.000040 3.795400 
# 
# 
# High freq. dielectric constant tensor:
#      x y z
#    x 1.836140 0.000000 -0.007110 
#    y 0.000000 1.828720 0.000000 
#    z -0.007110 0.000000 1.804520 
# 
# From -- ./inp_files/271586.got.cif
#   From: 2010.06.25/outbox.cif.g09.slc.cpg/sg12_136_cif.got.tgz:271586.got - 2010.06.28 00:19:55.
