data_PCOD8113707
_publ_section_title
;
Structure prediction by ZEFSAII (Michael W. Deem and Ramdas Pophale) SiO2 
 PCOD8113707
Probable space group: C 2/M
;
_chemical_formula_sum "Si O2"
_cell_formula_units_Z 64
_cell_length_a 10.127748
_cell_length_b 16.638947
_cell_length_c 33.218711
_cell_angle_alpha 90.000000
_cell_angle_beta 145.673097
_cell_angle_gamma 90.000000
_cell_volume 3156.707078
_symmetry_space_group_name_H-M "C 2/M"
_symmetry_group_IT_number 12
_symmetry_cell_setting 'monoclinic'
loop_
_space_group_symop_operation_xyz
x,y,z
-x,y,-z
-x,-y,-z
x,-y,z
1/2+x,1/2+y,z
1/2-x,1/2+y,-z
1/2-x,1/2-y,-z
1/2+x,1/2-y,z
loop_
_atom_site_type_symbol
_atom_site_label
_atom_site_fract_x
_atom_site_fract_y
_atom_site_fract_z
Si Si1 0.520969 0.295004 0.625441
Si Si2 0.877635 0.407818 0.278519
Si Si3 0.562234 0.679480 0.253764
Si Si4 0.843473 0.592284 0.122639
Si Si5 0.119826 0.091144 0.717133
Si Si6 0.747597 0.262533 0.046445
Si Si7 0.679878 0.676323 0.576852
Si Si8 0.712899 0.687464 0.163522
O O1 0.721531 0.239053 0.693550
O O2 0.561311 0.381302 0.656973
O O3 0.536430 0.302894 0.581311
O O4 0.275659 0.256839 0.578643
O O5 0.886043 0.500000 0.267440
O O6 0.636987 0.393151 0.242933
O O7 0.875772 0.353815 0.237976
O O8 0.111028 0.386214 0.362068
O O9 0.527235 0.646501 0.289716
O O10 0.334340 0.728144 0.180915
O O11 0.773896 0.500000 0.096669
O O12 0.792382 0.643968 0.069618
O O13 0.682319 0.629746 0.117310
O O14 0.108948 0.600257 0.203874
O O15 0.036034 0.000000 0.700568
O O16 0.957210 0.207697 0.117324
O O17 0.500000 0.230417 0.000000
O O18 0.750000 0.250000 0.000000
O O19 0.500000 0.635454 0.500000
#
# Coordination Sequence:
#
# PCOD8113707 Si02
#       8
#     8   8   8   8   8   8   8   8
#     4  11  20  38  62  94 124 163 217 266 310 377
#     4  11  24  39  63  98 133 163 210 273 324 371
#     4  11  19  37  62  93 123 166 209 259 317 377
#     4  11  23  39  64  96 127 165 209 262 325 384
#     4  11  21  35  62  96 128 160 207 267 324 377
#     4  12  26  44  67  96 126 171 217 259 314 389
#     4  11  23  39  64  93 130 175 217 261 320 387
#     4  12  21  41  69  91 127 165 219 264 316 381
#
# _framework density 20.274291000000002
#
# number of rings (size 3 to 8) (size 9 to 14) (size 15 to 20)
#    0.000    0.750    6.250    2.625    0.000    2.000 
#    0.000    0.000    0.000    2.250    0.000    0.000 
#    0.000    0.000    0.000    0.000    0.000    0.000 
#
# Total GULP energy -396816.897470 kJ/mol
# GULP energy per Si atom -12400.528046 kJ/mol
# Density = 2.022815 g / cm^3
# Si number density = 20.274291 Si / 1000 Ang^3
#
#
#
# Elastic Constant Matrix: (Units=GPa)
#
#
# Indices 1 2 3 4 5 6 
#
# 1 125.0837 46.8383 35.5228 -0.0002 -9.4575 -0.0001
# 2 46.8383 114.6779 46.7469 0.0000 -1.1942 0.0000
# 3 35.5228 46.7469 98.0392 -0.0013 -0.9836 -0.0005
# 4 -0.0002 0.0000 -0.0013 19.4245 -0.0004 -6.7197
# 5 -9.4575 -1.1942 -0.9836 -0.0004 30.9937 -0.0002
# 6 -0.0001 0.0000 -0.0005 -6.7197 -0.0002 27.8810
#
#
#
# Elastic Compliance Matrix: (Units=1/GPa)
#
#
# Indices 1 2 3 4 5 6 
#
# 1 0.010000 -0.003214 -0.002062 0.000000 0.002862 0.000000
# 2 -0.003214 0.011859 -0.004497 0.000000 -0.000667 0.000000
# 3 -0.002062 -0.004497 0.013087 0.000001 -0.000387 0.000000
# 4 0.000000 0.000000 0.000001 0.056164 0.000001 0.013536
# 5 0.002862 -0.000667 -0.000387 0.000001 0.033100 0.000000
# 6 0.000000 0.000000 0.000000 0.013536 0.000000 0.039129
#
#
# Mechanical properties :
#
#
# Convention : Reuss Voigt Hill
#
# Bulk Modulus (GPa) = 64.93187 66.22407 65.57797
# Shear Modulus (GPa) = 26.59304 29.57269 28.08286
#
# Velocity S-wave (km/s) = 3.62562 3.82334 3.72579
# Velocity P-wave (km/s) = 7.04436 7.22673 7.13613
#
# Compressibility (1/GPa) = 0.01540076
#
# Stress axis : x y z
#
# Youngs Moduli (GPa) = 99.99800 84.32524 76.40921
#
# Poissons Ratio (x) = 0.27102 0.15757
# Poissons Ratio (y) = 0.32139 0.34359
# Poissons Ratio (z) = 0.20622 0.37918
#
# Static dielectric constant tensor:
#      x y z
#    x 3.753020 0.000000 0.048240 
#    y 0.000000 3.655040 0.000000 
#    z 0.048240 0.000000 3.592540 
# 
# 
# High freq. dielectric constant tensor:
#      x y z
#    x 1.805770 0.000000 0.000360 
#    y 0.000000 1.775230 0.000000 
#    z 0.000360 0.000000 1.782510 
# 
# From -- ./inp_files/372986.got.cif
#   From: 2010.06.25/outbox.cif.g09.slc.cpg/sg12_187_cif.got.tgz:372986.got - 2010.06.28 00:19:55.
