data_PCOD8113601
_publ_section_title
;
Structure prediction by ZEFSAII (Michael W. Deem and Ramdas Pophale) SiO2 
 PCOD8113601
Probable space group: C 2/M
;
_chemical_formula_sum "Si O2"
_cell_formula_units_Z 64
_cell_length_a 10.076368
_cell_length_b 17.042087
_cell_length_c 18.422296
_cell_angle_alpha 90.000000
_cell_angle_beta 104.908565
_cell_angle_gamma 90.000000
_cell_volume 3057.028207
_symmetry_space_group_name_H-M "C 2/M"
_symmetry_group_IT_number 12
_symmetry_cell_setting 'monoclinic'
loop_
_space_group_symop_operation_xyz
x,y,z
-x,y,-z
-x,-y,-z
x,-y,z
1/2+x,1/2+y,z
1/2-x,1/2+y,-z
1/2-x,1/2-y,-z
1/2+x,1/2-y,z
loop_
_atom_site_type_symbol
_atom_site_label
_atom_site_fract_x
_atom_site_fract_y
_atom_site_fract_z
Si Si1 0.916167 0.087604 0.640249
Si Si2 0.845778 0.685565 0.251360
Si Si3 0.185782 0.821256 0.658799
Si Si4 0.080142 0.591812 0.231934
Si Si5 0.394883 0.587595 0.802677
Si Si6 0.116733 0.201195 0.868039
Si Si7 0.164433 0.087135 0.519557
Si Si8 0.436951 0.175411 0.918415
O O1 0.853793 0.088683 0.711519
O O2 0.800870 0.104188 0.560907
O O3 0.031232 0.153131 0.650753
O O4 0.978583 0.000000 0.634487
O O5 0.804952 0.726926 0.323230
O O6 0.719519 0.649209 0.186254
O O7 0.905890 0.755818 0.211517
O O8 0.964725 0.620035 0.273915
O O9 0.278097 0.865443 0.730814
O O10 0.229600 0.846911 0.582756
O O11 0.099083 0.500000 0.241997
O O12 0.040735 0.614391 0.144054
O O13 0.375272 0.500000 0.831439
O O14 0.547242 0.615379 0.846018
O O15 0.276250 0.193312 0.910794
O O16 0.027683 0.246154 0.916715
O O17 0.000000 0.090768 0.500000
O O18 0.217857 0.000000 0.549950
O O19 0.500000 0.136705 0.000000
#
# Coordination Sequence:
#
# PCOD8113601 Si02
#       8
#     8   8   8   8   8   8   8   8
#     4   9  17  30  54  85 114 147 192 246 298 344
#     4  11  21  37  56  84 120 150 191 240 302 351
#     4  11  18  32  59  80 110 144 198 240 285 346
#     4  11  23  38  60  86 116 152 193 243 297 350
#     4  11  21  36  61  85 115 156 201 246 287 352
#     4  11  20  40  62  91 119 157 197 238 292 351
#     4   8  15  28  49  81 115 147 187 242 302 346
#     4  11  23  39  64  92 124 158 193 240 299 357
#
# _framework density 20.935365999999998
#
# number of rings (size 3 to 8) (size 9 to 14) (size 15 to 20)
#    0.000    1.625    3.750    3.375    0.000    1.750 
#    0.000    0.625    2.750    0.375    0.000    3.500 
#    0.000    0.000    0.000    0.000    0.000    0.000 
#
# Total GULP energy -396470.534181 kJ/mol
# GULP energy per Si atom -12389.704193 kJ/mol
# Density = 2.088772 g / cm^3
# Si number density = 20.935366 Si / 1000 Ang^3
#
#
#
# Elastic Constant Matrix: (Units=GPa)
#
#
# Indices 1 2 3 4 5 6 
#
# 1 75.7334 41.8052 16.2729 0.0000 12.2808 0.0000
# 2 41.8052 103.6997 23.9906 0.0000 5.8411 0.0000
# 3 16.2729 23.9906 100.9910 0.0000 1.8164 0.0000
# 4 0.0000 0.0000 0.0000 24.2718 0.0000 4.2366
# 5 12.2808 5.8411 1.8164 0.0000 15.9403 0.0000
# 6 0.0000 0.0000 0.0000 4.2366 0.0000 23.3859
#
#
#
# Elastic Compliance Matrix: (Units=1/GPa)
#
#
# Indices 1 2 3 4 5 6 
#
# 1 0.019175 -0.006752 -0.001267 0.000000 -0.012154 0.000000
# 2 -0.006752 0.012777 -0.001961 0.000000 0.000744 0.000000
# 3 -0.001267 -0.001961 0.010563 0.000000 0.000491 0.000000
# 4 0.000000 0.000000 0.000000 0.042545 0.000000 -0.007707
# 5 -0.012154 0.000744 0.000491 0.000000 0.071769 0.000000
# 6 0.000000 0.000000 0.000000 -0.007707 0.000000 0.044157
#
#
# Mechanical properties :
#
#
# Convention : Reuss Voigt Hill
#
# Bulk Modulus (GPa) = 44.33644 49.39572 46.86608
# Shear Modulus (GPa) = 21.88525 25.94330 23.91427
#
# Velocity S-wave (km/s) = 3.23673 3.52406 3.38345
# Velocity P-wave (km/s) = 5.93231 6.34068 6.13989
#
# Compressibility (1/GPa) = 0.02255481
#
# Stress axis : x y z
#
# Youngs Moduli (GPa) = 52.15228 78.26555 94.67067
#
# Poissons Ratio (x) = 0.52847 0.11995
# Poissons Ratio (y) = 0.35215 0.18561
# Poissons Ratio (z) = 0.06608 0.15344
#
# Static dielectric constant tensor:
#      x y z
#    x 3.587790 0.000000 -0.145090 
#    y 0.000000 3.822000 0.000000 
#    z -0.145090 0.000000 4.042600 
# 
# 
# High freq. dielectric constant tensor:
#      x y z
#    x 1.796970 0.000000 0.001060 
#    y 0.000000 1.813070 0.000000 
#    z 0.001060 0.000000 1.807710 
# 
# From -- ./inp_files/305452.got.cif
#   From: 2010.06.25/outbox.cif.g09.slc.cpg/sg12_153_cif.got.tgz:305452.got - 2010.06.28 00:19:55.
