data_PCOD8113484
_publ_section_title
;
Structure prediction by ZEFSAII (Michael W. Deem and Ramdas Pophale) SiO2 
 PCOD8113484
Probable space group: C 2/M
;
_chemical_formula_sum "Si O2"
_cell_formula_units_Z 32
_cell_length_a 8.964685
_cell_length_b 10.070399
_cell_length_c 15.661839
_cell_angle_alpha 90.000000
_cell_angle_beta 94.765959
_cell_angle_gamma 90.000000
_cell_volume 1409.030027
_symmetry_space_group_name_H-M "C 2/M"
_symmetry_group_IT_number 12
_symmetry_cell_setting 'monoclinic'
loop_
_space_group_symop_operation_xyz
x,y,z
-x,y,-z
-x,-y,-z
x,-y,z
1/2+x,1/2+y,z
1/2-x,1/2+y,-z
1/2-x,1/2-y,-z
1/2+x,1/2-y,z
loop_
_atom_site_type_symbol
_atom_site_label
_atom_site_fract_x
_atom_site_fract_y
_atom_site_fract_z
Si Si1 0.474970 0.242162 0.308585
Si Si2 0.146960 0.000000 0.121004
Si Si3 0.794696 0.709638 0.809803
Si Si4 0.742584 0.354659 0.424451
Si Si5 0.796031 0.000000 0.067818
O O1 0.350051 0.328828 0.253692
O O2 0.562674 0.159842 0.238930
O O3 0.594611 0.336399 0.360695
O O4 0.392175 0.150304 0.373855
O O5 0.195994 0.131402 0.174688
O O6 0.970175 0.000000 0.098415
O O7 0.231795 0.000000 0.034243
O O8 0.785773 0.630546 0.898112
O O9 0.735461 0.500000 0.466187
O O10 0.750000 0.250000 0.500000
#
# Coordination Sequence:
#
# PCOD8113484 Si02
#       5
#     8   4   8   8   4
#     4  10  25  41  70  98 137 175 221 279 332 399
#     4  11  24  45  65 103 144 176 227 290 333 399
#     4  11  23  44  69 102 135 182 229 278 338 395
#     4  11  26  48  70 101 137 176 222 279 339 409
#     4  11  24  43  71  97 140 188 223 276 351 399
#
# _framework density 22.710657999999999
#
# number of rings (size 3 to 8) (size 9 to 14) (size 15 to 20)
#    0.000    1.250    2.500    1.500   10.500    4.000 
#    4.500    1.250    0.000    0.000    0.000    0.000 
#    0.000    0.000    0.000    0.000    0.000    0.000 
#
# Total GULP energy -198349.233082 kJ/mol
# GULP energy per Si atom -12396.827068 kJ/mol
# Density = 2.265897 g / cm^3
# Si number density = 22.710658 Si / 1000 Ang^3
#
#
#
# Elastic Constant Matrix: (Units=GPa)
#
#
# Indices 1 2 3 4 5 6 
#
# 1 138.6191 33.0270 52.3371 0.0000 -21.6562 0.0000
# 2 33.0270 148.9175 52.8493 0.0000 -8.1990 0.0000
# 3 52.3371 52.8493 137.3769 0.0000 -22.2852 0.0000
# 4 0.0000 0.0000 0.0000 30.8051 0.0000 -6.2656
# 5 -21.6562 -8.1990 -22.2852 0.0000 33.2408 0.0000
# 6 0.0000 0.0000 0.0000 -6.2656 0.0000 14.9641
#
#
#
# Elastic Compliance Matrix: (Units=1/GPa)
#
#
# Indices 1 2 3 4 5 6 
#
# 1 0.008968 -0.000911 -0.002418 0.000000 0.003997 0.000000
# 2 -0.000911 0.007870 -0.002762 0.000000 -0.000504 0.000000
# 3 -0.002418 -0.002762 0.009983 0.000000 0.004436 0.000000
# 4 0.000000 0.000000 0.000000 0.035484 0.000000 0.014857
# 5 0.003997 -0.000504 0.004436 0.000000 0.035537 0.000000
# 6 0.000000 0.000000 0.000000 0.014857 0.000000 0.073047
#
#
# Mechanical properties :
#
#
# Convention : Reuss Voigt Hill
#
# Bulk Modulus (GPa) = 68.31211 77.92671 73.11941
# Shear Modulus (GPa) = 26.60268 34.91534 30.75901
#
# Velocity S-wave (km/s) = 3.42625 3.92522 3.68419
# Velocity P-wave (km/s) = 6.76734 7.41151 7.09674
#
# Compressibility (1/GPa) = 0.01463869
#
# Stress axis : x y z
#
# Youngs Moduli (GPa) = 111.50244 127.07001 100.17385
#
# Poissons Ratio (x) = 0.11574 0.24221
# Poissons Ratio (y) = 0.10156 0.27671
# Poissons Ratio (z) = 0.26960 0.35100
#
# Static dielectric constant tensor:
#      x y z
#    x 4.391460 0.000000 -0.302690 
#    y 0.000000 3.673070 0.000000 
#    z -0.302690 0.000000 4.277650 
# 
# 
# High freq. dielectric constant tensor:
#      x y z
#    x 1.911090 0.000000 -0.015050 
#    y 0.000000 1.870840 0.000000 
#    z -0.015050 0.000000 1.908600 
# 
# From -- ./inp_files/193432.got.cif
#   From: 2010.06.25/outbox.cif.g09.slc.cpg/sg12_97_cif.got.tgz:193432.got - 2010.06.28 00:19:55.
