data_PCOD8113136
_publ_section_title
;
Structure prediction by ZEFSAII (Michael W. Deem and Ramdas Pophale) SiO2 
 PCOD8113136
Probable space group: C 2/M
;
_chemical_formula_sum "Si O2"
_cell_formula_units_Z 48
_cell_length_a 9.190889
_cell_length_b 29.394890
_cell_length_c 16.527078
_cell_angle_alpha 90.000000
_cell_angle_beta 30.522809
_cell_angle_gamma 90.000000
_cell_volume 2267.710891
_symmetry_space_group_name_H-M "C 2/M"
_symmetry_group_IT_number 12
_symmetry_cell_setting 'monoclinic'
loop_
_space_group_symop_operation_xyz
x,y,z
-x,y,-z
-x,-y,-z
x,-y,z
1/2+x,1/2+y,z
1/2-x,1/2+y,-z
1/2-x,1/2-y,-z
1/2+x,1/2-y,z
loop_
_atom_site_type_symbol
_atom_site_label
_atom_site_fract_x
_atom_site_fract_y
_atom_site_fract_z
Si Si1 0.913399 0.855903 0.132341
Si Si2 0.863082 0.374035 0.477018
Si Si3 0.501656 0.734978 0.820573
Si Si4 0.019564 0.393916 0.080057
Si Si5 0.550802 0.447619 0.381982
Si Si6 0.637088 0.693789 0.279680
O O1 0.601042 0.878989 0.291761
O O2 0.873898 0.812287 0.207593
O O3 0.000000 0.842375 0.000000
O O4 0.149876 0.890306 0.053332
O O5 0.672942 0.419499 0.565203
O O6 0.664337 0.329882 0.554181
O O7 0.000000 0.369905 0.500000
O O8 0.389048 0.727679 0.784112
O O9 0.749655 0.773851 0.701919
O O10 0.250000 0.750000 0.000000
O O11 0.869691 0.429456 0.211802
O O12 0.877109 0.344130 0.148330
O O13 0.000000 0.414689 0.000000
O O14 0.500000 0.438901 0.500000
O O15 0.520706 0.500000 0.372151
#
# Coordination Sequence:
#
# PCOD8113136 Si02
#       6
#     8   8   8   8   8   8
#     4  12  23  37  62  93 121 167 212 259 312 368
#     4  11  23  45  64  90 132 166 209 259 319 373
#     4  12  21  37  61  88 124 169 215 264 302 356
#     4  11  20  41  66  90 127 164 209 258 315 372
#     4  10  23  44  69  96 127 162 202 254 320 392
#     4  11  23  40  60  88 126 174 213 261 308 365
#
# _framework density 21.166720000000002
#
# number of rings (size 3 to 8) (size 9 to 14) (size 15 to 20)
#    0.000    0.833    5.000    3.500    0.000    1.333 
#    0.000    0.833    0.000    3.000    0.000    0.000 
#    0.000    0.000    0.000    0.000    0.000    0.000 
#
# Total GULP energy -297659.401437 kJ/mol
# GULP energy per Si atom -12402.475060 kJ/mol
# Density = 2.111854 g / cm^3
# Si number density = 21.166720 Si / 1000 Ang^3
#
#
#
# Elastic Constant Matrix: (Units=GPa)
#
#
# Indices 1 2 3 4 5 6 
#
# 1 56.0332 25.9524 22.5624 0.0000 -6.2638 0.0000
# 2 25.9524 98.4304 46.5411 0.0000 -5.5405 0.0000
# 3 22.5624 46.5411 141.1786 0.0000 -12.1882 0.0000
# 4 0.0000 0.0000 0.0000 18.4991 0.0000 1.6064
# 5 -6.2638 -5.5405 -12.1882 0.0000 35.5193 0.0000
# 6 0.0000 0.0000 0.0000 1.6064 0.0000 24.1532
#
#
#
# Elastic Compliance Matrix: (Units=1/GPa)
#
#
# Indices 1 2 3 4 5 6 
#
# 1 0.020902 -0.004613 -0.001611 0.000000 0.002414 0.000000
# 2 -0.004613 0.013063 -0.003569 0.000000 -0.000001 0.000000
# 3 -0.001611 -0.003569 0.008703 0.000000 0.002145 0.000000
# 4 0.000000 0.000000 0.000000 0.054371 0.000000 -0.003616
# 5 0.002414 -0.000001 0.002145 0.000000 0.029315 0.000000
# 6 0.000000 0.000000 0.000000 -0.003616 0.000000 0.041643
#
#
# Mechanical properties :
#
#
# Convention : Reuss Voigt Hill
#
# Bulk Modulus (GPa) = 43.32714 53.97265 48.64990
# Shear Modulus (GPa) = 25.60455 29.00676 27.30565
#
# Velocity S-wave (km/s) = 3.48179 3.70590 3.59559
# Velocity P-wave (km/s) = 6.05621 6.62312 6.34600
#
# Compressibility (1/GPa) = 0.02308022
#
# Stress axis : x y z
#
# Youngs Moduli (GPa) = 47.84268 76.54936 114.90827
#
# Poissons Ratio (x) = 0.35315 0.18514
# Poissons Ratio (y) = 0.22071 0.41014
# Poissons Ratio (z) = 0.07708 0.27323
#
# Static dielectric constant tensor:
#      x y z
#    x 3.894580 0.000000 -0.118850 
#    y 0.000000 3.741780 0.000000 
#    z -0.118850 0.000000 4.057510 
# 
# 
# High freq. dielectric constant tensor:
#      x y z
#    x 1.830560 0.000000 -0.006160 
#    y 0.000000 1.807470 0.000000 
#    z -0.006160 0.000000 1.841120 
# 
# From -- ./inp_files/260238.got.cif
#   From: 2010.06.25/outbox.cif.g09.slc.cpg/sg12_131_cif.got.tgz:260238.got - 2010.06.28 00:19:55.
