data_PCOD8113077
_publ_section_title
;
Structure prediction by ZEFSAII (Michael W. Deem and Ramdas Pophale) SiO2 
 PCOD8113077
Probable space group: C 2/M
;
_chemical_formula_sum "Si O2"
_cell_formula_units_Z 32
_cell_length_a 16.373298
_cell_length_b 15.731459
_cell_length_c 4.984596
_cell_angle_alpha 90.000000
_cell_angle_beta 95.990161
_cell_angle_gamma 90.000000
_cell_volume 1276.901257
_symmetry_space_group_name_H-M "C 2/M"
_symmetry_group_IT_number 12
_symmetry_cell_setting 'monoclinic'
loop_
_space_group_symop_operation_xyz
x,y,z
-x,y,-z
-x,-y,-z
x,-y,z
1/2+x,1/2+y,z
1/2-x,1/2+y,-z
1/2-x,1/2-y,-z
1/2+x,1/2-y,z
loop_
_atom_site_type_symbol
_atom_site_label
_atom_site_fract_x
_atom_site_fract_y
_atom_site_fract_z
Si Si1 0.862611 0.675924 0.148332
Si Si2 0.559510 0.000000 0.764349
Si Si3 0.859464 0.098086 0.816419
Si Si4 0.000000 0.211142 0.000000
Si Si5 0.727360 0.329583 0.699173
O O1 0.879809 0.580144 0.242967
O O2 0.802306 0.729247 0.333067
O O3 0.947387 0.727151 0.171445
O O4 0.821465 0.671811 0.836271
O O5 0.500000 0.000000 0.500000
O O6 0.500000 0.000000 0.000000
O O7 0.942313 0.152222 0.791202
O O8 0.787832 0.118541 0.578118
O O9 0.882962 0.000000 0.814081
O O10 0.827293 0.123224 0.097088
#
# Coordination Sequence:
#
# PCOD8113077 Si02
#       5
#     8   4   8   4   8
#     4  10  24  46  68  99 133 178 224 265 335 385
#     4  12  28  42  70 100 138 171 222 275 324 396
#     4  11  24  43  70 101 131 170 222 275 335 386
#     4  10  23  43  70  94 140 172 220 269 333 398
#     4  10  25  44  72  94 135 175 218 277 325 397
#
# _framework density 25.060669000000001
#
# number of rings (size 3 to 8) (size 9 to 14) (size 15 to 20)
#    0.000    1.500    1.250    1.125    7.000   14.000 
#    0.000    6.250    0.000    0.000    0.000    0.000 
#    0.000    0.000    0.000    0.000    0.000    0.000 
#
# Total GULP energy -198406.751053 kJ/mol
# GULP energy per Si atom -12400.421941 kJ/mol
# Density = 2.500363 g / cm^3
# Si number density = 25.060669 Si / 1000 Ang^3
#
#
#
# Elastic Constant Matrix: (Units=GPa)
#
#
# Indices 1 2 3 4 5 6 
#
# 1 84.0814 53.6175 -0.3686 0.0000 24.0974 0.0000
# 2 53.6175 228.4555 49.6798 0.0000 15.8607 0.0000
# 3 -0.3686 49.6798 100.0163 0.0000 19.5800 0.0000
# 4 0.0000 0.0000 0.0000 35.2574 0.0000 12.0905
# 5 24.0974 15.8607 19.5800 0.0000 32.5565 0.0000
# 6 0.0000 0.0000 0.0000 12.0905 0.0000 45.7614
#
#
#
# Elastic Compliance Matrix: (Units=1/GPa)
#
#
# Indices 1 2 3 4 5 6 
#
# 1 0.019209 -0.004615 0.005334 0.000000 -0.015178 0.000000
# 2 -0.004615 0.006048 -0.003528 0.000000 0.002591 0.000000
# 3 0.005334 -0.003528 0.013836 0.000000 -0.010551 0.000000
# 4 0.000000 0.000000 0.000000 0.031189 0.000000 -0.008240
# 5 -0.015178 0.002591 -0.010551 0.000000 0.047033 0.000000
# 6 0.000000 0.000000 0.000000 -0.008240 0.000000 0.024030
#
#
# Mechanical properties :
#
#
# Convention : Reuss Voigt Hill
#
# Bulk Modulus (GPa) = 29.87209 68.71229 49.29219
# Shear Modulus (GPa) = 31.62153 43.35669 37.48911
#
# Velocity S-wave (km/s) = 3.55603 4.16392 3.87193
# Velocity P-wave (km/s) = 5.36715 7.11306 6.30087
#
# Compressibility (1/GPa) = 0.03347606
#
# Stress axis : x y z
#
# Youngs Moduli (GPa) = 52.05805 165.35512 72.27487
#
# Poissons Ratio (x) = 0.76305 -0.38554
# Poissons Ratio (y) = 0.24023 0.25500
# Poissons Ratio (z) = -0.27770 0.58341
#
# Static dielectric constant tensor:
#      x y z
#    x 4.661390 0.000000 0.230980 
#    y 0.000000 4.795300 0.000000 
#    z 0.230980 0.000000 4.423690 
# 
# 
# High freq. dielectric constant tensor:
#      x y z
#    x 2.009490 0.000000 0.011740 
#    y 0.000000 2.016510 0.000000 
#    z 0.011740 0.000000 1.994250 
# 
# From -- ./inp_files/15025.got.cif
#   From: 2010.06.25/outbox.cif.g09.slc.cpg/sg12_8_cif.got.tgz:15025.got - 2010.06.28 00:19:55.
