data_PCOD8113261
_publ_section_title
;
Structure prediction by ZEFSAII (Michael W. Deem and Ramdas Pophale) SiO2 
 PCOD8113261
Probable space group: C 2/M
;
_chemical_formula_sum "Si O2"
_cell_formula_units_Z 40
_cell_length_a 8.814422
_cell_length_b 15.774245
_cell_length_c 12.962678
_cell_angle_alpha 90.000000
_cell_angle_beta 91.936939
_cell_angle_gamma 90.000000
_cell_volume 1801.311997
_symmetry_space_group_name_H-M "C 2/M"
_symmetry_group_IT_number 12
_symmetry_cell_setting 'monoclinic'
loop_
_space_group_symop_operation_xyz
x,y,z
-x,y,-z
-x,-y,-z
x,-y,z
1/2+x,1/2+y,z
1/2-x,1/2+y,-z
1/2-x,1/2-y,-z
1/2+x,1/2-y,z
loop_
_atom_site_type_symbol
_atom_site_label
_atom_site_fract_x
_atom_site_fract_y
_atom_site_fract_z
Si Si1 0.974065 0.828577 0.620959
Si Si2 0.500000 0.267185 0.000000
Si Si3 0.129146 0.000000 0.701897
Si Si4 0.858448 0.660767 0.310282
Si Si5 0.239375 0.645748 0.914444
Si Si6 0.539182 0.000000 0.383766
Si Si7 0.664678 0.500000 0.949857
O O1 0.050789 0.750119 0.684981
O O2 0.000000 0.819612 0.500000
O O3 0.792141 0.827102 0.625916
O O4 0.036651 0.916655 0.667749
O O5 0.413977 0.323150 0.912165
O O6 0.623831 0.218485 0.939638
O O7 0.156784 0.000000 0.826158
O O8 0.284805 0.000000 0.642171
O O9 0.806804 0.620224 0.200223
O O10 0.971054 0.588050 0.346139
O O11 0.233082 0.577143 0.005664
O O12 0.500000 0.000000 0.500000
O O13 0.500000 0.500000 0.000000
#
# Coordination Sequence:
#
# PCOD8113261 Si02
#       7
#     8   4   4   8   8   4   4
#     4  12  25  46  71 103 137 181 234 290 347 412
#     4  10  24  40  66  92 134 172 216 274 326 390
#     4  12  28  44  72 100 141 187 234 284 351 404
#     4  12  25  43  74 101 139 180 230 281 355 409
#     4  11  24  42  66  95 137 171 225 269 335 400
#     4  12  26  48  70 103 140 179 232 295 346 411
#     4  12  25  43  65  97 137 179 225 274 332 406
#
# _framework density 22.206036000000001
#
# number of rings (size 3 to 8) (size 9 to 14) (size 15 to 20)
#    0.000    0.400    1.000    7.500    8.400    0.400 
#    0.000    0.000    0.000    0.000    0.000    0.000 
#    0.000    0.000    0.000    0.000    0.000    0.000 
#
# Total GULP energy -247815.292926 kJ/mol
# GULP energy per Si atom -12390.764646 kJ/mol
# Density = 2.215549 g / cm^3
# Si number density = 22.206036 Si / 1000 Ang^3
#
#
#
# Elastic Constant Matrix: (Units=GPa)
#
#
# Indices 1 2 3 4 5 6 
#
# 1 81.2530 32.5351 -24.9039 0.0000 2.2876 0.0000
# 2 32.5351 158.8229 14.9568 0.0000 21.8432 0.0000
# 3 -24.9039 14.9568 104.4199 0.0000 10.8921 0.0000
# 4 0.0000 0.0000 0.0000 72.1708 0.0000 32.4652
# 5 2.2876 21.8432 10.8921 0.0000 35.7287 0.0000
# 6 0.0000 0.0000 0.0000 32.4652 0.0000 34.8560
#
#
#
# Elastic Compliance Matrix: (Units=1/GPa)
#
#
# Indices 1 2 3 4 5 6 
#
# 1 0.014927 -0.003427 0.004061 0.000000 -0.000099 0.000000
# 2 -0.003427 0.007693 -0.001499 0.000000 -0.004027 0.000000
# 3 0.004061 -0.001499 0.011043 0.000000 -0.002710 0.000000
# 4 0.000000 0.000000 0.000000 0.023848 0.000000 -0.022212
# 5 -0.000099 -0.004027 -0.002710 0.000000 0.031283 0.000000
# 6 0.000000 0.000000 0.000000 -0.022212 0.000000 0.049378
#
#
# Mechanical properties :
#
#
# Convention : Reuss Voigt Hill
#
# Bulk Modulus (GPa) = 31.31504 43.29688 37.30596
# Shear Modulus (GPa) = 33.21251 50.01162 41.61207
#
# Velocity S-wave (km/s) = 3.87156 4.75084 4.33356
# Velocity P-wave (km/s) = 5.84106 7.04515 6.47117
#
# Compressibility (1/GPa) = 0.03193354
#
# Stress axis : x y z
#
# Youngs Moduli (GPa) = 66.99346 129.98348 90.55753
#
# Poissons Ratio (x) = 0.44541 -0.36777
# Poissons Ratio (y) = 0.22956 0.13576
# Poissons Ratio (z) = -0.27207 0.19487
#
# Static dielectric constant tensor:
#      x y z
#    x 5.786620 0.000000 0.660570 
#    y 0.000000 4.308240 0.000000 
#    z 0.660570 0.000000 4.432480 
# 
# 
# High freq. dielectric constant tensor:
#      x y z
#    x 1.892360 0.000000 0.010720 
#    y 0.000000 1.892570 0.000000 
#    z 0.010720 0.000000 1.885320 
# 
# From -- ./inp_files/119190.got.cif
#   From: 2010.06.25/outbox.cif.g09.slc.cpg/sg12_60_cif.got.tgz:119190.got - 2010.06.28 00:19:55.
