data_PCOD8113229
_publ_section_title
;
Structure prediction by ZEFSAII (Michael W. Deem and Ramdas Pophale) SiO2 
 PCOD8113229
Probable space group: C 2/M
;
_chemical_formula_sum "Si O2"
_cell_formula_units_Z 44
_cell_length_a 9.212684
_cell_length_b 25.447062
_cell_length_c 11.450838
_cell_angle_alpha 90.000000
_cell_angle_beta 124.752019
_cell_angle_gamma 90.000000
_cell_volume 2205.645527
_symmetry_space_group_name_H-M "C 2/M"
_symmetry_group_IT_number 12
_symmetry_cell_setting 'monoclinic'
loop_
_space_group_symop_operation_xyz
x,y,z
-x,y,-z
-x,-y,-z
x,-y,z
1/2+x,1/2+y,z
1/2-x,1/2+y,-z
1/2-x,1/2-y,-z
1/2+x,1/2-y,z
loop_
_atom_site_type_symbol
_atom_site_label
_atom_site_fract_x
_atom_site_fract_y
_atom_site_fract_z
Si Si1 0.162559 0.000000 0.167783
Si Si2 0.845337 0.181817 0.609802
Si Si3 0.197529 0.560510 0.127061
Si Si4 0.798866 0.089467 0.416211
Si Si5 0.000000 0.256977 0.500000
Si Si6 0.995778 0.896253 0.864173
Si Si7 0.950033 0.500000 0.611387
O O1 0.138364 0.944977 0.226111
O O2 0.370704 0.000000 0.224890
O O3 0.000000 0.000000 0.000000
O O4 0.783405 0.144026 0.477023
O O5 0.977825 0.223313 0.609236
O O6 0.675746 0.207950 0.593274
O O7 0.949265 0.151891 0.759369
O O8 0.243439 0.500000 0.179890
O O9 0.235874 0.597701 0.254876
O O10 0.309927 0.581107 0.069990
O O11 0.000000 0.567357 0.000000
O O12 0.000000 0.068422 0.500000
O O13 0.668158 0.050174 0.419697
O O14 0.000000 0.877196 0.000000
O O15 0.000000 0.500000 0.500000
#
# Coordination Sequence:
#
# PCOD8113229 Si02
#       7
#     4   8   8   8   4   8   4
#     4  10  24  38  58  92 143 178 205 250 303 384
#     4  11  23  44  67  98 119 171 216 282 340 395
#     4  11  24  38  59  89 137 188 217 254 312 387
#     4  12  24  42  66  94 135 172 224 268 324 396
#     4  10  24  44  70  88 128 156 222 290 350 386
#     4  11  23  40  66  94 136 174 218 261 323 390
#     4  12  27  36  60 102 137 173 220 267 312 380
#
# _framework density 19.948808
#
# number of rings (size 3 to 8) (size 9 to 14) (size 15 to 20)
#    0.000    0.909    4.545    1.364    8.909    0.000 
#    0.000    0.909    0.000    4.364    0.000    0.000 
#    0.000    0.000    0.000    0.000    0.000    0.000 
#
# Total GULP energy -272708.150960 kJ/mol
# GULP energy per Si atom -12395.825044 kJ/mol
# Density = 1.990340 g / cm^3
# Si number density = 19.948808 Si / 1000 Ang^3
#
#
#
# Elastic Constant Matrix: (Units=GPa)
#
#
# Indices 1 2 3 4 5 6 
#
# 1 163.2714 60.6546 58.1521 0.0000 15.4636 0.0000
# 2 60.6546 88.3216 55.8805 0.0000 20.9529 0.0000
# 3 58.1521 55.8805 113.8231 0.0000 -8.0479 0.0000
# 4 0.0000 0.0000 0.0000 45.2272 0.0000 18.6753
# 5 15.4636 20.9529 -8.0479 0.0000 29.5566 0.0000
# 6 0.0000 0.0000 0.0000 18.6753 0.0000 45.7940
#
#
#
# Elastic Compliance Matrix: (Units=1/GPa)
#
#
# Indices 1 2 3 4 5 6 
#
# 1 0.008739 -0.003383 -0.003016 0.000000 -0.002995 0.000000
# 2 -0.003383 0.026631 -0.012802 0.000000 -0.020595 0.000000
# 3 -0.003016 -0.012802 0.017706 0.000000 0.015474 0.000000
# 4 0.000000 0.000000 0.000000 0.026588 0.000000 -0.010843
# 5 -0.002995 -0.020595 0.015474 0.000000 0.054214 0.000000
# 6 0.000000 0.000000 0.000000 -0.010843 0.000000 0.026259
#
#
# Mechanical properties :
#
#
# Convention : Reuss Voigt Hill
#
# Bulk Modulus (GPa) = 68.14725 79.42115 73.78420
# Shear Modulus (GPa) = 24.57844 36.83082 30.70463
#
# Velocity S-wave (km/s) = 3.51390 4.30148 3.92748
# Velocity P-wave (km/s) = 7.12029 8.03550 7.59170
#
# Compressibility (1/GPa) = 0.01467411
#
# Stress axis : x y z
#
# Youngs Moduli (GPa) = 114.42440 37.54979 56.47939
#
# Poissons Ratio (x) = 0.12703 0.17033
# Poissons Ratio (y) = 0.38711 0.72306
# Poissons Ratio (z) = 0.34508 0.48072
#
# Static dielectric constant tensor:
#      x y z
#    x 4.019430 0.000000 0.007290 
#    y 0.000000 3.761770 0.000000 
#    z 0.007290 0.000000 3.387260 
# 
# 
# High freq. dielectric constant tensor:
#      x y z
#    x 1.807260 0.000000 -0.000720 
#    y 0.000000 1.764090 0.000000 
#    z -0.000720 0.000000 1.767660 
# 
# From -- ./inp_files/124495.got.cif
#   From: 2010.06.25/outbox.cif.g09.slc.cpg/sg12_63_cif.got.tgz:124495.got - 2010.06.28 00:19:55.
