data_PCOD8113283
_publ_section_title
;
Structure prediction by ZEFSAII (Michael W. Deem and Ramdas Pophale) SiO2 
 PCOD8113283
Probable space group: C 2/M
;
_chemical_formula_sum "Si O2"
_cell_formula_units_Z 56
_cell_length_a 14.279312
_cell_length_b 30.963587
_cell_length_c 11.066404
_cell_angle_alpha 90.000000
_cell_angle_beta 29.188342
_cell_angle_gamma 90.000000
_cell_volume 2386.172453
_symmetry_space_group_name_H-M "C 2/M"
_symmetry_group_IT_number 12
_symmetry_cell_setting 'monoclinic'
loop_
_space_group_symop_operation_xyz
x,y,z
-x,y,-z
-x,-y,-z
x,-y,z
1/2+x,1/2+y,z
1/2-x,1/2+y,-z
1/2-x,1/2-y,-z
1/2+x,1/2-y,z
loop_
_atom_site_type_symbol
_atom_site_label
_atom_site_fract_x
_atom_site_fract_y
_atom_site_fract_z
Si Si1 0.894876 0.589364 0.311764
Si Si2 0.727528 0.549510 0.735594
Si Si3 0.697527 0.223013 0.901394
Si Si4 0.604085 0.690474 0.097935
Si Si5 0.195174 0.314848 0.640426
Si Si6 0.080167 0.049615 0.536554
Si Si7 0.267525 0.594468 0.030474
O O1 0.795843 0.580492 0.551745
O O2 0.845996 0.634726 0.307115
O O3 0.808698 0.556282 0.306802
O O4 0.123654 0.587098 0.078443
O O5 0.795849 0.500000 0.638200
O O6 0.815248 0.567828 0.762278
O O7 0.500000 0.552311 0.000000
O O8 0.862804 0.206025 0.802251
O O9 0.736684 0.202757 0.727821
O O10 0.694349 0.275570 0.900395
O O11 0.494672 0.209340 0.192438
O O12 0.372180 0.691170 0.348585
O O13 0.703152 0.644259 0.963980
O O14 0.000000 0.067476 0.500000
O O15 0.024111 0.000000 0.612693
O O16 0.973996 0.076127 0.760809
#
# Coordination Sequence:
#
# PCOD8113283 Si02
#       7
#     8   8   8   8   8   8   8
#     4  12  25  43  73 103 138 185 239 287 347 424
#     4  11  23  45  73 102 139 184 232 292 359 420
#     4  10  24  41  67 101 134 179 233 287 346 418
#     4  11  22  44  66  99 138 179 231 285 348 413
#     4  11  22  43  69  98 134 183 228 284 352 409
#     4  11  26  45  69 105 143 185 234 289 355 423
#     4  12  25  44  72 105 141 187 235 292 353 426
#
# _framework density 23.468547000000001
#
# number of rings (size 3 to 8) (size 9 to 14) (size 15 to 20)
#    0.000    0.857    4.286    2.143    2.000    3.429 
#   10.286    2.857    0.000    0.000    0.000    0.000 
#    0.000    0.000    0.000    0.000    0.000    0.000 
#
# Total GULP energy -347099.471040 kJ/mol
# GULP energy per Si atom -12396.409680 kJ/mol
# Density = 2.341513 g / cm^3
# Si number density = 23.468547 Si / 1000 Ang^3
#
#
#
# Elastic Constant Matrix: (Units=GPa)
#
#
# Indices 1 2 3 4 5 6 
#
# 1 113.8887 34.4798 18.5839 0.0000 -3.4132 0.0000
# 2 34.4798 133.3599 21.8218 0.0000 9.9933 0.0000
# 3 18.5839 21.8218 53.0345 0.0000 -14.8952 0.0000
# 4 0.0000 0.0000 0.0000 32.0700 0.0000 2.8305
# 5 -3.4132 9.9933 -14.8952 0.0000 32.7343 0.0000
# 6 0.0000 0.0000 0.0000 2.8305 0.0000 41.3967
#
#
#
# Elastic Compliance Matrix: (Units=1/GPa)
#
#
# Indices 1 2 3 4 5 6 
#
# 1 0.009854 -0.002207 -0.002370 0.000000 0.000623 0.000000
# 2 -0.002207 0.009169 -0.004414 0.000000 -0.005038 0.000000
# 3 -0.002370 -0.004414 0.025008 0.000000 0.012480 0.000000
# 4 0.000000 0.000000 0.000000 0.031371 0.000000 -0.002145
# 5 0.000623 -0.005038 0.012480 0.000000 0.037831 0.000000
# 6 0.000000 0.000000 0.000000 -0.002145 0.000000 0.024303
#
#
# Mechanical properties :
#
#
# Convention : Reuss Voigt Hill
#
# Bulk Modulus (GPa) = 38.39034 50.00601 44.19818
# Shear Modulus (GPa) = 30.45062 36.26671 33.35867
#
# Velocity S-wave (km/s) = 3.60600 3.93534 3.77426
# Velocity P-wave (km/s) = 5.80787 6.48098 6.15364
#
# Compressibility (1/GPa) = 0.02604822
#
# Stress axis : x y z
#
# Youngs Moduli (GPa) = 101.48219 109.06498 39.98779
#
# Poissons Ratio (x) = 0.24065 0.09478
# Poissons Ratio (y) = 0.22392 0.17652
# Poissons Ratio (z) = 0.24053 0.48146
#
# Static dielectric constant tensor:
#      x y z
#    x 4.381230 0.000000 -0.348900 
#    y 0.000000 4.288320 0.000000 
#    z -0.348900 0.000000 4.086920 
# 
# 
# High freq. dielectric constant tensor:
#      x y z
#    x 1.937650 0.000000 -0.022840 
#    y 0.000000 1.934250 0.000000 
#    z -0.022840 0.000000 1.914660 
# 
# From -- ./inp_files/150441.got.cif
#   From: 2010.06.25/outbox.cif.g09.slc.cpg/sg12_76_cif.got.tgz:150441.got - 2010.06.28 00:19:55.
