data_PCOD8113231
_publ_section_title
;
Structure prediction by ZEFSAII (Michael W. Deem and Ramdas Pophale) SiO2 
 PCOD8113231
Probable space group: C 2/M
;
_chemical_formula_sum "Si O2"
_cell_formula_units_Z 36
_cell_length_a 9.883695
_cell_length_b 16.778381
_cell_length_c 11.252885
_cell_angle_alpha 90.000000
_cell_angle_beta 69.875114
_cell_angle_gamma 90.000000
_cell_volume 1752.158436
_symmetry_space_group_name_H-M "C 2/M"
_symmetry_group_IT_number 12
_symmetry_cell_setting 'monoclinic'
loop_
_space_group_symop_operation_xyz
x,y,z
-x,y,-z
-x,-y,-z
x,-y,z
1/2+x,1/2+y,z
1/2-x,1/2+y,-z
1/2-x,1/2-y,-z
1/2+x,1/2-y,z
loop_
_atom_site_type_symbol
_atom_site_label
_atom_site_fract_x
_atom_site_fract_y
_atom_site_fract_z
Si Si1 0.256713 0.093603 0.170922
Si Si2 0.698330 0.094385 0.337487
Si Si3 0.000000 0.305984 0.000000
Si Si4 0.018463 0.846268 0.863989
Si Si5 0.620304 0.093977 0.618245
O O1 0.293775 0.124110 0.292387
O O2 0.091548 0.114765 0.195682
O O3 0.283979 0.000000 0.149133
O O4 0.358795 0.138493 0.045775
O O5 0.821144 0.141282 0.231074
O O6 0.696579 0.125011 0.474908
O O7 0.546970 0.119658 0.323215
O O8 0.726518 0.000000 0.319700
O O9 0.009925 0.249001 0.113765
O O10 0.000000 0.887280 0.000000
O O11 0.623552 0.000000 0.608723
#
# Coordination Sequence:
#
# PCOD8113231 Si02
#       5
#     8   8   4   8   8
#     4  11  22  39  63  92 115 156 210 251 288 350
#     4   9  17  36  59  89 124 159 195 245 300 361
#     4  10  25  42  57  82 128 170 192 240 305 364
#     4  10  24  38  59  86 129 157 194 242 310 350
#     4   8  18  34  60  89 120 155 199 247 299 349
#
# _framework density 20.546087
#
# number of rings (size 3 to 8) (size 9 to 14) (size 15 to 20)
#    0.667    1.778    0.000    3.000    3.111    2.667 
#    0.000    4.444    0.000    0.000    0.000    0.000 
#    0.000    0.000    0.000    0.000    0.000    0.000 
#
# Total GULP energy -223132.139249 kJ/mol
# GULP energy per Si atom -12396.229958 kJ/mol
# Density = 2.049932 g / cm^3
# Si number density = 20.546087 Si / 1000 Ang^3
#
#
#
# Elastic Constant Matrix: (Units=GPa)
#
#
# Indices 1 2 3 4 5 6 
#
# 1 137.6091 25.1365 84.8496 0.0000 9.3739 0.0000
# 2 25.1365 68.8213 38.0083 0.0000 1.7606 0.0000
# 3 84.8496 38.0083 138.8355 0.0000 -12.3193 0.0000
# 4 0.0000 0.0000 0.0000 16.2983 0.0000 1.3211
# 5 9.3739 1.7606 -12.3193 0.0000 40.0018 0.0000
# 6 0.0000 0.0000 0.0000 1.3211 0.0000 18.5560
#
#
#
# Elastic Compliance Matrix: (Units=1/GPa)
#
#
# Indices 1 2 3 4 5 6 
#
# 1 0.012754 0.000071 -0.008306 0.000000 -0.005550 0.000000
# 2 0.000071 0.017320 -0.004991 0.000000 -0.002316 0.000000
# 3 -0.008306 -0.004991 0.014227 0.000000 0.006547 0.000000
# 4 0.000000 0.000000 0.000000 0.061712 0.000000 -0.004393
# 5 -0.005550 -0.002316 0.006547 0.000000 0.028418 0.000000
# 6 0.000000 0.000000 0.000000 -0.004393 0.000000 0.054204
#
#
# Mechanical properties :
#
#
# Convention : Reuss Voigt Hill
#
# Bulk Modulus (GPa) = 56.02738 71.25053 63.63896
# Shear Modulus (GPa) = 22.62088 28.12267 25.37178
#
# Velocity S-wave (km/s) = 3.32171 3.70369 3.51789
# Velocity P-wave (km/s) = 6.48382 7.28309 6.89505
#
# Compressibility (1/GPa) = 0.01784842
#
# Stress axis : x y z
#
# Youngs Moduli (GPa) = 78.40822 57.73744 70.29134
#
# Poissons Ratio (x) = -0.00411 0.58387
# Poissons Ratio (y) = -0.00558 0.35079
# Poissons Ratio (z) = 0.65129 0.28814
#
# Static dielectric constant tensor:
#      x y z
#    x 3.701360 0.000000 0.216300 
#    y 0.000000 3.417820 0.000000 
#    z 0.216300 0.000000 3.912110 
# 
# 
# High freq. dielectric constant tensor:
#      x y z
#    x 1.802250 0.000000 -0.001260 
#    y 0.000000 1.781380 0.000000 
#    z -0.001260 0.000000 1.803400 
# 
# From -- ./inp_files/118788.got.cif
#   From: 2010.06.25/outbox.cif.g09.slc.cpg/sg12_60_cif.got.tgz:118788.got - 2010.06.28 00:19:55.
