data_PCOD8113618
_publ_section_title
;
Structure prediction by ZEFSAII (Michael W. Deem and Ramdas Pophale) SiO2 
 PCOD8113618
Probable space group: C 2/M
;
_chemical_formula_sum "Si O2"
_cell_formula_units_Z 44
_cell_length_a 23.231943
_cell_length_b 15.660277
_cell_length_c 17.337186
_cell_angle_alpha 90.000000
_cell_angle_beta 160.308161
_cell_angle_gamma 90.000000
_cell_volume 2125.413429
_symmetry_space_group_name_H-M "C 2/M"
_symmetry_group_IT_number 12
_symmetry_cell_setting 'monoclinic'
loop_
_space_group_symop_operation_xyz
x,y,z
-x,y,-z
-x,-y,-z
x,-y,z
1/2+x,1/2+y,z
1/2-x,1/2+y,-z
1/2-x,1/2-y,-z
1/2+x,1/2-y,z
loop_
_atom_site_type_symbol
_atom_site_label
_atom_site_fract_x
_atom_site_fract_y
_atom_site_fract_z
Si Si1 0.314003 0.500000 0.557412
Si Si2 0.500000 0.728932 0.500000
Si Si3 0.125442 0.000000 0.856156
Si Si4 0.905283 0.000000 0.959400
Si Si5 0.339933 0.832047 0.577059
Si Si6 0.737432 0.172504 0.045487
Si Si7 0.072110 0.500000 0.675429
Si Si8 0.667614 0.139171 0.602887
O O1 0.420740 0.500000 0.610660
O O2 0.201257 0.414993 0.422600
O O3 0.455388 0.500000 0.800228
O O4 0.362659 0.677414 0.277061
O O5 0.385518 0.779269 0.416561
O O6 0.198829 0.916713 0.908363
O O7 0.221392 0.000000 0.062265
O O8 0.790653 0.914306 0.814399
O O9 0.000000 0.000000 0.000000
O O10 0.250000 0.750000 0.500000
O O11 0.257478 0.838467 0.386937
O O12 0.544093 0.825090 0.832630
O O13 0.750000 0.250000 0.000000
O O14 0.000000 0.500000 0.500000
O O15 0.002593 0.583864 0.631778
#
# Coordination Sequence:
#
# PCOD8113618 Si02
#       8
#     4   4   4   4   8   8   4   8
#     4  12  26  42  66 106 141 187 223 291 365 425
#     4  12  26  42  72  98 136 182 250 289 334 407
#     4  12  24  43  73  93 141 184 246 290 330 420
#     4  11  22  34  60  96 139 173 209 271 379 434
#     4  12  25  43  68 101 148 185 223 282 364 421
#     4  12  26  47  72 103 136 189 243 293 345 414
#     4  11  18  35  64 101 127 171 214 290 354 401
#     4  11  22  38  62 100 139 170 222 289 352 417
#
# _framework density 20.701854999999998
#
# number of rings (size 3 to 8) (size 9 to 14) (size 15 to 20)
#    0.000    0.364    6.364    3.273    5.091    0.364 
#    0.000    0.000    0.000    1.091    0.000    0.000 
#    0.000    0.000    0.000    0.000    0.000    0.000 
#
# Total GULP energy -272601.861909 kJ/mol
# GULP energy per Si atom -12390.993723 kJ/mol
# Density = 2.065474 g / cm^3
# Si number density = 20.701855 Si / 1000 Ang^3
#
#
#
# Elastic Constant Matrix: (Units=GPa)
#
#
# Indices 1 2 3 4 5 6 
#
# 1 98.2137 62.2637 40.7467 -0.0066 20.1032 0.0038
# 2 62.2637 160.4572 50.0188 -0.0133 17.6516 0.0088
# 3 40.7467 50.0188 128.3116 -0.0198 10.6210 0.0094
# 4 -0.0066 -0.0133 -0.0198 64.1420 -0.0115 -5.4109
# 5 20.1032 17.6516 10.6210 -0.0115 49.9389 0.0054
# 6 0.0038 0.0088 0.0094 -5.4109 0.0054 48.8882
#
#
#
# Elastic Compliance Matrix: (Units=1/GPa)
#
#
# Indices 1 2 3 4 5 6 
#
# 1 0.014958 -0.004553 -0.002657 -0.000001 -0.003847 0.000000
# 2 -0.004553 0.008672 -0.001866 0.000001 -0.000836 -0.000001
# 3 -0.002657 -0.001866 0.009387 0.000002 -0.000267 -0.000001
# 4 -0.000001 0.000001 0.000002 0.015737 0.000003 0.001742
# 5 -0.003847 -0.000836 -0.000267 0.000003 0.021925 -0.000002
# 6 0.000000 -0.000001 -0.000001 0.001742 -0.000002 0.020648
#
#
# Mechanical properties :
#
#
# Convention : Reuss Voigt Hill
#
# Bulk Modulus (GPa) = 67.26643 77.00453 72.13548
# Shear Modulus (GPa) = 43.69349 48.19071 45.94210
#
# Velocity S-wave (km/s) = 4.59912 4.83001 4.71598
# Velocity P-wave (km/s) = 7.79526 8.26940 8.03583
#
# Compressibility (1/GPa) = 0.01486626
#
# Stress axis : x y z
#
# Youngs Moduli (GPa) = 66.85425 115.30813 106.53427
#
# Poissons Ratio (x) = 0.52498 0.28304
# Poissons Ratio (y) = 0.30438 0.19876
# Poissons Ratio (z) = 0.17762 0.21513
#
# Static dielectric constant tensor:
#      x y z
#    x 4.079500 -0.000030 0.401230 
#    y -0.000030 4.208500 0.000010 
#    z 0.401230 0.000010 4.256640 
# 
# 
# High freq. dielectric constant tensor:
#      x y z
#    x 1.820930 0.000000 0.018800 
#    y 0.000000 1.809920 0.000000 
#    z 0.018800 0.000000 1.810570 
# 
# From -- ./inp_files/290217.got.cif
#   From: 2010.06.25/outbox.cif.g09.slc.cpg/sg12_146_cif.got.tgz:290217.got - 2010.06.28 00:19:55.
