data_PCOD8113376
_publ_section_title
;
Structure prediction by ZEFSAII (Michael W. Deem and Ramdas Pophale) SiO2 
 PCOD8113376
Probable space group: C 2/M
;
_chemical_formula_sum "Si O2"
_cell_formula_units_Z 40
_cell_length_a 23.686237
_cell_length_b 8.780627
_cell_length_c 9.566433
_cell_angle_alpha 90.000000
_cell_angle_beta 103.344690
_cell_angle_gamma 90.000000
_cell_volume 1935.905217
_symmetry_space_group_name_H-M "C 2/M"
_symmetry_group_IT_number 12
_symmetry_cell_setting 'monoclinic'
loop_
_space_group_symop_operation_xyz
x,y,z
-x,y,-z
-x,-y,-z
x,-y,z
1/2+x,1/2+y,z
1/2-x,1/2+y,-z
1/2-x,1/2-y,-z
1/2+x,1/2-y,z
loop_
_atom_site_type_symbol
_atom_site_label
_atom_site_fract_x
_atom_site_fract_y
_atom_site_fract_z
Si Si1 0.419147 0.323249 0.584053
Si Si2 0.993035 0.675471 0.155969
Si Si3 0.233797 0.820292 0.845150
Si Si4 0.888046 0.675261 0.287380
Si Si5 0.706067 0.678013 0.367704
O O1 0.425989 0.500000 0.551354
O O2 0.467869 0.276893 0.721515
O O3 0.424934 0.230415 0.442811
O O4 0.358319 0.285748 0.620644
O O5 0.012678 0.500000 0.179501
O O6 0.926634 0.695733 0.169522
O O7 0.000000 0.732437 0.000000
O O8 0.170060 0.773400 0.757383
O O9 0.284113 0.759651 0.773495
O O10 0.236451 0.000000 0.854141
O O11 0.250000 0.750000 0.000000
O O12 0.870475 0.500000 0.298048
O O13 0.718395 0.500000 0.361004
O O14 0.750000 0.750000 0.500000
#
# Coordination Sequence:
#
# PCOD8113376 Si02
#       5
#     8   8   8   8   8
#     4  11  24  41  65  96 128 167 212 262 317 377
#     4  10  24  44  65  93 126 165 212 264 322 380
#     4  12  26  43  65  95 132 171 212 264 321 382
#     4  11  23  42  67  94 126 168 216 264 316 380
#     4  11  23  41  65  97 131 169 213 259 315 379
#
# _framework density 20.662168999999999
#
# number of rings (size 3 to 8) (size 9 to 14) (size 15 to 20)
#    0.000    1.000    2.000    4.200    2.800    6.800 
#    0.000    0.000    0.000    0.000    0.000    0.000 
#    0.000    0.000    0.000    0.000    0.000    0.000 
#
# Total GULP energy -248112.251526 kJ/mol
# GULP energy per Si atom -12405.612576 kJ/mol
# Density = 2.061514 g / cm^3
# Si number density = 20.662169 Si / 1000 Ang^3
#
#
#
# Elastic Constant Matrix: (Units=GPa)
#
#
# Indices 1 2 3 4 5 6 
#
# 1 72.0742 39.3059 25.1409 0.0000 -13.0867 0.0000
# 2 39.3059 115.5688 34.2197 0.0000 -16.2697 0.0000
# 3 25.1409 34.2197 128.7656 0.0000 -21.7521 0.0000
# 4 0.0000 0.0000 0.0000 39.2334 0.0000 4.6124
# 5 -13.0867 -16.2697 -21.7521 0.0000 39.2281 0.0000
# 6 0.0000 0.0000 0.0000 4.6124 0.0000 34.0052
#
#
#
# Elastic Compliance Matrix: (Units=1/GPa)
#
#
# Indices 1 2 3 4 5 6 
#
# 1 0.017777 -0.005162 -0.001610 0.000000 0.002897 0.000000
# 2 -0.005162 0.011172 -0.001621 0.000000 0.002013 0.000000
# 3 -0.001610 -0.001621 0.009165 0.000000 0.003873 0.000000
# 4 0.000000 0.000000 0.000000 0.025902 0.000000 -0.003513
# 5 0.002897 0.002013 0.003873 0.000000 0.029441 0.000000
# 6 0.000000 0.000000 0.000000 -0.003513 0.000000 0.029884
#
#
# Mechanical properties :
#
#
# Convention : Reuss Voigt Hill
#
# Bulk Modulus (GPa) = 46.88432 57.08240 51.98336
# Shear Modulus (GPa) = 33.95937 37.00949 35.48443
#
# Velocity S-wave (km/s) = 4.05847 4.23682 4.14860
# Velocity P-wave (km/s) = 6.68594 7.18475 6.93983
#
# Compressibility (1/GPa) = 0.02132909
#
# Stress axis : x y z
#
# Youngs Moduli (GPa) = 56.25233 89.51190 109.10596
#
# Poissons Ratio (x) = 0.46202 0.17564
# Poissons Ratio (y) = 0.29035 0.17688
# Poissons Ratio (z) = 0.09055 0.14511
#
# Static dielectric constant tensor:
#      x y z
#    x 3.818750 0.000000 -0.217210 
#    y 0.000000 3.790950 0.000000 
#    z -0.217210 0.000000 3.977410 
# 
# 
# High freq. dielectric constant tensor:
#      x y z
#    x 1.818910 0.000000 -0.011680 
#    y 0.000000 1.818660 0.000000 
#    z -0.011680 0.000000 1.818790 
# 
# From -- ./inp_files/92716.got.cif
#   From: 2010.06.25/outbox.cif.g09.slc.cpg/sg12_47_cif.got.tgz:92716.got - 2010.06.28 00:19:55.
