data_PCOD8113157
_publ_section_title
;
Structure prediction by ZEFSAII (Michael W. Deem and Ramdas Pophale) SiO2 
 PCOD8113157
Probable space group: C 2/M
;
_chemical_formula_sum "Si O2"
_cell_formula_units_Z 36
_cell_length_a 23.577464
_cell_length_b 7.533153
_cell_length_c 11.907554
_cell_angle_alpha 90.000000
_cell_angle_beta 59.473008
_cell_angle_gamma 90.000000
_cell_volume 1821.781324
_symmetry_space_group_name_H-M "C 2/M"
_symmetry_group_IT_number 12
_symmetry_cell_setting 'monoclinic'
loop_
_space_group_symop_operation_xyz
x,y,z
-x,y,-z
-x,-y,-z
x,-y,z
1/2+x,1/2+y,z
1/2-x,1/2+y,-z
1/2-x,1/2-y,-z
1/2+x,1/2-y,z
loop_
_atom_site_type_symbol
_atom_site_label
_atom_site_fract_x
_atom_site_fract_y
_atom_site_fract_z
Si Si1 0.764817 0.500000 0.761976
Si Si2 0.158764 0.704214 0.876474
Si Si3 0.428661 0.803630 0.237953
Si Si4 0.565756 0.301661 0.169868
Si Si5 0.095689 0.500000 0.303238
Si Si6 0.627599 0.000000 0.513637
O O1 0.723688 0.321929 0.822843
O O2 0.824554 0.500000 0.792377
O O3 0.796392 0.500000 0.604203
O O4 0.179818 0.500000 0.835440
O O5 0.117165 0.780008 0.812590
O O6 0.116114 0.718999 0.031049
O O7 0.492831 0.684160 0.190496
O O8 0.452536 0.000000 0.174033
O O9 0.387204 0.824329 0.396234
O O10 0.587995 0.500000 0.181486
O O11 0.564542 0.175913 0.279792
O O12 0.079095 0.500000 0.453316
#
# Coordination Sequence:
#
# PCOD8113157 Si02
#       6
#     4   8   8   8   4   4
#     4  10  24  42  64  88 130 174 204 248 304 382
#     4  11  22  40  63  99 123 162 204 261 322 366
#     4   9  20  40  66  90 126 158 200 265 319 355
#     4  12  23  38  66  97 123 164 210 260 318 367
#     4  10  23  45  60  86 134 171 205 256 298 368
#     4   8  21  45  62  88 124 181 197 252 310 362
#
# _framework density 19.760878999999999
#
# number of rings (size 3 to 8) (size 9 to 14) (size 15 to 20)
#    1.333    0.444    3.333    0.667    1.556    7.111 
#    0.000    3.333    0.000    0.000    0.000    0.000 
#    0.000    0.000    0.000    0.000    0.000    0.000 
#
# Total GULP energy -223116.025333 kJ/mol
# GULP energy per Si atom -12395.334741 kJ/mol
# Density = 1.971590 g / cm^3
# Si number density = 19.760879 Si / 1000 Ang^3
#
#
#
# Elastic Constant Matrix: (Units=GPa)
#
#
# Indices 1 2 3 4 5 6 
#
# 1 51.1742 23.0581 -23.6312 0.0000 4.3548 0.0000
# 2 23.0581 103.7847 5.5728 0.0001 3.1853 0.0001
# 3 -23.6312 5.5728 58.8656 0.0000 -0.1566 0.0000
# 4 0.0000 0.0001 0.0000 16.2555 0.0000 -11.5840
# 5 4.3548 3.1853 -0.1566 0.0000 40.5733 0.0000
# 6 0.0000 0.0001 0.0000 -11.5840 0.0000 22.4656
#
#
#
# Elastic Compliance Matrix: (Units=1/GPa)
#
#
# Indices 1 2 3 4 5 6 
#
# 1 0.028420 -0.006886 0.012054 0.000000 -0.002463 0.000000
# 2 -0.006886 0.011377 -0.003842 0.000000 -0.000169 0.000000
# 3 0.012054 -0.003842 0.022188 0.000000 -0.000907 0.000000
# 4 0.000000 0.000000 0.000000 0.097254 0.000000 0.050147
# 5 -0.002463 -0.000169 -0.000907 0.000000 0.024921 0.000000
# 6 0.000000 0.000000 0.000000 0.050147 0.000000 0.070370
#
#
# Mechanical properties :
#
#
# Convention : Reuss Voigt Hill
#
# Bulk Modulus (GPa) = 15.47073 24.86929 20.17001
# Shear Modulus (GPa) = 18.28677 29.78052 24.03365
#
# Velocity S-wave (km/s) = 3.04534 3.88628 3.49122
# Velocity P-wave (km/s) = 4.49572 5.72276 5.14594
#
# Compressibility (1/GPa) = 0.06463818
#
# Stress axis : x y z
#
# Youngs Moduli (GPa) = 35.18687 87.89959 45.06892
#
# Poissons Ratio (x) = 0.60525 -0.54327
# Poissons Ratio (y) = 0.24229 0.17314
# Poissons Ratio (z) = -0.42415 0.33768
#
# Static dielectric constant tensor:
#      x y z
#    x 3.485090 0.000000 0.066510 
#    y 0.000000 3.324570 0.000000 
#    z 0.066510 0.000000 3.445380 
# 
# 
# High freq. dielectric constant tensor:
#      x y z
#    x 1.766760 0.000000 0.003340 
#    y 0.000000 1.756710 0.000000 
#    z 0.003340 0.000000 1.763290 
# 
# From -- ./inp_files/161867.got.cif
#   From: 2010.06.25/outbox.cif.g09.slc.cpg/sg12_81_cif.got.tgz:161867.got - 2010.06.28 00:19:55.
