data_PCOD8113778
_publ_section_title
;
Structure prediction by ZEFSAII (Michael W. Deem and Ramdas Pophale) SiO2 
 PCOD8113778
Probable space group: C 2/M
;
_chemical_formula_sum "Si O2"
_cell_formula_units_Z 56
_cell_length_a 20.684406
_cell_length_b 9.305458
_cell_length_c 21.903207
_cell_angle_alpha 90.000000
_cell_angle_beta 53.401545
_cell_angle_gamma 90.000000
_cell_volume 3384.652050
_symmetry_space_group_name_H-M "C 2/M"
_symmetry_group_IT_number 12
_symmetry_cell_setting 'monoclinic'
loop_
_space_group_symop_operation_xyz
x,y,z
-x,y,-z
-x,-y,-z
x,-y,z
1/2+x,1/2+y,z
1/2-x,1/2+y,-z
1/2-x,1/2-y,-z
1/2+x,1/2-y,z
loop_
_atom_site_type_symbol
_atom_site_label
_atom_site_fract_x
_atom_site_fract_y
_atom_site_fract_z
Si Si1 0.587805 0.669894 0.963363
Si Si2 0.333812 0.839190 0.642504
Si Si3 0.510563 0.159002 0.359911
Si Si4 0.116741 0.330605 0.190036
Si Si5 0.261845 0.671003 0.192812
Si Si6 0.922419 0.160928 0.500580
Si Si7 0.164695 0.828889 0.048403
O O1 0.583374 0.500000 0.959072
O O2 0.650680 0.729162 0.876974
O O3 0.500000 0.738530 0.000000
O O4 0.617721 0.712157 0.013416
O O5 0.412282 0.842430 0.640244
O O6 0.261423 0.775072 0.725654
O O7 0.347936 0.740733 0.575348
O O8 0.313960 0.000000 0.630608
O O9 0.538784 0.203346 0.276000
O O10 0.443055 0.266300 0.424000
O O11 0.472318 0.000000 0.380421
O O12 0.121470 0.500000 0.171389
O O13 0.197221 0.277382 0.179155
O O14 0.109518 0.234320 0.133617
O O15 0.257827 0.500000 0.196530
O O16 0.000000 0.165544 0.500000
O O17 0.894405 0.000000 0.502761
O O18 0.176867 0.000000 0.048111
O O19 0.250000 0.750000 0.000000
#
# Coordination Sequence:
#
# PCOD8113778 Si02
#       7
#     8   8   8   8   8   8   8
#     4   9  17  29  46  67  90 116 149 190 228 261
#     4   8  13  21  35  51  71 104 142 174 205 250
#     4   8  14  23  36  52  75 108 141 173 209 254
#     4   9  16  28  44  63  86 112 147 186 221 260
#     4   8  13  24  41  60  82 109 145 184 218 257
#     4   9  15  21  30  48  78 109 137 171 209 253
#     4  11  20  30  47  68  90 116 150 188 226 269
#
# _framework density 16.545275
#
# number of rings (size 3 to 8) (size 9 to 14) (size 15 to 20)
#    0.000    3.143    1.429    2.571    0.000    2.286 
#    0.000    2.143    0.000    1.714    0.000    0.000 
#    0.000    1.143    0.000    2.286    0.000    3.000 
#
# Total GULP energy -346970.471747 kJ/mol
# GULP energy per Si atom -12391.802562 kJ/mol
# Density = 1.650762 g / cm^3
# Si number density = 16.545275 Si / 1000 Ang^3
#
#
#
# Elastic Constant Matrix: (Units=GPa)
#
#
# Indices 1 2 3 4 5 6 
#
# 1 50.5735 24.2604 43.9716 0.0000 -3.0094 0.0001
# 2 24.2604 77.1955 67.6279 -0.0001 6.6005 0.0003
# 3 43.9716 67.6279 181.4418 0.0000 5.0630 0.0000
# 4 0.0000 -0.0001 0.0000 26.6409 0.0000 6.2948
# 5 -3.0094 6.6005 5.0630 0.0000 13.1078 0.0000
# 6 0.0001 0.0003 0.0000 6.2948 0.0000 9.2667
#
#
#
# Elastic Compliance Matrix: (Units=1/GPa)
#
#
# Indices 1 2 3 4 5 6 
#
# 1 0.027195 -0.005091 -0.004993 0.000000 0.010736 0.000000
# 2 -0.005091 0.020843 -0.006277 0.000000 -0.009240 -0.000001
# 3 -0.004993 -0.006277 0.009103 0.000000 -0.001501 0.000000
# 4 0.000000 0.000000 0.000000 0.044713 0.000000 -0.030373
# 5 0.010736 -0.009240 -0.001501 0.000000 0.083988 0.000000
# 6 0.000000 -0.000001 0.000000 -0.030373 0.000000 0.128546
#
#
# Mechanical properties :
#
#
# Convention : Reuss Voigt Hill
#
# Bulk Modulus (GPa) = 40.95011 64.54783 52.74897
# Shear Modulus (GPa) = 14.07461 21.35981 17.71721
#
# Velocity S-wave (km/s) = 2.91979 3.59693 3.27591
# Velocity P-wave (km/s) = 6.01423 7.50654 6.80144
#
# Compressibility (1/GPa) = 0.02441996
#
# Stress axis : x y z
#
# Youngs Moduli (GPa) = 36.77141 47.97702 109.85417
#
# Poissons Ratio (x) = 0.24423 0.54847
# Poissons Ratio (y) = 0.18719 0.68959
# Poissons Ratio (z) = 0.18359 0.30117
#
# Static dielectric constant tensor:
#      x y z
#    x 2.635230 0.000000 -0.022060 
#    y 0.000000 2.977380 0.000000 
#    z -0.022060 0.000000 3.644180 
# 
# 
# High freq. dielectric constant tensor:
#      x y z
#    x 1.561520 0.000000 0.008090 
#    y 0.000000 1.612730 0.000000 
#    z 0.008090 0.000000 1.662700 
# 
# From -- ./inp_files/319317.got.cif
#   From: 2010.06.25/outbox.cif.g09.slc.cpg/sg12_160_cif.got.tgz:319317.got - 2010.06.28 00:19:55.
