data_PCOD8113697
_publ_section_title
;
Structure prediction by ZEFSAII (Michael W. Deem and Ramdas Pophale) SiO2 
 PCOD8113697
Probable space group: C 2/M
;
_chemical_formula_sum "Si O2"
_cell_formula_units_Z 56
_cell_length_a 9.811612
_cell_length_b 32.071004
_cell_length_c 10.854302
_cell_angle_alpha 90.000000
_cell_angle_beta 57.910927
_cell_angle_gamma 90.000000
_cell_volume 2893.694561
_symmetry_space_group_name_H-M "C 2/M"
_symmetry_group_IT_number 12
_symmetry_cell_setting 'monoclinic'
loop_
_space_group_symop_operation_xyz
x,y,z
-x,y,-z
-x,-y,-z
x,-y,z
1/2+x,1/2+y,z
1/2-x,1/2+y,-z
1/2-x,1/2-y,-z
1/2+x,1/2-y,z
loop_
_atom_site_type_symbol
_atom_site_label
_atom_site_fract_x
_atom_site_fract_y
_atom_site_fract_z
Si Si1 0.935147 0.677119 0.165544
Si Si2 0.458403 0.584782 0.380632
Si Si3 0.123298 0.454956 0.545270
Si Si4 0.739973 0.049223 0.883191
Si Si5 0.561581 0.677230 0.338359
Si Si6 0.523673 0.911976 0.166701
Si Si7 0.064664 0.238579 0.105698
O O1 0.748412 0.666134 0.264008
O O2 0.037699 0.638148 0.166325
O O3 0.973085 0.721472 0.210914
O O4 0.000000 0.686576 0.000000
O O5 0.500000 0.571413 0.500000
O O6 0.280719 0.570275 0.429184
O O7 0.576345 0.560489 0.231398
O O8 0.466381 0.634392 0.360343
O O9 0.175057 0.500000 0.579400
O O10 0.000000 0.465573 0.500000
O O11 0.011841 0.426611 0.681663
O O12 0.626408 0.074081 0.844478
O O13 0.709637 0.000000 0.890161
O O14 0.690175 0.066973 0.041300
O O15 0.500000 0.696792 0.500000
O O16 0.535957 0.704615 0.227523
O O17 0.250000 0.250000 0.000000
O O18 0.000000 0.224232 0.000000
#
# Coordination Sequence:
#
# PCOD8113697 Si02
#       7
#     8   8   8   8   8   8   8
#     4  11  19  39  64  88 124 163 202 252 323 367
#     4  11  21  39  64  90 121 162 208 261 304 368
#     4  11  24  42  59  84 129 173 202 245 314 379
#     4  11  20  30  58  96 116 144 205 264 295 347
#     4  11  22  41  65  94 126 159 211 266 320 360
#     4  11  19  36  59  88 121 161 202 255 305 364
#     4  11  23  42  68  92 123 167 213 255 310 395
#
# _framework density 19.352423000000002
#
# number of rings (size 3 to 8) (size 9 to 14) (size 15 to 20)
#    0.000    1.000    7.143    3.000    0.000    1.143 
#    2.571    1.429    0.000    2.571    0.000    0.000 
#    0.000    0.000    0.000    0.000    0.000    0.000 
#
# Total GULP energy -346954.628045 kJ/mol
# GULP energy per Si atom -12391.236716 kJ/mol
# Density = 1.930838 g / cm^3
# Si number density = 19.352423 Si / 1000 Ang^3
#
#
#
# Elastic Constant Matrix: (Units=GPa)
#
#
# Indices 1 2 3 4 5 6 
#
# 1 72.3896 29.7974 39.0800 0.0000 -12.0191 0.0000
# 2 29.7974 134.4172 39.4482 0.0000 -2.7041 0.0000
# 3 39.0800 39.4482 124.7741 0.0000 -20.4395 0.0000
# 4 0.0000 0.0000 0.0000 43.3960 0.0000 -8.0166
# 5 -12.0191 -2.7041 -20.4395 0.0000 21.5573 0.0000
# 6 0.0000 0.0000 0.0000 -8.0166 0.0000 23.4296
#
#
#
# Elastic Compliance Matrix: (Units=1/GPa)
#
#
# Indices 1 2 3 4 5 6 
#
# 1 0.017998 -0.002763 -0.003761 0.000000 0.006123 0.000000
# 2 -0.002763 0.008677 -0.002311 0.000000 -0.002643 0.000000
# 3 -0.003761 -0.002311 0.011285 0.000000 0.008313 0.000000
# 4 0.000000 0.000000 0.000000 0.024598 0.000000 0.008416
# 5 0.006123 -0.002643 0.008313 0.000000 0.057352 0.000000
# 6 0.000000 0.000000 0.000000 0.008416 0.000000 0.045561
#
#
# Mechanical properties :
#
#
# Convention : Reuss Voigt Hill
#
# Bulk Modulus (GPa) = 49.28324 60.91470 55.09897
# Shear Modulus (GPa) = 26.32910 32.56027 29.44468
#
# Velocity S-wave (km/s) = 3.69251 4.10627 3.90487
# Velocity P-wave (km/s) = 6.61067 7.35029 6.99027
#
# Compressibility (1/GPa) = 0.02029087
#
# Stress axis : x y z
#
# Youngs Moduli (GPa) = 55.56105 115.24670 88.61538
#
# Poissons Ratio (x) = 0.31843 0.33325
# Poissons Ratio (y) = 0.15351 0.20478
# Poissons Ratio (z) = 0.20895 0.26632
#
# Static dielectric constant tensor:
#      x y z
#    x 3.042800 0.000000 -0.077980 
#    y 0.000000 5.029990 0.000000 
#    z -0.077980 0.000000 4.644740 
# 
# 
# High freq. dielectric constant tensor:
#      x y z
#    x 1.716130 0.000000 -0.020240 
#    y 0.000000 1.770440 0.000000 
#    z -0.020240 0.000000 1.764350 
# 
# From -- ./inp_files/125588.got.cif
#   From: 2010.06.25/outbox.cif.g09.slc.cpg/sg12_63_cif.got.tgz:125588.got - 2010.06.28 00:19:55.
