data_PCOD8113751
_publ_section_title
;
Structure prediction by ZEFSAII (Michael W. Deem and Ramdas Pophale) SiO2 
 PCOD8113751
Probable space group: C 2/M
;
_chemical_formula_sum "Si O2"
_cell_formula_units_Z 40
_cell_length_a 27.248810
_cell_length_b 9.139164
_cell_length_c 19.027330
_cell_angle_alpha 90.000000
_cell_angle_beta 28.639684
_cell_angle_gamma 90.000000
_cell_volume 2271.115146
_symmetry_space_group_name_H-M "C 2/M"
_symmetry_group_IT_number 12
_symmetry_cell_setting 'monoclinic'
loop_
_space_group_symop_operation_xyz
x,y,z
-x,y,-z
-x,-y,-z
x,-y,z
1/2+x,1/2+y,z
1/2-x,1/2+y,-z
1/2-x,1/2-y,-z
1/2+x,1/2-y,z
loop_
_atom_site_type_symbol
_atom_site_label
_atom_site_fract_x
_atom_site_fract_y
_atom_site_fract_z
Si Si1 0.154579 0.667773 0.744327
Si Si2 0.088991 0.825611 0.437444
Si Si3 0.816584 0.332561 0.128820
Si Si4 0.999101 0.173541 0.160585
Si Si5 0.883367 0.826277 0.442929
O O1 0.135538 0.500000 0.745403
O O2 0.144900 0.683116 0.839961
O O3 0.266052 0.724069 0.578887
O O4 0.069605 0.769585 0.816824
O O5 0.199657 0.776736 0.268780
O O6 0.074327 0.765964 0.535546
O O7 0.000000 0.759003 0.500000
O O8 0.084322 0.000000 0.444048
O O9 0.825915 0.500000 0.092370
O O10 0.885942 0.233752 0.990903
O O11 0.953322 0.232931 0.291811
O O12 0.001195 0.000000 0.155862
O O13 0.883819 0.000000 0.445363
#
# Coordination Sequence:
#
# PCOD8113751 Si02
#       5
#     8   8   8   8   8
#     4   9  17  31  48  63  87 124 159 186 212 251
#     4   8  14  29  53  71  82 108 154 196 222 256
#     4   9  18  31  47  68  91 116 150 189 223 257
#     4  11  20  28  42  67  99 125 144 177 224 270
#     4   8  16  29  44  66  92 117 148 186 226 261
#
# _framework density 17.612494000000002
#
# number of rings (size 3 to 8) (size 9 to 14) (size 15 to 20)
#    0.000    3.000    0.000    4.200    0.000    3.200 
#    0.000    2.000    0.000    3.000    0.000    0.000 
#    0.000    0.000    0.000    0.000    0.000    0.000 
#
# Total GULP energy -247933.238357 kJ/mol
# GULP energy per Si atom -12396.661918 kJ/mol
# Density = 1.757241 g / cm^3
# Si number density = 17.612494 Si / 1000 Ang^3
#
#
#
# Elastic Constant Matrix: (Units=GPa)
#
#
# Indices 1 2 3 4 5 6 
#
# 1 79.1112 18.1918 47.6359 -0.0002 -20.0772 -0.0012
# 2 18.1918 39.8266 34.6822 -0.0056 -0.2627 0.0010
# 3 47.6359 34.6822 137.6872 -0.0064 -3.3827 0.0029
# 4 -0.0002 -0.0056 -0.0064 27.3964 0.0034 1.8038
# 5 -20.0772 -0.2627 -3.3827 0.0034 20.9448 -0.0022
# 6 -0.0012 0.0010 0.0029 1.8038 -0.0022 10.6924
#
#
#
# Elastic Compliance Matrix: (Units=1/GPa)
#
#
# Indices 1 2 3 4 5 6 
#
# 1 0.022707 -0.004916 -0.006109 -0.000005 0.020718 0.000010
# 2 -0.004916 0.033246 -0.006806 0.000006 -0.005394 -0.000004
# 3 -0.006109 -0.006806 0.010988 0.000002 -0.004166 -0.000004
# 4 -0.000005 0.000006 0.000002 0.036911 -0.000011 -0.006227
# 5 0.020718 -0.005394 -0.004166 -0.000011 0.066864 0.000020
# 6 0.000010 -0.000004 -0.000004 -0.006227 0.000020 0.094575
#
#
# Mechanical properties :
#
#
# Convention : Reuss Voigt Hill
#
# Bulk Modulus (GPa) = 31.96937 50.84942 41.40939
# Shear Modulus (GPa) = 16.05762 22.21438 19.13600
#
# Velocity S-wave (km/s) = 3.02274 3.55531 3.29979
# Velocity P-wave (km/s) = 5.51122 6.76665 6.17094
#
# Compressibility (1/GPa) = 0.03127994
#
# Stress axis : x y z
#
# Youngs Moduli (GPa) = 44.03910 30.07914 91.00539
#
# Poissons Ratio (x) = 0.14786 0.55593
# Poissons Ratio (y) = 0.21648 0.61940
# Poissons Ratio (z) = 0.26903 0.20472
#
# Static dielectric constant tensor:
#      x y z
#    x 3.391500 0.000000 0.044600 
#    y 0.000000 2.854730 0.000010 
#    z 0.044600 0.000010 3.540840 
# 
# 
# High freq. dielectric constant tensor:
#      x y z
#    x 1.664920 0.000000 -0.000540 
#    y 0.000000 1.638120 0.000000 
#    z -0.000540 0.000000 1.693080 
# 
# From -- ./inp_files/152707.got.cif
#   From: 2010.06.25/outbox.cif.g09.slc.cpg/sg12_77_cif.got.tgz:152707.got - 2010.06.28 00:19:55.
