data_PCOD8113870
_publ_section_title
;
Structure prediction by ZEFSAII (Michael W. Deem and Ramdas Pophale) SiO2 
 PCOD8113870
Probable space group: C 2/M
;
_chemical_formula_sum "Si O2"
_cell_formula_units_Z 48
_cell_length_a 9.754535
_cell_length_b 29.204728
_cell_length_c 15.245071
_cell_angle_alpha 90.000000
_cell_angle_beta 37.477456
_cell_angle_gamma 90.000000
_cell_volume 2642.491078
_symmetry_space_group_name_H-M "C 2/M"
_symmetry_group_IT_number 12
_symmetry_cell_setting 'monoclinic'
loop_
_space_group_symop_operation_xyz
x,y,z
-x,y,-z
-x,-y,-z
x,-y,z
1/2+x,1/2+y,z
1/2-x,1/2+y,-z
1/2-x,1/2-y,-z
1/2+x,1/2-y,z
loop_
_atom_site_type_symbol
_atom_site_label
_atom_site_fract_x
_atom_site_fract_y
_atom_site_fract_z
Si Si1 0.647089 0.052653 0.207445
Si Si2 0.335711 0.209157 0.345988
Si Si3 0.252773 0.120431 0.158561
Si Si4 0.943206 0.785597 0.676628
Si Si5 0.562574 0.446174 0.110230
Si Si6 0.235979 0.610096 0.654526
O O1 0.399691 0.075616 0.339426
O O2 0.814025 0.067655 0.201170
O O3 0.597824 0.000000 0.242917
O O4 0.758576 0.063719 0.057217
O O5 0.220389 0.230364 0.318237
O O6 0.543991 0.242690 0.262523
O O7 0.401812 0.157629 0.286145
O O8 0.183921 0.204610 0.510195
O O9 0.126729 0.168868 0.235204
O O10 0.115991 0.086533 0.164539
O O11 0.275346 0.093712 0.239194
O O12 0.500000 0.131945 0.000000
O O13 0.571620 0.500000 0.132516
O O14 0.500000 0.616144 0.500000
#
# Coordination Sequence:
#
# PCOD8113870 Si02
#       6
#     8   8   8   8   8   8
#     4   9  19  36  57  80 111 149 184 224 275 331
#     4   9  17  34  54  73 104 144 180 214 266 329
#     4  11  20  34  57  86 111 139 184 235 271 319
#     4   9  18  33  53  76 103 141 181 219 264 323
#     4   9  19  36  57  81 110 147 188 224 271 332
#     4  11  20  36  56  83 115 145 181 227 279 326
#
# _framework density 18.164677999999999
#
# number of rings (size 3 to 8) (size 9 to 14) (size 15 to 20)
#    0.000    2.333    5.000    1.000    0.000    2.667 
#    0.000    4.167    3.667    2.000    0.000    0.000 
#    0.000    0.000    0.000    0.000    0.000    0.000 
#
# Total GULP energy -297365.781105 kJ/mol
# GULP energy per Si atom -12390.240879 kJ/mol
# Density = 1.812333 g / cm^3
# Si number density = 18.164678 Si / 1000 Ang^3
#
#
#
# Elastic Constant Matrix: (Units=GPa)
#
#
# Indices 1 2 3 4 5 6 
#
# 1 129.5093 91.0389 36.8001 0.0000 -2.1872 0.0000
# 2 91.0389 101.2814 37.7279 0.0000 -6.9384 0.0000
# 3 36.8001 37.7279 45.2101 0.0000 -1.0323 0.0000
# 4 0.0000 0.0000 0.0000 22.6240 0.0000 -0.1766
# 5 -2.1872 -6.9384 -1.0323 0.0000 27.7571 0.0000
# 6 0.0000 0.0000 0.0000 -0.1766 0.0000 39.2020
#
#
#
# Elastic Compliance Matrix: (Units=1/GPa)
#
#
# Indices 1 2 3 4 5 6 
#
# 1 0.021345 -0.018717 -0.001826 0.000000 -0.003064 0.000000
# 2 -0.018717 0.031017 -0.010515 0.000000 0.005887 0.000000
# 3 -0.001826 -0.010515 0.032344 0.000000 -0.001569 0.000000
# 4 0.000000 0.000000 0.000000 0.044202 0.000000 0.000199
# 5 -0.003064 0.005887 -0.001569 0.000000 0.037199 0.000000
# 6 0.000000 0.000000 0.000000 0.000199 0.000000 0.025510
#
#
# Mechanical properties :
#
#
# Convention : Reuss Voigt Hill
#
# Bulk Modulus (GPa) = 44.26237 67.45939 55.86088
# Shear Modulus (GPa) = 19.13791 25.27891 22.20841
#
# Velocity S-wave (km/s) = 3.24941 3.73453 3.50038
# Velocity P-wave (km/s) = 6.20471 7.47087 6.86703
#
# Compressibility (1/GPa) = 0.02259255
#
# Stress axis : x y z
#
# Youngs Moduli (GPa) = 46.84877 32.23999 30.91798
#
# Poissons Ratio (x) = 0.60342 0.05644
# Poissons Ratio (y) = 0.87685 0.32509
# Poissons Ratio (z) = 0.08553 0.33900
#
# Static dielectric constant tensor:
#      x y z
#    x 3.583050 0.000000 0.004070 
#    y 0.000000 3.346330 0.000000 
#    z 0.004070 0.000000 3.165660 
# 
# 
# High freq. dielectric constant tensor:
#      x y z
#    x 1.711890 0.000000 0.001350 
#    y 0.000000 1.700890 0.000000 
#    z 0.001350 0.000000 1.675510 
# 
# From -- ./inp_files/200778.got.cif
#   From: 2010.06.25/outbox.cif.g09.slc.cpg/sg12_101_cif.got.tgz:200778.got - 2010.06.28 00:19:55.
