data_PCOD8113524
_publ_section_title
;
Structure prediction by ZEFSAII (Michael W. Deem and Ramdas Pophale) SiO2 
 PCOD8113524
Probable space group: C 2/M
;
_chemical_formula_sum "Si O2"
_cell_formula_units_Z 40
_cell_length_a 18.264773
_cell_length_b 9.506828
_cell_length_c 19.733970
_cell_angle_alpha 90.000000
_cell_angle_beta 143.919670
_cell_angle_gamma 90.000000
_cell_volume 2017.994123
_symmetry_space_group_name_H-M "C 2/M"
_symmetry_group_IT_number 12
_symmetry_cell_setting 'monoclinic'
loop_
_space_group_symop_operation_xyz
x,y,z
-x,y,-z
-x,-y,-z
x,-y,z
1/2+x,1/2+y,z
1/2-x,1/2+y,-z
1/2-x,1/2-y,-z
1/2+x,1/2-y,z
loop_
_atom_site_type_symbol
_atom_site_label
_atom_site_fract_x
_atom_site_fract_y
_atom_site_fract_z
Si Si1 0.452109 0.767324 0.243150
Si Si2 0.213324 0.500000 0.925609
Si Si3 0.293879 0.000000 0.349104
Si Si4 0.417493 0.721179 0.790827
Si Si5 0.198098 0.000000 0.871141
Si Si6 0.562376 0.500000 0.974894
Si Si7 0.996235 0.500000 0.077563
Si Si8 0.004764 0.500000 0.615444
O O1 0.565788 0.720819 0.279026
O O2 0.370592 0.636742 0.211225
O O3 0.369590 0.861296 0.130588
O O4 0.498287 0.859648 0.340875
O O5 0.323070 0.500000 0.063714
O O6 0.286487 0.500000 0.907579
O O7 0.211492 0.858213 0.288877
O O8 0.380384 0.000000 0.479291
O O9 0.373611 0.000000 0.340285
O O10 0.529017 0.639311 0.909399
O O11 0.424609 0.873241 0.830732
O O12 0.348480 0.000000 0.981623
O O13 0.500000 0.500000 0.000000
O O14 0.000000 0.500000 0.000000
#
# Coordination Sequence:
#
# PCOD8113524 Si02
#       8
#     8   4   4   8   4   4   4   4
#     4  11  22  37  64  91 121 161 209 247 304 366
#     4  11  19  35  56  85 132 172 199 241 288 368
#     4  10  25  47  69  85 119 154 215 268 312 364
#     4  11  22  40  59  91 124 162 203 255 299 368
#     4  12  20  36  58  91 130 162 190 246 292 368
#     4  11  22  33  57  90 128 174 214 239 290 360
#     4  12  25  34  53  92 136 162 189 232 308 365
#     4  10  25  47  68  90 109 161 214 268 316 363
#
# _framework density 19.821663000000001
#
# number of rings (size 3 to 8) (size 9 to 14) (size 15 to 20)
#    0.000    1.000    4.000    3.600    8.400    0.800 
#    0.000    1.000    0.000    2.400    0.000    0.000 
#    0.000    0.000    0.000    0.000    0.000    0.000 
#
# Total GULP energy -247840.982382 kJ/mol
# GULP energy per Si atom -12392.049119 kJ/mol
# Density = 1.977655 g / cm^3
# Si number density = 19.821663 Si / 1000 Ang^3
#
#
#
# Elastic Constant Matrix: (Units=GPa)
#
#
# Indices 1 2 3 4 5 6 
#
# 1 126.2892 38.7436 40.1650 0.0000 0.2467 0.0000
# 2 38.7436 156.7835 46.9187 0.0000 0.6475 0.0000
# 3 40.1650 46.9187 82.8807 0.0000 -5.4176 0.0000
# 4 0.0000 0.0000 0.0000 7.1196 0.0000 -3.4101
# 5 0.2467 0.6475 -5.4176 0.0000 32.9450 0.0000
# 6 0.0000 0.0000 0.0000 -3.4101 0.0000 29.8365
#
#
#
# Elastic Compliance Matrix: (Units=1/GPa)
#
#
# Indices 1 2 3 4 5 6 
#
# 1 0.009553 -0.001154 -0.004023 0.000000 -0.000710 0.000000
# 2 -0.001154 0.007844 -0.003933 0.000000 -0.000792 0.000000
# 3 -0.004023 -0.003933 0.016425 0.000000 0.002808 0.000000
# 4 0.000000 0.000000 0.000000 0.148592 0.000000 0.016983
# 5 -0.000710 -0.000792 0.002808 0.000000 0.030836 0.000000
# 6 0.000000 0.000000 0.000000 0.016983 0.000000 0.035457
#
#
# Mechanical properties :
#
#
# Convention : Reuss Voigt Hill
#
# Bulk Modulus (GPa) = 64.09174 68.62311 66.35743
# Shear Modulus (GPa) = 18.37377 29.98860 24.18119
#
# Velocity S-wave (km/s) = 3.04790 3.89385 3.49655
# Velocity P-wave (km/s) = 6.69258 7.41023 7.06053
#
# Compressibility (1/GPa) = 0.01560263
#
# Stress axis : x y z
#
# Youngs Moduli (GPa) = 104.67768 127.49278 60.88298
#
# Poissons Ratio (x) = 0.14712 0.24492
# Poissons Ratio (y) = 0.12079 0.23944
# Poissons Ratio (z) = 0.42109 0.50141
#
# Static dielectric constant tensor:
#      x y z
#    x 3.916760 0.000000 -0.093510 
#    y 0.000000 3.749600 0.000000 
#    z -0.093510 0.000000 3.409320 
# 
# 
# High freq. dielectric constant tensor:
#      x y z
#    x 1.789240 0.000000 0.002510 
#    y 0.000000 1.786650 0.000000 
#    z 0.002510 0.000000 1.740480 
# 
# From -- ./inp_files/314570.got.cif
#   From: 2010.06.25/outbox.cif.g09.slc.cpg/sg12_158_cif.got.tgz:314570.got - 2010.06.28 00:19:55.
