data_PCOD8113857
_publ_section_title
;
Structure prediction by ZEFSAII (Michael W. Deem and Ramdas Pophale) SiO2 
 PCOD8113857
Probable space group: C 2/M
;
_chemical_formula_sum "Si O2"
_cell_formula_units_Z 64
_cell_length_a 14.838933
_cell_length_b 17.417033
_cell_length_c 15.398173
_cell_angle_alpha 90.000000
_cell_angle_beta 89.914218
_cell_angle_gamma 90.000000
_cell_volume 3979.656212
_symmetry_space_group_name_H-M "C 2/M"
_symmetry_group_IT_number 12
_symmetry_cell_setting 'monoclinic'
loop_
_space_group_symop_operation_xyz
x,y,z
-x,y,-z
-x,-y,-z
x,-y,z
1/2+x,1/2+y,z
1/2-x,1/2+y,-z
1/2-x,1/2-y,-z
1/2+x,1/2-y,z
loop_
_atom_site_type_symbol
_atom_site_label
_atom_site_fract_x
_atom_site_fract_y
_atom_site_fract_z
Si Si1 0.598074 0.909488 0.997311
Si Si2 0.070175 0.918254 0.423616
Si Si3 0.398449 0.910651 0.191368
Si Si4 0.267784 0.088671 0.493392
Si Si5 0.491111 0.263155 0.603189
Si Si6 0.112164 0.410628 0.185340
Si Si7 0.181676 0.680307 0.341538
Si Si8 0.330085 0.191483 0.342607
O O1 0.642065 0.887278 0.904265
O O2 0.584428 0.000000 0.998072
O O3 0.500000 0.870207 0.000000
O O4 0.647215 0.886921 0.087745
O O5 0.165648 0.899706 0.465907
O O6 0.041845 0.847187 0.362384
O O7 0.000000 0.928007 0.500000
O O8 0.074399 0.000000 0.371642
O O9 0.505453 0.893146 0.196596
O O10 0.340327 0.861487 0.258473
O O11 0.380865 0.000000 0.211434
O O12 0.276009 0.121342 0.590141
O O13 0.329246 0.137494 0.427497
O O14 0.298855 0.000000 0.491786
O O15 0.500000 0.266131 0.500000
O O16 0.419183 0.199091 0.628123
O O17 0.584986 0.247402 0.649656
O O18 0.130059 0.500000 0.204145
O O19 0.174285 0.361038 0.248927
O O20 0.240684 0.757352 0.333982
#
# Coordination Sequence:
#
# PCOD8113857 Si02
#       8
#     8   8   8   8   8   8   8   8
#     4   7  12  26  49  72  94 121 155 192 232 284
#     4   9  18  33  51  66  84 125 176 209 228 262
#     4   9  17  31  51  74  97 124 158 196 239 289
#     4  11  22  35  49  69  97 129 166 203 235 278
#     4  11  20  34  50  65  95 132 163 195 242 282
#     4   9  17  31  51  74  97 125 158 193 239 292
#     4  12  21  33  47  72 101 129 158 195 244 288
#     4  12  22  33  48  73 100 129 160 198 244 287
#
# _framework density 16.081790999999999
#
# number of rings (size 3 to 8) (size 9 to 14) (size 15 to 20)
#    0.000    2.000    3.750    4.125    0.000    0.000 
#    0.000    1.875    0.000    0.000    0.000    0.000 
#    0.000    0.000    0.000    5.625    0.000    0.000 
#
# Total GULP energy -396496.186651 kJ/mol
# GULP energy per Si atom -12390.505833 kJ/mol
# Density = 1.604519 g / cm^3
# Si number density = 16.081791 Si / 1000 Ang^3
#
#
#
# Elastic Constant Matrix: (Units=GPa)
#
#
# Indices 1 2 3 4 5 6 
#
# 1 54.2912 28.1934 22.9066 0.0000 0.7623 0.0000
# 2 28.1934 88.8032 50.0877 0.0000 10.1214 0.0000
# 3 22.9066 50.0877 115.3325 0.0000 12.2548 0.0000
# 4 0.0000 0.0000 0.0000 19.9233 0.0000 -0.7277
# 5 0.7623 10.1214 12.2548 0.0000 10.6231 0.0000
# 6 0.0000 0.0000 0.0000 -0.7277 0.0000 13.6465
#
#
#
# Elastic Compliance Matrix: (Units=1/GPa)
#
#
# Indices 1 2 3 4 5 6 
#
# 1 0.022837 -0.006756 -0.002406 0.000000 0.007574 0.000000
# 2 -0.006756 0.017484 -0.005166 0.000000 -0.010214 0.000000
# 3 -0.002406 -0.005166 0.012366 0.000000 -0.009171 0.000000
# 4 0.000000 0.000000 0.000000 0.050291 0.000000 0.002682
# 5 0.007574 -0.010214 -0.009171 0.000000 0.113902 0.000000
# 6 0.000000 0.000000 0.000000 0.002682 0.000000 0.073422
#
#
# Mechanical properties :
#
#
# Convention : Reuss Voigt Hill
#
# Bulk Modulus (GPa) = 41.61460 51.20025 46.40742
# Shear Modulus (GPa) = 15.29202 19.32120 17.30661
#
# Velocity S-wave (km/s) = 3.08700 3.46993 3.28405
# Velocity P-wave (km/s) = 6.21603 6.92535 6.58025
#
# Compressibility (1/GPa) = 0.02403003
#
# Stress axis : x y z
#
# Youngs Moduli (GPa) = 43.78932 57.19642 80.86369
#
# Poissons Ratio (x) = 0.38643 0.19458
# Poissons Ratio (y) = 0.29585 0.41773
# Poissons Ratio (z) = 0.10537 0.29547
#
# Static dielectric constant tensor:
#      x y z
#    x 2.674000 0.000000 0.191300 
#    y 0.000000 3.334220 0.000000 
#    z 0.191300 0.000000 2.977000 
# 
# 
# High freq. dielectric constant tensor:
#      x y z
#    x 1.599700 0.000000 -0.000300 
#    y 0.000000 1.617300 0.000000 
#    z -0.000300 0.000000 1.603480 
# 
# From -- ./inp_files/215903.got.cif
#   From: 2010.06.25/outbox.cif.g09.slc.cpg/sg12_108_cif.got.tgz:215903.got - 2010.06.28 00:19:55.
