data_PCOD8113948
_publ_section_title
;
Structure prediction by ZEFSAII (Michael W. Deem and Ramdas Pophale) SiO2 
 PCOD8113948
Probable space group: C 2/M
;
_chemical_formula_sum "Si O2"
_cell_formula_units_Z 40
_cell_length_a 20.229268
_cell_length_b 11.048205
_cell_length_c 9.851274
_cell_angle_alpha 90.000000
_cell_angle_beta 105.577587
_cell_angle_gamma 90.000000
_cell_volume 2120.856496
_symmetry_space_group_name_H-M "C 2/M"
_symmetry_group_IT_number 12
_symmetry_cell_setting 'monoclinic'
loop_
_space_group_symop_operation_xyz
x,y,z
-x,y,-z
-x,-y,-z
x,-y,z
1/2+x,1/2+y,z
1/2-x,1/2+y,-z
1/2-x,1/2-y,-z
1/2+x,1/2-y,z
loop_
_atom_site_type_symbol
_atom_site_label
_atom_site_fract_x
_atom_site_fract_y
_atom_site_fract_z
Si Si1 0.896760 0.500000 0.015727
Si Si2 0.445341 0.257606 0.644929
Si Si3 0.072232 0.139200 0.089979
Si Si4 0.830430 0.251499 0.063204
Si Si5 0.042301 0.500000 0.238159
Si Si6 0.092080 0.144598 0.656224
O O1 0.901933 0.500000 0.853868
O O2 0.855953 0.384852 0.045434
O O3 0.969717 0.500000 0.126113
O O4 0.405306 0.300006 0.756855
O O5 0.450755 0.112925 0.655946
O O6 0.402247 0.298215 0.490412
O O7 0.519541 0.321810 0.683973
O O8 0.059276 0.000000 0.109866
O O9 0.132906 0.156959 0.016901
O O10 0.000000 0.199561 0.000000
O O11 0.847502 0.207032 0.224637
O O12 0.750000 0.250000 0.000000
O O13 0.100442 0.000000 0.655270
#
# Coordination Sequence:
#
# PCOD8113948 Si02
#       6
#     4   8   8   8   4   8
#     4  11  22  41  62  93 129 164 210 255 310 375
#     4  11  21  37  63  96 123 162 205 258 322 361
#     4  11  20  37  64  92 120 159 213 261 302 361
#     4  12  26  41  63  92 126 170 209 254 311 370
#     4  11  20  38  67  94 129 158 205 263 310 380
#     4  11  23  40  61  93 130 161 207 263 312 364
#
# _framework density 18.860305
#
# number of rings (size 3 to 8) (size 9 to 14) (size 15 to 20)
#    0.000    0.800    6.000    3.000    2.800    2.400 
#    0.000    1.000    0.000    0.000    0.000    0.000 
#    0.000    0.000    0.000    0.000    0.000    0.000 
#
# Total GULP energy -248047.365442 kJ/mol
# GULP energy per Si atom -12402.368272 kJ/mol
# Density = 1.881738 g / cm^3
# Si number density = 18.860305 Si / 1000 Ang^3
#
#
#
# Elastic Constant Matrix: (Units=GPa)
#
#
# Indices 1 2 3 4 5 6 
#
# 1 97.6827 32.5165 55.3727 0.0000 11.9752 0.0000
# 2 32.5165 146.5583 53.3961 0.0000 6.8372 0.0000
# 3 55.3727 53.3961 145.3891 0.0000 11.4799 0.0000
# 4 0.0000 0.0000 0.0000 41.1752 0.0000 -17.8812
# 5 11.9752 6.8372 11.4799 0.0000 24.3592 0.0000
# 6 0.0000 0.0000 0.0000 -17.8812 0.0000 146.6045
#
#
#
# Elastic Compliance Matrix: (Units=1/GPa)
#
#
# Indices 1 2 3 4 5 6 
#
# 1 0.013677 -0.001224 -0.004420 0.000000 -0.004297 0.000000
# 2 -0.001224 0.008005 -0.002435 0.000000 -0.000498 0.000000
# 3 -0.004420 -0.002435 0.009587 0.000000 -0.001662 0.000000
# 4 0.000000 0.000000 0.000000 0.025645 0.000000 0.003128
# 5 -0.004297 -0.000498 -0.001662 0.000000 0.044088 0.000000
# 6 0.000000 0.000000 0.000000 0.003128 0.000000 0.007203
#
#
# Mechanical properties :
#
#
# Convention : Reuss Voigt Hill
#
# Bulk Modulus (GPa) = 66.17277 74.68896 70.43087
# Shear Modulus (GPa) = 38.64035 58.98410 48.81222
#
# Velocity S-wave (km/s) = 4.53124 5.59840 5.09285
# Velocity P-wave (km/s) = 7.90810 9.02644 8.48571
#
# Compressibility (1/GPa) = 0.01511196
#
# Stress axis : x y z
#
# Youngs Moduli (GPa) = 73.11508 124.92310 104.30810
#
# Poissons Ratio (x) = 0.15285 0.46108
# Poissons Ratio (y) = 0.08946 0.25395
# Poissons Ratio (z) = 0.32320 0.30414
#
# Static dielectric constant tensor:
#      x y z
#    x 3.065260 0.000000 0.100490 
#    y 0.000000 3.499490 0.000000 
#    z 0.100490 0.000000 3.352190 
# 
# 
# High freq. dielectric constant tensor:
#      x y z
#    x 1.689780 0.000000 -0.008830 
#    y 0.000000 1.755320 0.000000 
#    z -0.008830 0.000000 1.744570 
# 
# From -- ./inp_files/71348.got.cif
#   From: 2010.06.25/outbox.cif.g09.slc.cpg/sg12_36_cif.got.tgz:71348.got - 2010.06.28 00:19:55.
