data_PCOD8113299
_publ_section_title
;
Structure prediction by ZEFSAII (Michael W. Deem and Ramdas Pophale) SiO2 
 PCOD8113299
Probable space group: C 2/M
;
_chemical_formula_sum "Si O2"
_cell_formula_units_Z 48
_cell_length_a 9.035225
_cell_length_b 20.483527
_cell_length_c 24.382469
_cell_angle_alpha 90.000000
_cell_angle_beta 149.884321
_cell_angle_gamma 90.000000
_cell_volume 2264.157220
_symmetry_space_group_name_H-M "C 2/M"
_symmetry_group_IT_number 12
_symmetry_cell_setting 'monoclinic'
loop_
_space_group_symop_operation_xyz
x,y,z
-x,y,-z
-x,-y,-z
x,-y,z
1/2+x,1/2+y,z
1/2-x,1/2+y,-z
1/2-x,1/2-y,-z
1/2+x,1/2-y,z
loop_
_atom_site_type_symbol
_atom_site_label
_atom_site_fract_x
_atom_site_fract_y
_atom_site_fract_z
Si Si1 0.859574 0.339672 0.898633
Si Si2 0.478761 0.760815 0.276668
Si Si3 0.299309 0.612793 0.770206
Si Si4 0.373062 0.574721 0.018378
Si Si5 0.067430 0.194990 0.411808
Si Si6 0.233414 0.073018 0.529381
O O1 0.762279 0.272991 0.838806
O O2 0.586543 0.387918 0.823562
O O3 0.092130 0.379335 0.937003
O O4 0.000000 0.315557 0.000000
O O5 0.311959 0.813039 0.260966
O O6 0.605494 0.705361 0.358662
O O7 0.727378 0.797796 0.321269
O O8 0.053835 0.570888 0.660282
O O9 0.374853 0.584307 0.854495
O O10 0.266162 0.500000 0.985348
O O11 0.500000 0.593694 0.000000
O O12 0.250000 0.250000 0.500000
O O13 0.199772 0.123732 0.468504
O O14 0.000000 0.096042 0.500000
O O15 0.163049 0.000000 0.485141
#
# Coordination Sequence:
#
# PCOD8113299 Si02
#       6
#     8   8   8   8   8   8
#     4  10  24  42  63  94 129 164 210 265 327 383
#     4  12  23  39  64  98 124 168 218 267 323 383
#     4  11  22  40  64  94 126 171 214 265 320 383
#     4  10  24  43  65  92 126 169 213 262 324 390
#     4  12  22  41  65  92 131 171 218 271 325 380
#     4  11  22  38  63  97 130 170 217 265 318 382
#
# _framework density 21.199940999999999
#
# number of rings (size 3 to 8) (size 9 to 14) (size 15 to 20)
#    0.000    1.000    5.000    1.000    2.333    7.000 
#    0.000    0.833    0.000    5.000    0.000    0.000 
#    0.000    0.000    0.000    0.000    0.000    0.000 
#
# Total GULP energy -297685.694454 kJ/mol
# GULP energy per Si atom -12403.570602 kJ/mol
# Density = 2.115169 g / cm^3
# Si number density = 21.199941 Si / 1000 Ang^3
#
#
#
# Elastic Constant Matrix: (Units=GPa)
#
#
# Indices 1 2 3 4 5 6 
#
# 1 70.9442 20.1711 25.9047 -0.0150 -2.8464 -0.0127
# 2 20.1711 106.0730 27.8613 -0.0103 -6.9146 -0.0113
# 3 25.9047 27.8613 101.2844 0.0155 6.5291 -0.0186
# 4 -0.0150 -0.0103 0.0155 31.4465 0.0004 -7.4240
# 5 -2.8464 -6.9146 6.5291 0.0004 31.4359 -0.0098
# 6 -0.0127 -0.0113 -0.0186 -7.4240 -0.0098 24.4559
#
#
#
# Elastic Compliance Matrix: (Units=1/GPa)
#
#
# Indices 1 2 3 4 5 6 
#
# 1 0.016073 -0.001973 -0.003683 0.000011 0.001787 0.000009
# 2 -0.001973 0.010663 -0.002603 0.000005 0.002707 0.000005
# 3 -0.003683 -0.002603 0.011747 -0.000008 -0.003346 0.000002
# 4 0.000011 0.000005 -0.000008 0.034255 0.000006 0.010399
# 5 0.001787 0.002707 -0.003346 0.000006 0.033263 0.000015
# 6 0.000009 0.000005 0.000002 0.010399 0.000015 0.044047
#
#
# Mechanical properties :
#
#
# Convention : Reuss Voigt Hill
#
# Bulk Modulus (GPa) = 45.52767 47.35286 46.44026
# Shear Modulus (GPa) = 28.75422 31.09195 29.92308
#
# Velocity S-wave (km/s) = 3.68684 3.83378 3.76103
# Velocity P-wave (km/s) = 6.29648 6.47935 6.38857
#
# Compressibility (1/GPa) = 0.02196467
#
# Stress axis : x y z
#
# Youngs Moduli (GPa) = 62.21576 93.78386 85.12780
#
# Poissons Ratio (x) = 0.18499 0.31356
# Poissons Ratio (y) = 0.12272 0.22160
# Poissons Ratio (z) = 0.22917 0.24413
#
# Static dielectric constant tensor:
#      x y z
#    x 4.029310 -0.000020 -0.024270 
#    y -0.000020 3.704860 -0.000060 
#    z -0.024270 -0.000060 4.200690 
# 
# 
# High freq. dielectric constant tensor:
#      x y z
#    x 1.827540 0.000000 0.005620 
#    y 0.000000 1.825700 -0.000010 
#    z 0.005620 -0.000010 1.841460 
# 
# From -- ./inp_files/302056.got.cif
#   From: 2010.06.25/outbox.cif.g09.slc.cpg/sg12_152_cif.got.tgz:302056.got - 2010.06.28 00:19:55.
