data_PCOD8113884
_publ_section_title
;
Structure prediction by ZEFSAII (Michael W. Deem and Ramdas Pophale) SiO2 
 PCOD8113884
Probable space group: C 2/M
;
_chemical_formula_sum "Si O2"
_cell_formula_units_Z 48
_cell_length_a 17.468445
_cell_length_b 14.088396
_cell_length_c 9.657571
_cell_angle_alpha 90.000000
_cell_angle_beta 90.534190
_cell_angle_gamma 90.000000
_cell_volume 2376.647819
_symmetry_space_group_name_H-M "C 2/M"
_symmetry_group_IT_number 12
_symmetry_cell_setting 'monoclinic'
loop_
_space_group_symop_operation_xyz
x,y,z
-x,y,-z
-x,-y,-z
x,-y,z
1/2+x,1/2+y,z
1/2-x,1/2+y,-z
1/2-x,1/2-y,-z
1/2+x,1/2-y,z
loop_
_atom_site_type_symbol
_atom_site_label
_atom_site_fract_x
_atom_site_fract_y
_atom_site_fract_z
Si Si1 0.070135 0.500000 0.140526
Si Si2 0.433192 0.792805 0.794138
Si Si3 0.901489 0.300822 0.273382
Si Si4 0.133680 0.500000 0.862123
Si Si5 0.333161 0.292638 0.027844
Si Si6 0.281669 0.000000 0.689180
Si Si7 0.209246 0.000000 0.963325
Si Si8 0.821778 0.308512 0.552254
O O1 0.039132 0.403255 0.206203
O O2 0.158612 0.500000 0.184795
O O3 0.064288 0.500000 0.973170
O O4 0.514963 0.751795 0.750639
O O5 0.364533 0.766986 0.687973
O O6 0.401098 0.759945 0.942876
O O7 0.880106 0.407012 0.227071
O O8 0.846554 0.228349 0.190155
O O9 0.886219 0.304247 0.435974
O O10 0.213760 0.500000 0.943521
O O11 0.336403 0.404702 0.994426
O O12 0.250000 0.250000 0.000000
O O13 0.209688 0.000000 0.793266
O O14 0.288526 0.088255 0.586285
O O15 0.750000 0.250000 0.500000
#
# Coordination Sequence:
#
# PCOD8113884 Si02
#       8
#     4   8   8   4   8   4   4   8
#     4   9  17  35  57  86 126 155 182 245 307 368
#     4  11  23  39  60  90 128 165 199 254 313 364
#     4  12  23  37  61  95 124 159 206 252 310 369
#     4  11  20  34  63  93 124 153 199 252 311 358
#     4  12  22  40  64  91 121 165 208 254 302 362
#     4   9  19  38  58  88 120 158 196 252 315 353
#     4  11  22  39  64  93 126 159 212 258 301 365
#     4  11  23  40  61  86 122 163 205 250 307 368
#
# _framework density 20.196512999999999
#
# number of rings (size 3 to 8) (size 9 to 14) (size 15 to 20)
#    0.000    1.000    3.333    6.000    0.000    0.667 
#    0.000    5.000    0.000    0.000    0.000    4.667 
#    0.000    0.000    0.000    0.000    0.000    0.000 
#
# Total GULP energy -297316.052455 kJ/mol
# GULP energy per Si atom -12388.168852 kJ/mol
# Density = 2.015054 g / cm^3
# Si number density = 20.196513 Si / 1000 Ang^3
#
#
#
# Elastic Constant Matrix: (Units=GPa)
#
#
# Indices 1 2 3 4 5 6 
#
# 1 75.2020 27.6825 11.8231 0.0000 -12.1768 0.0000
# 2 27.6825 103.0167 11.6402 0.0000 0.9850 0.0000
# 3 11.8231 11.6402 84.9614 0.0000 -10.8520 0.0000
# 4 0.0000 0.0000 0.0000 -0.2804 0.0000 -2.9687
# 5 -12.1768 0.9850 -10.8520 0.0000 33.9613 0.0000
# 6 0.0000 0.0000 0.0000 -2.9687 0.0000 14.6635
#
#
#
# Elastic Compliance Matrix: (Units=1/GPa)
#
#
# Indices 1 2 3 4 5 6 
#
# 1 0.015890 -0.004218 -0.000928 0.000000 0.005523 0.000000
# 2 -0.004218 0.010998 -0.001203 0.000000 -0.002216 0.000000
# 3 -0.000928 -0.001203 0.012538 0.000000 0.003708 0.000000
# 4 0.000000 0.000000 0.000000 -1.134524 0.000000 -0.229688
# 5 0.005523 -0.002216 0.003708 0.000000 0.032675 0.000000
# 6 0.000000 0.000000 0.000000 -0.229688 0.000000 0.021696
#
#
# Mechanical properties :
#
#
# Convention : Reuss Voigt Hill
#
# Bulk Modulus (GPa) = 37.41345 40.60798 39.01072
# Shear Modulus (GPa) = -4.90619 23.80449 9.44915
#
# Velocity S-wave (km/s) = -1.56029 3.43686 2.16535
# Velocity P-wave (km/s) = 3.91394 5.99161 5.06055
#
# Compressibility (1/GPa) = 0.02672835
#
# Stress axis : x y z
#
# Youngs Moduli (GPa) = 62.93090 90.92794 79.75980
#
# Poissons Ratio (x) = 0.38354 0.07401
# Poissons Ratio (y) = 0.26544 0.09593
# Poissons Ratio (z) = 0.05839 0.10937
#
# Static dielectric constant tensor:
#      x y z
#    x 3.599420 0.000000 0.006350 
#    y 0.000000 3.514640 0.000000 
#    z 0.006350 0.000000 3.855680 
# 
# 
# High freq. dielectric constant tensor:
#      x y z
#    x 1.789980 0.000000 0.005270 
#    y 0.000000 1.770620 0.000000 
#    z 0.005270 0.000000 1.795380 
# 
# From -- ./inp_files/73712.got.cif
#   From: 2010.06.25/outbox.cif.g09.slc.cpg/sg12_37_cif.got.tgz:73712.got - 2010.06.28 00:19:55.
