data_PCOD8113068
_publ_section_title
;
Structure prediction by ZEFSAII (Michael W. Deem and Ramdas Pophale) SiO2 
 PCOD8113068
Probable space group: C 2/M
;
_chemical_formula_sum "Si O2"
_cell_formula_units_Z 64
_cell_length_a 25.947438
_cell_length_b 18.611214
_cell_length_c 15.227816
_cell_angle_alpha 90.000000
_cell_angle_beta 153.601140
_cell_angle_gamma 90.000000
_cell_volume 3269.589420
_symmetry_space_group_name_H-M "C 2/M"
_symmetry_group_IT_number 12
_symmetry_cell_setting 'monoclinic'
loop_
_space_group_symop_operation_xyz
x,y,z
-x,y,-z
-x,-y,-z
x,-y,z
1/2+x,1/2+y,z
1/2-x,1/2+y,-z
1/2-x,1/2-y,-z
1/2+x,1/2-y,z
loop_
_atom_site_type_symbol
_atom_site_label
_atom_site_fract_x
_atom_site_fract_y
_atom_site_fract_z
Si Si1 0.785954 0.696572 0.297716
Si Si2 0.489694 0.083641 0.880952
Si Si3 0.192149 0.324044 0.941305
Si Si4 0.133804 0.421712 0.691770
Si Si5 0.160961 0.709206 0.425227
Si Si6 0.443309 0.724238 0.163188
Si Si7 0.439773 0.666083 0.501629
Si Si8 0.732043 0.083133 0.160498
O O1 0.839437 0.618493 0.358113
O O2 0.771629 0.697497 0.380398
O O3 0.872149 0.757871 0.393877
O O4 0.662503 0.703675 0.060992
O O5 0.386485 0.133553 0.686091
O O6 0.460897 0.000000 0.816152
O O7 0.500000 0.096427 0.000000
O O8 0.613718 0.106309 0.028529
O O9 0.179300 0.371825 0.837604
O O10 0.074570 0.300187 0.811925
O O11 0.250000 0.250000 0.000000
O O12 0.260478 0.371839 0.115802
O O13 0.195080 0.500000 0.785799
O O14 0.000000 0.434229 0.500000
O O15 0.250000 0.750000 0.500000
O O16 0.055746 0.765245 0.275172
O O17 0.465129 0.665613 0.274315
O O18 0.500000 0.651447 0.500000
O O19 0.347393 0.604192 0.390950
O O20 0.727467 0.000000 0.130231
#
# Coordination Sequence:
#
# PCOD8113068 Si02
#       8
#     8   8   8   8   8   8   8   8
#     4  11  22  41  59  89 123 168 211 252 317 369
#     4  10  23  43  69  94 124 162 205 261 328 381
#     4  12  20  37  62  88 124 165 208 253 301 362
#     4  11  23  36  57  91 128 164 207 251 303 371
#     4  11  25  38  66  96 124 155 205 276 316 375
#     4  11  22  37  62  89 123 166 208 253 310 367
#     4  11  22  36  59  90 124 167 211 252 298 365
#     4  11  23  40  62  91 127 166 210 262 310 370
#
# _framework density 19.574323
#
# number of rings (size 3 to 8) (size 9 to 14) (size 15 to 20)
#    0.000    1.000    3.750    3.750    5.250    0.750 
#    0.000    0.625    0.000    0.750    0.000    1.750 
#    0.000    0.000    0.000    0.000    0.000    0.000 
#
# Total GULP energy -396568.868630 kJ/mol
# GULP energy per Si atom -12392.777145 kJ/mol
# Density = 1.952977 g / cm^3
# Si number density = 19.574323 Si / 1000 Ang^3
#
#
#
# Elastic Constant Matrix: (Units=GPa)
#
#
# Indices 1 2 3 4 5 6 
#
# 1 130.2294 62.9280 56.2525 0.0000 -1.7309 0.0000
# 2 62.9280 121.1024 44.8423 0.0000 1.5849 0.0000
# 3 56.2525 44.8423 123.2717 0.0000 -8.2257 0.0000
# 4 0.0000 0.0000 0.0000 29.0319 0.0000 1.5784
# 5 -1.7309 1.5849 -8.2257 0.0000 32.4140 0.0000
# 6 0.0000 0.0000 0.0000 1.5784 0.0000 35.5238
#
#
#
# Elastic Compliance Matrix: (Units=1/GPa)
#
#
# Indices 1 2 3 4 5 6 
#
# 1 0.011448 -0.004637 -0.003542 0.000000 -0.000061 0.000000
# 2 -0.004637 0.011481 -0.002151 0.000000 -0.001355 0.000000
# 3 -0.003542 -0.002151 0.010686 0.000000 0.002628 0.000000
# 4 0.000000 0.000000 0.000000 0.034528 0.000000 -0.001534
# 5 -0.000061 -0.001355 0.002628 0.000000 0.031581 0.000000
# 6 0.000000 0.000000 0.000000 -0.001534 0.000000 0.028218
#
#
# Mechanical properties :
#
#
# Convention : Reuss Voigt Hill
#
# Bulk Modulus (GPa) = 77.17859 78.07211 77.62535
# Shear Modulus (GPa) = 32.69685 33.43263 33.06474
#
# Velocity S-wave (km/s) = 4.09148 4.13726 4.11443
# Velocity P-wave (km/s) = 7.86348 7.92427 7.89394
#
# Compressibility (1/GPa) = 0.01295696
#
# Stress axis : x y z
#
# Youngs Moduli (GPa) = 87.35025 87.10055 93.57958
#
# Poissons Ratio (x) = 0.40385 0.33142
# Poissons Ratio (y) = 0.40501 0.20129
# Poissons Ratio (z) = 0.30935 0.18735
#
# Static dielectric constant tensor:
#      x y z
#    x 3.713880 0.000000 -0.082390 
#    y 0.000000 9.324480 0.000000 
#    z -0.082390 0.000000 3.791790 
# 
# 
# High freq. dielectric constant tensor:
#      x y z
#    x 1.762590 0.000000 -0.003060 
#    y 0.000000 1.753310 0.000000 
#    z -0.003060 0.000000 1.767600 
# 
# From -- ./inp_files/241538.got.cif
#   From: 2010.06.25/outbox.cif.g09.slc.cpg/sg12_121_cif.got.tgz:241538.got - 2010.06.28 00:19:55.
