data_PCOD8113208
_publ_section_title
;
Structure prediction by ZEFSAII (Michael W. Deem and Ramdas Pophale) SiO2 
 PCOD8113208
Probable space group: C 2/M
;
_chemical_formula_sum "Si O2"
_cell_formula_units_Z 48
_cell_length_a 9.334099
_cell_length_b 19.585371
_cell_length_c 14.855375
_cell_angle_alpha 90.000000
_cell_angle_beta 77.687765
_cell_angle_gamma 90.000000
_cell_volume 2653.275922
_symmetry_space_group_name_H-M "C 2/M"
_symmetry_group_IT_number 12
_symmetry_cell_setting 'monoclinic'
loop_
_space_group_symop_operation_xyz
x,y,z
-x,y,-z
-x,-y,-z
x,-y,z
1/2+x,1/2+y,z
1/2-x,1/2+y,-z
1/2-x,1/2-y,-z
1/2+x,1/2-y,z
loop_
_atom_site_type_symbol
_atom_site_label
_atom_site_fract_x
_atom_site_fract_y
_atom_site_fract_z
Si Si1 0.943507 0.113985 0.104452
Si Si2 0.727513 0.000000 0.190542
Si Si3 0.141838 0.737030 0.933363
Si Si4 0.183706 0.000000 0.621658
Si Si5 0.198004 0.128049 0.206648
Si Si6 0.895659 0.500000 0.230038
Si Si7 0.545666 0.387869 0.401064
Si Si8 0.729441 0.000000 0.574244
O O1 0.803273 0.068518 0.145410
O O2 0.899571 0.193277 0.111723
O O3 0.072676 0.100036 0.157607
O O4 0.000000 0.090909 0.000000
O O5 0.562404 0.000000 0.173524
O O6 0.728808 0.000000 0.297871
O O7 0.211118 0.689360 0.848565
O O8 0.250000 0.750000 0.000000
O O9 0.000000 0.703062 0.000000
O O10 0.084305 0.932151 0.626153
O O11 0.309893 0.000000 0.526652
O O12 0.309831 0.066412 0.207901
O O13 0.119536 0.155615 0.309632
O O14 0.905822 0.500000 0.338324
O O15 0.500000 0.346343 0.500000
O O16 0.671748 0.435065 0.421650
#
# Coordination Sequence:
#
# PCOD8113208 Si02
#       8
#     8   4   8   4   8   4   8   4
#     4  11  23  40  58  81 111 150 188 231 281 340
#     4  12  23  34  54  89 117 146 185 235 287 328
#     4  11  23  41  61  83 106 150 198 231 275 337
#     4   9  14  28  55  78 114 147 185 226 272 336
#     4  11  20  39  61  81 117 151 185 235 281 335
#     4  10  24  33  53  89 119 146 184 235 287 324
#     4   8  14  28  55  86 108 145 190 222 271 337
#     4   7  14  29  47  80 114 145 184 226 271 329
#
# _framework density 18.090843
#
# number of rings (size 3 to 8) (size 9 to 14) (size 15 to 20)
#    0.000    2.000    5.000    2.250    2.333    0.333 
#    0.000    1.250    0.000    1.000    4.333    0.000 
#    0.000    0.000    0.000    0.000    0.000    0.000 
#
# Total GULP energy -297325.817097 kJ/mol
# GULP energy per Si atom -12388.575712 kJ/mol
# Density = 1.804967 g / cm^3
# Si number density = 18.090843 Si / 1000 Ang^3
#
#
#
# Elastic Constant Matrix: (Units=GPa)
#
#
# Indices 1 2 3 4 5 6 
#
# 1 114.0536 36.6348 58.9135 0.0000 -11.2233 0.0000
# 2 36.6348 68.9326 51.1050 0.0000 -14.2301 0.0000
# 3 58.9135 51.1050 166.9693 0.0000 -17.7582 0.0000
# 4 0.0000 0.0000 0.0000 10.8039 0.0000 4.9505
# 5 -11.2233 -14.2301 -17.7582 0.0000 30.0359 0.0000
# 6 0.0000 0.0000 0.0000 4.9505 0.0000 18.9367
#
#
#
# Elastic Compliance Matrix: (Units=1/GPa)
#
#
# Indices 1 2 3 4 5 6 
#
# 1 0.011542 -0.003894 -0.002794 0.000000 0.000816 0.000000
# 2 -0.003894 0.021099 -0.004456 0.000000 0.005907 0.000000
# 3 -0.002794 -0.004456 0.008540 0.000000 0.001894 0.000000
# 4 0.000000 0.000000 0.000000 0.105156 0.000000 -0.027490
# 5 0.000816 0.005907 0.001894 0.000000 0.037517 0.000000
# 6 0.000000 0.000000 0.000000 -0.027490 0.000000 0.059994
#
#
# Mechanical properties :
#
#
# Convention : Reuss Voigt Hill
#
# Bulk Modulus (GPa) = 52.92728 71.47356 62.20042
# Shear Modulus (GPa) = 18.35309 25.50878 21.93093
#
# Velocity S-wave (km/s) = 3.18857 3.75912 3.48554
# Velocity P-wave (km/s) = 6.54797 7.64429 7.11727
#
# Compressibility (1/GPa) = 0.01889385
#
# Stress axis : x y z
#
# Youngs Moduli (GPa) = 86.63921 47.39493 117.09474
#
# Poissons Ratio (x) = 0.18458 0.32713
# Poissons Ratio (y) = 0.33742 0.52173
# Poissons Ratio (z) = 0.24205 0.21117
#
# Static dielectric constant tensor:
#      x y z
#    x 3.549770 0.000000 -0.375490 
#    y 0.000000 3.281730 0.000000 
#    z -0.375490 0.000000 4.017740 
# 
# 
# High freq. dielectric constant tensor:
#      x y z
#    x 1.697000 0.000000 -0.008140 
#    y 0.000000 1.659260 0.000000 
#    z -0.008140 0.000000 1.725800 
# 
# From -- ./inp_files/196060.got.cif
#   From: 2010.06.25/outbox.cif.g09.slc.cpg/sg12_99_cif.got.tgz:196060.got - 2010.06.28 00:19:55.
