data_PCOD8113798
_publ_section_title
;
Structure prediction by ZEFSAII (Michael W. Deem and Ramdas Pophale) SiO2 
 PCOD8113798
Probable space group: C 2/M
;
_chemical_formula_sum "Si O2"
_cell_formula_units_Z 32
_cell_length_a 20.248809
_cell_length_b 8.804503
_cell_length_c 12.402072
_cell_angle_alpha 90.000000
_cell_angle_beta 125.872805
_cell_angle_gamma 90.000000
_cell_volume 1791.657799
_symmetry_space_group_name_H-M "C 2/M"
_symmetry_group_IT_number 12
_symmetry_cell_setting 'monoclinic'
loop_
_space_group_symop_operation_xyz
x,y,z
-x,y,-z
-x,-y,-z
x,-y,z
1/2+x,1/2+y,z
1/2-x,1/2+y,-z
1/2-x,1/2-y,-z
1/2+x,1/2-y,z
loop_
_atom_site_type_symbol
_atom_site_label
_atom_site_fract_x
_atom_site_fract_y
_atom_site_fract_z
Si Si1 0.275559 0.320515 0.637553
Si Si2 0.541674 0.680807 0.146849
Si Si3 0.488063 0.679751 0.322483
Si Si4 0.631546 0.320183 0.614256
O O1 0.273102 0.500000 0.623163
O O2 0.250000 0.250000 0.500000
O O3 0.365386 0.263362 0.756010
O O4 0.216086 0.266323 0.676271
O O5 0.538500 0.500000 0.140000
O O6 0.491275 0.741320 0.203062
O O7 0.500000 0.750326 0.000000
O O8 0.492016 0.500000 0.328162
O O9 0.405127 0.730035 0.304205
O O10 0.568074 0.736269 0.462546
O O11 0.646523 0.500000 0.622342
#
# Coordination Sequence:
#
# PCOD8113798 Si02
#       4
#     8   8   8   8
#     4  11  20  31  50  75 100 125 160 204 244 283
#     4   9  17  30  49  72  96 126 166 202 233 281
#     4   8  14  27  48  71  95 127 163 196 232 282
#     4   9  16  29  50  73  97 124 162 202 236 280
#
# _framework density 17.860552999999999
#
# number of rings (size 3 to 8) (size 9 to 14) (size 15 to 20)
#    0.000    2.750    2.500    2.250    0.000    0.000 
#    0.000    3.750    0.000    3.000    0.000    0.000 
#    0.000    0.000    0.000    0.000    0.000    0.000 
#
# Total GULP energy -198299.448948 kJ/mol
# GULP energy per Si atom -12393.715559 kJ/mol
# Density = 1.781990 g / cm^3
# Si number density = 17.860553 Si / 1000 Ang^3
#
#
#
# Elastic Constant Matrix: (Units=GPa)
#
#
# Indices 1 2 3 4 5 6 
#
# 1 182.2008 24.9408 87.1796 0.0000 -12.9129 0.0000
# 2 24.9408 29.6450 19.5455 0.0000 3.7136 0.0000
# 3 87.1796 19.5455 132.9973 0.0000 -10.8311 0.0000
# 4 0.0000 0.0000 0.0000 12.1081 0.0000 2.5189
# 5 -12.9129 3.7136 -10.8311 0.0000 30.1178 0.0000
# 6 0.0000 0.0000 0.0000 2.5189 0.0000 28.9554
#
#
#
# Elastic Compliance Matrix: (Units=1/GPa)
#
#
# Indices 1 2 3 4 5 6 
#
# 1 0.008535 -0.004360 -0.004751 0.000000 0.002488 0.000000
# 2 -0.004360 0.040972 -0.003840 0.000000 -0.008302 0.000000
# 3 -0.004751 -0.003840 0.011404 0.000000 0.002538 0.000000
# 4 0.000000 0.000000 0.000000 0.084112 0.000000 -0.007317
# 5 0.002488 -0.008302 0.002538 0.000000 0.036206 0.000000
# 6 0.000000 0.000000 0.000000 -0.007317 0.000000 0.035172
#
#
# Mechanical properties :
#
#
# Convention : Reuss Voigt Hill
#
# Bulk Modulus (GPa) = 28.56327 67.57497 48.06912
# Shear Modulus (GPa) = 19.68715 28.44805 24.06760
#
# Velocity S-wave (km/s) = 3.32365 3.99530 3.67485
# Velocity P-wave (km/s) = 5.54580 7.69416 6.70657
#
# Compressibility (1/GPa) = 0.03500999
#
# Stress axis : x y z
#
# Youngs Moduli (GPa) = 117.16461 24.40698 87.68561
#
# Poissons Ratio (x) = 0.10641 0.41662
# Poissons Ratio (y) = 0.51080 0.33668
# Poissons Ratio (z) = 0.55669 0.09371
#
# Static dielectric constant tensor:
#      x y z
#    x 3.823110 0.000000 -0.234800 
#    y 0.000000 2.837270 0.000000 
#    z -0.234800 0.000000 3.401560 
# 
# 
# High freq. dielectric constant tensor:
#      x y z
#    x 1.713840 0.000000 -0.009850 
#    y 0.000000 1.642520 0.000000 
#    z -0.009850 0.000000 1.664580 
# 
# From -- ./inp_files/151161.got.cif
#   From: 2010.06.25/outbox.cif.g09.slc.cpg/sg12_76_cif.got.tgz:151161.got - 2010.06.28 00:19:55.
