data_PCOD8113863
_publ_section_title
;
Structure prediction by ZEFSAII (Michael W. Deem and Ramdas Pophale) SiO2 
 PCOD8113863
Probable space group: C 2/M
;
_chemical_formula_sum "Si O2"
_cell_formula_units_Z 56
_cell_length_a 14.823323
_cell_length_b 15.411676
_cell_length_c 16.991111
_cell_angle_alpha 90.000000
_cell_angle_beta 53.545282
_cell_angle_gamma 90.000000
_cell_volume 3122.120854
_symmetry_space_group_name_H-M "C 2/M"
_symmetry_group_IT_number 12
_symmetry_cell_setting 'monoclinic'
loop_
_space_group_symop_operation_xyz
x,y,z
-x,y,-z
-x,-y,-z
x,-y,z
1/2+x,1/2+y,z
1/2-x,1/2+y,-z
1/2-x,1/2-y,-z
1/2+x,1/2-y,z
loop_
_atom_site_type_symbol
_atom_site_label
_atom_site_fract_x
_atom_site_fract_y
_atom_site_fract_z
Si Si1 0.011335 0.900525 0.111928
Si Si2 0.727880 0.767154 0.391117
Si Si3 0.535160 0.334532 0.697412
Si Si4 0.119835 0.309704 0.280543
Si Si5 0.318236 0.602644 0.100567
Si Si6 0.570389 0.096314 0.542499
Si Si7 0.605772 0.597739 0.499026
O O1 0.010268 0.889004 0.205567
O O2 0.899379 0.863311 0.128899
O O3 0.010077 0.000000 0.089615
O O4 0.125659 0.865656 0.011128
O O5 0.861261 0.775242 0.328156
O O6 0.686464 0.792228 0.326321
O O7 0.670259 0.833321 0.483764
O O8 0.700249 0.668155 0.428834
O O9 0.429063 0.279983 0.724679
O O10 0.571899 0.398023 0.608188
O O11 0.200262 0.349023 0.172394
O O12 0.015972 0.375713 0.345031
O O13 0.294704 0.500000 0.116825
O O14 0.500000 0.093822 0.500000
O O15 0.620172 0.000000 0.534833
O O16 0.500000 0.621621 0.500000
O O17 0.648998 0.500000 0.458714
#
# Coordination Sequence:
#
# PCOD8113863 Si02
#       7
#     8   8   8   8   8   8   8
#     4   9  19  35  57  85 109 137 181 225 279 339
#     4  11  21  39  52  77 113 148 186 232 269 319
#     4  12  22  35  57  82 109 145 189 227 271 326
#     4  11  20  34  55  78 115 142 184 224 272 331
#     4   9  18  36  58  81 112 141 171 227 288 334
#     4   9  18  31  50  75 108 143 176 217 274 332
#     4  11  22  38  55  75 110 153 191 227 268 314
#
# _framework density 17.936526000000001
#
# number of rings (size 3 to 8) (size 9 to 14) (size 15 to 20)
#    0.000    1.714    4.286    2.571    0.000    2.286 
#    0.000    0.714    0.000    0.000    0.000    0.000 
#    0.000    3.429    0.000    0.000    0.000    0.000 
#
# Total GULP energy -347089.444921 kJ/mol
# GULP energy per Si atom -12396.051604 kJ/mol
# Density = 1.789570 g / cm^3
# Si number density = 17.936526 Si / 1000 Ang^3
#
#
#
# Elastic Constant Matrix: (Units=GPa)
#
#
# Indices 1 2 3 4 5 6 
#
# 1 58.7442 6.5736 24.4172 0.0000 -1.1211 0.0000
# 2 6.5736 76.2121 18.4388 0.0000 -8.8395 0.0000
# 3 24.4172 18.4388 102.3652 0.0000 -4.1433 0.0000
# 4 0.0000 0.0000 0.0000 22.8916 0.0000 5.5916
# 5 -1.1211 -8.8395 -4.1433 0.0000 30.7695 0.0000
# 6 0.0000 0.0000 0.0000 5.5916 0.0000 2.3801
#
#
#
# Elastic Compliance Matrix: (Units=1/GPa)
#
#
# Indices 1 2 3 4 5 6 
#
# 1 0.018920 -0.000572 -0.004413 0.000000 -0.000069 0.000000
# 2 -0.000572 0.014152 -0.002261 0.000000 0.003740 0.000000
# 3 -0.004413 -0.002261 0.011257 0.000000 0.000706 0.000000
# 4 0.000000 0.000000 0.000000 0.102511 0.000000 -0.240829
# 5 -0.000069 0.003740 0.000706 0.000000 0.033667 0.000000
# 6 0.000000 0.000000 0.000000 -0.240829 0.000000 0.985933
#
#
# Mechanical properties :
#
#
# Convention : Reuss Voigt Hill
#
# Bulk Modulus (GPa) = 33.51616 37.35341 35.43478
# Shear Modulus (GPa) = 4.19859 23.73436 13.96648
#
# Velocity S-wave (km/s) = 1.53163 3.64159 2.79348
# Velocity P-wave (km/s) = 4.67487 6.20903 5.49575
#
# Compressibility (1/GPa) = 0.02983635
#
# Stress axis : x y z
#
# Youngs Moduli (GPa) = 52.85460 70.66382 88.83079
#
# Poissons Ratio (x) = 0.04044 0.39198
# Poissons Ratio (y) = 0.03025 0.20086
# Poissons Ratio (z) = 0.23323 0.15978
#
# Static dielectric constant tensor:
#      x y z
#    x 3.252670 0.000000 0.008390 
#    y 0.000000 3.225010 0.000000 
#    z 0.008390 0.000000 3.363250 
# 
# 
# High freq. dielectric constant tensor:
#      x y z
#    x 1.685500 0.000000 -0.001620 
#    y 0.000000 1.681610 0.000000 
#    z -0.001620 0.000000 1.690230 
# 
# From -- ./inp_files/270204.got.cif
#   From: 2010.06.25/outbox.cif.g09.slc.cpg/sg12_136_cif.got.tgz:270204.got - 2010.06.28 00:19:55.
