data_PCOD8113902
_publ_section_title
;
Structure prediction by ZEFSAII (Michael W. Deem and Ramdas Pophale) SiO2 
 PCOD8113902
Probable space group: C 2/M
;
_chemical_formula_sum "Si O2"
_cell_formula_units_Z 64
_cell_length_a 25.261985
_cell_length_b 19.820955
_cell_length_c 9.816930
_cell_angle_alpha 90.000000
_cell_angle_beta 42.411175
_cell_angle_gamma 90.000000
_cell_volume 3315.241619
_symmetry_space_group_name_H-M "C 2/M"
_symmetry_group_IT_number 12
_symmetry_cell_setting 'monoclinic'
loop_
_space_group_symop_operation_xyz
x,y,z
-x,y,-z
-x,-y,-z
x,-y,z
1/2+x,1/2+y,z
1/2-x,1/2+y,-z
1/2-x,1/2-y,-z
1/2+x,1/2-y,z
loop_
_atom_site_type_symbol
_atom_site_label
_atom_site_fract_x
_atom_site_fract_y
_atom_site_fract_z
Si Si1 0.687089 0.809246 0.907743
Si Si2 0.704492 0.423065 0.849322
Si Si3 0.049083 0.867580 0.030848
Si Si4 0.087368 0.722330 0.349979
Si Si5 0.587747 0.219800 0.854760
Si Si6 0.214635 0.076158 0.146420
Si Si7 0.188019 0.304692 0.399382
Si Si8 0.056179 0.129926 0.508115
O O1 0.635110 0.825697 0.873085
O O2 0.720591 0.878416 0.903498
O O3 0.755515 0.757390 0.741769
O O4 0.630072 0.775269 0.124880
O O5 0.732843 0.500000 0.775526
O O6 0.763744 0.372728 0.658592
O O7 0.618440 0.416429 0.946942
O O8 0.702038 0.402546 0.012998
O O9 0.987762 0.857766 0.268197
O O10 0.084621 0.796040 0.916787
O O11 0.000000 0.900782 0.000000
O O12 0.133979 0.677850 0.371636
O O13 0.087439 0.798624 0.398932
O O14 0.000000 0.692270 0.500000
O O15 0.634067 0.217931 0.625964
O O16 0.500000 0.190837 0.000000
O O17 0.131563 0.082075 0.382961
O O18 0.245266 0.000000 0.099410
O O19 0.000000 0.097215 0.500000
#
# Coordination Sequence:
#
# PCOD8113902 Si02
#       8
#     8   8   8   8   8   8   8   8
#     4  12  22  38  64  93 120 162 211 262 309 363
#     4  11  24  42  62  91 130 170 208 258 315 368
#     4  11  23  38  60  93 133 168 204 248 305 383
#     4  11  21  34  61  93 121 153 209 262 311 366
#     4  11  24  40  62  93 131 159 198 262 323 368
#     4  11  24  40  62  93 127 167 211 264 313 364
#     4  12  22  39  65  92 124 166 208 259 315 364
#     4  11  20  35  60  90 125 166 205 247 306 382
#
# _framework density 19.304776
#
# number of rings (size 3 to 8) (size 9 to 14) (size 15 to 20)
#    0.000    0.750    5.000    5.250    0.000    1.000 
#    0.000    1.875    0.000    4.500    0.000    0.000 
#    0.000    0.000    0.000    0.000    0.000    0.000 
#
# Total GULP energy -396890.744623 kJ/mol
# GULP energy per Si atom -12402.835769 kJ/mol
# Density = 1.926084 g / cm^3
# Si number density = 19.304776 Si / 1000 Ang^3
#
#
#
# Elastic Constant Matrix: (Units=GPa)
#
#
# Indices 1 2 3 4 5 6 
#
# 1 156.5709 36.4589 41.4381 0.0000 -6.0459 0.0000
# 2 36.4589 78.6035 28.5046 0.0000 -9.3342 0.0000
# 3 41.4381 28.5046 154.7390 0.0000 -4.0343 0.0000
# 4 0.0000 0.0000 0.0000 18.0752 0.0000 0.8600
# 5 -6.0459 -9.3342 -4.0343 0.0000 28.5558 0.0000
# 6 0.0000 0.0000 0.0000 0.8600 0.0000 24.2525
#
#
#
# Elastic Compliance Matrix: (Units=1/GPa)
#
#
# Indices 1 2 3 4 5 6 
#
# 1 0.007460 -0.002881 -0.001456 0.000000 0.000432 0.000000
# 2 -0.002881 0.015245 -0.001930 0.000000 0.004101 0.000000
# 3 -0.001456 -0.001930 0.007210 0.000000 0.000080 0.000000
# 4 0.000000 0.000000 0.000000 0.055418 0.000000 -0.001965
# 5 0.000432 0.004101 0.000080 0.000000 0.036462 0.000000
# 6 0.000000 0.000000 0.000000 -0.001965 0.000000 0.041303
#
#
# Mechanical properties :
#
#
# Convention : Reuss Voigt Hill
#
# Bulk Modulus (GPa) = 57.53160 66.96849 62.25005
# Shear Modulus (GPa) = 27.55971 33.07750 30.31861
#
# Velocity S-wave (km/s) = 3.78247 4.14386 3.96728
# Velocity P-wave (km/s) = 6.99590 7.59347 7.30080
#
# Compressibility (1/GPa) = 0.01738175
#
# Stress axis : x y z
#
# Youngs Moduli (GPa) = 134.05435 65.59473 138.69800
#
# Poissons Ratio (x) = 0.18897 0.20190
# Poissons Ratio (y) = 0.38619 0.26768
# Poissons Ratio (z) = 0.19514 0.12659
#
# Static dielectric constant tensor:
#      x y z
#    x 4.042440 0.000000 -0.029430 
#    y 0.000000 3.169470 0.000000 
#    z -0.029430 0.000000 3.632280 
# 
# 
# High freq. dielectric constant tensor:
#      x y z
#    x 1.768770 0.000000 -0.001110 
#    y 0.000000 1.713820 0.000000 
#    z -0.001110 0.000000 1.760700 
# 
# From -- ./inp_files/99083.got.cif
#   From: 2010.06.25/outbox.cif.g09.slc.cpg/sg12_50_cif.got.tgz:99083.got - 2010.06.28 00:19:55.
