data_PCOD8113075
_publ_section_title
;
Structure prediction by ZEFSAII (Michael W. Deem and Ramdas Pophale) SiO2 
 PCOD8113075
Probable space group: C 2/M
;
_chemical_formula_sum "Si O2"
_cell_formula_units_Z 56
_cell_length_a 13.055722
_cell_length_b 29.032602
_cell_length_c 9.861453
_cell_angle_alpha 90.000000
_cell_angle_beta 48.871272
_cell_angle_gamma 90.000000
_cell_volume 2815.512765
_symmetry_space_group_name_H-M "C 2/M"
_symmetry_group_IT_number 12
_symmetry_cell_setting 'monoclinic'
loop_
_space_group_symop_operation_xyz
x,y,z
-x,y,-z
-x,-y,-z
x,-y,z
1/2+x,1/2+y,z
1/2-x,1/2+y,-z
1/2-x,1/2-y,-z
1/2+x,1/2-y,z
loop_
_atom_site_type_symbol
_atom_site_label
_atom_site_fract_x
_atom_site_fract_y
_atom_site_fract_z
Si Si1 0.872639 0.950708 0.512327
Si Si2 0.339047 0.359377 0.654638
Si Si3 0.561367 0.240551 0.091142
Si Si4 0.126114 0.947099 0.798422
Si Si5 0.188707 0.700314 0.572490
Si Si6 0.714000 0.323359 0.023895
Si Si7 0.662111 0.132535 0.350358
O O1 0.783114 0.907570 0.639722
O O2 0.921810 0.942890 0.315452
O O3 0.000000 0.952504 0.500000
O O4 0.793334 0.000000 0.591206
O O5 0.500000 0.351960 0.500000
O O6 0.256184 0.319999 0.649528
O O7 0.312070 0.361843 0.839369
O O8 0.470833 0.211379 0.275734
O O9 0.706718 0.216932 0.967431
O O10 0.500000 0.232796 0.000000
O O11 0.574773 0.296100 0.104475
O O12 0.260146 0.916166 0.704603
O O13 0.162557 0.000000 0.804855
O O14 0.000000 0.929216 0.000000
O O15 0.250000 0.750000 0.500000
O O16 0.212190 0.666821 0.424818
O O17 0.794898 0.345065 0.828939
O O18 0.500000 0.123697 0.500000
#
# Coordination Sequence:
#
# PCOD8113075 Si02
#       7
#     8   8   8   8   8   8   8
#     4   9  19  38  63  93 125 156 208 269 324 382
#     4  11  23  39  61  95 120 163 212 267 327 379
#     4  11  22  42  60  85 119 172 216 261 315 369
#     4  10  23  43  70 100 132 172 219 271 331 394
#     4  12  24  39  62  87 126 171 213 263 322 382
#     4  11  25  40  62  88 125 163 220 265 307 391
#     4  12  26  43  65  99 134 175 218 269 330 393
#
# _framework density 19.889806
#
# number of rings (size 3 to 8) (size 9 to 14) (size 15 to 20)
#    0.000    1.143    4.286    1.714    6.000    2.571 
#    0.000    0.000    0.000    0.000    0.000    3.000 
#    0.000    0.000    0.000    0.000    0.000    0.000 
#
# Total GULP energy -346954.355598 kJ/mol
# GULP energy per Si atom -12391.226986 kJ/mol
# Density = 1.984454 g / cm^3
# Si number density = 19.889806 Si / 1000 Ang^3
#
#
#
# Elastic Constant Matrix: (Units=GPa)
#
#
# Indices 1 2 3 4 5 6 
#
# 1 84.2870 39.4466 46.0346 0.0000 2.9873 0.0000
# 2 39.4466 128.0703 57.4621 0.0000 -1.6815 0.0000
# 3 46.0346 57.4621 139.6013 0.0000 14.2675 0.0000
# 4 0.0000 0.0000 0.0000 32.7291 0.0000 1.5310
# 5 2.9873 -1.6815 14.2675 0.0000 34.6315 0.0000
# 6 0.0000 0.0000 0.0000 1.5310 0.0000 31.7110
#
#
#
# Elastic Compliance Matrix: (Units=1/GPa)
#
#
# Indices 1 2 3 4 5 6 
#
# 1 0.015365 -0.003008 -0.003840 0.000000 0.000110 0.000000
# 2 -0.003008 0.010326 -0.003483 0.000000 0.002196 0.000000
# 3 -0.003840 -0.003483 0.010279 0.000000 -0.004073 0.000000
# 4 0.000000 0.000000 0.000000 0.030623 0.000000 -0.001479
# 5 0.000110 0.002196 -0.004073 0.000000 0.030650 0.000000
# 6 0.000000 0.000000 0.000000 -0.001479 0.000000 0.031606
#
#
# Mechanical properties :
#
#
# Convention : Reuss Voigt Hill
#
# Bulk Modulus (GPa) = 65.32145 70.87167 68.09656
# Shear Modulus (GPa) = 32.33823 33.74869 33.04346
#
# Velocity S-wave (km/s) = 4.03658 4.12367 4.08036
# Velocity P-wave (km/s) = 7.39177 7.64084 7.51734
#
# Compressibility (1/GPa) = 0.01530891
#
# Stress axis : x y z
#
# Youngs Moduli (GPa) = 65.08118 96.83998 97.28268
#
# Poissons Ratio (x) = 0.29133 0.37355
# Poissons Ratio (y) = 0.19579 0.33882
# Poissons Ratio (z) = 0.24990 0.33728
#
# Static dielectric constant tensor:
#      x y z
#    x 3.502310 0.000000 0.283320 
#    y 0.000000 3.959460 0.000000 
#    z 0.283320 0.000000 3.559130 
# 
# 
# High freq. dielectric constant tensor:
#      x y z
#    x 1.772520 0.000000 0.021810 
#    y 0.000000 1.785020 0.000000 
#    z 0.021810 0.000000 1.774650 
# 
# From -- ./inp_files/54575.got.cif
#   From: 2010.06.25/outbox.cif.g09.slc.cpg/sg12_28_cif.got.tgz:54575.got - 2010.06.28 00:19:55.
