data_PCOD8113412
_publ_section_title
;
Structure prediction by ZEFSAII (Michael W. Deem and Ramdas Pophale) SiO2 
 PCOD8113412
Probable space group: C 2/M
;
_chemical_formula_sum "Si O2"
_cell_formula_units_Z 64
_cell_length_a 30.569880
_cell_length_b 8.567015
_cell_length_c 14.307703
_cell_angle_alpha 90.000000
_cell_angle_beta 126.078906
_cell_angle_gamma 90.000000
_cell_volume 3028.416820
_symmetry_space_group_name_H-M "C 2/M"
_symmetry_group_IT_number 12
_symmetry_cell_setting 'monoclinic'
loop_
_space_group_symop_operation_xyz
x,y,z
-x,y,-z
-x,-y,-z
x,-y,z
1/2+x,1/2+y,z
1/2-x,1/2+y,-z
1/2-x,1/2-y,-z
1/2+x,1/2-y,z
loop_
_atom_site_type_symbol
_atom_site_label
_atom_site_fract_x
_atom_site_fract_y
_atom_site_fract_z
Si Si1 0.992740 0.184509 0.595857
Si Si2 0.051369 0.684342 0.119195
Si Si3 0.800578 0.678324 0.116139
Si Si4 0.750287 0.675915 0.248011
Si Si5 0.403632 0.317180 0.158003
Si Si6 0.707104 0.681104 0.517405
Si Si7 0.863067 0.681369 0.923452
Si Si8 0.911577 0.315632 0.635471
O O1 0.938037 0.246917 0.574949
O O2 0.000000 0.252375 0.500000
O O3 0.043242 0.240717 0.721095
O O4 0.988698 0.000000 0.586004
O O5 0.043475 0.500000 0.112515
O O6 0.105974 0.727320 0.132360
O O7 0.057386 0.748929 0.232574
O O8 0.000000 0.759733 0.000000
O O9 0.808746 0.500000 0.092764
O O10 0.792338 0.687060 0.216402
O O11 0.852769 0.780433 0.159311
O O12 0.750000 0.750000 0.000000
O O13 0.749518 0.500000 0.287602
O O14 0.768957 0.797307 0.349277
O O15 0.690883 0.717474 0.135784
O O16 0.405459 0.500000 0.138245
O O17 0.401478 0.221411 0.059095
O O18 0.698038 0.500000 0.485679
O O19 0.750000 0.750000 0.500000
O O20 0.650749 0.769443 0.436356
O O21 0.847906 0.500000 0.905952
O O22 0.915283 0.500000 0.635730
#
# Coordination Sequence:
#
# PCOD8113412 Si02
#       8
#     8   8   8   8   8   8   8   8
#     4  10  24  45  65  90 125 171 221 269 328 390
#     4   9  19  36  60  90 123 157 198 250 310 372
#     4  11  23  39  62  92 128 166 211 262 325 393
#     4  11  24  41  62  92 127 163 210 264 321 387
#     4  11  23  39  61  89 127 168 214 269 323 381
#     4  12  26  45  69  96 132 175 219 268 325 387
#     4  11  21  36  62  92 123 164 207 255 320 386
#     4  11  23  42  68  98 130 166 216 272 326 386
#
# _framework density 21.133153
#
# number of rings (size 3 to 8) (size 9 to 14) (size 15 to 20)
#    0.000    1.250    1.250    4.500    1.750    4.750 
#    0.000    1.875    0.000    4.500    0.000    0.000 
#    0.000    0.000    0.000    0.000    0.000    0.000 
#
# Total GULP energy -396953.515405 kJ/mol
# GULP energy per Si atom -12404.797356 kJ/mol
# Density = 2.108505 g / cm^3
# Si number density = 21.133153 Si / 1000 Ang^3
#
#
#
# Elastic Constant Matrix: (Units=GPa)
#
#
# Indices 1 2 3 4 5 6 
#
# 1 125.7542 13.4739 43.6333 0.0000 -9.7140 0.0000
# 2 13.4739 30.3817 7.8573 0.0000 -7.7629 0.0000
# 3 43.6333 7.8573 112.5109 0.0000 -8.2539 0.0000
# 4 0.0000 0.0000 0.0000 29.9900 0.0000 -2.6059
# 5 -9.7140 -7.7629 -8.2539 0.0000 40.3007 0.0000
# 6 0.0000 0.0000 0.0000 -2.6059 0.0000 30.4677
#
#
#
# Elastic Compliance Matrix: (Units=1/GPa)
#
#
# Indices 1 2 3 4 5 6 
#
# 1 0.009545 -0.003094 -0.003412 0.000000 0.001006 0.000000
# 2 -0.003094 0.036051 -0.000876 0.000000 0.006019 0.000000
# 3 -0.003412 -0.000876 0.010355 0.000000 0.001130 0.000000
# 4 0.000000 0.000000 0.000000 0.033594 0.000000 0.002873
# 5 0.001006 0.006019 0.001130 0.000000 0.026447 0.000000
# 6 0.000000 0.000000 0.000000 0.002873 0.000000 0.033067
#
#
# Mechanical properties :
#
#
# Convention : Reuss Voigt Hill
#
# Bulk Modulus (GPa) = 24.27907 44.28619 34.28263
# Shear Modulus (GPa) = 28.16068 33.73051 30.94560
#
# Velocity S-wave (km/s) = 3.65435 3.99945 3.83079
# Velocity P-wave (km/s) = 5.41473 6.50605 5.98532
#
# Compressibility (1/GPa) = 0.04118774
#
# Stress axis : x y z
#
# Youngs Moduli (GPa) = 104.76674 27.73840 96.56928
#
# Poissons Ratio (x) = 0.08581 0.32948
# Poissons Ratio (y) = 0.32411 0.08463
# Poissons Ratio (z) = 0.35745 0.02431
#
# Static dielectric constant tensor:
#      x y z
#    x 3.807580 0.000000 -0.274360 
#    y 0.000000 3.750890 0.000000 
#    z -0.274360 0.000000 3.815020 
# 
# 
# High freq. dielectric constant tensor:
#      x y z
#    x 1.843050 0.000000 -0.004200 
#    y 0.000000 1.819730 0.000000 
#    z -0.004200 0.000000 1.835800 
# 
# From -- ./inp_files/249976.got.cif
#   From: 2010.06.25/outbox.cif.g09.slc.cpg/sg12_125_cif.got.tgz:249976.got - 2010.06.28 00:19:55.
