data_PCOD8113149
_publ_section_title
;
Structure prediction by ZEFSAII (Michael W. Deem and Ramdas Pophale) SiO2 
 PCOD8113149
Probable space group: C 2/M
;
_chemical_formula_sum "Si O2"
_cell_formula_units_Z 48
_cell_length_a 15.871401
_cell_length_b 15.651515
_cell_length_c 8.480112
_cell_angle_alpha 90.000000
_cell_angle_beta 93.533044
_cell_angle_gamma 90.000000
_cell_volume 2102.553423
_symmetry_space_group_name_H-M "C 2/M"
_symmetry_group_IT_number 12
_symmetry_cell_setting 'monoclinic'
loop_
_space_group_symop_operation_xyz
x,y,z
-x,y,-z
-x,-y,-z
x,-y,z
1/2+x,1/2+y,z
1/2-x,1/2+y,-z
1/2-x,1/2-y,-z
1/2+x,1/2-y,z
loop_
_atom_site_type_symbol
_atom_site_label
_atom_site_fract_x
_atom_site_fract_y
_atom_site_fract_z
Si Si1 0.165125 0.000000 0.144147
Si Si2 0.163623 0.500000 0.634790
Si Si3 0.652993 0.167047 0.422080
Si Si4 0.406447 0.000000 0.056854
Si Si5 0.092335 0.667030 0.084214
Si Si6 0.597323 0.657191 0.962532
Si Si7 0.843011 0.169549 0.380827
Si Si8 0.905553 0.000000 0.544346
O O1 0.252822 0.000000 0.248152
O O2 0.091043 0.000000 0.265758
O O3 0.156551 0.082044 0.032299
O O4 0.155993 0.583367 0.528501
O O5 0.087878 0.500000 0.752946
O O6 0.586509 0.156091 0.272357
O O7 0.742954 0.182532 0.346601
O O8 0.622750 0.248169 0.520524
O O9 0.500000 0.000000 0.000000
O O10 0.359024 0.914813 0.986121
O O11 0.136133 0.756265 0.042458
O O12 0.000000 0.671306 0.000000
O O13 0.605727 0.662192 0.775153
O O14 0.500000 0.641457 0.000000
O O15 0.856429 0.083716 0.481816
O O16 0.000000 0.000000 0.500000
#
# Coordination Sequence:
#
# PCOD8113149 Si02
#       8
#     4   4   8   4   8   8   8   4
#     4  12  24  40  67 103 138 184 236 275 351 413
#     4  12  25  44  69 102 135 183 233 292 348 411
#     4  11  24  44  68 100 144 178 237 291 343 424
#     4  10  23  45  66  97 130 170 228 280 348 410
#     4  10  23  44  70  99 132 177 228 282 351 411
#     4  11  24  43  65 101 141 181 231 284 344 418
#     4  11  24  42  67 102 140 190 230 284 357 407
#     4  12  23  43  69 102 146 187 235 288 349 424
#
# _framework density 22.829384999999998
#
# number of rings (size 3 to 8) (size 9 to 14) (size 15 to 20)
#    0.000    1.000    1.667    4.250    4.667    2.000 
#    0.000   13.333    0.000    0.000    0.000    0.000 
#    0.000    0.000    0.000    0.000    0.000    0.000 
#
# Total GULP energy -297606.933810 kJ/mol
# GULP energy per Si atom -12400.288909 kJ/mol
# Density = 2.277742 g / cm^3
# Si number density = 22.829385 Si / 1000 Ang^3
#
#
#
# Elastic Constant Matrix: (Units=GPa)
#
#
# Indices 1 2 3 4 5 6 
#
# 1 73.7294 14.0052 43.9210 0.0000 -1.8300 0.0000
# 2 14.0052 232.3847 80.1068 0.0000 18.4282 0.0000
# 3 43.9210 80.1068 191.8790 0.0000 2.2441 0.0000
# 4 0.0000 0.0000 0.0000 52.6390 0.0000 1.2209
# 5 -1.8300 18.4282 2.2441 0.0000 44.8910 0.0000
# 6 0.0000 0.0000 0.0000 1.2209 0.0000 15.7783
#
#
#
# Elastic Compliance Matrix: (Units=1/GPa)
#
#
# Indices 1 2 3 4 5 6 
#
# 1 0.015750 0.000280 -0.003730 0.000000 0.000714 0.000000
# 2 0.000280 0.005210 -0.002216 0.000000 -0.002017 0.000000
# 3 -0.003730 -0.002216 0.006986 0.000000 0.000408 0.000000
# 4 0.000000 0.000000 0.000000 0.019031 0.000000 -0.001473
# 5 0.000714 -0.002017 0.000408 0.000000 0.023113 0.000000
# 6 0.000000 0.000000 0.000000 -0.001473 0.000000 0.063492
#
#
# Mechanical properties :
#
#
# Convention : Reuss Voigt Hill
#
# Bulk Modulus (GPa) = 60.19112 86.00656 73.09884
# Shear Modulus (GPa) = 33.23330 46.65902 39.94616
#
# Velocity S-wave (km/s) = 3.81954 4.52576 4.18756
# Velocity P-wave (km/s) = 6.77308 8.06631 7.44782
#
# Compressibility (1/GPa) = 0.01661375
#
# Stress axis : x y z
#
# Youngs Moduli (GPa) = 63.49267 191.93816 143.14879
#
# Poissons Ratio (x) = -0.05377 0.53401
# Poissons Ratio (y) = -0.01779 0.31717
# Poissons Ratio (z) = 0.23686 0.42527
#
# Static dielectric constant tensor:
#      x y z
#    x 3.916770 0.000000 -0.000920 
#    y 0.000000 7.998350 0.000000 
#    z -0.000920 0.000000 4.544370 
# 
# 
# High freq. dielectric constant tensor:
#      x y z
#    x 1.879660 0.000000 -0.004120 
#    y 0.000000 1.931180 0.000000 
#    z -0.004120 0.000000 1.913800 
# 
# From -- ./inp_files/73684.got.cif
#   From: 2010.06.25/outbox.cif.g09.slc.cpg/sg12_37_cif.got.tgz:73684.got - 2010.06.28 00:19:55.
