data_PCOD8113773
_publ_section_title
;
Structure prediction by ZEFSAII (Michael W. Deem and Ramdas Pophale) SiO2 
 PCOD8113773
Probable space group: C 2/M
;
_chemical_formula_sum "Si O2"
_cell_formula_units_Z 56
_cell_length_a 26.052465
_cell_length_b 8.637741
_cell_length_c 19.606275
_cell_angle_alpha 90.000000
_cell_angle_beta 47.665446
_cell_angle_gamma 90.000000
_cell_volume 3261.525522
_symmetry_space_group_name_H-M "C 2/M"
_symmetry_group_IT_number 12
_symmetry_cell_setting 'monoclinic'
loop_
_space_group_symop_operation_xyz
x,y,z
-x,y,-z
-x,-y,-z
x,-y,z
1/2+x,1/2+y,z
1/2-x,1/2+y,-z
1/2-x,1/2-y,-z
1/2+x,1/2-y,z
loop_
_atom_site_type_symbol
_atom_site_label
_atom_site_fract_x
_atom_site_fract_y
_atom_site_fract_z
Si Si1 0.302598 0.816946 0.898294
Si Si2 0.500972 0.184325 0.106515
Si Si3 0.508452 0.816725 0.597618
Si Si4 0.112180 0.316686 0.394262
Si Si5 0.041681 0.315429 0.215827
Si Si6 0.890755 0.683783 0.100639
Si Si7 0.262660 0.317374 0.788979
O O1 0.379421 0.756296 0.848073
O O2 0.283655 0.763869 0.839876
O O3 0.299417 0.000000 0.904260
O O4 0.250000 0.750000 0.000000
O O5 0.507780 0.252379 0.176895
O O6 0.429289 0.241932 0.135377
O O7 0.502422 0.000000 0.107838
O O8 0.566368 0.243625 0.003446
O O9 0.580002 0.765665 0.496495
O O10 0.441340 0.759306 0.615856
O O11 0.503593 0.752937 0.679330
O O12 0.505310 0.000000 0.599546
O O13 0.125090 0.500000 0.378891
O O14 0.184241 0.227701 0.318667
O O15 0.040922 0.500000 0.215704
O O16 0.890555 0.500000 0.100527
O O17 0.812513 0.746985 0.167145
O O18 0.261190 0.500000 0.801912
#
# Coordination Sequence:
#
# PCOD8113773 Si02
#       7
#     8   8   8   8   8   8   8
#     4  11  21  32  46  68  98 125 151 183 228 278
#     4   8  13  24  42  63  87 114 150 193 230 260
#     4   8  14  26  45  66  88 115 152 194 231 268
#     4   9  16  29  47  65  89 120 152 190 231 273
#     4   9  15  25  45  69  88 112 150 195 232 266
#     4   8  15  26  40  62  91 120 149 187 229 266
#     4  11  20  30  45  68  97 124 151 184 227 278
#
# _framework density 17.169879000000002
#
# number of rings (size 3 to 8) (size 9 to 14) (size 15 to 20)
#    0.000    2.857    1.429    3.429    0.000    2.286 
#    0.000    1.429    0.000    0.857    0.000   21.000 
#    0.000    0.000    0.000    0.000    0.000    0.143 
#
# Total GULP energy -346998.470992 kJ/mol
# GULP energy per Si atom -12392.802535 kJ/mol
# Density = 1.713080 g / cm^3
# Si number density = 17.169879 Si / 1000 Ang^3
#
#
#
# Elastic Constant Matrix: (Units=GPa)
#
#
# Indices 1 2 3 4 5 6 
#
# 1 132.1791 13.0020 82.6013 -0.0046 9.2928 0.0093
# 2 13.0020 21.9306 13.3829 0.0085 -1.7661 -0.0110
# 3 82.6013 13.3829 154.8255 -0.0047 9.4787 0.0071
# 4 -0.0046 0.0085 -0.0047 22.3722 0.0041 -3.7936
# 5 9.2928 -1.7661 9.4787 0.0041 28.3712 -0.0053
# 6 0.0093 -0.0110 0.0071 -3.7936 -0.0053 14.0662
#
#
#
# Elastic Compliance Matrix: (Units=1/GPa)
#
#
# Indices 1 2 3 4 5 6 
#
# 1 0.011688 -0.003561 -0.005798 0.000002 -0.002113 -0.000008
# 2 -0.003561 0.049787 -0.002720 -0.000014 0.005174 0.000041
# 3 -0.005798 -0.002720 0.009884 0.000002 -0.001572 -0.000003
# 4 0.000002 -0.000014 0.000002 0.046840 -0.000006 0.012633
# 5 -0.002113 0.005174 -0.001572 -0.000006 0.036786 0.000018
# 6 -0.000008 0.000041 -0.000003 0.012633 0.000018 0.074499
#
#
# Mechanical properties :
#
#
# Convention : Reuss Voigt Hill
#
# Bulk Modulus (GPa) = 21.18717 58.54529 39.86623
# Shear Modulus (GPa) = 18.56133 26.29185 22.42659
#
# Velocity S-wave (km/s) = 3.29148 3.91740 3.61800
# Velocity P-wave (km/s) = 5.17800 7.39142 6.38141
#
# Compressibility (1/GPa) = 0.04719838
#
# Stress axis : x y z
#
# Youngs Moduli (GPa) = 85.55856 20.08575 101.17514
#
# Poissons Ratio (x) = 0.07153 0.58666
# Poissons Ratio (y) = 0.30468 0.27524
# Poissons Ratio (z) = 0.49611 0.05464
#
# Static dielectric constant tensor:
#      x y z
#    x 3.436270 -0.000030 0.057180 
#    y -0.000030 2.743310 0.000020 
#    z 0.057180 0.000020 3.619620 
# 
# 
# High freq. dielectric constant tensor:
#      x y z
#    x 1.649450 0.000000 0.000950 
#    y 0.000000 1.614550 0.000000 
#    z 0.000950 0.000000 1.670660 
# 
# From -- ./inp_files/291856.got.cif
#   From: 2010.06.25/outbox.cif.g09.slc.cpg/sg12_146_cif.got.tgz:291856.got - 2010.06.28 00:19:55.
