data_PCOD8113230
_publ_section_title
;
Structure prediction by ZEFSAII (Michael W. Deem and Ramdas Pophale) SiO2 
 PCOD8113230
Probable space group: C 2/M
;
_chemical_formula_sum "Si O2"
_cell_formula_units_Z 28
_cell_length_a 9.137360
_cell_length_b 14.764674
_cell_length_c 15.810953
_cell_angle_alpha 90.000000
_cell_angle_beta 141.769596
_cell_angle_gamma 90.000000
_cell_volume 1319.990249
_symmetry_space_group_name_H-M "C 2/M"
_symmetry_group_IT_number 12
_symmetry_cell_setting 'monoclinic'
loop_
_space_group_symop_operation_xyz
x,y,z
-x,y,-z
-x,-y,-z
x,-y,z
1/2+x,1/2+y,z
1/2-x,1/2+y,-z
1/2-x,1/2-y,-z
1/2+x,1/2-y,z
loop_
_atom_site_type_symbol
_atom_site_label
_atom_site_fract_x
_atom_site_fract_y
_atom_site_fract_z
Si Si1 0.503437 0.178082 0.323407
Si Si2 0.500000 0.265008 0.500000
Si Si3 0.789085 0.500000 0.968359
Si Si4 0.220486 0.500000 0.851542
Si Si5 0.262752 0.309062 0.088911
O O1 0.455127 0.199200 0.399693
O O2 0.780433 0.169014 0.424336
O O3 0.416240 0.264309 0.231035
O O4 0.357373 0.088405 0.235383
O O5 0.630091 0.409070 0.883758
O O6 0.907037 0.500000 0.115406
O O7 0.000000 0.500000 0.000000
O O8 0.500000 0.500000 0.000000
O O9 0.250000 0.250000 0.000000
O O10 0.000000 0.324645 0.000000
#
# Coordination Sequence:
#
# PCOD8113230 Si02
#       5
#     8   4   4   4   8
#     4  11  24  45  67  95 136 172 231 265 322 402
#     4  10  26  46  66  90 126 202 220 258 316 382
#     4  10  24  38  59 105 127 169 206 252 369 383
#     4  12  26  42  69 107 131 165 213 290 347 383
#     4  11  21  38  65  96 133 166 206 282 338 385
#
# _framework density 21.212278000000001
#
# number of rings (size 3 to 8) (size 9 to 14) (size 15 to 20)
#    0.000    1.143    2.857    2.571    8.000    1.143 
#    0.000    5.714    0.000    0.000    0.000    0.000 
#    0.000    0.000    0.000    0.000    0.000    0.000 
#
# Total GULP energy -173539.914424 kJ/mol
# GULP energy per Si atom -12395.708173 kJ/mol
# Density = 2.116400 g / cm^3
# Si number density = 21.212278 Si / 1000 Ang^3
#
#
#
# Elastic Constant Matrix: (Units=GPa)
#
#
# Indices 1 2 3 4 5 6 
#
# 1 122.6934 38.5718 49.4598 0.0000 -20.9420 0.0000
# 2 38.5718 202.4064 73.5312 -0.0001 -17.1853 0.0000
# 3 49.4598 73.5312 125.9026 0.0000 -22.3468 0.0000
# 4 0.0000 -0.0001 0.0000 43.8031 0.0000 -4.2615
# 5 -20.9420 -17.1853 -22.3468 0.0000 52.1754 0.0000
# 6 0.0000 0.0000 0.0000 -4.2615 0.0000 18.9630
#
#
#
# Elastic Compliance Matrix: (Units=1/GPa)
#
#
# Indices 1 2 3 4 5 6 
#
# 1 0.010028 -0.000545 -0.003180 0.000000 0.002483 0.000000
# 2 -0.000545 0.006315 -0.003402 0.000000 0.000404 0.000000
# 3 -0.003180 -0.003402 0.011638 0.000000 0.002588 0.000000
# 4 0.000000 0.000000 0.000000 0.023340 0.000000 0.005245
# 5 0.002483 0.000404 0.002588 0.000000 0.021404 0.000000
# 6 0.000000 0.000000 0.000000 0.005245 0.000000 0.053913
#
#
# Mechanical properties :
#
#
# Convention : Reuss Voigt Hill
#
# Bulk Modulus (GPa) = 72.85495 86.01423 79.43459
# Shear Modulus (GPa) = 34.37197 42.28427 38.32812
#
# Velocity S-wave (km/s) = 4.02976 4.46958 4.25536
# Velocity P-wave (km/s) = 7.48814 8.20204 7.85321
#
# Compressibility (1/GPa) = 0.01372590
#
# Stress axis : x y z
#
# Youngs Moduli (GPa) = 99.72524 158.36180 85.92298
#
# Poissons Ratio (x) = 0.08626 0.27327
# Poissons Ratio (y) = 0.05432 0.29233
# Poissons Ratio (z) = 0.31716 0.53879
#
# Static dielectric constant tensor:
#      x y z
#    x 4.247320 0.000000 -0.161770 
#    y 0.000000 4.778360 0.000000 
#    z -0.161770 0.000000 4.067370 
# 
# 
# High freq. dielectric constant tensor:
#      x y z
#    x 1.858190 0.000000 -0.012720 
#    y 0.000000 1.835210 0.000000 
#    z -0.012720 0.000000 1.821170 
# 
# From -- ./inp_files/117338.got.cif
#   From: 2010.06.25/outbox.cif.g09.slc.cpg/sg12_59_cif.got.tgz:117338.got - 2010.06.28 00:19:55.
