data_PCOD8113924
_publ_section_title
;
Structure prediction by ZEFSAII (Michael W. Deem and Ramdas Pophale) SiO2 
 PCOD8113924
Probable space group: C 2/M
;
_chemical_formula_sum "Si O2"
_cell_formula_units_Z 40
_cell_length_a 17.965425
_cell_length_b 17.185056
_cell_length_c 11.182634
_cell_angle_alpha 90.000000
_cell_angle_beta 142.664965
_cell_angle_gamma 90.000000
_cell_volume 2093.848458
_symmetry_space_group_name_H-M "C 2/M"
_symmetry_group_IT_number 12
_symmetry_cell_setting 'monoclinic'
loop_
_space_group_symop_operation_xyz
x,y,z
-x,y,-z
-x,-y,-z
x,-y,z
1/2+x,1/2+y,z
1/2-x,1/2+y,-z
1/2-x,1/2-y,-z
1/2+x,1/2-y,z
loop_
_atom_site_type_symbol
_atom_site_label
_atom_site_fract_x
_atom_site_fract_y
_atom_site_fract_z
Si Si1 0.858942 0.248950 0.814813
Si Si2 0.314132 0.000000 0.858147
Si Si3 0.097198 0.500000 0.287681
Si Si4 0.440313 0.219680 0.302418
Si Si5 0.748735 0.839959 0.107502
Si Si6 0.156060 0.662806 0.436302
O O1 0.816286 0.277319 0.889388
O O2 0.831472 0.319791 0.688703
O O3 0.781171 0.174949 0.670099
O O4 0.000000 0.224061 0.000000
O O5 0.310353 0.000000 0.708660
O O6 0.245310 0.074889 0.826131
O O7 0.456326 0.000000 0.071209
O O8 0.120196 0.573184 0.402831
O O9 0.500000 0.185896 0.500000
O O10 0.385200 0.306969 0.252969
O O11 0.551269 0.221931 0.349493
O O12 0.333013 0.161419 0.118298
#
# Coordination Sequence:
#
# PCOD8113924 Si02
#       6
#     8   4   4   8   8   8
#     4  11  20  37  62  91 115 156 205 254 293 351
#     4  11  20  36  61  92 122 150 199 263 305 340
#     4  11  20  36  61  94 122 147 202 263 302 344
#     4  11  22  38  58  84 124 164 195 241 289 373
#     4  11  22  37  62  88 121 156 202 247 301 354
#     4  11  22  36  63  92 119 154 203 251 300 353
#
# _framework density 19.103580000000001
#
# number of rings (size 3 to 8) (size 9 to 14) (size 15 to 20)
#    0.000    1.000    8.000    0.000    0.000    0.000 
#    0.000    3.000    0.000    1.200    0.000    0.000 
#    0.000    0.000    0.000    0.000    0.000    0.000 
#
# Total GULP energy -247943.135346 kJ/mol
# GULP energy per Si atom -12397.156767 kJ/mol
# Density = 1.906010 g / cm^3
# Si number density = 19.103580 Si / 1000 Ang^3
#
#
#
# Elastic Constant Matrix: (Units=GPa)
#
#
# Indices 1 2 3 4 5 6 
#
# 1 79.7733 55.4237 34.1918 0.0000 5.6069 0.0000
# 2 55.4237 105.3746 39.7073 0.0000 13.6795 0.0000
# 3 34.1918 39.7073 120.3376 0.0000 4.2153 0.0000
# 4 0.0000 0.0000 0.0000 13.8526 0.0000 6.8939
# 5 5.6069 13.6795 4.2153 0.0000 31.8843 0.0000
# 6 0.0000 0.0000 0.0000 6.8939 0.0000 23.4500
#
#
#
# Elastic Compliance Matrix: (Units=1/GPa)
#
#
# Indices 1 2 3 4 5 6 
#
# 1 0.020462 -0.009922 -0.002575 0.000000 0.000999 0.000000
# 2 -0.009922 0.016238 -0.002367 0.000000 -0.004909 0.000000
# 3 -0.002575 -0.002367 0.009817 0.000000 0.000170 0.000000
# 4 0.000000 0.000000 0.000000 0.084560 0.000000 -0.024859
# 5 0.000999 -0.004909 0.000170 0.000000 0.033271 0.000000
# 6 0.000000 0.000000 0.000000 -0.024859 0.000000 0.049952
#
#
# Mechanical properties :
#
#
# Convention : Reuss Voigt Hill
#
# Bulk Modulus (GPa) = 59.56260 62.68123 61.12191
# Shear Modulus (GPa) = 20.03012 25.58155 22.80584
#
# Velocity S-wave (km/s) = 3.24157 3.66334 3.45889
# Velocity P-wave (km/s) = 6.72732 7.12572 6.92938
#
# Compressibility (1/GPa) = 0.01678906
#
# Stress axis : x y z
#
# Youngs Moduli (GPa) = 48.87002 61.58523 101.86803
#
# Poissons Ratio (x) = 0.61104 0.26232
# Poissons Ratio (y) = 0.48488 0.24110
# Poissons Ratio (z) = 0.12585 0.14576
#
# Static dielectric constant tensor:
#      x y z
#    x 3.663850 0.000000 -0.073990 
#    y 0.000000 3.238610 0.000000 
#    z -0.073990 0.000000 3.623710 
# 
# 
# High freq. dielectric constant tensor:
#      x y z
#    x 1.746840 0.000000 -0.007570 
#    y 0.000000 1.705340 0.000000 
#    z -0.007570 0.000000 1.748800 
# 
# From -- ./inp_files/131403.got.cif
#   From: 2010.06.25/outbox.cif.g09.slc.cpg/sg12_66_cif.got.tgz:131403.got - 2010.06.28 00:19:55.
