data_PCOD8113627
_publ_section_title
;
Structure prediction by ZEFSAII (Michael W. Deem and Ramdas Pophale) SiO2 
 PCOD8113627
Probable space group: C 2/M
;
_chemical_formula_sum "Si O2"
_cell_formula_units_Z 40
_cell_length_a 18.315206
_cell_length_b 25.317531
_cell_length_c 9.738544
_cell_angle_alpha 90.000000
_cell_angle_beta 151.445042
_cell_angle_gamma 90.000000
_cell_volume 2158.521847
_symmetry_space_group_name_H-M "C 2/M"
_symmetry_group_IT_number 12
_symmetry_cell_setting 'monoclinic'
loop_
_space_group_symop_operation_xyz
x,y,z
-x,y,-z
-x,-y,-z
x,-y,z
1/2+x,1/2+y,z
1/2-x,1/2+y,-z
1/2-x,1/2-y,-z
1/2+x,1/2-y,z
loop_
_atom_site_type_symbol
_atom_site_label
_atom_site_fract_x
_atom_site_fract_y
_atom_site_fract_z
Si Si1 0.792650 0.298312 0.244415
Si Si2 0.111222 0.295781 0.895689
Si Si3 0.194711 0.000000 0.675118
Si Si4 0.349108 0.500000 0.075368
Si Si5 0.426819 0.092678 0.026641
Si Si6 0.364672 0.910884 0.387566
O O1 0.783479 0.304088 0.063987
O O2 0.770200 0.357456 0.265675
O O3 0.948268 0.278327 0.569321
O O4 0.668564 0.254072 0.082306
O O5 0.120650 0.349173 0.000034
O O6 0.283436 0.053135 0.778341
O O7 0.170465 0.000000 0.795973
O O8 0.027447 0.000000 0.326678
O O9 0.263765 0.449858 0.874549
O O10 0.500000 0.098829 0.000000
O O11 0.551852 0.067799 0.337677
O O12 0.500000 0.899527 0.500000
#
# Coordination Sequence:
#
# PCOD8113627 Si02
#       6
#     8   8   4   4   8   8
#     4   9  16  30  54  78 105 137 185 232 265 323
#     4   9  17  31  51  79 106 140 182 227 275 314
#     4  11  22  37  56  91 114 141 188 242 289 319
#     4  11  22  34  62  88 114 138 189 252 281 313
#     4  11  22  38  58  82 116 155 189 223 277 352
#     4  11  18  37  58  82 111 152 193 222 275 340
#
# _framework density 18.531200999999999
#
# number of rings (size 3 to 8) (size 9 to 14) (size 15 to 20)
#    0.000    1.800    6.000    1.200    0.000    1.600 
#    0.000   10.000    0.000    0.000    0.000    0.000 
#    0.000    0.000    0.000    0.000    0.000    0.000 
#
# Total GULP energy -247800.221082 kJ/mol
# GULP energy per Si atom -12390.011054 kJ/mol
# Density = 1.848902 g / cm^3
# Si number density = 18.531201 Si / 1000 Ang^3
#
#
#
# Elastic Constant Matrix: (Units=GPa)
#
#
# Indices 1 2 3 4 5 6 
#
# 1 69.7114 38.6000 34.1679 0.0000 -2.1142 0.0000
# 2 38.6000 147.5992 83.4041 0.0000 24.0861 0.0000
# 3 34.1679 83.4041 107.8951 0.0000 12.4788 0.0000
# 4 0.0000 0.0000 0.0000 44.4301 0.0000 3.7506
# 5 -2.1142 24.0861 12.4788 0.0000 19.8809 0.0000
# 6 0.0000 0.0000 0.0000 3.7506 0.0000 13.0180
#
#
#
# Elastic Compliance Matrix: (Units=1/GPa)
#
#
# Indices 1 2 3 4 5 6 
#
# 1 0.018903 -0.004458 -0.003663 0.000000 0.009711 0.000000
# 2 -0.004458 0.014976 -0.008638 0.000000 -0.013195 0.000000
# 3 -0.003663 -0.008638 0.017188 0.000000 -0.000713 0.000000
# 4 0.000000 0.000000 0.000000 0.023068 0.000000 -0.006646
# 5 0.009711 -0.013195 -0.000713 0.000000 0.067766 0.000000
# 6 0.000000 0.000000 0.000000 -0.006646 0.000000 0.078731
#
#
# Mechanical properties :
#
#
# Convention : Reuss Voigt Hill
#
# Bulk Modulus (GPa) = 56.98738 70.83885 63.91312
# Shear Modulus (GPa) = 19.23068 26.73473 22.98270
#
# Velocity S-wave (km/s) = 3.22490 3.80239 3.52549
# Velocity P-wave (km/s) = 6.68472 7.58864 7.15098
#
# Compressibility (1/GPa) = 0.01754775
#
# Stress axis : x y z
#
# Youngs Moduli (GPa) = 52.90049 66.77523 58.17954
#
# Poissons Ratio (x) = 0.29771 0.21311
# Poissons Ratio (y) = 0.23585 0.50257
# Poissons Ratio (z) = 0.19377 0.57682
#
# Static dielectric constant tensor:
#      x y z
#    x 3.091620 0.000000 -0.003190 
#    y 0.000000 3.612150 0.000000 
#    z -0.003190 0.000000 3.690980 
# 
# 
# High freq. dielectric constant tensor:
#      x y z
#    x 1.668330 0.000000 -0.009810 
#    y 0.000000 1.737200 0.000000 
#    z -0.009810 0.000000 1.723230 
# 
# From -- ./inp_files/79968.got.cif
#   From: 2010.06.25/outbox.cif.g09.slc.cpg/sg12_40_cif.got.tgz:79968.got - 2010.06.28 00:19:55.
