data_PCOD8113743
_publ_section_title
;
Structure prediction by ZEFSAII (Michael W. Deem and Ramdas Pophale) SiO2 
 PCOD8113743
Probable space group: C 2/M
;
_chemical_formula_sum "Si O2"
_cell_formula_units_Z 56
_cell_length_a 29.054644
_cell_length_b 9.353500
_cell_length_c 13.663265
_cell_angle_alpha 90.000000
_cell_angle_beta 101.815266
_cell_angle_gamma 90.000000
_cell_volume 3634.493284
_symmetry_space_group_name_H-M "C 2/M"
_symmetry_group_IT_number 12
_symmetry_cell_setting 'monoclinic'
loop_
_space_group_symop_operation_xyz
x,y,z
-x,y,-z
-x,-y,-z
x,-y,z
1/2+x,1/2+y,z
1/2-x,1/2+y,-z
1/2-x,1/2-y,-z
1/2+x,1/2-y,z
loop_
_atom_site_type_symbol
_atom_site_label
_atom_site_fract_x
_atom_site_fract_y
_atom_site_fract_z
Si Si1 0.555816 0.658963 0.930478
Si Si2 0.899454 0.666532 0.880223
Si Si3 0.607322 0.661063 0.748219
Si Si4 0.962346 0.164720 0.776959
Si Si5 0.199066 0.168137 0.872903
Si Si6 0.516938 0.328570 0.611834
Si Si7 0.696867 0.835205 0.070457
O O1 0.560830 0.500000 0.979148
O O2 0.587232 0.668967 0.848230
O O3 0.501690 0.686222 0.877894
O O4 0.572401 0.777229 0.013620
O O5 0.910033 0.500000 0.874578
O O6 0.916721 0.744851 0.789044
O O7 0.843729 0.697550 0.868297
O O8 0.612201 0.500000 0.713056
O O9 0.660348 0.727734 0.776963
O O10 0.569493 0.734932 0.658115
O O11 0.980883 0.222634 0.680275
O O12 0.947700 0.000000 0.761023
O O13 0.252103 0.200067 0.859101
O O14 0.190432 0.000000 0.884500
O O15 0.189113 0.239718 0.972385
O O16 0.500000 0.268928 0.500000
O O17 0.518996 0.500000 0.615050
O O18 0.694922 0.000000 0.035879
#
# Coordination Sequence:
#
# PCOD8113743 Si02
#       7
#     8   8   8   8   8   8   8
#     4   9  16  27  40  56  79 107 139 167 191 230
#     4  11  20  27  36  55  84 113 139 165 195 230
#     4   8  13  22  40  62  80 103 132 162 203 247
#     4   9  18  29  42  59  79 105 136 165 198 243
#     4   9  15  26  42  57  77 107 141 170 197 235
#     4   8  14  26  44  66  86  98 120 169 219 247
#     4   9  18  27  36  55  82 110 140 172 198 223
#
# _framework density 15.407925000000001
#
# number of rings (size 3 to 8) (size 9 to 14) (size 15 to 20)
#    0.000    3.000    1.429    2.571    0.000    2.857 
#    0.000    0.000    0.000    0.429    0.000    1.000 
#    0.000    0.000    0.000    0.000    0.000    0.000 
#
# Total GULP energy -346894.937640 kJ/mol
# GULP energy per Si atom -12389.104916 kJ/mol
# Density = 1.537286 g / cm^3
# Si number density = 15.407925 Si / 1000 Ang^3
#
#
#
# Elastic Constant Matrix: (Units=GPa)
#
#
# Indices 1 2 3 4 5 6 
#
# 1 129.7981 37.8705 59.3700 0.0000 11.5829 0.0000
# 2 37.8705 40.0882 21.2223 0.0000 0.0432 0.0000
# 3 59.3700 21.2223 78.7264 0.0000 13.3791 0.0000
# 4 0.0000 0.0000 0.0000 7.1624 0.0000 -1.4324
# 5 11.5829 0.0432 13.3791 0.0000 16.1913 0.0000
# 6 0.0000 0.0000 0.0000 -1.4324 0.0000 20.0932
#
#
#
# Elastic Compliance Matrix: (Units=1/GPa)
#
#
# Indices 1 2 3 4 5 6 
#
# 1 0.014272 -0.009491 -0.007531 0.000000 -0.003961 0.000000
# 2 -0.009491 0.036203 -0.004350 0.000000 0.010288 0.000000
# 3 -0.007531 -0.004350 0.021681 0.000000 -0.012516 0.000000
# 4 0.000000 0.000000 0.000000 0.141638 0.000000 0.010097
# 5 -0.003961 0.010288 -0.012516 0.000000 0.074910 0.000000
# 6 0.000000 0.000000 0.000000 0.010097 0.000000 0.050488
#
#
# Mechanical properties :
#
#
# Convention : Reuss Voigt Hill
#
# Bulk Modulus (GPa) = 34.00014 53.94872 43.97443
# Shear Modulus (GPa) = 12.76357 17.36603 15.06480
#
# Velocity S-wave (km/s) = 2.88128 3.36085 3.13026
# Velocity P-wave (km/s) = 5.76052 7.08167 6.45498
#
# Compressibility (1/GPa) = 0.02941164
#
# Stress axis : x y z
#
# Youngs Moduli (GPa) = 70.06930 27.62217 46.12272
#
# Poissons Ratio (x) = 0.26216 0.34735
# Poissons Ratio (y) = 0.66503 0.20064
# Poissons Ratio (z) = 0.52769 0.12016
#
# Static dielectric constant tensor:
#      x y z
#    x 3.347650 0.000000 0.164990 
#    y 0.000000 2.731590 0.000000 
#    z 0.164990 0.000000 2.774960 
# 
# 
# High freq. dielectric constant tensor:
#      x y z
#    x 1.603240 0.000000 0.006100 
#    y 0.000000 1.563350 0.000000 
#    z 0.006100 0.000000 1.545940 
# 
# From -- ./inp_files/247843.got.cif
#   From: 2010.06.25/outbox.cif.g09.slc.cpg/sg12_124_cif.got.tgz:247843.got - 2010.06.28 00:19:55.
