data_PCOD8113156
_publ_section_title
;
Structure prediction by ZEFSAII (Michael W. Deem and Ramdas Pophale) SiO2 
 PCOD8113156
Probable space group: C 2/M
;
_chemical_formula_sum "Si O2"
_cell_formula_units_Z 44
_cell_length_a 11.296743
_cell_length_b 23.091839
_cell_length_c 13.493359
_cell_angle_alpha 90.000000
_cell_angle_beta 144.193278
_cell_angle_gamma 90.000000
_cell_volume 2059.334646
_symmetry_space_group_name_H-M "C 2/M"
_symmetry_group_IT_number 12
_symmetry_cell_setting 'monoclinic'
loop_
_space_group_symop_operation_xyz
x,y,z
-x,y,-z
-x,-y,-z
x,-y,z
1/2+x,1/2+y,z
1/2-x,1/2+y,-z
1/2-x,1/2-y,-z
1/2+x,1/2-y,z
loop_
_atom_site_type_symbol
_atom_site_label
_atom_site_fract_x
_atom_site_fract_y
_atom_site_fract_z
Si Si1 0.579862 0.298366 0.156016
Si Si2 0.680237 0.000000 0.702856
Si Si3 0.928608 0.000000 0.159781
Si Si4 0.519991 0.906304 0.319843
Si Si5 0.000000 0.341099 0.500000
Si Si6 0.241566 0.126123 0.967022
Si Si7 0.500000 0.812852 0.000000
Si Si8 0.658795 0.500000 0.517807
O O1 0.819128 0.303572 0.332684
O O2 0.545291 0.228777 0.126173
O O3 0.500000 0.327766 0.000000
O O4 0.453266 0.332384 0.153055
O O5 0.500000 0.000000 0.500000
O O6 0.663692 0.945236 0.763387
O O7 0.898628 0.000000 0.804623
O O8 0.021158 0.000000 0.329713
O O9 0.796626 0.942412 0.058230
O O10 0.600455 0.875709 0.475479
O O11 0.417837 0.863423 0.169790
O O12 0.699679 0.942716 0.389248
O O13 0.319649 0.145031 0.911491
O O14 0.500000 0.500000 0.500000
#
# Coordination Sequence:
#
# PCOD8113156 Si02
#       8
#     8   4   4   8   4   8   4   4
#     4  10  23  44  74 100 133 177 230 292 345 391
#     4  11  19  36  60  90 139 167 218 284 336 399
#     4  12  25  39  66 104 136 183 222 280 361 401
#     4  11  21  38  63  97 133 183 220 284 348 404
#     4  12  20  41  76 104 130 159 236 302 356 392
#     4  12  25  44  70 101 139 185 231 281 346 420
#     4  10  26  49  68  89 146 188 232 286 328 414
#     4  11  24  39  56  89 149 185 231 276 321 438
#
# _framework density 21.366123999999999
#
# number of rings (size 3 to 8) (size 9 to 14) (size 15 to 20)
#    0.545    0.364    4.545    3.818    2.545    1.091 
#    0.000    5.455    0.000    0.000    0.000    0.000 
#    0.000    0.000    0.000    0.000    0.000    0.000 
#
# Total GULP energy -272564.101439 kJ/mol
# GULP energy per Si atom -12389.277338 kJ/mol
# Density = 2.131749 g / cm^3
# Si number density = 21.366124 Si / 1000 Ang^3
#
#
#
# Elastic Constant Matrix: (Units=GPa)
#
#
# Indices 1 2 3 4 5 6 
#
# 1 143.9559 58.5289 34.7880 0.0000 32.4982 0.0000
# 2 58.5289 110.6991 29.6811 0.0000 14.1246 0.0000
# 3 34.7880 29.6811 108.1898 0.0000 9.6214 0.0000
# 4 0.0000 0.0000 0.0000 2.6632 0.0000 7.1110
# 5 32.4982 14.1246 9.6214 0.0000 30.0321 0.0000
# 6 0.0000 0.0000 0.0000 7.1110 0.0000 16.2239
#
#
#
# Elastic Compliance Matrix: (Units=1/GPa)
#
#
# Indices 1 2 3 4 5 6 
#
# 1 0.011254 -0.004294 -0.001582 0.000001 -0.009651 0.000000
# 2 -0.004294 0.011839 -0.001838 0.000000 -0.000332 0.000000
# 3 -0.001582 -0.001838 0.010321 -0.000001 -0.000730 0.000000
# 4 0.000001 0.000000 -0.000001 -2.204706 -0.000002 0.966328
# 5 -0.009651 -0.000332 -0.000730 -0.000002 0.044132 0.000001
# 6 0.000000 0.000000 0.000000 0.966328 0.000001 -0.361906
#
#
# Mechanical properties :
#
#
# Convention : Reuss Voigt Hill
#
# Bulk Modulus (GPa) = 55.60070 67.64896 61.62483
# Shear Modulus (GPa) = -2.02622 25.77362 11.87370
#
# Velocity S-wave (km/s) = -0.97488 3.47693 2.35994
# Velocity P-wave (km/s) = 4.98118 6.91731 6.02749
#
# Compressibility (1/GPa) = 0.01798539
#
# Stress axis : x y z
#
# Youngs Moduli (GPa) = 88.86004 84.46555 96.89161
#
# Poissons Ratio (x) = 0.36273 0.15330
# Poissons Ratio (y) = 0.38160 0.17805
# Poissons Ratio (z) = 0.14059 0.15521
#
# Static dielectric constant tensor:
#      x y z
#    x 3.858660 0.000000 -0.077600 
#    y 0.000000 4.047990 0.000000 
#    z -0.077600 0.000000 3.689230 
# 
# 
# High freq. dielectric constant tensor:
#      x y z
#    x 1.837780 0.000000 -0.000570 
#    y 0.000000 1.829020 0.000000 
#    z -0.000570 0.000000 1.830450 
# 
# From -- ./inp_files/209254.got.cif
#   From: 2010.06.25/outbox.cif.g09.slc.cpg/sg12_105_cif.got.tgz:209254.got - 2010.06.28 00:19:55.
