data_PCOD8113319
_publ_section_title
;
Structure prediction by ZEFSAII (Michael W. Deem and Ramdas Pophale) SiO2 
 PCOD8113319
Probable space group: C 2/M
;
_chemical_formula_sum "Si O2"
_cell_formula_units_Z 32
_cell_length_a 11.622639
_cell_length_b 19.107479
_cell_length_c 7.854402
_cell_angle_alpha 90.000000
_cell_angle_beta 58.861437
_cell_angle_gamma 90.000000
_cell_volume 1492.980215
_symmetry_space_group_name_H-M "C 2/M"
_symmetry_group_IT_number 12
_symmetry_cell_setting 'monoclinic'
loop_
_space_group_symop_operation_xyz
x,y,z
-x,y,-z
-x,-y,-z
x,-y,z
1/2+x,1/2+y,z
1/2-x,1/2+y,-z
1/2-x,1/2-y,-z
1/2+x,1/2-y,z
loop_
_atom_site_type_symbol
_atom_site_label
_atom_site_fract_x
_atom_site_fract_y
_atom_site_fract_z
Si Si1 0.955126 0.000000 0.787619
Si Si2 0.911863 0.374737 0.223343
Si Si3 0.000000 0.124127 0.000000
Si Si4 0.777175 0.000000 0.628013
Si Si5 0.225222 0.762162 0.819309
Si Si6 0.500000 0.182408 0.500000
O O1 0.955224 0.073146 0.884649
O O2 0.084933 0.000000 0.574541
O O3 0.813083 0.000000 0.799572
O O4 0.802346 0.430892 0.361770
O O5 0.845945 0.303602 0.209983
O O6 0.999446 0.363088 0.327137
O O7 0.000000 0.405361 0.000000
O O8 0.129099 0.171575 0.857449
O O9 0.365871 0.770707 0.612398
O O10 0.250000 0.750000 0.000000
#
# Coordination Sequence:
#
# PCOD8113319 Si02
#       6
#     4   8   4   4   8   4
#     4  10  24  42  70  96 131 184 227 284 340 404
#     4  12  25  45  67 101 139 182 228 283 348 408
#     4  11  22  44  70  99 138 176 234 281 338 416
#     4  11  25  45  64  98 137 178 230 280 348 407
#     4  12  23  44  71 103 142 182 229 288 343 410
#     4  12  26  41  72 105 136 182 228 286 352 405
#
# _framework density 21.433637999999998
#
# number of rings (size 3 to 8) (size 9 to 14) (size 15 to 20)
#    0.000    0.500    3.750    4.125    0.000    4.500 
#    0.000    0.000    0.000    0.000    0.000    0.000 
#    0.000    0.000    0.000    0.000    0.000    0.000 
#
# Total GULP energy -198412.080456 kJ/mol
# GULP energy per Si atom -12400.755029 kJ/mol
# Density = 2.138485 g / cm^3
# Si number density = 21.433638 Si / 1000 Ang^3
#
#
#
# Elastic Constant Matrix: (Units=GPa)
#
#
# Indices 1 2 3 4 5 6 
#
# 1 92.4857 33.2550 15.1611 0.0000 8.0847 0.0000
# 2 33.2550 133.7240 10.4392 0.0000 -5.0432 0.0000
# 3 15.1611 10.4392 85.0903 0.0000 -6.0809 0.0000
# 4 0.0000 0.0000 0.0000 -5.8622 0.0000 25.5833
# 5 8.0847 -5.0432 -6.0809 0.0000 52.1523 0.0000
# 6 0.0000 0.0000 0.0000 25.5833 0.0000 -5.8366
#
#
#
# Elastic Compliance Matrix: (Units=1/GPa)
#
#
# Indices 1 2 3 4 5 6 
#
# 1 0.012449 -0.003031 -0.002022 0.000000 -0.002459 0.000000
# 2 -0.003031 0.008309 -0.000392 0.000000 0.001228 0.000000
# 3 -0.002022 -0.000392 0.012283 0.000000 0.001708 0.000000
# 4 0.000000 0.000000 0.000000 0.009409 0.000000 0.041244
# 5 -0.002459 0.001228 0.001708 0.000000 0.019874 0.000000
# 6 0.000000 0.000000 0.000000 0.041244 0.000000 0.009451
#
#
# Mechanical properties :
#
#
# Convention : Reuss Voigt Hill
#
# Bulk Modulus (GPa) = 45.14391 47.66787 46.40589
# Shear Modulus (GPa) = 55.52740 24.92035 40.22388
#
# Velocity S-wave (km/s) = 5.09538 3.41350 4.33676
# Velocity P-wave (km/s) = 7.46493 6.15012 6.83919
#
# Compressibility (1/GPa) = 0.02215138
#
# Stress axis : x y z
#
# Youngs Moduli (GPa) = 80.33043 120.35682 81.41621
#
# Poissons Ratio (x) = 0.36476 0.16462
# Poissons Ratio (y) = 0.24345 0.03188
# Poissons Ratio (z) = 0.16242 0.04713
#
# Static dielectric constant tensor:
#      x y z
#    x 4.334540 0.000000 0.151240 
#    y 0.000000 3.852440 0.000000 
#    z 0.151240 0.000000 4.151750 
# 
# 
# High freq. dielectric constant tensor:
#      x y z
#    x 1.861350 0.000000 0.000880 
#    y 0.000000 1.842730 0.000000 
#    z 0.000880 0.000000 1.849760 
# 
# From -- ./inp_files/48371.got.cif
#   From: 2010.06.25/outbox.cif.g09.slc.cpg/sg12_25_cif.got.tgz:48371.got - 2010.06.28 00:19:55.
