data_PCOD8113485
_publ_section_title
;
Structure prediction by ZEFSAII (Michael W. Deem and Ramdas Pophale) SiO2 
 PCOD8113485
Probable space group: C 2/M
;
_chemical_formula_sum "Si O2"
_cell_formula_units_Z 36
_cell_length_a 18.596604
_cell_length_b 7.487565
_cell_length_c 14.417241
_cell_angle_alpha 90.000000
_cell_angle_beta 70.696134
_cell_angle_gamma 90.000000
_cell_volume 1894.639358
_symmetry_space_group_name_H-M "C 2/M"
_symmetry_group_IT_number 12
_symmetry_cell_setting 'monoclinic'
loop_
_space_group_symop_operation_xyz
x,y,z
-x,y,-z
-x,-y,-z
x,-y,z
1/2+x,1/2+y,z
1/2-x,1/2+y,-z
1/2-x,1/2-y,-z
1/2+x,1/2-y,z
loop_
_atom_site_type_symbol
_atom_site_label
_atom_site_fract_x
_atom_site_fract_y
_atom_site_fract_z
Si Si1 0.800827 0.697912 0.811304
Si Si2 0.120757 0.000000 0.112920
Si Si3 0.941194 0.289469 0.390153
Si Si4 0.947379 0.000000 0.242855
Si Si5 0.604515 0.791339 0.396091
Si Si6 0.344698 0.500000 0.110490
O O1 0.838683 0.500000 0.809220
O O2 0.824939 0.771849 0.698575
O O3 0.709051 0.677000 0.855820
O O4 0.831247 0.826338 0.878096
O O5 0.038131 0.000000 0.193295
O O6 0.113434 0.000000 0.005632
O O7 0.931793 0.500000 0.372362
O O8 0.918575 0.176586 0.309215
O O9 0.890294 0.220635 0.499983
O O10 0.027444 0.233174 0.377715
O O11 0.910038 0.000000 0.158366
O O12 0.601845 0.000000 0.411228
#
# Coordination Sequence:
#
# PCOD8113485 Si02
#       6
#     8   4   8   4   8   4
#     4   9  20  38  62  81 111 143 192 233 278 324
#     4  12  21  39  66  81 100 156 205 225 270 338
#     4   9  18  32  55  85 118 144 183 226 279 328
#     4  12  23  36  56  89 119 145 181 236 288 331
#     4   8  14  31  57  85 108 145 186 234 261 325
#     4  10  25  42  53  82 126 140 181 251 287 311
#
# _framework density 19.000978
#
# number of rings (size 3 to 8) (size 9 to 14) (size 15 to 20)
#    0.667    1.778    2.222    2.333    0.000    2.667 
#    2.000    1.111    0.000    2.667    0.000    0.000 
#    0.000    0.000    0.000    0.000    0.000    0.000 
#
# Total GULP energy -222998.142212 kJ/mol
# GULP energy per Si atom -12388.785678 kJ/mol
# Density = 1.895773 g / cm^3
# Si number density = 19.000978 Si / 1000 Ang^3
#
#
#
# Elastic Constant Matrix: (Units=GPa)
#
#
# Indices 1 2 3 4 5 6 
#
# 1 41.0854 20.1955 19.2648 0.0000 9.6187 0.0000
# 2 20.1955 83.4599 41.5337 0.0000 10.6546 0.0000
# 3 19.2648 41.5337 130.3322 0.0000 1.2596 0.0000
# 4 0.0000 0.0000 0.0000 7.4030 0.0000 -0.6532
# 5 9.6187 10.6546 1.2596 0.0000 27.7850 0.0000
# 6 0.0000 0.0000 0.0000 -0.6532 0.0000 15.3651
#
#
#
# Elastic Compliance Matrix: (Units=1/GPa)
#
#
# Indices 1 2 3 4 5 6 
#
# 1 0.029984 -0.004772 -0.002830 0.000000 -0.008422 0.000000
# 2 -0.004772 0.015811 -0.004292 0.000000 -0.004216 0.000000
# 3 -0.002830 -0.004292 0.009438 0.000000 0.002198 0.000000
# 4 0.000000 0.000000 0.000000 0.135589 0.000000 0.005764
# 5 -0.008422 -0.004216 0.002198 0.000000 0.040423 0.000000
# 6 0.000000 0.000000 0.000000 0.005764 0.000000 0.065328
#
#
# Mechanical properties :
#
#
# Convention : Reuss Voigt Hill
#
# Bulk Modulus (GPa) = 31.80289 46.31840 39.06065
# Shear Modulus (GPa) = 15.11293 21.70283 18.40788
#
# Velocity S-wave (km/s) = 2.82330 3.38330 3.11591
# Velocity P-wave (km/s) = 5.23468 6.30017 5.79198
#
# Compressibility (1/GPa) = 0.03144368
#
# Stress axis : x y z
#
# Youngs Moduli (GPa) = 33.35135 63.24746 105.95858
#
# Poissons Ratio (x) = 0.30182 0.29985
# Poissons Ratio (y) = 0.15915 0.45482
# Poissons Ratio (z) = 0.09438 0.27149
#
# Static dielectric constant tensor:
#      x y z
#    x 3.101480 0.000000 -0.328340 
#    y 0.000000 3.284610 0.000000 
#    z -0.328340 0.000000 3.725940 
# 
# 
# High freq. dielectric constant tensor:
#      x y z
#    x 1.688420 0.000000 -0.020350 
#    y 0.000000 1.725160 0.000000 
#    z -0.020350 0.000000 1.755360 
# 
# From -- ./inp_files/161930.got.cif
#   From: 2010.06.25/outbox.cif.g09.slc.cpg/sg12_81_cif.got.tgz:161930.got - 2010.06.28 00:19:55.
