data_PCOD8113330
_publ_section_title
;
Structure prediction by ZEFSAII (Michael W. Deem and Ramdas Pophale) SiO2 
 PCOD8113330
Probable space group: C 2/M
;
_chemical_formula_sum "Si O2"
_cell_formula_units_Z 56
_cell_length_a 20.257630
_cell_length_b 8.730022
_cell_length_c 32.232720
_cell_angle_alpha 90.000000
_cell_angle_beta 150.988417
_cell_angle_gamma 90.000000
_cell_volume 2764.588587
_symmetry_space_group_name_H-M "C 2/M"
_symmetry_group_IT_number 12
_symmetry_cell_setting 'monoclinic'
loop_
_space_group_symop_operation_xyz
x,y,z
-x,y,-z
-x,-y,-z
x,-y,z
1/2+x,1/2+y,z
1/2-x,1/2+y,-z
1/2-x,1/2-y,-z
1/2+x,1/2-y,z
loop_
_atom_site_type_symbol
_atom_site_label
_atom_site_fract_x
_atom_site_fract_y
_atom_site_fract_z
Si Si1 0.646454 0.680849 0.340874
Si Si2 0.861288 0.178131 0.303342
Si Si3 0.124131 0.679903 0.038929
Si Si4 0.667404 0.680126 0.492332
Si Si5 0.379672 0.676549 0.050240
Si Si6 0.129840 0.319711 0.778665
Si Si7 0.846772 0.175448 0.750437
O O1 0.643393 0.500000 0.344241
O O2 0.781224 0.747710 0.436422
O O3 0.515037 0.745479 0.291801
O O4 0.649975 0.731733 0.295122
O O5 0.821551 0.272259 0.240476
O O6 0.755859 0.216628 0.281459
O O7 0.010070 0.224030 0.401159
O O8 0.851895 0.000000 0.286947
O O9 0.152160 0.500000 0.055304
O O10 0.261132 0.764348 0.127843
O O11 0.082582 0.732330 0.970407
O O12 0.000000 0.727812 0.000000
O O13 0.691224 0.500000 0.506097
O O14 0.750000 0.750000 0.500000
O O15 0.351003 0.500000 0.023737
O O16 0.502096 0.695017 0.149469
O O17 0.250000 0.750000 0.000000
O O18 0.115675 0.500000 0.773726
O O19 0.797291 0.000000 0.726832
#
# Coordination Sequence:
#
# PCOD8113330 Si02
#       7
#     8   8   8   8   8   8   8
#     4  11  23  41  65  93 127 164 208 259 309 370
#     4  11  24  41  64  92 127 166 207 259 314 371
#     4  11  24  41  62  90 125 163 206 259 316 373
#     4  11  23  40  64  94 126 165 209 259 313 369
#     4  11  23  41  65  92 125 167 213 260 313 376
#     4  12  24  39  64  93 123 162 209 259 312 374
#     4  10  24  43  63  91 127 166 207 256 315 373
#
# _framework density 20.256178999999999
#
# number of rings (size 3 to 8) (size 9 to 14) (size 15 to 20)
#    0.000    1.000    1.429    5.143    0.000    9.143 
#    0.000    2.857    0.000    0.000    0.000    0.000 
#    0.000    0.000    0.000    0.000    0.000    0.000 
#
# Total GULP energy -347440.014478 kJ/mol
# GULP energy per Si atom -12408.571946 kJ/mol
# Density = 2.021007 g / cm^3
# Si number density = 20.256179 Si / 1000 Ang^3
#
#
#
# Elastic Constant Matrix: (Units=GPa)
#
#
# Indices 1 2 3 4 5 6 
#
# 1 113.8381 31.4867 27.3002 0.0004 -10.1670 -0.0002
# 2 31.4867 75.3337 29.2130 0.0013 2.7952 -0.0013
# 3 27.3002 29.2130 93.3273 0.0003 -15.2846 -0.0001
# 4 0.0004 0.0013 0.0003 37.3502 -0.0002 -0.5903
# 5 -10.1670 2.7952 -15.2846 -0.0002 40.7345 0.0003
# 6 -0.0002 -0.0013 -0.0001 -0.5903 0.0003 37.1925
#
#
#
# Elastic Compliance Matrix: (Units=1/GPa)
#
#
# Indices 1 2 3 4 5 6 
#
# 1 0.010412 -0.003874 -0.001453 0.000000 0.002319 0.000000
# 2 -0.003874 0.016901 -0.004800 -0.000001 -0.003928 0.000001
# 3 -0.001453 -0.004800 0.013465 0.000000 0.005019 0.000000
# 4 0.000000 -0.000001 0.000000 0.026780 0.000000 0.000425
# 5 0.002319 -0.003928 0.005019 0.000000 0.027281 0.000000
# 6 0.000000 0.000001 0.000000 0.000425 0.000000 0.026894
#
#
# Mechanical properties :
#
#
# Convention : Reuss Voigt Hill
#
# Bulk Modulus (GPa) = 48.72855 50.94434 49.83645
# Shear Modulus (GPa) = 33.59596 36.02207 34.80902
#
# Velocity S-wave (km/s) = 4.07695 4.22159 4.14990
# Velocity P-wave (km/s) = 6.80224 6.99765 6.90063
#
# Compressibility (1/GPa) = 0.02052185
#
# Stress axis : x y z
#
# Youngs Moduli (GPa) = 96.04679 59.16914 74.26921
#
# Poissons Ratio (x) = 0.22924 0.10792
# Poissons Ratio (y) = 0.37211 0.35650
# Poissons Ratio (z) = 0.13956 0.28402
#
# Static dielectric constant tensor:
#      x y z
#    x 3.802110 0.000000 -0.030990 
#    y 0.000000 3.807350 0.000000 
#    z -0.030990 0.000000 4.166610 
# 
# 
# High freq. dielectric constant tensor:
#      x y z
#    x 1.797380 0.000000 -0.004010 
#    y 0.000000 1.802720 0.000000 
#    z -0.004010 0.000000 1.807800 
# 
# From -- ./inp_files/380743.got.cif
#   From: 2010.06.25/outbox.cif.g09.slc.cpg/sg12_191_cif.got.tgz:380743.got - 2010.06.28 00:19:55.
