data_PCOD8113404
_publ_section_title
;
Structure prediction by ZEFSAII (Michael W. Deem and Ramdas Pophale) SiO2 
 PCOD8113404
Probable space group: C 2/M
;
_chemical_formula_sum "Si O2"
_cell_formula_units_Z 40
_cell_length_a 7.713434
_cell_length_b 28.448281
_cell_length_c 12.405458
_cell_angle_alpha 90.000000
_cell_angle_beta 140.957412
_cell_angle_gamma 90.000000
_cell_volume 1714.694440
_symmetry_space_group_name_H-M "C 2/M"
_symmetry_group_IT_number 12
_symmetry_cell_setting 'monoclinic'
loop_
_space_group_symop_operation_xyz
x,y,z
-x,y,-z
-x,-y,-z
x,-y,z
1/2+x,1/2+y,z
1/2-x,1/2+y,-z
1/2-x,1/2-y,-z
1/2+x,1/2-y,z
loop_
_atom_site_type_symbol
_atom_site_label
_atom_site_fract_x
_atom_site_fract_y
_atom_site_fract_z
Si Si1 0.939682 0.000000 0.801109
Si Si2 0.000000 0.348109 0.500000
Si Si3 0.500000 0.253691 0.000000
Si Si4 0.705355 0.100401 0.385341
Si Si5 0.062897 0.187180 0.824215
Si Si6 0.162220 0.500000 0.435310
Si Si7 0.698463 0.595800 0.996407
O O1 0.783055 0.000000 0.613048
O O2 0.671497 0.000000 0.748845
O O3 0.134413 0.955121 0.914760
O O4 0.053961 0.380052 0.420103
O O5 0.250177 0.312080 0.634663
O O6 0.256606 0.218440 0.839269
O O7 0.605136 0.288133 0.959197
O O8 0.509523 0.103486 0.186924
O O9 0.000000 0.125739 0.500000
O O10 0.778775 0.046130 0.436324
O O11 0.152250 0.132738 0.877342
O O12 0.500000 0.606621 0.000000
#
# Coordination Sequence:
#
# PCOD8113404 Si02
#       7
#     4   4   4   8   8   4   8
#     4  11  22  38  72  98 133 189 222 268 336 401
#     4  12  24  45  68 100 134 174 220 275 344 398
#     4  10  24  44  70  98 130 174 224 276 340 400
#     4  12  26  41  65  98 136 178 227 280 331 391
#     4  11  23  44  70  99 133 175 221 279 335 404
#     4  11  20  39  60  95 135 175 233 278 322 388
#     4  12  21  42  67  98 136 180 223 268 339 400
#
# _framework density 23.327772
#
# number of rings (size 3 to 8) (size 9 to 14) (size 15 to 20)
#    0.000    0.600    5.000    3.600    2.800    0.800 
#    0.000    1.000    0.000    0.000    0.000    0.000 
#    0.000    0.000    0.000    0.000    0.000    0.000 
#
# Total GULP energy -247887.765403 kJ/mol
# GULP energy per Si atom -12394.388270 kJ/mol
# Density = 2.327468 g / cm^3
# Si number density = 23.327772 Si / 1000 Ang^3
#
#
#
# Elastic Constant Matrix: (Units=GPa)
#
#
# Indices 1 2 3 4 5 6 
#
# 1 47.8860 12.6634 16.4416 0.0000 19.9528 0.0000
# 2 12.6634 113.4848 36.8267 0.0000 9.0113 0.0000
# 3 16.4416 36.8267 171.5982 0.0000 29.4438 0.0000
# 4 0.0000 0.0000 0.0000 32.1066 0.0000 16.4505
# 5 19.9528 9.0113 29.4438 0.0000 33.4513 0.0000
# 6 0.0000 0.0000 0.0000 16.4505 0.0000 -14.6279
#
#
#
# Elastic Compliance Matrix: (Units=1/GPa)
#
#
# Indices 1 2 3 4 5 6 
#
# 1 0.028216 -0.002012 0.000616 0.000000 -0.016831 0.000000
# 2 -0.002012 0.009638 -0.001927 0.000000 0.000300 0.000000
# 3 0.000616 -0.001927 0.007251 0.000000 -0.006231 0.000000
# 4 0.000000 0.000000 0.000000 0.019760 0.000000 0.022222
# 5 -0.016831 0.000300 -0.006231 0.000000 0.045337 0.000000
# 6 0.000000 0.000000 0.000000 0.022222 0.000000 -0.043371
#
#
# Mechanical properties :
#
#
# Convention : Reuss Voigt Hill
#
# Bulk Modulus (GPa) = 26.00141 51.64805 38.82473
# Shear Modulus (GPa) = 57.93953 27.98847 42.96400
#
# Velocity S-wave (km/s) = 4.98909 3.46756 4.29622
# Velocity P-wave (km/s) = 6.66021 6.18225 6.42567
#
# Compressibility (1/GPa) = 0.03845945
#
# Stress axis : x y z
#
# Youngs Moduli (GPa) = 35.44042 103.75819 137.90754
#
# Poissons Ratio (x) = 0.20877 -0.08497
# Poissons Ratio (y) = 0.07131 0.26576
# Poissons Ratio (z) = -0.02184 0.19995
#
# Static dielectric constant tensor:
#      x y z
#    x 4.100080 0.000000 0.248320 
#    y 0.000000 4.302370 0.000000 
#    z 0.248320 0.000000 4.371270 
# 
# 
# High freq. dielectric constant tensor:
#      x y z
#    x 1.904690 0.000000 0.015860 
#    y 0.000000 1.922800 0.000000 
#    z 0.015860 0.000000 1.932260 
# 
# From -- ./inp_files/201444.got.cif
#   From: 2010.06.25/outbox.cif.g09.slc.cpg/sg12_101_cif.got.tgz:201444.got - 2010.06.28 00:19:55.
