data_PCOD8113357
_publ_section_title
;
Structure prediction by ZEFSAII (Michael W. Deem and Ramdas Pophale) SiO2 
 PCOD8113357
Probable space group: C 2/M
;
_chemical_formula_sum "Si O2"
_cell_formula_units_Z 52
_cell_length_a 11.728215
_cell_length_b 26.325498
_cell_length_c 10.845338
_cell_angle_alpha 90.000000
_cell_angle_beta 130.967143
_cell_angle_gamma 90.000000
_cell_volume 2528.411988
_symmetry_space_group_name_H-M "C 2/M"
_symmetry_group_IT_number 12
_symmetry_cell_setting 'monoclinic'
loop_
_space_group_symop_operation_xyz
x,y,z
-x,y,-z
-x,-y,-z
x,-y,z
1/2+x,1/2+y,z
1/2-x,1/2+y,-z
1/2-x,1/2-y,-z
1/2+x,1/2-y,z
loop_
_atom_site_type_symbol
_atom_site_label
_atom_site_fract_x
_atom_site_fract_y
_atom_site_fract_z
Si Si1 0.708714 0.395428 0.538263
Si Si2 0.308468 0.000000 0.235915
Si Si3 0.748791 0.894583 0.905067
Si Si4 0.500000 0.320730 0.000000
Si Si5 0.472667 0.835204 0.624723
Si Si6 0.658055 0.000000 0.451391
Si Si7 0.088511 0.765034 0.831481
Si Si8 0.626722 0.630457 0.747663
O O1 0.802032 0.353193 0.528390
O O2 0.773545 0.451282 0.566386
O O3 0.538125 0.394675 0.368638
O O4 0.718113 0.382320 0.689447
O O5 0.220980 0.048968 0.122381
O O6 0.478832 0.000000 0.307560
O O7 0.297976 0.000000 0.374824
O O8 0.576853 0.878965 0.757243
O O9 0.780657 0.892456 0.072786
O O10 0.852138 0.855469 0.902697
O O11 0.516291 0.285712 0.132089
O O12 0.500000 0.830165 0.500000
O O13 0.502509 0.781579 0.709812
O O14 0.112020 0.808613 0.746183
O O15 0.250000 0.750000 0.000000
#
# Coordination Sequence:
#
# PCOD8113357 Si02
#       8
#     8   4   8   4   8   4   8   8
#     4  11  26  46  72  98 143 177 226 288 342 410
#     4  11  24  43  72 104 132 179 233 273 345 407
#     4  11  24  45  69 102 135 176 229 284 332 406
#     4  10  24  43  70  96 140 171 228 288 336 390
#     4  12  26  41  70 101 137 183 230 280 339 406
#     4  11  24  45  71 100 139 181 218 287 350 397
#     4  11  24  44  68  96 137 182 227 280 340 401
#     4  10  26  47  66 103 141 176 228 280 348 402
#
# _framework density 20.566268999999998
#
# number of rings (size 3 to 8) (size 9 to 14) (size 15 to 20)
#    0.000    1.077    4.615    0.923   12.923    4.000 
#    0.000    0.769    0.000    0.000    0.000    0.000 
#    0.000    0.000    0.000    0.000    0.000    0.000 
#
# Total GULP energy -322552.690542 kJ/mol
# GULP energy per Si atom -12405.872713 kJ/mol
# Density = 2.051946 g / cm^3
# Si number density = 20.566269 Si / 1000 Ang^3
#
#
#
# Elastic Constant Matrix: (Units=GPa)
#
#
# Indices 1 2 3 4 5 6 
#
# 1 129.9620 64.3006 35.3751 0.0000 -19.7287 0.0000
# 2 64.3006 162.6099 46.1794 0.0000 -26.2489 0.0000
# 3 35.3751 46.1794 88.9618 0.0000 -19.6150 0.0000
# 4 0.0000 0.0000 0.0000 35.7123 0.0000 1.0571
# 5 -19.7287 -26.2489 -19.6150 0.0000 28.8131 0.0000
# 6 0.0000 0.0000 0.0000 1.0571 0.0000 26.6007
#
#
#
# Elastic Compliance Matrix: (Units=1/GPa)
#
#
# Indices 1 2 3 4 5 6 
#
# 1 0.010127 -0.003013 -0.001811 0.000000 0.002956 0.000000
# 2 -0.003013 0.008703 -0.002384 0.000000 0.004242 0.000000
# 3 -0.001811 -0.002384 0.014644 0.000000 0.006557 0.000000
# 4 0.000000 0.000000 0.000000 0.028035 0.000000 -0.001114
# 5 0.002956 0.004242 0.006557 0.000000 0.045060 0.000000
# 6 0.000000 0.000000 0.000000 -0.001114 0.000000 0.037637
#
#
# Mechanical properties :
#
#
# Convention : Reuss Voigt Hill
#
# Bulk Modulus (GPa) = 52.47166 74.80490 63.63828
# Shear Modulus (GPa) = 30.30764 33.93713 32.12239
#
# Velocity S-wave (km/s) = 3.84299 4.06659 3.95637
# Velocity P-wave (km/s) = 6.72758 7.64860 7.20283
#
# Compressibility (1/GPa) = 0.01905791
#
# Stress axis : x y z
#
# Youngs Moduli (GPa) = 98.74574 114.90298 68.28565
#
# Poissons Ratio (x) = 0.34620 0.12367
# Poissons Ratio (y) = 0.29752 0.16280
# Poissons Ratio (z) = 0.17884 0.27395
#
# Static dielectric constant tensor:
#      x y z
#    x 3.917190 0.000000 -0.087340 
#    y 0.000000 3.963340 0.000000 
#    z -0.087340 0.000000 3.753680 
# 
# 
# High freq. dielectric constant tensor:
#      x y z
#    x 1.809490 0.000000 -0.003220 
#    y 0.000000 1.816560 0.000000 
#    z -0.003220 0.000000 1.808430 
# 
# From -- ./inp_files/136057.got.cif
#   From: 2010.06.25/outbox.cif.g09.slc.cpg/sg12_69_cif.got.tgz:136057.got - 2010.06.28 00:19:55.
