data_PCOD8113724
_publ_section_title
;
Structure prediction by ZEFSAII (Michael W. Deem and Ramdas Pophale) SiO2 
 PCOD8113724
Probable space group: C 2/M
;
_chemical_formula_sum "Si O2"
_cell_formula_units_Z 48
_cell_length_a 19.377918
_cell_length_b 13.696848
_cell_length_c 19.255294
_cell_angle_alpha 90.000000
_cell_angle_beta 151.203407
_cell_angle_gamma 90.000000
_cell_volume 2461.818106
_symmetry_space_group_name_H-M "C 2/M"
_symmetry_group_IT_number 12
_symmetry_cell_setting 'monoclinic'
loop_
_space_group_symop_operation_xyz
x,y,z
-x,y,-z
-x,-y,-z
x,-y,z
1/2+x,1/2+y,z
1/2-x,1/2+y,-z
1/2-x,1/2-y,-z
1/2+x,1/2-y,z
loop_
_atom_site_type_symbol
_atom_site_label
_atom_site_fract_x
_atom_site_fract_y
_atom_site_fract_z
Si Si1 0.565076 0.500000 0.171017
Si Si2 0.624757 0.295306 0.295765
Si Si3 0.113924 0.681621 0.658017
Si Si4 0.221558 0.000000 0.162452
Si Si5 0.376130 0.800381 0.840701
Si Si6 0.270170 0.500000 0.267007
Si Si7 0.074702 0.790411 0.403575
Si Si8 0.550448 0.500000 0.436045
O O1 0.601979 0.404937 0.248371
O O2 0.658146 0.500000 0.183673
O O3 0.397728 0.500000 0.002633
O O4 0.571066 0.214709 0.192167
O O5 0.791427 0.278157 0.459978
O O6 0.534533 0.278334 0.286873
O O7 0.175419 0.592469 0.756556
O O8 0.238032 0.732663 0.723932
O O9 0.000000 0.646517 0.500000
O O10 0.055184 0.759164 0.661604
O O11 0.337642 0.909512 0.827947
O O12 0.500000 0.760154 0.000000
O O13 0.377150 0.500000 0.294889
O O14 0.370413 0.500000 0.421449
O O15 0.103592 0.905147 0.441379
#
# Coordination Sequence:
#
# PCOD8113724 Si02
#       8
#     4   8   8   4   8   4   8   4
#     4  11  21  42  60  89 128 168 204 250 321 371
#     4  11  23  40  63  94 124 165 202 260 311 369
#     4  12  21  40  64  96 123 161 211 260 307 363
#     4  11  23  36  66  92 121 164 212 259 300 373
#     4  12  23  40  63  94 126 164 210 254 312 374
#     4  11  21  36  65  92 123 158 208 262 299 365
#     4  11  23  39  65  94 125 160 210 257 314 364
#     4  11  19  38  65  95 118 159 206 261 309 361
#
# _framework density 19.497785
#
# number of rings (size 3 to 8) (size 9 to 14) (size 15 to 20)
#    0.000    0.667    6.667    2.000    0.000    0.667 
#    0.000    5.000    0.000    0.000    0.000    0.000 
#    0.000    0.000    0.000    0.000    0.000    0.000 
#
# Total GULP energy -297630.589080 kJ/mol
# GULP energy per Si atom -12401.274545 kJ/mol
# Density = 1.945341 g / cm^3
# Si number density = 19.497785 Si / 1000 Ang^3
#
#
#
# Elastic Constant Matrix: (Units=GPa)
#
#
# Indices 1 2 3 4 5 6 
#
# 1 91.4738 17.7490 41.5168 -0.0004 -20.6300 -0.0004
# 2 17.7490 117.5879 44.8462 -0.0003 -1.2902 -0.0002
# 3 41.5168 44.8462 110.7176 -0.0004 -11.6782 -0.0003
# 4 -0.0004 -0.0003 -0.0004 4.3256 -0.0001 -8.5125
# 5 -20.6300 -1.2902 -11.6782 -0.0001 26.0865 -0.0001
# 6 -0.0004 -0.0002 -0.0003 -8.5125 -0.0001 22.8742
#
#
#
# Elastic Compliance Matrix: (Units=1/GPa)
#
#
# Indices 1 2 3 4 5 6 
#
# 1 0.015343 -0.000493 -0.004488 0.000006 0.010100 0.000002
# 2 -0.000493 0.010122 -0.004097 0.000001 -0.001724 0.000000
# 3 -0.004488 -0.004097 0.012572 0.000003 0.001876 0.000001
# 4 0.000006 0.000001 0.000003 0.863735 0.000010 0.321433
# 5 0.010100 -0.001724 0.001876 0.000010 0.047076 0.000004
# 6 0.000002 0.000000 0.000001 0.321433 0.000004 0.163337
#
#
# Mechanical properties :
#
#
# Convention : Reuss Voigt Hill
#
# Bulk Modulus (GPa) = 50.30008 58.66704 54.48356
# Shear Modulus (GPa) = 4.39766 25.03509 14.71638
#
# Velocity S-wave (km/s) = 1.50345 3.58718 2.75029
# Velocity P-wave (km/s) = 5.37286 6.87834 6.17168
#
# Compressibility (1/GPa) = 0.01988068
#
# Stress axis : x y z
#
# Youngs Moduli (GPa) = 65.17815 98.79173 79.54041
#
# Poissons Ratio (x) = 0.04874 0.35698
# Poissons Ratio (y) = 0.03216 0.32586
# Poissons Ratio (z) = 0.29252 0.40473
#
# Static dielectric constant tensor:
#      x y z
#    x 3.665110 0.000000 -0.037850 
#    y 0.000000 3.965420 0.000000 
#    z -0.037850 0.000000 3.507900 
# 
# 
# High freq. dielectric constant tensor:
#      x y z
#    x 1.752280 0.000000 -0.006300 
#    y 0.000000 1.769910 0.000000 
#    z -0.006300 0.000000 1.750670 
# 
# From -- ./inp_files/85764.got.cif
#   From: 2010.06.25/outbox.cif.g09.slc.cpg/sg12_43_cif.got.tgz:85764.got - 2010.06.28 00:19:55.
