data_PCOD8113418
_publ_section_title
;
Structure prediction by ZEFSAII (Michael W. Deem and Ramdas Pophale) SiO2 
 PCOD8113418
Probable space group: C 2/M
;
_chemical_formula_sum "Si O2"
_cell_formula_units_Z 40
_cell_length_a 23.848994
_cell_length_b 8.788993
_cell_length_c 9.460217
_cell_angle_alpha 90.000000
_cell_angle_beta 77.346809
_cell_angle_gamma 90.000000
_cell_volume 1934.785128
_symmetry_space_group_name_H-M "C 2/M"
_symmetry_group_IT_number 12
_symmetry_cell_setting 'monoclinic'
loop_
_space_group_symop_operation_xyz
x,y,z
-x,y,-z
-x,-y,-z
x,-y,z
1/2+x,1/2+y,z
1/2-x,1/2+y,-z
1/2-x,1/2-y,-z
1/2+x,1/2-y,z
loop_
_atom_site_type_symbol
_atom_site_label
_atom_site_fract_x
_atom_site_fract_y
_atom_site_fract_z
Si Si1 0.273092 0.327560 0.848366
Si Si2 0.483560 0.321263 0.852653
Si Si3 0.413537 0.678823 0.411886
Si Si4 0.891858 0.320244 0.715931
Si Si5 0.701288 0.827373 0.617990
O O1 0.292457 0.500000 0.869543
O O2 0.326680 0.237859 0.753711
O O3 0.220085 0.324626 0.769948
O O4 0.250000 0.250000 0.000000
O O5 0.471576 0.500000 0.860910
O O6 0.533751 0.276536 0.716998
O O7 0.425526 0.238153 0.835417
O O8 0.500000 0.263164 0.000000
O O9 0.409816 0.500000 0.441386
O O10 0.422470 0.759349 0.557485
O O11 0.356691 0.732888 0.363739
O O12 0.891735 0.500000 0.715268
O O13 0.750000 0.750000 0.500000
O O14 0.691388 0.000000 0.570140
#
# Coordination Sequence:
#
# PCOD8113418 Si02
#       5
#     8   8   8   8   8
#     4  11  25  43  65  95 132 171 212 260 318 380
#     4  10  24  45  67  94 126 166 212 264 324 382
#     4  11  23  41  67  95 127 169 215 265 318 379
#     4  12  25  42  66  95 128 169 215 264 318 378
#     4  11  23  40  65  96 130 167 212 260 314 379
#
# _framework density 20.674130000000002
#
# number of rings (size 3 to 8) (size 9 to 14) (size 15 to 20)
#    0.000    1.000    2.000    4.200    2.800    6.800 
#    0.000    0.000    0.000    0.000    0.000    0.000 
#    0.000    0.000    0.000    0.000    0.000    0.000 
#
# Total GULP energy -248139.699180 kJ/mol
# GULP energy per Si atom -12406.984959 kJ/mol
# Density = 2.062707 g / cm^3
# Si number density = 20.674130 Si / 1000 Ang^3
#
#
#
# Elastic Constant Matrix: (Units=GPa)
#
#
# Indices 1 2 3 4 5 6 
#
# 1 88.4025 26.9371 20.3467 0.0000 16.8415 0.0000
# 2 26.9371 96.6392 43.7286 0.0000 3.2347 0.0000
# 3 20.3467 43.7286 118.9934 0.0000 11.1402 0.0000
# 4 0.0000 0.0000 0.0000 32.8895 0.0000 4.5300
# 5 16.8415 3.2347 11.1402 0.0000 35.1833 0.0000
# 6 0.0000 0.0000 0.0000 4.5300 0.0000 36.3501
#
#
#
# Elastic Compliance Matrix: (Units=1/GPa)
#
#
# Indices 1 2 3 4 5 6 
#
# 1 0.013605 -0.003350 -0.000530 0.000000 -0.006036 0.000000
# 2 -0.003350 0.013240 -0.004461 0.000000 0.001799 0.000000
# 3 -0.000530 -0.004461 0.010379 0.000000 -0.002623 0.000000
# 4 0.000000 0.000000 0.000000 0.030936 0.000000 -0.003855
# 5 -0.006036 0.001799 -0.002623 0.000000 0.031977 0.000000
# 6 0.000000 0.000000 0.000000 -0.003855 0.000000 0.027991
#
#
# Mechanical properties :
#
#
# Convention : Reuss Voigt Hill
#
# Bulk Modulus (GPa) = 48.68212 54.00666 51.34439
# Shear Modulus (GPa) = 32.96896 35.08607 34.02752
#
# Velocity S-wave (km/s) = 3.99770 4.12406 4.06137
# Velocity P-wave (km/s) = 6.70129 6.98975 6.84704
#
# Compressibility (1/GPa) = 0.02054142
#
# Stress axis : x y z
#
# Youngs Moduli (GPa) = 73.50370 75.52843 96.34485
#
# Poissons Ratio (x) = 0.25305 0.05106
# Poissons Ratio (y) = 0.24626 0.42980
# Poissons Ratio (z) = 0.03895 0.33694
#
# Static dielectric constant tensor:
#      x y z
#    x 3.528680 0.000000 0.549230 
#    y 0.000000 3.862100 0.000000 
#    z 0.549230 0.000000 3.489900 
# 
# 
# High freq. dielectric constant tensor:
#      x y z
#    x 1.818880 0.000000 0.008170 
#    y 0.000000 1.818030 0.000000 
#    z 0.008170 0.000000 1.817230 
# 
# From -- ./inp_files/92718.got.cif
#   From: 2010.06.25/outbox.cif.g09.slc.cpg/sg12_47_cif.got.tgz:92718.got - 2010.06.28 00:19:55.
