data_PCOD8113882
_publ_section_title
;
Structure prediction by ZEFSAII (Michael W. Deem and Ramdas Pophale) SiO2 
 PCOD8113882
Probable space group: C 2/M
;
_chemical_formula_sum "Si O2"
_cell_formula_units_Z 56
_cell_length_a 15.082961
_cell_length_b 16.951275
_cell_length_c 18.172513
_cell_angle_alpha 90.000000
_cell_angle_beta 35.315083
_cell_angle_gamma 90.000000
_cell_volume 2685.877732
_symmetry_space_group_name_H-M "C 2/M"
_symmetry_group_IT_number 12
_symmetry_cell_setting 'monoclinic'
loop_
_space_group_symop_operation_xyz
x,y,z
-x,y,-z
-x,-y,-z
x,-y,z
1/2+x,1/2+y,z
1/2-x,1/2+y,-z
1/2-x,1/2-y,-z
1/2+x,1/2-y,z
loop_
_atom_site_type_symbol
_atom_site_label
_atom_site_fract_x
_atom_site_fract_y
_atom_site_fract_z
Si Si1 0.345309 0.809830 0.137795
Si Si2 0.459651 0.088055 0.609828
Si Si3 0.736082 0.089536 0.043166
Si Si4 0.663733 0.365795 0.872379
Si Si5 0.353886 0.293593 0.867476
Si Si6 0.618131 0.090585 0.749491
Si Si7 0.382871 0.196496 0.377745
O O1 0.373307 0.718308 0.140547
O O2 0.212538 0.810118 0.168003
O O3 0.302533 0.861925 0.237462
O O4 0.500000 0.847038 0.000000
O O5 0.500000 0.111907 0.500000
O O6 0.273906 0.085807 0.743199
O O7 0.526471 0.155690 0.616900
O O8 0.521988 0.000000 0.586897
O O9 0.743395 0.142629 0.112782
O O10 0.566649 0.098565 0.123637
O O11 0.771930 0.000000 0.041225
O O12 0.864807 0.119238 0.897613
O O13 0.500000 0.408548 0.000000
O O14 0.514936 0.250901 0.746058
O O15 0.250000 0.250000 0.000000
O O16 0.683805 0.127200 0.629048
O O17 0.669908 0.000000 0.719463
O O18 0.250000 0.250000 0.500000
#
# Coordination Sequence:
#
# PCOD8113882 Si02
#       7
#     8   8   8   8   8   8   8
#     4  11  20  34  63 100 131 161 212 266 317 386
#     4  11  24  44  66  92 129 169 216 272 328 388
#     4  11  22  39  65  94 132 171 212 264 330 388
#     4  11  23  38  66  99 131 168 214 270 322 389
#     4  12  20  41  65  95 130 164 216 268 322 379
#     4  11  23  40  65  95 130 172 215 266 331 395
#     4  12  26  42  67  95 125 174 224 267 325 395
#
# _framework density 20.849795
#
# number of rings (size 3 to 8) (size 9 to 14) (size 15 to 20)
#    0.000    0.714    7.143    0.857    4.000    2.000 
#    0.000    2.857    0.000    0.857    0.000    0.000 
#    0.000    0.000    0.000    0.000    0.000    0.000 
#
# Total GULP energy -347028.998262 kJ/mol
# GULP energy per Si atom -12393.892795 kJ/mol
# Density = 2.080234 g / cm^3
# Si number density = 20.849795 Si / 1000 Ang^3
#
#
#
# Elastic Constant Matrix: (Units=GPa)
#
#
# Indices 1 2 3 4 5 6 
#
# 1 85.6755 44.3121 40.5542 -0.0008 19.5891 0.0017
# 2 44.3121 130.8938 56.2361 -0.0027 16.0149 0.0025
# 3 40.5542 56.2361 136.1788 -0.0027 15.5190 0.0028
# 4 -0.0008 -0.0027 -0.0027 23.2736 0.0012 2.4588
# 5 19.5891 16.0149 15.5190 0.0012 28.8252 -0.0021
# 6 0.0017 0.0025 0.0028 2.4588 -0.0021 33.1554
#
#
#
# Elastic Compliance Matrix: (Units=1/GPa)
#
#
# Indices 1 2 3 4 5 6 
#
# 1 0.016510 -0.003523 -0.002563 0.000000 -0.007882 -0.000001
# 2 -0.003523 0.010343 -0.003026 0.000001 -0.001723 -0.000001
# 3 -0.002563 -0.003026 0.009552 0.000001 -0.001720 -0.000001
# 4 0.000000 0.000001 0.000001 0.043306 -0.000003 -0.003212
# 5 -0.007882 -0.001723 -0.001720 -0.000003 0.041932 0.000004
# 6 -0.000001 -0.000001 -0.000001 -0.003212 0.000004 0.030399
#
#
# Mechanical properties :
#
#
# Convention : Reuss Voigt Hill
#
# Bulk Modulus (GPa) = 55.00473 70.55034 62.77753
# Shear Modulus (GPa) = 28.35631 31.16057 29.75844
#
# Velocity S-wave (km/s) = 3.69186 3.87010 3.78203
# Velocity P-wave (km/s) = 6.67920 7.34038 7.01758
#
# Compressibility (1/GPa) = 0.01818026
#
# Stress axis : x y z
#
# Youngs Moduli (GPa) = 60.56983 96.68028 104.68881
#
# Poissons Ratio (x) = 0.34065 0.26835
# Poissons Ratio (y) = 0.21342 0.31676
# Poissons Ratio (z) = 0.15526 0.29253
#
# Static dielectric constant tensor:
#      x y z
#    x 3.655200 -0.000010 0.185450 
#    y -0.000010 4.107220 0.000010 
#    z 0.185450 0.000010 3.739250 
# 
# 
# High freq. dielectric constant tensor:
#      x y z
#    x 1.806630 0.000000 0.022940 
#    y 0.000000 1.822630 0.000000 
#    z 0.022940 0.000000 1.791070 
# 
# From -- ./inp_files/271406.got.cif
#   From: 2010.06.25/outbox.cif.g09.slc.cpg/sg12_136_cif.got.tgz:271406.got - 2010.06.28 00:19:55.
