data_PCOD8113328
_publ_section_title
;
Structure prediction by ZEFSAII (Michael W. Deem and Ramdas Pophale) SiO2 
 PCOD8113328
Probable space group: C 2/M
;
_chemical_formula_sum "Si O2"
_cell_formula_units_Z 56
_cell_length_a 25.506452
_cell_length_b 17.405905
_cell_length_c 9.155106
_cell_angle_alpha 90.000000
_cell_angle_beta 137.398831
_cell_angle_gamma 90.000000
_cell_volume 2751.241853
_symmetry_space_group_name_H-M "C 2/M"
_symmetry_group_IT_number 12
_symmetry_cell_setting 'monoclinic'
loop_
_space_group_symop_operation_xyz
x,y,z
-x,y,-z
-x,-y,-z
x,-y,z
1/2+x,1/2+y,z
1/2-x,1/2+y,-z
1/2-x,1/2-y,-z
1/2+x,1/2-y,z
loop_
_atom_site_type_symbol
_atom_site_label
_atom_site_fract_x
_atom_site_fract_y
_atom_site_fract_z
Si Si1 0.082985 0.087171 0.234436
Si Si2 0.669310 0.308509 0.634449
Si Si3 0.415146 0.000000 0.019044
Si Si4 0.581596 0.707905 0.741675
Si Si5 0.339267 0.859007 0.029949
Si Si6 0.854301 0.086732 0.942529
Si Si7 0.593258 0.000000 0.342306
Si Si8 0.315196 0.866773 0.319879
O O1 0.107825 0.145341 0.411451
O O2 0.145310 0.092459 0.231768
O O3 0.079509 0.000000 0.289904
O O4 0.000000 0.111364 0.000000
O O5 0.646233 0.315590 0.756013
O O6 0.666269 0.218865 0.586019
O O7 0.754460 0.343664 0.789377
O O8 0.378283 0.925896 0.018105
O O9 0.507021 0.000000 0.229456
O O10 0.398205 0.000000 0.813420
O O11 0.500000 0.723998 0.500000
O O12 0.607856 0.783819 0.881981
O O13 0.576587 0.638079 0.846767
O O14 0.335282 0.880658 0.192010
O O15 0.774322 0.117827 0.838902
O O16 0.868877 0.000000 0.024329
O O17 0.634066 0.923547 0.480853
#
# Coordination Sequence:
#
# PCOD8113328 Si02
#       8
#     8   8   4   8   8   8   4   8
#     4  10  24  43  62  91 132 172 219 267 330 398
#     4  11  23  41  66  99 128 172 224 273 325 398
#     4  11  29  45  67 103 130 175 226 273 328 403
#     4  11  23  41  64  95 134 168 219 278 330 387
#     4  11  24  42  68  97 131 170 227 268 331 400
#     4  11  22  39  64  92 126 171 217 265 329 393
#     4  11  27  49  65  97 140 171 222 277 334 391
#     4  11  22  42  67  96 133 172 216 275 330 395
#
# _framework density 20.354444999999998
#
# number of rings (size 3 to 8) (size 9 to 14) (size 15 to 20)
#    0.000    1.143    3.571    2.143    7.000    3.143 
#    2.571    0.000    0.000    0.000    0.000    0.000 
#    0.000    0.000    0.000    0.000    0.000    0.000 
#
# Total GULP energy -347304.056718 kJ/mol
# GULP energy per Si atom -12403.716311 kJ/mol
# Density = 2.030812 g / cm^3
# Si number density = 20.354445 Si / 1000 Ang^3
#
#
#
# Elastic Constant Matrix: (Units=GPa)
#
#
# Indices 1 2 3 4 5 6 
#
# 1 76.7815 49.1242 25.1884 0.0000 6.8012 0.0000
# 2 49.1242 166.8090 78.5083 0.0000 -4.3091 0.0000
# 3 25.1884 78.5083 117.0201 0.0000 12.8770 0.0000
# 4 0.0000 0.0000 0.0000 37.2185 0.0000 -7.6022
# 5 6.8012 -4.3091 12.8770 0.0000 28.0875 0.0000
# 6 0.0000 0.0000 0.0000 -7.6022 0.0000 -15.8402
#
#
#
# Elastic Compliance Matrix: (Units=1/GPa)
#
#
# Indices 1 2 3 4 5 6 
#
# 1 0.016690 -0.005289 0.000516 0.000000 -0.005090 0.000000
# 2 -0.005289 0.010948 -0.006880 0.000000 0.006114 0.000000
# 3 0.000516 -0.006880 0.013880 0.000000 -0.007544 0.000000
# 4 0.000000 0.000000 0.000000 0.024470 0.000000 -0.011744
# 5 -0.005090 0.006114 -0.007544 0.000000 0.041232 0.000000
# 6 0.000000 0.000000 0.000000 -0.011744 0.000000 -0.057495
#
#
# Mechanical properties :
#
#
# Convention : Reuss Voigt Hill
#
# Bulk Modulus (GPa) = 54.90694 74.02802 64.46748
# Shear Modulus (GPa) = 63.21012 23.74581 43.47797
#
# Velocity S-wave (km/s) = 5.57872 3.41928 4.62675
# Velocity P-wave (km/s) = 8.27829 7.21367 7.76425
#
# Compressibility (1/GPa) = 0.01821264
#
# Stress axis : x y z
#
# Youngs Moduli (GPa) = 59.91768 91.33780 72.04623
#
# Poissons Ratio (x) = 0.48313 -0.03720
# Poissons Ratio (y) = 0.31693 0.49564
# Poissons Ratio (z) = -0.03094 0.62836
#
# Static dielectric constant tensor:
#      x y z
#    x 3.843210 0.000000 0.055030 
#    y 0.000000 3.851300 0.000000 
#    z 0.055030 0.000000 3.648750 
# 
# 
# High freq. dielectric constant tensor:
#      x y z
#    x 1.802680 0.000000 0.007110 
#    y 0.000000 1.808500 0.000000 
#    z 0.007110 0.000000 1.795720 
# 
# From -- ./inp_files/106069.got.cif
#   From: 2010.06.25/outbox.cif.g09.slc.cpg/sg12_54_cif.got.tgz:106069.got - 2010.06.28 00:19:55.
