data_PCOD8113069
_publ_section_title
;
Structure prediction by ZEFSAII (Michael W. Deem and Ramdas Pophale) SiO2 
 PCOD8113069
Probable space group: C 2/M
;
_chemical_formula_sum "Si O2"
_cell_formula_units_Z 64
_cell_length_a 17.890077
_cell_length_b 15.216626
_cell_length_c 23.483185
_cell_angle_alpha 90.000000
_cell_angle_beta 151.116557
_cell_angle_gamma 90.000000
_cell_volume 3087.885014
_symmetry_space_group_name_H-M "C 2/M"
_symmetry_group_IT_number 12
_symmetry_cell_setting 'monoclinic'
loop_
_space_group_symop_operation_xyz
x,y,z
-x,y,-z
-x,-y,-z
x,-y,z
1/2+x,1/2+y,z
1/2-x,1/2+y,-z
1/2-x,1/2-y,-z
1/2+x,1/2-y,z
loop_
_atom_site_type_symbol
_atom_site_label
_atom_site_fract_x
_atom_site_fract_y
_atom_site_fract_z
Si Si1 0.472590 0.399006 0.606103
Si Si2 0.903301 0.852108 0.688388
Si Si3 0.645838 0.252600 0.662563
Si Si4 0.013755 0.234496 0.075369
Si Si5 0.534240 0.099095 0.888362
Si Si6 0.364716 0.599393 0.058049
Si Si7 0.441087 0.094352 0.524219
Si Si8 0.224133 0.322792 0.360078
O O1 0.517111 0.500000 0.627226
O O2 0.455207 0.377158 0.660246
O O3 0.613371 0.342942 0.674071
O O4 0.313538 0.378968 0.466767
O O5 0.743084 0.899030 0.596412
O O6 0.884471 0.747175 0.680382
O O7 0.035154 0.883926 0.818907
O O8 0.813164 0.215012 0.789110
O O9 0.524143 0.180297 0.605703
O O10 0.649375 0.271742 0.596164
O O11 0.964353 0.333848 0.057845
O O12 0.904644 0.165244 0.034053
O O13 0.000000 0.218912 0.000000
O O14 0.382361 0.113813 0.748510
O O15 0.531084 0.000000 0.910488
O O16 0.685327 0.115557 0.951483
O O17 0.392933 0.500000 0.055854
O O18 0.500000 0.089846 0.500000
O O19 0.485314 0.000000 0.583349
#
# Coordination Sequence:
#
# PCOD8113069 Si02
#       8
#     8   8   8   8   8   8   8   8
#     4  12  26  40  63  98 134 169 211 262 321 378
#     4  12  23  42  64  96 130 165 212 270 316 377
#     4  11  23  42  62  93 127 170 217 255 319 385
#     4  11  25  43  66  95 132 166 214 268 320 375
#     4  10  23  43  69  95 124 171 218 260 319 382
#     4  11  23  43  69  94 127 170 217 264 321 383
#     4  11  20  36  62  90 123 163 208 257 316 376
#     4  11  22  42  67  91 132 170 213 264 315 383
#
# _framework density 20.72616
#
# number of rings (size 3 to 8) (size 9 to 14) (size 15 to 20)
#    0.000    0.875    5.000    2.625    1.750    5.000 
#    0.000    0.000    0.000    0.000    0.000    0.000 
#    0.000    0.000    0.000    0.000    0.000    0.000 
#
# Total GULP energy -396839.112476 kJ/mol
# GULP energy per Si atom -12401.222265 kJ/mol
# Density = 2.067899 g / cm^3
# Si number density = 20.726160 Si / 1000 Ang^3
#
#
#
# Elastic Constant Matrix: (Units=GPa)
#
#
# Indices 1 2 3 4 5 6 
#
# 1 82.7543 46.4131 30.6143 -0.0009 -16.4295 -0.0004
# 2 46.4131 120.7618 32.3871 -0.0039 -3.8042 -0.0020
# 3 30.6143 32.3871 48.4369 -0.0053 2.1507 -0.0021
# 4 -0.0009 -0.0039 -0.0053 26.8576 -0.0002 16.0045
# 5 -16.4295 -3.8042 2.1507 -0.0002 36.8615 -0.0008
# 6 -0.0004 -0.0020 -0.0021 16.0045 -0.0008 43.0202
#
#
#
# Elastic Compliance Matrix: (Units=1/GPa)
#
#
# Indices 1 2 3 4 5 6 
#
# 1 0.020314 -0.004834 -0.010013 -0.000002 0.009139 0.000000
# 2 -0.004834 0.011317 -0.004480 0.000001 -0.000725 0.000000
# 3 -0.010013 -0.004480 0.030266 0.000006 -0.006691 -0.000001
# 4 -0.000002 0.000001 0.000006 0.047839 -0.000001 -0.017797
# 5 0.009139 -0.000725 -0.006691 -0.000001 0.031518 0.000001
# 6 0.000000 0.000000 -0.000001 -0.017797 0.000001 0.029866
#
#
# Mechanical properties :
#
#
# Convention : Reuss Voigt Hill
#
# Bulk Modulus (GPa) = 43.02115 52.30911 47.66513
# Shear Modulus (GPa) = 22.98631 30.85040 26.91836
#
# Velocity S-wave (km/s) = 3.33385 3.86226 3.60774
# Velocity P-wave (km/s) = 5.96837 6.72179 6.35625
#
# Compressibility (1/GPa) = 0.02324438
#
# Stress axis : x y z
#
# Youngs Moduli (GPa) = 49.22762 88.36081 33.04004
#
# Poissons Ratio (x) = 0.42715 0.33082
# Poissons Ratio (y) = 0.23797 0.14801
# Poissons Ratio (z) = 0.49290 0.39582
#
# Static dielectric constant tensor:
#      x y z
#    x 3.411770 -0.000010 -0.246200 
#    y -0.000010 4.242710 -0.000010 
#    z -0.246200 -0.000010 3.277470 
# 
# 
# High freq. dielectric constant tensor:
#      x y z
#    x 1.803710 0.000000 0.018080 
#    y 0.000000 1.828650 0.000000 
#    z 0.018080 0.000000 1.807470 
# 
# From -- ./inp_files/344073.got.cif
#   From: 2010.06.25/outbox.cif.g09.slc.cpg/sg12_173_cif.got.tgz:344073.got - 2010.06.28 00:19:55.
