data_PCOD8113920
_publ_section_title
;
Structure prediction by ZEFSAII (Michael W. Deem and Ramdas Pophale) SiO2 
 PCOD8113920
Probable space group: C 2/M
;
_chemical_formula_sum "Si O2"
_cell_formula_units_Z 48
_cell_length_a 17.334380
_cell_length_b 19.777782
_cell_length_c 12.199387
_cell_angle_alpha 90.000000
_cell_angle_beta 34.803767
_cell_angle_gamma 90.000000
_cell_volume 2387.169100
_symmetry_space_group_name_H-M "C 2/M"
_symmetry_group_IT_number 12
_symmetry_cell_setting 'monoclinic'
loop_
_space_group_symop_operation_xyz
x,y,z
-x,y,-z
-x,-y,-z
x,-y,z
1/2+x,1/2+y,z
1/2-x,1/2+y,-z
1/2-x,1/2-y,-z
1/2+x,1/2-y,z
loop_
_atom_site_type_symbol
_atom_site_label
_atom_site_fract_x
_atom_site_fract_y
_atom_site_fract_z
Si Si1 0.726895 0.210945 0.357507
Si Si2 0.388423 0.424884 0.536050
Si Si3 0.273448 0.825091 0.147835
Si Si4 0.151728 0.923887 0.863667
Si Si5 0.099391 0.862279 0.142643
Si Si6 0.465162 0.767133 0.223755
O O1 0.707094 0.253997 0.268584
O O2 0.753930 0.131839 0.304695
O O3 0.594289 0.213115 0.588336
O O4 0.849862 0.250062 0.272058
O O5 0.500000 0.426382 0.500000
O O6 0.339157 0.500000 0.563677
O O7 0.258095 0.382147 0.724308
O O8 0.455622 0.390804 0.351863
O O9 0.204818 0.846258 0.114418
O O10 0.435556 0.824891 0.940269
O O11 0.201148 0.000000 0.776287
O O12 0.161470 0.915576 0.984061
O O13 0.000000 0.911905 0.000000
O O14 0.068595 0.794800 0.111949
#
# Coordination Sequence:
#
# PCOD8113920 Si02
#       6
#     8   8   8   8   8   8
#     4  11  22  39  59  85 123 152 199 244 289 353
#     4   9  19  35  56  85 118 148 186 239 295 345
#     4  11  21  36  61  86 117 149 195 239 301 343
#     4  11  22  38  60  86 119 157 195 239 294 353
#     4  11  20  36  58  91 114 144 193 249 287 346
#     4  11  22  36  58  89 115 152 194 244 288 344
#
# _framework density 20.107500000000002
#
# number of rings (size 3 to 8) (size 9 to 14) (size 15 to 20)
#    0.000    1.333    5.000    1.500    0.000    0.667 
#    0.000    0.833    0.000    3.000    0.000    0.000 
#    0.000    0.000    0.000    0.000    0.000    0.000 
#
# Total GULP energy -297579.238884 kJ/mol
# GULP energy per Si atom -12399.134954 kJ/mol
# Density = 2.006173 g / cm^3
# Si number density = 20.107500 Si / 1000 Ang^3
#
#
#
# Elastic Constant Matrix: (Units=GPa)
#
#
# Indices 1 2 3 4 5 6 
#
# 1 48.1407 24.2469 22.3809 -0.0013 10.0635 0.0011
# 2 24.2469 124.0878 50.2770 0.0001 -2.2342 0.0005
# 3 22.3809 50.2770 129.8359 -0.0006 -3.6957 0.0028
# 4 -0.0013 0.0001 -0.0006 26.6075 0.0008 -4.5988
# 5 10.0635 -2.2342 -3.6957 0.0008 25.9534 -0.0018
# 6 0.0011 0.0005 0.0028 -4.5988 -0.0018 18.5492
#
#
#
# Elastic Compliance Matrix: (Units=1/GPa)
#
#
# Indices 1 2 3 4 5 6 
#
# 1 0.026715 -0.004064 -0.003350 0.000001 -0.011186 -0.000002
# 2 -0.004064 0.010179 -0.003184 0.000000 0.001999 0.000001
# 3 -0.003350 -0.003184 0.009580 0.000000 0.002389 -0.000001
# 4 0.000001 0.000000 0.000000 0.039266 -0.000001 0.009735
# 5 -0.011186 0.001999 0.002389 -0.000001 0.043380 0.000004
# 6 -0.000002 0.000001 -0.000001 0.009735 0.000004 0.056324
#
#
# Mechanical properties :
#
#
# Convention : Reuss Voigt Hill
#
# Bulk Modulus (GPa) = 39.55968 55.09710 47.32839
# Shear Modulus (GPa) = 23.24853 27.89934 25.57394
#
# Velocity S-wave (km/s) = 3.40400 3.72897 3.57018
# Velocity P-wave (km/s) = 5.93013 6.78241 6.37054
#
# Compressibility (1/GPa) = 0.02527826
#
# Stress axis : x y z
#
# Youngs Moduli (GPa) = 37.43206 98.24020 104.37900
#
# Poissons Ratio (x) = 0.39928 0.34963
# Poissons Ratio (y) = 0.15214 0.33236
# Poissons Ratio (z) = 0.12538 0.31282
#
# Static dielectric constant tensor:
#      x y z
#    x 3.482360 0.000000 0.206980 
#    y 0.000000 3.770980 0.000000 
#    z 0.206980 0.000000 3.762570 
# 
# 
# High freq. dielectric constant tensor:
#      x y z
#    x 1.763550 0.000000 0.025740 
#    y 0.000000 1.777410 0.000000 
#    z 0.025740 0.000000 1.789360 
# 
# From -- ./inp_files/159129.got.cif
#   From: 2010.06.25/outbox.cif.g09.slc.cpg/sg12_80_cif.got.tgz:159129.got - 2010.06.28 00:19:55.
