data_PCOD8113786
_publ_section_title
;
Structure prediction by ZEFSAII (Michael W. Deem and Ramdas Pophale) SiO2 
 PCOD8113786
Probable space group: C 2/M
;
_chemical_formula_sum "Si O2"
_cell_formula_units_Z 40
_cell_length_a 25.285641
_cell_length_b 8.912161
_cell_length_c 18.122274
_cell_angle_alpha 90.000000
_cell_angle_beta 146.836566
_cell_angle_gamma 90.000000
_cell_volume 2233.984249
_symmetry_space_group_name_H-M "C 2/M"
_symmetry_group_IT_number 12
_symmetry_cell_setting 'monoclinic'
loop_
_space_group_symop_operation_xyz
x,y,z
-x,y,-z
-x,-y,-z
x,-y,z
1/2+x,1/2+y,z
1/2-x,1/2+y,-z
1/2-x,1/2-y,-z
1/2+x,1/2-y,z
loop_
_atom_site_type_symbol
_atom_site_label
_atom_site_fract_x
_atom_site_fract_y
_atom_site_fract_z
Si Si1 0.215468 0.676297 0.198115
Si Si2 0.088761 0.165895 0.159658
Si Si3 0.349303 0.674214 0.138914
Si Si4 0.604528 0.826389 0.656028
Si Si5 0.932284 0.826390 0.082217
O O1 0.228064 0.500000 0.210666
O O2 0.170832 0.722287 0.225542
O O3 0.319621 0.751933 0.311255
O O4 0.148675 0.726538 0.052057
O O5 0.040918 0.218838 0.181749
O O6 0.134777 0.000000 0.220742
O O7 0.000000 0.163526 0.000000
O O8 0.329796 0.500000 0.132205
O O9 0.394106 0.749730 0.262796
O O10 0.426397 0.697228 0.162930
O O11 0.250000 0.750000 0.000000
O O12 0.500000 0.801634 0.500000
O O13 0.631057 0.000000 0.696764
O O14 0.912033 0.000000 0.036829
#
# Coordination Sequence:
#
# PCOD8113786 Si02
#       5
#     8   8   8   8   8
#     4  11  20  30  50  78 107 138 174 223 269 314
#     4   8  15  29  48  71 103 141 174 210 259 317
#     4  11  21  34  56  83 111 142 177 221 269 319
#     4  11  24  40  56  75 105 146 186 224 270 324
#     4   9  18  32  51  76 108 142 174 211 263 321
#
# _framework density 17.905228999999999
#
# number of rings (size 3 to 8) (size 9 to 14) (size 15 to 20)
#    0.000    2.000    2.000    4.200    0.000    6.000 
#    0.000    0.000    0.000    1.200    0.000    0.000 
#    0.000    0.000    0.000    0.000    0.000    0.000 
#
# Total GULP energy -247957.315550 kJ/mol
# GULP energy per Si atom -12397.865778 kJ/mol
# Density = 1.786448 g / cm^3
# Si number density = 17.905229 Si / 1000 Ang^3
#
#
#
# Elastic Constant Matrix: (Units=GPa)
#
#
# Indices 1 2 3 4 5 6 
#
# 1 168.3087 73.8339 48.8006 0.0000 10.6021 0.0000
# 2 73.8339 140.0368 52.8791 0.0000 7.7429 0.0000
# 3 48.8006 52.8791 57.6226 0.0000 0.9464 0.0000
# 4 0.0000 0.0000 0.0000 17.2560 0.0000 -3.4817
# 5 10.6021 7.7429 0.9464 0.0000 20.9844 0.0000
# 6 0.0000 0.0000 0.0000 -3.4817 0.0000 28.3439
#
#
#
# Elastic Compliance Matrix: (Units=1/GPa)
#
#
# Indices 1 2 3 4 5 6 
#
# 1 0.008702 -0.002519 -0.005005 0.000000 -0.003241 0.000000
# 2 -0.002519 0.011933 -0.008772 0.000000 -0.002735 0.000000
# 3 -0.005005 -0.008772 0.029570 0.000000 0.004432 0.000000
# 4 0.000000 0.000000 0.000000 0.059424 0.000000 0.007299
# 5 -0.003241 -0.002735 0.004432 0.000000 0.050101 0.000000
# 6 0.000000 0.000000 0.000000 0.007299 0.000000 0.036178
#
#
# Mechanical properties :
#
#
# Convention : Reuss Voigt Hill
#
# Bulk Modulus (GPa) = 56.77670 79.66612 68.22141
# Shear Modulus (GPa) = 21.33381 26.01383 23.67382
#
# Velocity S-wave (km/s) = 3.45553 3.81578 3.64012
# Velocity P-wave (km/s) = 6.90647 8.00021 7.47338
#
# Compressibility (1/GPa) = 0.01761286
#
# Stress axis : x y z
#
# Youngs Moduli (GPa) = 114.91952 83.80287 33.81790
#
# Poissons Ratio (x) = 0.21109 0.16925
# Poissons Ratio (y) = 0.28947 0.29666
# Poissons Ratio (z) = 0.57514 0.73514
#
# Static dielectric constant tensor:
#      x y z
#    x 3.848530 0.000000 0.231820 
#    y 0.000000 3.396640 0.000000 
#    z 0.231820 0.000000 2.695870 
# 
# 
# High freq. dielectric constant tensor:
#      x y z
#    x 1.721320 0.000000 0.008310 
#    y 0.000000 1.700090 0.000000 
#    z 0.008310 0.000000 1.633000 
# 
# From -- ./inp_files/228941.got.cif
#   From: 2010.06.25/outbox.cif.g09.slc.cpg/sg12_115_cif.got.tgz:228941.got - 2010.06.28 00:19:55.
