data_PCOD8113065
_publ_section_title
;
Structure prediction by ZEFSAII (Michael W. Deem and Ramdas Pophale) SiO2 
 PCOD8113065
Probable space group: C 2/M
;
_chemical_formula_sum "Si O2"
_cell_formula_units_Z 32
_cell_length_a 10.154770
_cell_length_b 31.703596
_cell_length_c 5.013528
_cell_angle_alpha 90.000000
_cell_angle_beta 112.296427
_cell_angle_gamma 90.000000
_cell_volume 1493.390395
_symmetry_space_group_name_H-M "C 2/M"
_symmetry_group_IT_number 12
_symmetry_cell_setting 'monoclinic'
loop_
_space_group_symop_operation_xyz
x,y,z
-x,y,-z
-x,-y,-z
x,-y,z
1/2+x,1/2+y,z
1/2-x,1/2+y,-z
1/2-x,1/2-y,-z
1/2+x,1/2-y,z
loop_
_atom_site_type_symbol
_atom_site_label
_atom_site_fract_x
_atom_site_fract_y
_atom_site_fract_z
Si Si1 0.000000 0.794347 0.500000
Si Si2 0.344170 0.887641 0.451005
Si Si3 0.405864 0.548724 0.670630
Si Si4 0.285574 0.166378 0.898181
Si Si5 0.000000 0.261832 0.000000
O O1 0.125440 0.825210 0.684926
O O2 0.949911 0.766267 0.712007
O O3 0.500000 0.905512 0.500000
O O4 0.242166 0.926960 0.424776
O O5 0.365569 0.860676 0.735113
O O6 0.280087 0.858030 0.172670
O O7 0.500000 0.566247 0.500000
O O8 0.366013 0.500000 0.596493
O O9 0.500000 0.556252 0.000000
O O10 0.367174 0.210475 0.997741
#
# Coordination Sequence:
#
# PCOD8113065 Si02
#       5
#     4   8   8   8   4
#     4  12  26  40  66  94 121 174 221 272 330 384
#     4  12  24  43  66  96 135 175 212 265 323 384
#     4  10  23  43  69 101 134 169 211 263 318 380
#     4  12  25  42  65  96 129 169 219 273 323 385
#     4  12  22  46  62  90 131 168 215 276 332 386
#
# _framework density 21.427752000000002
#
# number of rings (size 3 to 8) (size 9 to 14) (size 15 to 20)
#    0.000    0.500    2.500    6.000    5.250    0.500 
#    0.000    0.000    0.000    7.500    0.000    0.000 
#    0.000    0.000    0.000    0.000    0.000    0.000 
#
# Total GULP energy -198545.171686 kJ/mol
# GULP energy per Si atom -12409.073230 kJ/mol
# Density = 2.137898 g / cm^3
# Si number density = 21.427752 Si / 1000 Ang^3
#
#
#
# Elastic Constant Matrix: (Units=GPa)
#
#
# Indices 1 2 3 4 5 6 
#
# 1 131.9935 57.5453 29.8425 0.0000 11.6881 0.0000
# 2 57.5453 84.7151 37.2424 0.0000 -0.7683 0.0000
# 3 29.8425 37.2424 108.2465 0.0000 -14.1563 0.0000
# 4 0.0000 0.0000 0.0000 16.3610 0.0000 -8.6767
# 5 11.6881 -0.7683 -14.1563 0.0000 46.7359 0.0000
# 6 0.0000 0.0000 0.0000 -8.6767 0.0000 35.9019
#
#
#
# Elastic Compliance Matrix: (Units=1/GPa)
#
#
# Indices 1 2 3 4 5 6 
#
# 1 0.011241 -0.007206 -0.001044 0.000000 -0.003246 0.000000
# 2 -0.007206 0.018601 -0.004308 0.000000 0.000803 0.000000
# 3 -0.001044 -0.004308 0.011488 0.000000 0.003670 0.000000
# 4 0.000000 0.000000 0.000000 0.070106 0.000000 0.016943
# 5 -0.003246 0.000803 0.003670 0.000000 0.023334 0.000000
# 6 0.000000 0.000000 0.000000 0.016943 0.000000 0.031949
#
#
# Mechanical properties :
#
#
# Convention : Reuss Voigt Hill
#
# Bulk Modulus (GPa) = 61.67838 63.80170 62.74004
# Shear Modulus (GPa) = 25.34983 33.15476 29.25229
#
# Velocity S-wave (km/s) = 3.44326 3.93782 3.69881
# Velocity P-wave (km/s) = 6.68243 7.10740 6.89819
#
# Compressibility (1/GPa) = 0.01621314
#
# Stress axis : x y z
#
# Youngs Moduli (GPa) = 88.95611 53.76187 87.04633
#
# Poissons Ratio (x) = 0.38743 0.09090
# Poissons Ratio (y) = 0.64106 0.37497
# Poissons Ratio (z) = 0.09290 0.23159
#
# Static dielectric constant tensor:
#      x y z
#    x 3.874060 0.000000 -0.141620 
#    y 0.000000 3.787680 0.000000 
#    z -0.141620 0.000000 4.053140 
# 
# 
# High freq. dielectric constant tensor:
#      x y z
#    x 1.852500 0.000000 -0.004470 
#    y 0.000000 1.833410 0.000000 
#    z -0.004470 0.000000 1.861150 
# 
# From -- ./inp_files/3917.got.cif
#   From: 2010.06.25/outbox.cif.g09.slc.cpg/sg12_2_cif.got.tgz:3917.got - 2010.06.28 00:19:55.
