data_PCOD8113352
_publ_section_title
;
Structure prediction by ZEFSAII (Michael W. Deem and Ramdas Pophale) SiO2 
 PCOD8113352
Probable space group: C 2/M
;
_chemical_formula_sum "Si O2"
_cell_formula_units_Z 48
_cell_length_a 9.034799
_cell_length_b 26.904904
_cell_length_c 8.886046
_cell_angle_alpha 90.000000
_cell_angle_beta 100.504421
_cell_angle_gamma 90.000000
_cell_volume 2123.823439
_symmetry_space_group_name_H-M "C 2/M"
_symmetry_group_IT_number 12
_symmetry_cell_setting 'monoclinic'
loop_
_space_group_symop_operation_xyz
x,y,z
-x,y,-z
-x,-y,-z
x,-y,z
1/2+x,1/2+y,z
1/2-x,1/2+y,-z
1/2-x,1/2-y,-z
1/2+x,1/2-y,z
loop_
_atom_site_type_symbol
_atom_site_label
_atom_site_fract_x
_atom_site_fract_y
_atom_site_fract_z
Si Si1 0.896622 0.646052 0.205949
Si Si2 0.706805 0.299393 0.406437
Si Si3 0.864642 0.113901 0.389362
Si Si4 0.609273 0.771392 0.151581
Si Si5 0.441587 0.055094 0.656228
Si Si6 0.142689 0.166585 0.919283
O O1 0.837491 0.669160 0.350749
O O2 0.051172 0.676794 0.209402
O O3 0.941497 0.588611 0.229395
O O4 0.781436 0.646742 0.046804
O O5 0.750000 0.250000 0.500000
O O6 0.637072 0.334791 0.517010
O O7 0.596482 0.277880 0.255204
O O8 0.721826 0.079286 0.373279
O O9 0.899274 0.127974 0.221649
O O10 0.000000 0.084218 0.500000
O O11 0.784337 0.781495 0.134274
O O12 0.500000 0.753900 0.000000
O O13 0.500000 0.050892 0.500000
O O14 0.434333 0.000000 0.727851
O O15 0.000000 0.173241 0.000000
#
# Coordination Sequence:
#
# PCOD8113352 Si02
#       6
#     8   8   8   8   8   8
#     4  11  24  45  72 101 141 180 237 293 340 416
#     4  12  24  39  67  99 141 185 237 282 336 405
#     4  12  26  44  71 105 140 180 233 292 349 412
#     4  10  24  43  68  98 142 193 240 277 341 408
#     4  11  24  48  79 108 134 175 231 296 364 416
#     4  11  24  45  68  99 147 189 227 286 352 400
#
# _framework density 22.600750000000001
#
# number of rings (size 3 to 8) (size 9 to 14) (size 15 to 20)
#    0.000    0.833    5.000    1.000    2.333    6.333 
#    0.000    1.667    0.000    1.000    0.000    0.000 
#    0.000    0.000    0.000    0.000    0.000    0.000 
#
# Total GULP energy -297399.360479 kJ/mol
# GULP energy per Si atom -12391.640020 kJ/mol
# Density = 2.254931 g / cm^3
# Si number density = 22.600750 Si / 1000 Ang^3
#
#
#
# Elastic Constant Matrix: (Units=GPa)
#
#
# Indices 1 2 3 4 5 6 
#
# 1 113.9291 41.6089 48.5642 0.0000 -14.0248 0.0000
# 2 41.6089 151.5563 50.4678 0.0000 0.8147 0.0000
# 3 48.5642 50.4678 116.5631 0.0000 -8.1904 0.0000
# 4 0.0000 0.0000 0.0000 23.1985 0.0000 -6.4718
# 5 -14.0248 0.8147 -8.1904 0.0000 34.4938 0.0000
# 6 0.0000 0.0000 0.0000 -6.4718 0.0000 21.6252
#
#
#
# Elastic Compliance Matrix: (Units=1/GPa)
#
#
# Indices 1 2 3 4 5 6 
#
# 1 0.011541 -0.001961 -0.003688 0.000000 0.003863 0.000000
# 2 -0.001961 0.008077 -0.002796 0.000000 -0.001652 0.000000
# 3 -0.003688 -0.002796 0.011416 0.000000 0.001277 0.000000
# 4 0.000000 0.000000 0.000000 0.047033 0.000000 0.014076
# 5 0.003863 -0.001652 0.001277 0.000000 0.030904 0.000000
# 6 0.000000 0.000000 0.000000 0.014076 0.000000 0.050455
#
#
# Mechanical properties :
#
#
# Convention : Reuss Voigt Hill
#
# Bulk Modulus (GPa) = 70.70312 73.70335 72.20324
# Shear Modulus (GPa) = 27.61980 31.95733 29.78857
#
# Velocity S-wave (km/s) = 3.49961 3.76439 3.63441
# Velocity P-wave (km/s) = 6.90515 7.18164 7.04476
#
# Compressibility (1/GPa) = 0.01414365
#
# Stress axis : x y z
#
# Youngs Moduli (GPa) = 86.64557 123.81524 87.59815
#
# Poissons Ratio (x) = 0.24284 0.32305
# Poissons Ratio (y) = 0.16994 0.24491
# Poissons Ratio (z) = 0.31954 0.34616
#
# Static dielectric constant tensor:
#      x y z
#    x 3.843890 0.000000 -0.663090 
#    y 0.000000 4.234940 0.000000 
#    z -0.663090 0.000000 2.566390 
# 
# 
# High freq. dielectric constant tensor:
#      x y z
#    x 1.910140 0.000000 0.001660 
#    y 0.000000 1.857080 0.000000 
#    z 0.001660 0.000000 1.914820 
# 
# From -- ./inp_files/42198.got.cif
#   From: 2010.06.25/outbox.cif.g09.slc.cpg/sg12_22_cif.got.tgz:42198.got - 2010.06.28 00:19:55.
