data_PCOD8113388
_publ_section_title
;
Structure prediction by ZEFSAII (Michael W. Deem and Ramdas Pophale) SiO2 
 PCOD8113388
Probable space group: C 2/M
;
_chemical_formula_sum "Si O2"
_cell_formula_units_Z 56
_cell_length_a 11.483638
_cell_length_b 23.014177
_cell_length_c 11.382368
_cell_angle_alpha 90.000000
_cell_angle_beta 72.278262
_cell_angle_gamma 90.000000
_cell_volume 2865.454728
_symmetry_space_group_name_H-M "C 2/M"
_symmetry_group_IT_number 12
_symmetry_cell_setting 'monoclinic'
loop_
_space_group_symop_operation_xyz
x,y,z
-x,y,-z
-x,-y,-z
x,-y,z
1/2+x,1/2+y,z
1/2-x,1/2+y,-z
1/2-x,1/2-y,-z
1/2+x,1/2-y,z
loop_
_atom_site_type_symbol
_atom_site_label
_atom_site_fract_x
_atom_site_fract_y
_atom_site_fract_z
Si Si1 0.620830 0.799091 0.617810
Si Si2 0.300967 0.321562 0.763701
Si Si3 0.643493 0.802182 0.195409
Si Si4 0.703153 0.877367 0.390379
Si Si5 0.908346 0.500000 0.913514
Si Si6 0.559093 0.331432 0.601745
Si Si7 0.358595 0.882144 0.011776
Si Si8 0.092713 0.500000 0.363192
O O1 0.745140 0.813974 0.650140
O O2 0.502304 0.805076 0.736642
O O3 0.613093 0.846133 0.513696
O O4 0.622688 0.732590 0.570827
O O5 0.291030 0.259889 0.831275
O O6 0.445328 0.334771 0.725890
O O7 0.226005 0.373425 0.848432
O O8 0.711685 0.837448 0.274510
O O9 0.672505 0.828928 0.061559
O O10 0.841002 0.879447 0.396506
O O11 0.669294 0.941983 0.362031
O O12 0.826348 0.442540 0.955429
O O13 0.958506 0.500000 0.759322
O O14 0.000000 0.500000 0.000000
O O15 0.500000 0.351127 0.500000
O O16 0.500000 0.881713 0.000000
O O17 0.000000 0.500000 0.500000
#
# Coordination Sequence:
#
# PCOD8113388 Si02
#       8
#     8   8   8   8   4   8   8   4
#     4  11  20  36  63  95 126 165 205 260 324 390
#     4  11  22  37  61  95 124 166 211 253 321 390
#     4  11  21  36  60  91 128 156 207 262 319 374
#     4  12  23  39  63  94 126 166 209 263 324 379
#     4  10  24  44  67  92 127 169 212 262 327 378
#     4  11  22  39  61  92 135 168 204 258 324 399
#     4  11  22  40  62  87 123 163 210 263 315 376
#     4  12  26  44  70 100 130 168 225 278 318 375
#
# _framework density 19.543147000000001
#
# number of rings (size 3 to 8) (size 9 to 14) (size 15 to 20)
#    0.000    0.857    5.714    3.857    0.000    0.000 
#    0.000    1.786    0.000    0.857    0.000    0.000 
#    0.000    0.000    0.000    0.000    0.000    0.000 
#
# Total GULP energy -346940.625128 kJ/mol
# GULP energy per Si atom -12390.736612 kJ/mol
# Density = 1.949867 g / cm^3
# Si number density = 19.543147 Si / 1000 Ang^3
#
#
#
# Elastic Constant Matrix: (Units=GPa)
#
#
# Indices 1 2 3 4 5 6 
#
# 1 91.4788 24.1751 28.2031 0.0000 2.9932 0.0000
# 2 24.1751 99.8484 45.0693 0.0000 -0.0825 0.0000
# 3 28.2031 45.0693 97.2365 0.0000 6.3955 0.0000
# 4 0.0000 0.0000 0.0000 -34.1598 0.0000 -7.4645
# 5 2.9932 -0.0825 6.3955 0.0000 27.6937 0.0000
# 6 0.0000 0.0000 0.0000 -7.4645 0.0000 19.1817
#
#
#
# Elastic Compliance Matrix: (Units=1/GPa)
#
#
# Indices 1 2 3 4 5 6 
#
# 1 0.012248 -0.001750 -0.002695 0.000000 -0.000707 0.000000
# 2 -0.001750 0.012970 -0.005604 0.000000 0.001522 0.000000
# 3 -0.002695 -0.005604 0.013856 0.000000 -0.002925 0.000000
# 4 0.000000 0.000000 0.000000 -0.026980 0.000000 -0.010499
# 5 -0.000707 0.001522 -0.002925 0.000000 0.036866 0.000000
# 6 0.000000 0.000000 0.000000 -0.010499 0.000000 0.048047
#
#
# Mechanical properties :
#
#
# Convention : Reuss Voigt Hill
#
# Bulk Modulus (GPa) = 52.69842 53.71763 53.20803
# Shear Modulus (GPa) = 40.50912 15.28420 27.89666
#
# Velocity S-wave (km/s) = 4.55775 2.79959 3.78225
# Velocity P-wave (km/s) = 7.39737 6.16414 6.80874
#
# Compressibility (1/GPa) = 0.01897590
#
# Stress axis : x y z
#
# Youngs Moduli (GPa) = 81.64700 77.10348 72.17190
#
# Poissons Ratio (x) = 0.13489 0.19451
# Poissons Ratio (y) = 0.14284 0.40446
# Poissons Ratio (z) = 0.22004 0.43209
#
# Static dielectric constant tensor:
#      x y z
#    x 3.686030 0.000000 0.153360 
#    y 0.000000 3.885760 0.000000 
#    z 0.153360 0.000000 3.671680 
# 
# 
# High freq. dielectric constant tensor:
#      x y z
#    x 1.755810 0.000000 0.009800 
#    y 0.000000 1.747080 0.000000 
#    z 0.009800 0.000000 1.765350 
# 
# From -- ./inp_files/133898.got.cif
#   From: 2010.06.25/outbox.cif.g09.slc.cpg/sg12_67_cif.got.tgz:133898.got - 2010.06.28 00:19:55.
