data_PCOD8113423
_publ_section_title
;
Structure prediction by ZEFSAII (Michael W. Deem and Ramdas Pophale) SiO2 
 PCOD8113423
Probable space group: C 2/M
;
_chemical_formula_sum "Si O2"
_cell_formula_units_Z 64
_cell_length_a 9.377869
_cell_length_b 15.551626
_cell_length_c 28.620666
_cell_angle_alpha 90.000000
_cell_angle_beta 130.445227
_cell_angle_gamma 90.000000
_cell_volume 3176.577559
_symmetry_space_group_name_H-M "C 2/M"
_symmetry_group_IT_number 12
_symmetry_cell_setting 'monoclinic'
loop_
_space_group_symop_operation_xyz
x,y,z
-x,y,-z
-x,-y,-z
x,-y,z
1/2+x,1/2+y,z
1/2-x,1/2+y,-z
1/2-x,1/2-y,-z
1/2+x,1/2-y,z
loop_
_atom_site_type_symbol
_atom_site_label
_atom_site_fract_x
_atom_site_fract_y
_atom_site_fract_z
Si Si1 0.032458 0.258231 0.954884
Si Si2 0.635818 0.812663 0.337983
Si Si3 0.287995 0.600976 0.868770
Si Si4 0.566397 0.900147 0.140822
Si Si5 0.272027 0.901218 0.248578
Si Si6 0.527303 0.645276 0.737764
Si Si7 0.027482 0.905920 0.637102
Si Si8 0.714606 0.212086 0.542512
O O1 0.939087 0.165356 0.923789
O O2 0.965907 0.337139 0.909097
O O3 0.250000 0.250000 0.000000
O O4 0.000000 0.288676 0.000000
O O5 0.477072 0.883560 0.314633
O O6 0.511711 0.742174 0.285504
O O7 0.797942 0.844499 0.337719
O O8 0.729266 0.781049 0.405838
O O9 0.354254 0.500000 0.885756
O O10 0.258594 0.636977 0.809898
O O11 0.091713 0.611759 0.853662
O O12 0.760002 0.869924 0.203920
O O13 0.576585 0.000000 0.126489
O O14 0.108026 0.874231 0.248262
O O15 0.257078 0.000000 0.236733
O O16 0.489471 0.586783 0.684319
O O17 0.838416 0.873034 0.572907
O O18 0.071085 0.000000 0.626028
O O19 0.500000 0.184501 0.500000
O O20 0.750000 0.250000 0.500000
#
# Coordination Sequence:
#
# PCOD8113423 Si02
#       8
#     8   8   8   8   8   8   8   8
#     4  12  26  44  66  96 128 166 218 266 310 381
#     4  11  23  40  66  88 125 171 206 253 313 385
#     4  10  24  45  68  91 128 174 211 258 322 389
#     4  11  24  44  67  93 129 170 210 262 322 380
#     4  11  23  39  62  96 126 155 202 260 317 372
#     4  11  23  40  64  96 127 160 205 259 318 375
#     4  11  23  41  65  95 126 164 210 263 317 372
#     4  11  23  43  64  88 124 168 215 257 309 375
#
# _framework density 20.147469999999998
#
# number of rings (size 3 to 8) (size 9 to 14) (size 15 to 20)
#    0.000    1.000    2.500    4.500    3.500    4.250 
#    0.000    1.875    0.000    0.000    0.000    0.000 
#    0.000    0.000    0.000    0.000    0.000    0.000 
#
# Total GULP energy -396685.494930 kJ/mol
# GULP energy per Si atom -12396.421717 kJ/mol
# Density = 2.010161 g / cm^3
# Si number density = 20.147470 Si / 1000 Ang^3
#
#
#
# Elastic Constant Matrix: (Units=GPa)
#
#
# Indices 1 2 3 4 5 6 
#
# 1 147.0220 51.9104 65.8483 0.0000 3.6673 0.0000
# 2 51.9104 113.2511 69.0347 0.0000 4.2059 0.0000
# 3 65.8483 69.0347 137.1666 0.0000 7.4595 0.0000
# 4 0.0000 0.0000 0.0000 7.7976 0.0000 1.8145
# 5 3.6673 4.2059 7.4595 0.0000 52.1528 0.0000
# 6 0.0000 0.0000 0.0000 1.8145 0.0000 25.5091
#
#
#
# Elastic Compliance Matrix: (Units=1/GPa)
#
#
# Indices 1 2 3 4 5 6 
#
# 1 0.009015 -0.002155 -0.003243 0.000000 0.000004 0.000000
# 2 -0.002155 0.013254 -0.005630 0.000000 -0.000112 0.000000
# 3 -0.003243 -0.005630 0.011735 0.000000 -0.000996 0.000000
# 4 0.000000 0.000000 0.000000 0.130404 0.000000 -0.009276
# 5 0.000004 -0.000112 -0.000996 0.000000 0.019326 0.000000
# 6 0.000000 0.000000 0.000000 -0.009276 0.000000 0.039861
#
#
# Mechanical properties :
#
#
# Convention : Reuss Voigt Hill
#
# Bulk Modulus (GPa) = 83.70155 85.66963 84.68559
# Shear Modulus (GPa) = 20.02933 31.13498 25.58216
#
# Velocity S-wave (km/s) = 3.15641 3.93536 3.56721
# Velocity P-wave (km/s) = 7.41071 7.95381 7.68705
#
# Compressibility (1/GPa) = 0.01194721
#
# Stress axis : x y z
#
# Youngs Moduli (GPa) = 110.92331 75.45033 85.21573
#
# Poissons Ratio (x) = 0.16263 0.27638
# Poissons Ratio (y) = 0.23909 0.47974
# Poissons Ratio (z) = 0.35975 0.42476
#
# Static dielectric constant tensor:
#      x y z
#    x 3.703670 0.000000 0.050120 
#    y 0.000000 3.806420 0.000000 
#    z 0.050120 0.000000 3.691040 
# 
# 
# High freq. dielectric constant tensor:
#      x y z
#    x 1.804300 0.000000 0.002440 
#    y 0.000000 1.791530 0.000000 
#    z 0.002440 0.000000 1.793470 
# 
# From -- ./inp_files/372604.got.cif
#   From: 2010.06.25/outbox.cif.g09.slc.cpg/sg12_187_cif.got.tgz:372604.got - 2010.06.28 00:19:55.
