data_PCOD8113525
_publ_section_title
;
Structure prediction by ZEFSAII (Michael W. Deem and Ramdas Pophale) SiO2 
 PCOD8113525
Probable space group: C 2/M
;
_chemical_formula_sum "Si O2"
_cell_formula_units_Z 64
_cell_length_a 18.653415
_cell_length_b 14.437213
_cell_length_c 14.436798
_cell_angle_alpha 90.000000
_cell_angle_beta 128.797262
_cell_angle_gamma 90.000000
_cell_volume 3030.087117
_symmetry_space_group_name_H-M "C 2/M"
_symmetry_group_IT_number 12
_symmetry_cell_setting 'monoclinic'
loop_
_space_group_symop_operation_xyz
x,y,z
-x,y,-z
-x,-y,-z
x,-y,z
1/2+x,1/2+y,z
1/2-x,1/2+y,-z
1/2-x,1/2-y,-z
1/2+x,1/2-y,z
loop_
_atom_site_type_symbol
_atom_site_label
_atom_site_fract_x
_atom_site_fract_y
_atom_site_fract_z
Si Si1 0.923481 0.792247 0.239918
Si Si2 0.226894 0.388575 0.414612
Si Si3 0.095875 0.165943 0.107568
Si Si4 0.617309 0.897686 0.847419
Si Si5 0.827310 0.101978 0.005887
Si Si6 0.910385 0.370981 0.970695
Si Si7 0.877200 0.203051 0.658904
Si Si8 0.787543 0.100196 0.261433
O O1 0.914548 0.681744 0.248944
O O2 0.861906 0.836231 0.270414
O O3 0.031479 0.816707 0.328296
O O4 0.886605 0.821380 0.108230
O O5 0.199634 0.500000 0.399178
O O6 0.142137 0.314914 0.356122
O O7 0.297904 0.360495 0.551659
O O8 0.272782 0.363672 0.353466
O O9 0.172536 0.116014 0.105804
O O10 0.093704 0.270103 0.073403
O O11 0.114071 0.160543 0.231051
O O12 0.000000 0.117473 0.000000
O O13 0.724268 0.888029 0.956568
O O14 0.592965 0.000000 0.788255
O O15 0.566608 0.877903 0.902620
O O16 0.864926 0.000000 0.062518
O O17 0.811166 0.414344 0.867982
O O18 0.000000 0.422500 0.000000
O O19 0.834954 0.000000 0.302315
#
# Coordination Sequence:
#
# PCOD8113525 Si02
#       8
#     8   8   8   8   8   8   8   8
#     4  12  22  40  62  91 132 170 211 269 325 385
#     4  10  25  47  69  96 125 166 226 278 324 386
#     4  11  20  37  60  93 126 165 208 256 322 389
#     4  11  23  36  55  89 130 175 212 253 322 389
#     4  11  22  35  54  88 130 170 211 251 314 392
#     4  11  20  35  58  90 131 172 211 262 320 387
#     4  11  24  44  69  94 127 170 215 269 336 384
#     4  11  23  39  64  94 126 168 216 271 323 378
#
# _framework density 21.121504000000002
#
# number of rings (size 3 to 8) (size 9 to 14) (size 15 to 20)
#    0.000    1.000    5.000    2.625    0.000    3.750 
#    0.000    1.250    0.000    0.375    0.000    2.625 
#    0.000    0.000    0.000    0.000    0.000    0.000 
#
# Total GULP energy -396442.374849 kJ/mol
# GULP energy per Si atom -12388.824214 kJ/mol
# Density = 2.107343 g / cm^3
# Si number density = 21.121504 Si / 1000 Ang^3
#
#
#
# Elastic Constant Matrix: (Units=GPa)
#
#
# Indices 1 2 3 4 5 6 
#
# 1 135.4494 34.2893 29.8613 0.0000 1.0138 0.0000
# 2 34.2893 81.0352 10.5027 0.0000 -2.8347 0.0000
# 3 29.8613 10.5027 58.8807 0.0000 -0.8990 0.0000
# 4 0.0000 0.0000 0.0000 15.2958 0.0000 -16.8135
# 5 1.0138 -2.8347 -0.8990 0.0000 20.9788 0.0000
# 6 0.0000 0.0000 0.0000 -16.8135 0.0000 0.7578
#
#
#
# Elastic Compliance Matrix: (Units=1/GPa)
#
#
# Indices 1 2 3 4 5 6 
#
# 1 0.009139 -0.003380 -0.004048 0.000000 -0.001072 0.000000
# 2 -0.003380 0.013937 -0.000741 0.000000 0.002015 0.000000
# 3 -0.004048 -0.000741 0.019183 0.000000 0.000918 0.000000
# 4 0.000000 0.000000 0.000000 -0.002795 0.000000 -0.062019
# 5 -0.001072 0.002015 0.000918 0.000000 0.048031 0.000000
# 6 0.000000 0.000000 0.000000 -0.062019 0.000000 -0.056421
#
#
# Mechanical properties :
#
#
# Convention : Reuss Voigt Hill
#
# Bulk Modulus (GPa) = 38.57998 47.18577 42.88287
# Shear Modulus (GPa) = 89.20290 20.78729 54.99509
#
# Velocity S-wave (km/s) = 6.50576 3.14056 5.10823
# Velocity P-wave (km/s) = 8.64515 5.96150 7.42557
#
# Compressibility (1/GPa) = 0.02592018
#
# Stress axis : x y z
#
# Youngs Moduli (GPa) = 109.42153 71.75136 52.13006
#
# Poissons Ratio (x) = 0.24251 0.21104
# Poissons Ratio (y) = 0.36983 0.03863
# Poissons Ratio (z) = 0.44297 0.05318
#
# Static dielectric constant tensor:
#      x y z
#    x 4.417150 0.000000 0.248860 
#    y 0.000000 4.018230 0.000000 
#    z 0.248860 0.000000 3.676990 
# 
# 
# High freq. dielectric constant tensor:
#      x y z
#    x 1.842070 0.000000 0.000740 
#    y 0.000000 1.838080 0.000000 
#    z 0.000740 0.000000 1.787810 
# 
# From -- ./inp_files/225742.got.cif
#   From: 2010.06.25/outbox.cif.g09.slc.cpg/sg12_113_cif.got.tgz:225742.got - 2010.06.28 00:19:55.
