data_PCOD8113624
_publ_section_title
;
Structure prediction by ZEFSAII (Michael W. Deem and Ramdas Pophale) SiO2 
 PCOD8113624
Probable space group: C 2/M
;
_chemical_formula_sum "Si O2"
_cell_formula_units_Z 48
_cell_length_a 16.495846
_cell_length_b 15.866225
_cell_length_c 8.913758
_cell_angle_alpha 90.000000
_cell_angle_beta 87.660084
_cell_angle_gamma 90.000000
_cell_volume 2331.024151
_symmetry_space_group_name_H-M "C 2/M"
_symmetry_group_IT_number 12
_symmetry_cell_setting 'monoclinic'
loop_
_space_group_symop_operation_xyz
x,y,z
-x,y,-z
-x,-y,-z
x,-y,z
1/2+x,1/2+y,z
1/2-x,1/2+y,-z
1/2-x,1/2-y,-z
1/2+x,1/2-y,z
loop_
_atom_site_type_symbol
_atom_site_label
_atom_site_fract_x
_atom_site_fract_y
_atom_site_fract_z
Si Si1 0.565010 0.500000 0.148709
Si Si2 0.037713 0.178350 0.157524
Si Si3 0.298945 0.357750 0.367677
Si Si4 0.428902 0.227691 0.388758
Si Si5 0.374989 0.500000 0.156853
Si Si6 0.712562 0.268300 0.162067
Si Si7 0.202483 0.595466 0.658417
O O1 0.568457 0.590323 0.236636
O O2 0.469738 0.500000 0.116828
O O3 0.642216 0.500000 0.022198
O O4 0.116298 0.237022 0.145384
O O5 0.966828 0.230368 0.239705
O O6 0.000000 0.153339 0.000000
O O7 0.361625 0.295319 0.450099
O O8 0.345201 0.418071 0.247632
O O9 0.234868 0.303397 0.279476
O O10 0.250450 0.408373 0.497037
O O11 0.500000 0.211201 0.500000
O O12 0.385217 0.139923 0.353802
O O13 0.745219 0.357990 0.218607
O O14 0.750000 0.250000 0.000000
O O15 0.187258 0.500000 0.712555
#
# Coordination Sequence:
#
# PCOD8113624 Si02
#       7
#     4   8   8   8   4   8   8
#     4  11  20  34  56  96 126 156 197 258 325 378
#     4  12  21  38  63  88 124 163 205 257 316 386
#     4  11  21  42  63  91 128 169 210 259 317 381
#     4  11  22  39  62  89 123 168 211 256 314 373
#     4  11  18  36  62  90 126 160 203 256 316 388
#     4  11  24  41  65  94 126 170 210 260 325 381
#     4  11  24  43  63  91 128 166 217 269 310 370
#
# _framework density 20.591806999999999
#
# number of rings (size 3 to 8) (size 9 to 14) (size 15 to 20)
#    0.000    0.833    4.167    7.000    1.167    0.333 
#    1.500    0.833    0.000    1.500    0.000    0.000 
#    0.000    0.000    0.000    0.000    0.000    0.000 
#
# Total GULP energy -297323.753185 kJ/mol
# GULP energy per Si atom -12388.489716 kJ/mol
# Density = 2.054494 g / cm^3
# Si number density = 20.591807 Si / 1000 Ang^3
#
#
#
# Elastic Constant Matrix: (Units=GPa)
#
#
# Indices 1 2 3 4 5 6 
#
# 1 104.5840 42.3947 35.0561 0.0000 4.2519 0.0000
# 2 42.3947 139.9881 40.7762 0.0000 -9.3090 0.0000
# 3 35.0561 40.7762 72.1252 0.0000 -11.8639 0.0000
# 4 0.0000 0.0000 0.0000 26.1827 0.0000 -12.2429
# 5 4.2519 -9.3090 -11.8639 0.0000 39.2703 0.0000
# 6 0.0000 0.0000 0.0000 -12.2429 0.0000 27.7142
#
#
#
# Elastic Compliance Matrix: (Units=1/GPa)
#
#
# Indices 1 2 3 4 5 6 
#
# 1 0.012466 -0.002485 -0.005233 0.000000 -0.003520 0.000000
# 2 -0.002485 0.009060 -0.003701 0.000000 0.001299 0.000000
# 3 -0.005233 -0.003701 0.019414 0.000000 0.005555 0.000000
# 4 0.000000 0.000000 0.000000 0.048136 0.000000 0.021265
# 5 -0.003520 0.001299 0.005555 0.000000 0.027832 0.000000
# 6 0.000000 0.000000 0.000000 0.021265 0.000000 0.045476
#
#
# Mechanical properties :
#
#
# Convention : Reuss Voigt Hill
#
# Bulk Modulus (GPa) = 55.24016 61.46125 58.35070
# Shear Modulus (GPa) = 26.14268 31.86478 29.00373
#
# Velocity S-wave (km/s) = 3.56696 3.93803 3.75708
# Velocity P-wave (km/s) = 6.62184 7.11264 6.87163
#
# Compressibility (1/GPa) = 0.01810277
#
# Stress axis : x y z
#
# Youngs Moduli (GPa) = 80.21619 110.37018 51.50836
#
# Poissons Ratio (x) = 0.27428 0.26956
# Poissons Ratio (y) = 0.19934 0.19062
# Poissons Ratio (z) = 0.41979 0.40846
#
# Static dielectric constant tensor:
#      x y z
#    x 4.006860 0.000000 0.127670 
#    y 0.000000 4.016560 0.000000 
#    z 0.127670 0.000000 3.981690 
# 
# 
# High freq. dielectric constant tensor:
#      x y z
#    x 1.813100 0.000000 -0.009660 
#    y 0.000000 1.806230 0.000000 
#    z -0.009660 0.000000 1.794400 
# 
# From -- ./inp_files/73679.got.cif
#   From: 2010.06.25/outbox.cif.g09.slc.cpg/sg12_37_cif.got.tgz:73679.got - 2010.06.28 00:19:55.
