data_PCOD8113349
_publ_section_title
;
Structure prediction by ZEFSAII (Michael W. Deem and Ramdas Pophale) SiO2 
 PCOD8113349
Probable space group: C 2/M
;
_chemical_formula_sum "Si O2"
_cell_formula_units_Z 56
_cell_length_a 13.916388
_cell_length_b 15.021001
_cell_length_c 18.068867
_cell_angle_alpha 90.000000
_cell_angle_beta 43.206164
_cell_angle_gamma 90.000000
_cell_volume 2585.886224
_symmetry_space_group_name_H-M "C 2/M"
_symmetry_group_IT_number 12
_symmetry_cell_setting 'monoclinic'
loop_
_space_group_symop_operation_xyz
x,y,z
-x,y,-z
-x,-y,-z
x,-y,z
1/2+x,1/2+y,z
1/2-x,1/2+y,-z
1/2-x,1/2-y,-z
1/2+x,1/2-y,z
loop_
_atom_site_type_symbol
_atom_site_label
_atom_site_fract_x
_atom_site_fract_y
_atom_site_fract_z
Si Si1 0.250297 0.325264 0.354199
Si Si2 0.861311 0.400231 0.167572
Si Si3 0.348559 0.899871 0.729831
Si Si4 0.657079 0.367035 0.402272
Si Si5 0.336820 0.100701 0.445869
Si Si6 0.029714 0.749566 0.139226
Si Si7 0.794820 0.756138 0.095067
O O1 0.180346 0.401182 0.342329
O O2 0.158647 0.238213 0.388977
O O3 0.243010 0.345901 0.445080
O O4 0.411439 0.312396 0.240160
O O5 0.912266 0.500000 0.115303
O O6 0.718880 0.412938 0.294361
O O7 0.832501 0.338278 0.112284
O O8 0.974403 0.352108 0.158610
O O9 0.505651 0.862753 0.657503
O O10 0.233122 0.833875 0.830102
O O11 0.330328 0.000000 0.771365
O O12 0.500000 0.402683 0.500000
O O13 0.748178 0.392962 0.421869
O O14 0.351407 0.000000 0.465056
O O15 0.157383 0.754833 0.123203
O O16 0.076318 0.783865 0.031135
#
# Coordination Sequence:
#
# PCOD8113349 Si02
#       7
#     8   8   8   8   8   8   8
#     4  11  22  39  64  92 124 171 216 260 323 396
#     4  11  24  43  71 100 133 177 227 276 334 402
#     4  11  22  40  66  94 125 169 217 264 327 396
#     4  11  23  39  62  91 131 172 212 262 332 390
#     4  11  24  39  61  93 130 167 216 268 316 393
#     4  10  24  43  67  94 131 171 224 272 336 398
#     4  11  23  44  68  95 134 171 218 284 336 393
#
# _framework density 21.656019000000001
#
# number of rings (size 3 to 8) (size 9 to 14) (size 15 to 20)
#    0.000    1.143    2.857    4.714    2.000    5.143 
#    0.000    5.000    0.000    0.000    0.000    0.000 
#    0.000    0.000    0.000    0.000    0.000    0.000 
#
# Total GULP energy -347166.872147 kJ/mol
# GULP energy per Si atom -12398.816862 kJ/mol
# Density = 2.160673 g / cm^3
# Si number density = 21.656019 Si / 1000 Ang^3
#
#
#
# Elastic Constant Matrix: (Units=GPa)
#
#
# Indices 1 2 3 4 5 6 
#
# 1 65.6943 24.9061 13.9197 -0.0015 4.2584 -0.0015
# 2 24.9061 102.4187 29.3252 -0.0018 0.4151 -0.0019
# 3 13.9197 29.3252 121.0489 -0.0118 -0.2389 -0.0124
# 4 -0.0015 -0.0018 -0.0118-4180.7100 0.0058-4444.9745
# 5 4.2584 0.4151 -0.2389 0.0058 36.2951 0.0061
# 6 -0.0015 -0.0019 -0.0124-4444.9745 0.0061-4693.1301
#
#
#
# Elastic Compliance Matrix: (Units=1/GPa)
#
#
# Indices 1 2 3 4 5 6 
#
# 1 0.017022 -0.003836 -0.001032 0.000000 -0.001960 0.000000
# 2 -0.003836 0.011357 -0.002310 0.000000 0.000305 0.000000
# 3 -0.001032 -0.002310 0.008940 0.000000 0.000206 0.000000
# 4 0.000000 0.000000 0.000000 0.034211 0.000000 -0.032402
# 5 -0.001960 0.000305 0.000206 0.000000 0.027780 0.000000
# 6 0.000000 0.000000 0.000000 -0.032402 0.000000 0.030475
#
#
# Mechanical properties :
#
#
# Convention : Reuss Voigt Hill
#
# Bulk Modulus (GPa) = 43.54746 47.27376 45.41061
# Shear Modulus (GPa) = 32.93939 -1752.77493 -859.91777
#
# Velocity S-wave (km/s) = 3.90427 -28.48031 -19.94849
# Velocity P-wave (km/s) = 6.36213 32.55191 22.57377
#
# Compressibility (1/GPa) = 0.02296345
#
# Stress axis : x y z
#
# Youngs Moduli (GPa) = 58.74739 88.05357 111.86046
#
# Poissons Ratio (x) = 0.33777 0.11544
# Poissons Ratio (y) = 0.22535 0.25835
# Poissons Ratio (z) = 0.06063 0.20336
#
# Static dielectric constant tensor:
#      x y z
#    x 3.854770 0.000000 0.018700 
#    y 0.000000 3.826440 0.000000 
#    z 0.018700 0.000000 4.278760 
# 
# 
# High freq. dielectric constant tensor:
#      x y z
#    x 1.856830 0.000000 0.004160 
#    y 0.000000 1.834640 0.000000 
#    z 0.004160 0.000000 1.866510 
# 
# From -- ./inp_files/310745.got.cif
#   From: 2010.06.25/outbox.cif.g09.slc.cpg/sg12_156_cif.got.tgz:310745.got - 2010.06.28 00:19:55.
