data_PCOD8113819
_publ_section_title
;
Structure prediction by ZEFSAII (Michael W. Deem and Ramdas Pophale) SiO2 
 PCOD8113819
Probable space group: C 2/M
;
_chemical_formula_sum "Si O2"
_cell_formula_units_Z 64
_cell_length_a 10.922962
_cell_length_b 29.891558
_cell_length_c 18.964059
_cell_angle_alpha 90.000000
_cell_angle_beta 143.382695
_cell_angle_gamma 90.000000
_cell_volume 3693.234875
_symmetry_space_group_name_H-M "C 2/M"
_symmetry_group_IT_number 12
_symmetry_cell_setting 'monoclinic'
loop_
_space_group_symop_operation_xyz
x,y,z
-x,y,-z
-x,-y,-z
x,-y,z
1/2+x,1/2+y,z
1/2-x,1/2+y,-z
1/2-x,1/2-y,-z
1/2+x,1/2-y,z
loop_
_atom_site_type_symbol
_atom_site_label
_atom_site_fract_x
_atom_site_fract_y
_atom_site_fract_z
Si Si1 0.929201 0.189512 0.317108
Si Si2 0.280004 0.548367 0.488449
Si Si3 0.067077 0.216271 0.833723
Si Si4 0.593299 0.859347 0.245518
Si Si5 0.299541 0.307924 0.953917
Si Si6 0.758930 0.048396 0.311677
Si Si7 0.084974 0.721256 0.616762
Si Si8 0.828466 0.357195 0.555947
O O1 0.893342 0.186209 0.216782
O O2 0.716189 0.175965 0.254697
O O3 0.997815 0.239968 0.369823
O O4 0.111098 0.157234 0.424190
O O5 0.199880 0.500000 0.480950
O O6 0.273409 0.547222 0.401840
O O7 0.517464 0.555443 0.619888
O O8 0.143575 0.590317 0.453451
O O9 0.190480 0.262138 0.881150
O O10 0.827539 0.224999 0.730337
O O11 0.146842 0.190165 0.938858
O O12 0.352484 0.848818 0.132495
O O13 0.617490 0.909482 0.225122
O O14 0.682871 0.853818 0.365206
O O15 0.500000 0.314841 0.000000
O O16 0.668995 0.000000 0.244242
O O17 0.000000 0.730444 0.500000
O O18 0.012840 0.672539 0.610337
#
# Coordination Sequence:
#
# PCOD8113819 Si02
#       8
#     8   8   8   8   8   8   8   8
#     4  12  22  33  51  80 110 139 174 216 264 310
#     4   8  14  26  46  75 109 140 169 210 261 311
#     4  11  24  39  53  74 103 143 182 219 254 306
#     4  11  20  33  55  80 106 140 181 215 265 314
#     4  11  24  41  56  70 101 143 188 221 254 307
#     4   8  14  26  47  77 109 134 167 218 266 308
#     4  12  23  36  51  76 111 144 175 213 262 313
#     4  11  20  32  52  79 113 142 171 214 264 318
#
# _framework density 17.328982
#
# number of rings (size 3 to 8) (size 9 to 14) (size 15 to 20)
#    0.000    1.500    3.750    4.500    1.750    0.000 
#    0.000    0.000    0.000    0.750    0.000    3.500 
#    0.000    0.000    0.000    0.000    0.000    0.000 
#
# Total GULP energy -396679.536011 kJ/mol
# GULP energy per Si atom -12396.235500 kJ/mol
# Density = 1.728954 g / cm^3
# Si number density = 17.328982 Si / 1000 Ang^3
#
#
#
# Elastic Constant Matrix: (Units=GPa)
#
#
# Indices 1 2 3 4 5 6 
#
# 1 68.5345 46.2403 29.5350 -0.0001 -2.8684 0.0000
# 2 46.2403 139.8403 47.1688 0.0000 4.2913 0.0000
# 3 29.5350 47.1688 84.2442 0.0001 -1.8844 0.0001
# 4 -0.0001 0.0000 0.0001 12.6144 -0.0001 6.5918
# 5 -2.8684 4.2913 -1.8844 -0.0001 30.7038 0.0000
# 6 0.0000 0.0000 0.0001 6.5918 0.0000 21.4573
#
#
#
# Elastic Compliance Matrix: (Units=1/GPa)
#
#
# Indices 1 2 3 4 5 6 
#
# 1 0.020011 -0.005352 -0.003966 0.000000 0.002374 0.000000
# 2 -0.005352 0.010320 -0.003951 0.000000 -0.002185 0.000000
# 3 -0.003966 -0.003951 0.015498 0.000000 0.001133 0.000000
# 4 0.000000 0.000000 0.000000 0.094435 0.000000 -0.029011
# 5 0.002374 -0.002185 0.001133 0.000000 0.033166 0.000000
# 6 0.000000 0.000000 0.000000 -0.029011 0.000000 0.055516
#
#
# Mechanical properties :
#
#
# Convention : Reuss Voigt Hill
#
# Bulk Modulus (GPa) = 51.83586 59.83414 55.83500
# Shear Modulus (GPa) = 19.09019 24.26674 21.67847
#
# Velocity S-wave (km/s) = 3.32269 3.74619 3.54078
# Velocity P-wave (km/s) = 6.68566 7.30173 7.00048
#
# Compressibility (1/GPa) = 0.01929166
#
# Stress axis : x y z
#
# Youngs Moduli (GPa) = 49.97356 96.89474 64.52382
#
# Poissons Ratio (x) = 0.51858 0.25589
# Poissons Ratio (y) = 0.26746 0.25494
# Poissons Ratio (z) = 0.19818 0.38283
#
# Static dielectric constant tensor:
#      x y z
#    x 3.037970 0.000000 0.069780 
#    y 0.000000 3.674570 0.000000 
#    z 0.069780 0.000000 3.076990 
# 
# 
# High freq. dielectric constant tensor:
#      x y z
#    x 1.650380 0.000000 0.003680 
#    y 0.000000 1.667340 0.000000 
#    z 0.003680 0.000000 1.652680 
# 
# From -- ./inp_files/307486.got.cif
#   From: 2010.06.25/outbox.cif.g09.slc.cpg/sg12_154_cif.got.tgz:307486.got - 2010.06.28 00:19:55.
