data_PCOD8113977
_publ_section_title
;
Structure prediction by ZEFSAII (Michael W. Deem and Ramdas Pophale) SiO2 
 PCOD8113977
Probable space group: C 2/M
;
_chemical_formula_sum "Si O2"
_cell_formula_units_Z 48
_cell_length_a 19.617013
_cell_length_b 15.337155
_cell_length_c 11.761387
_cell_angle_alpha 90.000000
_cell_angle_beta 40.847286
_cell_angle_gamma 90.000000
_cell_volume 2314.429419
_symmetry_space_group_name_H-M "C 2/M"
_symmetry_group_IT_number 12
_symmetry_cell_setting 'monoclinic'
loop_
_space_group_symop_operation_xyz
x,y,z
-x,y,-z
-x,-y,-z
x,-y,z
1/2+x,1/2+y,z
1/2-x,1/2+y,-z
1/2-x,1/2-y,-z
1/2+x,1/2-y,z
loop_
_atom_site_type_symbol
_atom_site_label
_atom_site_fract_x
_atom_site_fract_y
_atom_site_fract_z
Si Si1 0.125266 0.000000 0.700643
Si Si2 0.607575 0.178458 0.928273
Si Si3 0.891669 0.401254 0.501956
Si Si4 0.730308 0.149414 0.554889
Si Si5 0.764906 0.832395 0.126297
Si Si6 0.119074 0.000000 0.970940
Si Si7 0.116130 0.400582 0.147664
O O1 0.167246 0.911269 0.588117
O O2 0.157779 0.000000 0.791377
O O3 0.002531 0.000000 0.851728
O O4 0.690853 0.142274 0.733687
O O5 0.656244 0.256186 0.941260
O O6 0.500000 0.205873 0.000000
O O7 0.589267 0.105850 0.047589
O O8 0.871055 0.500000 0.568473
O O9 0.858691 0.389581 0.412784
O O10 0.824277 0.337033 0.664710
O O11 0.014140 0.379653 0.352608
O O12 0.750000 0.250000 0.500000
O O13 0.837360 0.915621 0.024363
O O14 0.704726 0.831740 0.079785
O O15 0.151279 0.500000 0.127105
#
# Coordination Sequence:
#
# PCOD8113977 Si02
#       7
#     4   8   8   8   8   4   8
#     4  11  24  38  63  97 128 171 212 275 323 381
#     4  12  27  40  66  96 133 170 212 262 322 391
#     4  11  20  38  65  94 125 166 212 266 319 374
#     4  12  22  41  62  93 134 168 212 268 326 381
#     4  12  22  43  64  95 128 168 215 272 317 374
#     4  11  22  38  69  92 126 162 226 271 315 372
#     4  11  25  42  66  94 131 172 213 259 322 387
#
# _framework density 20.739453000000001
#
# number of rings (size 3 to 8) (size 9 to 14) (size 15 to 20)
#    0.000    0.500    7.500    1.000    5.833    1.667 
#    0.000    0.000    0.000    1.000    0.000    0.000 
#    0.000    0.000    0.000    0.000    0.000    0.000 
#
# Total GULP energy -297494.731923 kJ/mol
# GULP energy per Si atom -12395.613830 kJ/mol
# Density = 2.069225 g / cm^3
# Si number density = 20.739453 Si / 1000 Ang^3
#
#
#
# Elastic Constant Matrix: (Units=GPa)
#
#
# Indices 1 2 3 4 5 6 
#
# 1 119.0240 18.2303 31.3819 0.0000 -0.2295 0.0000
# 2 18.2303 72.0405 31.0649 0.0000 -7.3592 0.0000
# 3 31.3819 31.0649 103.5778 0.0000 -0.0406 0.0000
# 4 0.0000 0.0000 0.0000 18.9809 0.0000 3.6353
# 5 -0.2295 -7.3592 -0.0406 0.0000 31.6706 0.0000
# 6 0.0000 0.0000 0.0000 3.6353 0.0000 24.4023
#
#
#
# Elastic Compliance Matrix: (Units=1/GPa)
#
#
# Indices 1 2 3 4 5 6 
#
# 1 0.009237 -0.001327 -0.002401 0.000000 -0.000245 0.000000
# 2 -0.001327 0.016579 -0.004569 0.000000 0.003837 0.000000
# 3 -0.002401 -0.004569 0.011752 0.000000 -0.001064 0.000000
# 4 0.000000 0.000000 0.000000 0.054232 0.000000 -0.008079
# 5 -0.000245 0.003837 -0.001064 0.000000 0.032463 0.000000
# 6 0.000000 0.000000 0.000000 -0.008079 0.000000 0.042183
#
#
# Mechanical properties :
#
#
# Convention : Reuss Voigt Hill
#
# Bulk Modulus (GPa) = 47.67655 50.66630 49.17143
# Shear Modulus (GPa) = 26.31133 29.27510 27.79322
#
# Velocity S-wave (km/s) = 3.56569 3.76116 3.66473
# Velocity P-wave (km/s) = 6.32380 6.58367 6.45504
#
# Compressibility (1/GPa) = 0.02097467
#
# Stress axis : x y z
#
# Youngs Moduli (GPa) = 108.25455 60.31718 85.09351
#
# Poissons Ratio (x) = 0.08006 0.20429
# Poissons Ratio (y) = 0.14369 0.38877
# Poissons Ratio (z) = 0.25989 0.27557
#
# Static dielectric constant tensor:
#      x y z
#    x 3.877280 0.000000 -0.013620 
#    y 0.000000 3.763610 0.000000 
#    z -0.013620 0.000000 3.743290 
# 
# 
# High freq. dielectric constant tensor:
#      x y z
#    x 1.821130 0.000000 -0.004310 
#    y 0.000000 1.801030 0.000000 
#    z -0.004310 0.000000 1.814180 
# 
# From -- ./inp_files/167563.got.cif
#   From: 2010.06.25/outbox.cif.g09.slc.cpg/sg12_84_cif.got.tgz:167563.got - 2010.06.28 00:19:55.
