data_PCOD8113280
_publ_section_title
;
Structure prediction by ZEFSAII (Michael W. Deem and Ramdas Pophale) SiO2 
 PCOD8113280
Probable space group: C 2/M
;
_chemical_formula_sum "Si O2"
_cell_formula_units_Z 48
_cell_length_a 28.866179
_cell_length_b 13.840298
_cell_length_c 8.621888
_cell_angle_alpha 90.000000
_cell_angle_beta 42.342711
_cell_angle_gamma 90.000000
_cell_volume 2320.148493
_symmetry_space_group_name_H-M "C 2/M"
_symmetry_group_IT_number 12
_symmetry_cell_setting 'monoclinic'
loop_
_space_group_symop_operation_xyz
x,y,z
-x,y,-z
-x,-y,-z
x,-y,z
1/2+x,1/2+y,z
1/2-x,1/2+y,-z
1/2-x,1/2-y,-z
1/2+x,1/2-y,z
loop_
_atom_site_type_symbol
_atom_site_label
_atom_site_fract_x
_atom_site_fract_y
_atom_site_fract_z
Si Si1 0.222051 0.291687 0.410624
Si Si2 0.106939 0.206770 0.519947
Si Si3 0.147430 0.000000 0.506422
Si Si4 0.747982 0.500000 0.752033
Si Si5 0.842119 0.291714 0.919980
Si Si6 0.894467 0.000000 0.036128
Si Si7 0.033411 0.188145 0.252624
Si Si8 0.792096 0.500000 0.998490
O O1 0.250000 0.250000 0.500000
O O2 0.143849 0.254279 0.578320
O O3 0.221015 0.407453 0.413030
O O4 0.270426 0.251401 0.155541
O O5 0.111294 0.091298 0.517047
O O6 0.148153 0.243695 0.269777
O O7 0.026424 0.235774 0.706544
O O8 0.138702 0.000000 0.712368
O O9 0.228735 0.000000 0.273946
O O10 0.665422 0.500000 0.944487
O O11 0.765998 0.500000 0.887405
O O12 0.905072 0.264895 0.878922
O O13 0.839424 0.407186 0.913348
O O14 0.940346 0.094156 0.900974
O O15 0.000000 0.158402 0.500000
#
# Coordination Sequence:
#
# PCOD8113280 Si02
#       8
#     8   8   4   4   8   4   8   4
#     4  12  24  41  66  97 135 170 216 278 328 386
#     4  11  23  43  62  94 130 173 217 267 329 392
#     4  12  25  37  67 100 135 169 217 273 334 398
#     4  12  24  40  71  97 130 172 224 264 330 390
#     4  11  23  43  64  94 126 175 220 270 326 384
#     4  12  24  42  62 102 136 174 213 267 345 402
#     4  10  24  41  65  92 136 174 220 271 327 398
#     4  12  24  41  70  97 128 174 229 274 320 395
#
# _framework density 20.688331000000002
#
# number of rings (size 3 to 8) (size 9 to 14) (size 15 to 20)
#    0.000    0.667    5.000    3.250    2.333    1.333 
#    0.000    4.583    0.000    0.000    0.000    2.333 
#    0.000    0.000    0.000    0.000    0.000    0.000 
#
# Total GULP energy -297692.223459 kJ/mol
# GULP energy per Si atom -12403.842644 kJ/mol
# Density = 2.064124 g / cm^3
# Si number density = 20.688331 Si / 1000 Ang^3
#
#
#
# Elastic Constant Matrix: (Units=GPa)
#
#
# Indices 1 2 3 4 5 6 
#
# 1 164.9091 64.1219 47.9262 0.0000 -24.8179 0.0000
# 2 64.1219 162.5144 40.1780 0.0000 -1.1264 0.0000
# 3 47.9262 40.1780 69.1082 0.0000 -2.1874 0.0000
# 4 0.0000 0.0000 0.0000 20.1798 0.0000 -8.0748
# 5 -24.8179 -1.1264 -2.1874 0.0000 33.7498 0.0000
# 6 0.0000 0.0000 0.0000 -8.0748 0.0000 10.9777
#
#
#
# Elastic Compliance Matrix: (Units=1/GPa)
#
#
# Indices 1 2 3 4 5 6 
#
# 1 0.009429 -0.002464 -0.004900 0.000000 0.006534 0.000000
# 2 -0.002464 0.007830 -0.002899 0.000000 -0.001738 0.000000
# 3 -0.004900 -0.002899 0.019476 0.000000 -0.002438 0.000000
# 4 0.000000 0.000000 0.000000 0.070223 0.000000 0.051654
# 5 0.006534 -0.001738 -0.002438 0.000000 0.034219 0.000000
# 6 0.000000 0.000000 0.000000 0.051654 0.000000 0.129089
#
#
# Mechanical properties :
#
#
# Convention : Reuss Voigt Hill
#
# Bulk Modulus (GPa) = 61.68725 77.88712 69.78719
# Shear Modulus (GPa) = 16.88082 29.26850 23.07466
#
# Velocity S-wave (km/s) = 2.85960 3.76538 3.34330
# Velocity P-wave (km/s) = 6.38633 7.52553 6.97921
#
# Compressibility (1/GPa) = 0.01621080
#
# Stress axis : x y z
#
# Youngs Moduli (GPa) = 106.05227 127.71453 51.34469
#
# Poissons Ratio (x) = 0.31466 0.25159
# Poissons Ratio (y) = 0.26129 0.14883
# Poissons Ratio (z) = 0.51966 0.37019
#
# Static dielectric constant tensor:
#      x y z
#    x 4.223350 0.000000 -0.037560 
#    y 0.000000 3.478340 0.000000 
#    z -0.037560 0.000000 3.773680 
# 
# 
# High freq. dielectric constant tensor:
#      x y z
#    x 1.825350 0.000000 -0.002090 
#    y 0.000000 1.807240 0.000000 
#    z -0.002090 0.000000 1.798810 
# 
# From -- ./inp_files/111531.got.cif
#   From: 2010.06.25/outbox.cif.g09.slc.cpg/sg12_56_cif.got.tgz:111531.got - 2010.06.28 00:19:55.
