data_PCOD8113587
_publ_section_title
;
Structure prediction by ZEFSAII (Michael W. Deem and Ramdas Pophale) SiO2 
 PCOD8113587
Probable space group: C 2/M
;
_chemical_formula_sum "Si O2"
_cell_formula_units_Z 60
_cell_length_a 14.326911
_cell_length_b 18.604875
_cell_length_c 20.800990
_cell_angle_alpha 90.000000
_cell_angle_beta 41.644518
_cell_angle_gamma 90.000000
_cell_volume 3684.367235
_symmetry_space_group_name_H-M "C 2/M"
_symmetry_group_IT_number 12
_symmetry_cell_setting 'monoclinic'
loop_
_space_group_symop_operation_xyz
x,y,z
-x,y,-z
-x,-y,-z
x,-y,z
1/2+x,1/2+y,z
1/2-x,1/2+y,-z
1/2-x,1/2-y,-z
1/2+x,1/2-y,z
loop_
_atom_site_type_symbol
_atom_site_label
_atom_site_fract_x
_atom_site_fract_y
_atom_site_fract_z
Si Si1 0.562748 0.768911 0.367856
Si Si2 0.772771 0.082374 0.101053
Si Si3 0.140517 0.193771 0.728485
Si Si4 0.019358 0.685099 0.249358
Si Si5 0.466154 0.581306 0.121342
Si Si6 0.777510 0.324338 0.524164
Si Si7 0.267676 0.917283 0.415249
Si Si8 0.500000 0.351830 0.500000
O O1 0.720036 0.790522 0.303276
O O2 0.554103 0.766580 0.294533
O O3 0.445165 0.826026 0.453802
O O4 0.522907 0.694276 0.423253
O O5 0.651142 0.140770 0.154826
O O6 0.838336 0.091891 0.137800
O O7 0.718666 0.000000 0.120943
O O8 0.887771 0.100434 0.988049
O O9 0.037727 0.262596 0.777280
O O10 0.053139 0.131024 0.806953
O O11 0.184589 0.170378 0.634922
O O12 0.900357 0.627489 0.324533
O O13 0.468848 0.500000 0.145150
O O14 0.750000 0.250000 0.500000
O O15 0.732177 0.393261 0.506142
O O16 0.135314 0.902052 0.437799
O O17 0.308072 0.000000 0.392227
#
# Coordination Sequence:
#
# PCOD8113587 Si02
#       8
#     8   8   8   8   8   8   8   4
#     4  11  18  31  50  74 100 137 174 206 249 305
#     4   9  18  36  54  73 107 136 163 216 273 309
#     4  12  19  32  55  77 101 134 176 212 251 311
#     4  11  20  32  54  79 101 134 172 214 256 303
#     4   9  20  35  54  77 101 135 172 212 267 316
#     4  11  18  34  49  69 101 144 170 203 256 299
#     4  11  22  32  48  77 105 136 176 212 248 302
#     4  12  17  34  50  68 107 144 170 210 253 300
#
# _framework density 16.285021
#
# number of rings (size 3 to 8) (size 9 to 14) (size 15 to 20)
#    0.000    1.333    8.000    1.400    0.000    1.067 
#    0.000    0.000    0.000    2.400    0.000    0.000 
#    0.000    2.133    0.000    0.000    0.000    0.000 
#
# Total GULP energy -371874.296714 kJ/mol
# GULP energy per Si atom -12395.809890 kJ/mol
# Density = 1.624796 g / cm^3
# Si number density = 16.285021 Si / 1000 Ang^3
#
#
#
# Elastic Constant Matrix: (Units=GPa)
#
#
# Indices 1 2 3 4 5 6 
#
# 1 86.7706 52.9879 43.5343 -0.0002 -10.1723 0.0001
# 2 52.9879 104.4827 49.7114 -0.0003 1.7578 0.0001
# 3 43.5343 49.7114 87.8184 -0.0008 -1.5835 0.0003
# 4 -0.0002 -0.0003 -0.0008 30.2395 0.0003 0.8320
# 5 -10.1723 1.7578 -1.5835 0.0003 27.6180 -0.0001
# 6 0.0001 0.0001 0.0003 0.8320 -0.0001 16.4912
#
#
#
# Elastic Compliance Matrix: (Units=1/GPa)
#
#
# Indices 1 2 3 4 5 6 
#
# 1 0.019703 -0.007574 -0.005346 0.000000 0.007433 0.000000
# 2 -0.007574 0.016054 -0.005408 0.000000 -0.004121 0.000000
# 3 -0.005346 -0.005408 0.017087 0.000000 -0.000645 0.000000
# 4 0.000000 0.000000 0.000000 0.033115 0.000000 -0.001671
# 5 0.007433 -0.004121 -0.000645 0.000000 0.039171 0.000000
# 6 0.000000 0.000000 0.000000 -0.001671 0.000000 0.060723
#
#
# Mechanical properties :
#
#
# Convention : Reuss Voigt Hill
#
# Bulk Modulus (GPa) = 61.76959 63.50431 62.63695
# Shear Modulus (GPa) = 21.93898 23.72564 22.83231
#
# Velocity S-wave (km/s) = 3.67439 3.82108 3.74845
# Velocity P-wave (km/s) = 7.48426 7.65165 7.56842
#
# Compressibility (1/GPa) = 0.01618920
#
# Stress axis : x y z
#
# Youngs Moduli (GPa) = 50.75270 62.28904 58.52464
#
# Poissons Ratio (x) = 0.47177 0.31288
# Poissons Ratio (y) = 0.38439 0.31647
# Poissons Ratio (z) = 0.27133 0.33683
#
# Static dielectric constant tensor:
#      x y z
#    x 3.208300 0.000000 -0.132080 
#    y 0.000000 2.977480 0.000000 
#    z -0.132080 0.000000 3.080290 
# 
# 
# High freq. dielectric constant tensor:
#      x y z
#    x 1.626820 0.000000 -0.013590 
#    y 0.000000 1.611560 0.000000 
#    z -0.013590 0.000000 1.621420 
# 
# From -- ./inp_files/340413.got.cif
#   From: 2010.06.25/outbox.cif.g09.slc.cpg/sg12_171_cif.got.tgz:340413.got - 2010.06.28 00:19:55.
