data_PCOD8113092
_publ_section_title
;
Structure prediction by ZEFSAII (Michael W. Deem and Ramdas Pophale) SiO2 
 PCOD8113092
Probable space group: C 2/M
;
_chemical_formula_sum "Si O2"
_cell_formula_units_Z 40
_cell_length_a 12.459709
_cell_length_b 13.250996
_cell_length_c 19.955328
_cell_angle_alpha 90.000000
_cell_angle_beta 35.901608
_cell_angle_gamma 90.000000
_cell_volume 1931.993310
_symmetry_space_group_name_H-M "C 2/M"
_symmetry_group_IT_number 12
_symmetry_cell_setting 'monoclinic'
loop_
_space_group_symop_operation_xyz
x,y,z
-x,y,-z
-x,-y,-z
x,-y,z
1/2+x,1/2+y,z
1/2-x,1/2+y,-z
1/2-x,1/2-y,-z
1/2+x,1/2-y,z
loop_
_atom_site_type_symbol
_atom_site_label
_atom_site_fract_x
_atom_site_fract_y
_atom_site_fract_z
Si Si1 0.875886 0.803604 0.128329
Si Si2 0.027296 0.887540 0.176045
Si Si3 0.886220 0.118872 0.490011
Si Si4 0.029936 0.253406 0.677443
Si Si5 0.058023 0.608959 0.046274
O O1 0.665149 0.807268 0.214374
O O2 0.914245 0.889060 0.163848
O O3 0.928681 0.697656 0.140025
O O4 0.000000 0.820166 0.000000
O O5 0.928716 0.817514 0.280178
O O6 0.030171 0.000000 0.204322
O O7 0.233893 0.852182 0.056199
O O8 0.977912 0.184158 0.384769
O O9 0.678422 0.157793 0.601675
O O10 0.000000 0.138985 0.500000
O O11 0.884494 0.000000 0.472952
O O12 0.033114 0.500000 0.096690
O O13 0.000000 0.592162 0.000000
#
# Coordination Sequence:
#
# PCOD8113092 Si02
#       5
#     8   8   8   8   8
#     4  11  22  37  60  89 132 161 195 244 299 354
#     4  11  22  37  58  87 123 165 205 237 289 360
#     4  10  23  44  66  91 118 151 204 261 306 351
#     4  11  22  40  67  90 119 161 200 247 305 361
#     4   9  17  32  55  84 118 157 200 238 279 345
#
# _framework density 20.704006
#
# number of rings (size 3 to 8) (size 9 to 14) (size 15 to 20)
#    0.000    1.600    4.000    2.400    0.000    2.000 
#    0.000    1.000    0.000    6.600    0.000    0.000 
#    0.000    0.000    0.000    0.000    0.000    0.000 
#
# Total GULP energy -247912.790993 kJ/mol
# GULP energy per Si atom -12395.639550 kJ/mol
# Density = 2.065688 g / cm^3
# Si number density = 20.704006 Si / 1000 Ang^3
#
#
#
# Elastic Constant Matrix: (Units=GPa)
#
#
# Indices 1 2 3 4 5 6 
#
# 1 111.1305 27.9774 48.8729 0.0000 3.7991 0.0000
# 2 27.9774 59.7038 16.2884 -0.0008 -4.5129 0.0001
# 3 48.8729 16.2884 97.6282 -0.0035 -11.1206 0.0006
# 4 0.0000 -0.0008 -0.0035 21.1562 0.0004 -0.7702
# 5 3.7991 -4.5129 -11.1206 0.0004 29.5021 0.0000
# 6 0.0000 0.0001 0.0006 -0.7702 0.0000 33.5833
#
#
#
# Elastic Compliance Matrix: (Units=1/GPa)
#
#
# Indices 1 2 3 4 5 6 
#
# 1 0.013158 -0.004802 -0.006334 -0.000001 -0.004816 0.000000
# 2 -0.004802 0.019378 -0.000440 0.000001 0.003417 0.000000
# 3 -0.006334 -0.000440 0.014181 0.000002 0.006094 0.000000
# 4 -0.000001 0.000001 0.000002 0.047307 0.000000 0.001085
# 5 -0.004816 0.003417 0.006094 0.000000 0.037336 0.000000
# 6 0.000000 0.000000 0.000000 0.001085 0.000000 0.029802
#
#
# Mechanical properties :
#
#
# Convention : Reuss Voigt Hill
#
# Bulk Modulus (GPa) = 42.43622 50.52666 46.48144
# Shear Modulus (GPa) = 26.01887 28.53655 27.27771
#
# Velocity S-wave (km/s) = 3.54885 3.71659 3.63369
# Velocity P-wave (km/s) = 6.11012 6.54787 6.33278
#
# Compressibility (1/GPa) = 0.02356477
#
# Stress axis : x y z
#
# Youngs Moduli (GPa) = 76.00180 51.60560 70.51461
#
# Poissons Ratio (x) = 0.24779 0.44666
# Poissons Ratio (y) = 0.36493 0.03103
# Poissons Ratio (z) = 0.48141 0.02271
#
# Static dielectric constant tensor:
#      x y z
#    x 3.817960 0.000000 -0.076980 
#    y 0.000000 4.326380 0.000000 
#    z -0.076980 0.000000 3.543410 
# 
# 
# High freq. dielectric constant tensor:
#      x y z
#    x 1.814660 0.000000 -0.009330 
#    y 0.000000 1.812520 0.000000 
#    z -0.009330 0.000000 1.790300 
# 
# From -- ./inp_files/305087.got.cif
#   From: 2010.06.25/outbox.cif.g09.slc.cpg/sg12_153_cif.got.tgz:305087.got - 2010.06.28 00:19:55.
