data_PCOD8113132
_publ_section_title
;
Structure prediction by ZEFSAII (Michael W. Deem and Ramdas Pophale) SiO2 
 PCOD8113132
Probable space group: C 2/M
;
_chemical_formula_sum "Si O2"
_cell_formula_units_Z 32
_cell_length_a 14.792069
_cell_length_b 18.449422
_cell_length_c 5.522517
_cell_angle_alpha 90.000000
_cell_angle_beta 61.954826
_cell_angle_gamma 90.000000
_cell_volume 1330.152514
_symmetry_space_group_name_H-M "C 2/M"
_symmetry_group_IT_number 12
_symmetry_cell_setting 'monoclinic'
loop_
_space_group_symop_operation_xyz
x,y,z
-x,y,-z
-x,-y,-z
x,-y,z
1/2+x,1/2+y,z
1/2-x,1/2+y,-z
1/2-x,1/2-y,-z
1/2+x,1/2-y,z
loop_
_atom_site_type_symbol
_atom_site_label
_atom_site_fract_x
_atom_site_fract_y
_atom_site_fract_z
Si Si1 0.242105 0.656985 0.163670
Si Si2 0.113549 0.780941 0.385563
Si Si3 0.058192 0.416063 0.170904
Si Si4 0.394430 0.580596 0.275158
O O1 0.179779 0.714213 0.415562
O O2 0.166102 0.626376 0.052440
O O3 0.291913 0.589757 0.243724
O O4 0.337200 0.702544 0.937086
O O5 0.111008 0.857142 0.521829
O O6 0.000000 0.749472 0.500000
O O7 0.082922 0.500000 0.101811
O O8 0.000000 0.403649 0.500000
O O9 0.000000 0.387748 0.000000
O O10 0.390030 0.500000 0.397849
O O11 0.500000 0.589655 0.000000
#
# Coordination Sequence:
#
# PCOD8113132 Si02
#       4
#     8   8   8   8
#     4  11  24  44  69  99 135 191 236 292 363 427
#     4  11  24  45  66 100 138 184 238 298 352 428
#     4  10  23  44  69 104 144 187 242 300 362 434
#     4  11  24  43  70 103 142 183 233 294 362 438
#
# _framework density 24.057390999999999
#
# number of rings (size 3 to 8) (size 9 to 14) (size 15 to 20)
#    0.000    1.250    2.500    2.250    3.500    2.500 
#    9.000    0.000    0.000    0.000    0.000    0.000 
#    0.000    0.000    0.000    0.000    0.000    0.000 
#
# Total GULP energy -198236.299629 kJ/mol
# GULP energy per Si atom -12389.768727 kJ/mol
# Density = 2.400264 g / cm^3
# Si number density = 24.057391 Si / 1000 Ang^3
#
#
#
# Elastic Constant Matrix: (Units=GPa)
#
#
# Indices 1 2 3 4 5 6 
#
# 1 155.2200 62.9688 50.0158 0.0000 -13.4741 0.0000
# 2 62.9688 162.0179 40.7804 0.0000 -15.2228 0.0000
# 3 50.0158 40.7804 90.1469 0.0000 -11.7770 0.0000
# 4 0.0000 0.0000 0.0000 33.3932 0.0000 0.2866
# 5 -13.4741 -15.2228 -11.7770 0.0000 40.2551 0.0000
# 6 0.0000 0.0000 0.0000 0.2866 0.0000 52.8787
#
#
#
# Elastic Compliance Matrix: (Units=1/GPa)
#
#
# Indices 1 2 3 4 5 6 
#
# 1 0.008645 -0.002364 -0.003603 0.000000 0.000945 0.000000
# 2 -0.002364 0.007737 -0.001985 0.000000 0.001554 0.000000
# 3 -0.003603 -0.001985 0.014281 0.000000 0.002221 0.000000
# 4 0.000000 0.000000 0.000000 0.029948 0.000000 -0.000162
# 5 0.000945 0.001554 0.002221 0.000000 0.026395 0.000000
# 6 0.000000 0.000000 0.000000 -0.000162 0.000000 0.018912
#
#
# Mechanical properties :
#
#
# Convention : Reuss Voigt Hill
#
# Bulk Modulus (GPa) = 67.76687 79.43500 73.60094
# Shear Modulus (GPa) = 39.45061 42.21339 40.83200
#
# Velocity S-wave (km/s) = 4.05390 4.19345 4.12427
# Velocity P-wave (km/s) = 7.08111 7.51913 7.30341
#
# Compressibility (1/GPa) = 0.01475647
#
# Stress axis : x y z
#
# Youngs Moduli (GPa) = 115.67887 129.25578 70.02552
#
# Poissons Ratio (x) = 0.30556 0.25233
# Poissons Ratio (y) = 0.27346 0.13902
# Poissons Ratio (z) = 0.41683 0.25661
#
# Static dielectric constant tensor:
#      x y z
#    x 4.975780 0.000000 -0.557240 
#    y 0.000000 4.609740 0.000000 
#    z -0.557240 0.000000 4.277650 
# 
# 
# High freq. dielectric constant tensor:
#      x y z
#    x 1.960200 0.000000 -0.026970 
#    y 0.000000 1.978580 0.000000 
#    z -0.026970 0.000000 1.931250 
# 
# From -- ./inp_files/10651.got.cif
#   From: 2010.06.25/outbox.cif.g09.slc.cpg/sg12_6_cif.got.tgz:10651.got - 2010.06.28 00:19:55.
