data_PCOD8113038
_publ_section_title
;
Structure prediction by ZEFSAII (Michael W. Deem and Ramdas Pophale) SiO2 
 PCOD8113038
Probable space group: C 2/M
;
_chemical_formula_sum "Si O2"
_cell_formula_units_Z 48
_cell_length_a 15.813479
_cell_length_b 8.656238
_cell_length_c 29.054114
_cell_angle_alpha 90.000000
_cell_angle_beta 144.758239
_cell_angle_gamma 90.000000
_cell_volume 2294.885134
_symmetry_space_group_name_H-M "C 2/M"
_symmetry_group_IT_number 12
_symmetry_cell_setting 'monoclinic'
loop_
_space_group_symop_operation_xyz
x,y,z
-x,y,-z
-x,-y,-z
x,-y,z
1/2+x,1/2+y,z
1/2-x,1/2+y,-z
1/2-x,1/2-y,-z
1/2+x,1/2-y,z
loop_
_atom_site_type_symbol
_atom_site_label
_atom_site_fract_x
_atom_site_fract_y
_atom_site_fract_z
Si Si1 0.675561 0.822336 0.679057
Si Si2 0.116979 0.181207 0.412894
Si Si3 0.176221 0.319074 0.839146
Si Si4 0.664295 0.181716 0.004305
Si Si5 0.383152 0.319661 0.692033
Si Si6 0.339575 0.820751 0.830301
O O1 0.534553 0.722196 0.629299
O O2 0.729151 0.791565 0.650368
O O3 0.813130 0.777620 0.772533
O O4 0.633321 0.000000 0.667582
O O5 0.250000 0.250000 0.500000
O O6 0.127070 0.242792 0.364835
O O7 0.134952 0.000000 0.420473
O O8 0.195263 0.500000 0.839263
O O9 0.284004 0.268138 0.927380
O O10 0.213427 0.224127 0.809894
O O11 0.007968 0.276146 0.774958
O O12 0.692885 0.000000 0.021884
O O13 0.750000 0.250000 0.000000
O O14 0.494483 0.220279 0.921713
O O15 0.424743 0.500000 0.712113
O O16 0.327638 0.000000 0.812321
#
# Coordination Sequence:
#
# PCOD8113038 Si02
#       6
#     8   8   8   8   8   8
#     4  11  23  41  67  98 128 167 215 264 317 383
#     4  11  24  44  69  96 131 171 209 263 322 383
#     4  12  24  38  62  92 124 166 217 267 317 377
#     4  11  24  40  59  86 124 167 215 268 320 379
#     4  10  23  43  67  94 131 173 212 260 324 384
#     4  11  23  40  61  88 124 168 213 262 322 378
#
# _framework density 20.916080000000001
#
# number of rings (size 3 to 8) (size 9 to 14) (size 15 to 20)
#    0.000    1.000    1.667    5.000    0.000   10.000 
#    0.000    3.333    0.000    0.000    0.000    0.000 
#    0.000    0.000    0.000    0.000    0.000    0.000 
#
# Total GULP energy -297702.778156 kJ/mol
# GULP energy per Si atom -12404.282423 kJ/mol
# Density = 2.086847 g / cm^3
# Si number density = 20.916080 Si / 1000 Ang^3
#
#
#
# Elastic Constant Matrix: (Units=GPa)
#
#
# Indices 1 2 3 4 5 6 
#
# 1 125.2910 24.9030 41.1351 0.0000 -0.8024 0.0000
# 2 24.9030 45.2895 29.2788 0.0000 2.1339 0.0000
# 3 41.1351 29.2788 116.7430 0.0000 2.4555 0.0000
# 4 0.0000 0.0000 0.0000 39.1969 0.0000 1.6569
# 5 -0.8024 2.1339 2.4555 0.0000 22.2127 0.0000
# 6 0.0000 0.0000 0.0000 1.6569 0.0000 33.2185
#
#
#
# Elastic Compliance Matrix: (Units=1/GPa)
#
#
# Indices 1 2 3 4 5 6 
#
# 1 0.009527 -0.003701 -0.002449 0.000000 0.000970 0.000000
# 2 -0.003701 0.027863 -0.005638 0.000000 -0.002187 0.000000
# 3 -0.002449 -0.005638 0.010858 0.000000 -0.000747 0.000000
# 4 0.000000 0.000000 0.000000 0.025566 0.000000 -0.001275
# 5 0.000970 -0.002187 -0.000747 0.000000 0.045347 0.000000
# 6 0.000000 0.000000 0.000000 -0.001275 0.000000 0.030167
#
#
# Mechanical properties :
#
#
# Convention : Reuss Voigt Hill
#
# Bulk Modulus (GPa) = 40.53078 53.10637 46.81857
# Shear Modulus (GPa) = 27.60447 31.72607 29.66527
#
# Velocity S-wave (km/s) = 3.63681 3.89887 3.77012
# Velocity P-wave (km/s) = 6.08729 6.76118 6.43306
#
# Compressibility (1/GPa) = 0.02467261
#
# Stress axis : x y z
#
# Youngs Moduli (GPa) = 104.96059 35.88974 92.09376
#
# Poissons Ratio (x) = 0.13283 0.22556
# Poissons Ratio (y) = 0.38847 0.51921
# Poissons Ratio (z) = 0.25707 0.20234
#
# Static dielectric constant tensor:
#      x y z
#    x 4.010990 0.000000 -0.058320 
#    y 0.000000 3.778940 0.000000 
#    z -0.058320 0.000000 2.938190 
# 
# 
# High freq. dielectric constant tensor:
#      x y z
#    x 1.832530 0.000000 -0.000430 
#    y 0.000000 1.823610 0.000000 
#    z -0.000430 0.000000 1.819420 
# 
# From -- ./inp_files/360329.got.cif
#   From: 2010.06.25/outbox.cif.g09.slc.cpg/sg12_181_cif.got.tgz:360329.got - 2010.06.28 00:19:55.
