data_PCOD8113296
_publ_section_title
;
Structure prediction by ZEFSAII (Michael W. Deem and Ramdas Pophale) SiO2 
 PCOD8113296
Probable space group: C 2/M
;
_chemical_formula_sum "Si O2"
_cell_formula_units_Z 52
_cell_length_a 9.605732
_cell_length_b 14.692251
_cell_length_c 18.796517
_cell_angle_alpha 90.000000
_cell_angle_beta 74.713757
_cell_angle_gamma 90.000000
_cell_volume 2558.896884
_symmetry_space_group_name_H-M "C 2/M"
_symmetry_group_IT_number 12
_symmetry_cell_setting 'monoclinic'
loop_
_space_group_symop_operation_xyz
x,y,z
-x,y,-z
-x,-y,-z
x,-y,z
1/2+x,1/2+y,z
1/2-x,1/2+y,-z
1/2-x,1/2-y,-z
1/2+x,1/2-y,z
loop_
_atom_site_type_symbol
_atom_site_label
_atom_site_fract_x
_atom_site_fract_y
_atom_site_fract_z
Si Si1 0.400790 0.393778 0.303791
Si Si2 0.906850 0.599930 0.272500
Si Si3 0.873378 0.000000 0.919111
Si Si4 0.288189 0.155217 0.804606
Si Si5 0.694603 0.222326 0.597191
Si Si6 0.693211 0.360739 0.190146
Si Si7 0.500000 0.237350 0.500000
Si Si8 0.295307 0.500000 0.084679
O O1 0.381293 0.500000 0.329446
O O2 0.324459 0.376322 0.239068
O O3 0.337686 0.327444 0.374295
O O4 0.567535 0.371528 0.266014
O O5 0.933587 0.500000 0.300484
O O6 0.800366 0.657354 0.336152
O O7 0.834850 0.593017 0.204665
O O8 0.055163 0.653756 0.251271
O O9 0.843480 0.909331 0.878512
O O10 0.038330 0.000000 0.918417
O O11 0.773378 0.000000 0.002652
O O12 0.263217 0.257569 0.833841
O O13 0.281159 0.089320 0.873454
O O14 0.566807 0.185578 0.560267
O O15 0.854757 0.207830 0.542526
#
# Coordination Sequence:
#
# PCOD8113296 Si02
#       8
#     8   8   4   8   8   8   4   4
#     4  12  21  39  67  95 119 163 217 258 308 361
#     4  12  23  37  65  99 123 153 209 270 316 341
#     4  11  24  43  63  89 133 174 205 251 321 383
#     4  12  21  38  63  94 124 160 211 266 306 366
#     4  11  22  42  62  92 123 170 200 256 317 370
#     4  12  21  38  63  94 124 160 211 266 306 366
#     4  10  24  42  62  86 136 164 198 246 322 394
#     4  11  24  43  63  89 133 174 205 251 321 383
#
# _framework density 20.321256000000002
#
# number of rings (size 3 to 8) (size 9 to 14) (size 15 to 20)
#    0.000    0.462    7.692    1.846    0.000    0.615 
#    0.000    6.154    0.000    0.000    0.000    0.000 
#    0.000    0.000    0.000    0.000    0.000    0.000 
#
# Total GULP energy -322261.411138 kJ/mol
# GULP energy per Si atom -12394.669659 kJ/mol
# Density = 2.027500 g / cm^3
# Si number density = 20.321256 Si / 1000 Ang^3
#
#
#
# Elastic Constant Matrix: (Units=GPa)
#
#
# Indices 1 2 3 4 5 6 
#
# 1 83.1787 27.2487 16.7664 0.0000 7.3155 0.0000
# 2 27.2487 90.2465 43.5551 0.0000 2.3101 0.0000
# 3 16.7664 43.5551 97.6349 0.0000 -0.1488 0.0000
# 4 0.0000 0.0000 0.0000 13.1879 0.0000 0.6426
# 5 7.3155 2.3101 -0.1488 0.0000 28.9130 0.0000
# 6 0.0000 0.0000 0.0000 0.6426 0.0000 24.0315
#
#
#
# Elastic Compliance Matrix: (Units=1/GPa)
#
#
# Indices 1 2 3 4 5 6 
#
# 1 0.013655 -0.003706 -0.000697 0.000000 -0.003162 0.000000
# 2 -0.003706 0.015166 -0.006130 0.000000 -0.000306 0.000000
# 3 -0.000697 -0.006130 0.013097 0.000000 0.000733 0.000000
# 4 0.000000 0.000000 0.000000 0.075926 0.000000 -0.002030
# 5 -0.003162 -0.000306 0.000733 0.000000 0.035415 0.000000
# 6 0.000000 0.000000 0.000000 -0.002030 0.000000 0.041666
#
#
# Mechanical properties :
#
#
# Convention : Reuss Voigt Hill
#
# Bulk Modulus (GPa) = 47.95194 49.57781 48.76488
# Shear Modulus (GPa) = 22.42755 25.45915 23.94335
#
# Velocity S-wave (km/s) = 3.32573 3.54338 3.43628
# Velocity P-wave (km/s) = 6.19641 6.41800 6.30817
#
# Compressibility (1/GPa) = 0.02085421
#
# Stress axis : x y z
#
# Youngs Moduli (GPa) = 73.23421 65.93802 76.35118
#
# Poissons Ratio (x) = 0.24435 0.05318
# Poissons Ratio (y) = 0.27139 0.46800
# Poissons Ratio (z) = 0.05101 0.40417
#
# Static dielectric constant tensor:
#      x y z
#    x 3.917410 0.000000 0.054510 
#    y 0.000000 3.642450 0.000000 
#    z 0.054510 0.000000 3.845420 
# 
# 
# High freq. dielectric constant tensor:
#      x y z
#    x 1.809960 0.000000 0.007580 
#    y 0.000000 1.786520 0.000000 
#    z 0.007580 0.000000 1.782120 
# 
# From -- ./inp_files/299860.got.cif
#   From: 2010.06.25/outbox.cif.g09.slc.cpg/sg12_150_cif.got.tgz:299860.got - 2010.06.28 00:19:55.
