data_PCOD8113480
_publ_section_title
;
Structure prediction by ZEFSAII (Michael W. Deem and Ramdas Pophale) SiO2 
 PCOD8113480
Probable space group: C 2/M
;
_chemical_formula_sum "Si O2"
_cell_formula_units_Z 44
_cell_length_a 10.691394
_cell_length_b 23.556233
_cell_length_c 9.326650
_cell_angle_alpha 90.000000
_cell_angle_beta 65.778878
_cell_angle_gamma 90.000000
_cell_volume 2142.130382
_symmetry_space_group_name_H-M "C 2/M"
_symmetry_group_IT_number 12
_symmetry_cell_setting 'monoclinic'
loop_
_space_group_symop_operation_xyz
x,y,z
-x,y,-z
-x,-y,-z
x,-y,z
1/2+x,1/2+y,z
1/2-x,1/2+y,-z
1/2-x,1/2-y,-z
1/2+x,1/2-y,z
loop_
_atom_site_type_symbol
_atom_site_label
_atom_site_fract_x
_atom_site_fract_y
_atom_site_fract_z
Si Si1 0.646521 0.500000 0.352178
Si Si2 0.423646 0.373349 0.273503
Si Si3 0.772572 0.824454 0.850550
Si Si4 0.287212 0.191016 0.810388
Si Si5 0.975295 0.000000 0.177711
Si Si6 0.500000 0.139040 0.500000
Si Si7 0.276797 0.111538 0.394683
O O1 0.500000 0.500000 0.500000
O O2 0.619843 0.500000 0.194260
O O3 0.738947 0.552093 0.347862
O O4 0.581914 0.357071 0.213279
O O5 0.355318 0.335018 0.182007
O O6 0.397903 0.441024 0.254841
O O7 0.350039 0.360339 0.459368
O O8 0.785562 0.758161 0.818778
O O9 0.684819 0.848080 0.757716
O O10 0.694051 0.834791 0.038185
O O11 0.412600 0.177571 0.647896
O O12 0.000000 0.000000 0.000000
O O13 0.402784 0.101327 0.444720
#
# Coordination Sequence:
#
# PCOD8113480 Si02
#       7
#     4   8   8   8   4   4   8
#     4  12  20  41  66  98 123 163 212 263 328 369
#     4  11  22  40  64 100 127 163 213 266 330 370
#     4  11  22  39  65  93 125 166 214 270 312 373
#     4  10  25  40  61  92 131 170 210 259 319 385
#     4  12  22  36  66  98 133 154 204 276 317 374
#     4  10  26  43  58  88 126 177 206 252 318 390
#     4  11  23  40  66  92 128 167 208 265 315 387
#
# _framework density 20.540299999999998
#
# number of rings (size 3 to 8) (size 9 to 14) (size 15 to 20)
#    0.000    1.091    3.636    2.182    5.091    2.545 
#    0.000    0.909    0.000    1.091    0.000    0.000 
#    0.000    0.000    0.000    0.000    0.000    0.000 
#
# Total GULP energy -272694.155513 kJ/mol
# GULP energy per Si atom -12395.188887 kJ/mol
# Density = 2.049355 g / cm^3
# Si number density = 20.540300 Si / 1000 Ang^3
#
#
#
# Elastic Constant Matrix: (Units=GPa)
#
#
# Indices 1 2 3 4 5 6 
#
# 1 110.3037 38.9604 66.5573 0.0000 18.4221 0.0000
# 2 38.9604 100.8327 42.3424 0.0000 13.7770 0.0000
# 3 66.5573 42.3424 141.7652 0.0000 36.5703 0.0000
# 4 0.0000 0.0000 0.0000 58.4753 0.0000 52.1384
# 5 18.4221 13.7770 36.5703 0.0000 36.8524 0.0000
# 6 0.0000 0.0000 0.0000 52.1384 0.0000 85.2695
#
#
#
# Elastic Compliance Matrix: (Units=1/GPa)
#
#
# Indices 1 2 3 4 5 6 
#
# 1 0.013349 -0.002878 -0.005327 0.000000 -0.000310 0.000000
# 2 -0.002878 0.011999 -0.001944 0.000000 -0.001117 0.000000
# 3 -0.005327 -0.001944 0.012448 0.000000 -0.008963 0.000000
# 4 0.000000 0.000000 0.000000 0.037601 0.000000 -0.022991
# 5 -0.000310 -0.001117 -0.008963 0.000000 0.036602 0.000000
# 6 0.000000 0.000000 0.000000 -0.022991 0.000000 0.025786
#
#
# Mechanical properties :
#
#
# Convention : Reuss Voigt Hill
#
# Bulk Modulus (GPa) = 57.15737 72.06911 64.61324
# Shear Modulus (GPa) = 30.50345 49.78886 40.14615
#
# Velocity S-wave (km/s) = 3.85782 4.92871 4.42578
# Velocity P-wave (km/s) = 6.90877 8.21903 7.59222
#
# Compressibility (1/GPa) = 0.01749556
#
# Stress axis : x y z
#
# Youngs Moduli (GPa) = 74.91233 83.34274 80.33543
#
# Poissons Ratio (x) = 0.23989 0.42798
# Poissons Ratio (y) = 0.21562 0.15618
# Poissons Ratio (z) = 0.39909 0.16203
#
# Static dielectric constant tensor:
#      x y z
#    x 3.928350 0.000000 0.336940 
#    y 0.000000 3.858440 0.000000 
#    z 0.336940 0.000000 4.180160 
# 
# 
# High freq. dielectric constant tensor:
#      x y z
#    x 1.793390 0.000000 0.026870 
#    y 0.000000 1.803350 0.000000 
#    z 0.026870 0.000000 1.819260 
# 
# From -- ./inp_files/51265.got.cif
#   From: 2010.06.25/outbox.cif.g09.slc.cpg/sg12_26_cif.got.tgz:51265.got - 2010.06.28 00:19:55.
