data_PCOD8113988
_publ_section_title
;
Structure prediction by ZEFSAII (Michael W. Deem and Ramdas Pophale) SiO2 
 PCOD8113988
Probable space group: C 2/M
;
_chemical_formula_sum "Si O2"
_cell_formula_units_Z 64
_cell_length_a 17.911735
_cell_length_b 17.149818
_cell_length_c 14.482319
_cell_angle_alpha 90.000000
_cell_angle_beta 43.011799
_cell_angle_gamma 90.000000
_cell_volume 3034.691149
_symmetry_space_group_name_H-M "C 2/M"
_symmetry_group_IT_number 12
_symmetry_cell_setting 'monoclinic'
loop_
_space_group_symop_operation_xyz
x,y,z
-x,y,-z
-x,-y,-z
x,-y,z
1/2+x,1/2+y,z
1/2-x,1/2+y,-z
1/2-x,1/2-y,-z
1/2+x,1/2-y,z
loop_
_atom_site_type_symbol
_atom_site_label
_atom_site_fract_x
_atom_site_fract_y
_atom_site_fract_z
Si Si1 0.019044 0.199140 0.676515
Si Si2 0.400429 0.192301 0.241662
Si Si3 0.193795 0.912493 0.473081
Si Si4 0.621137 0.322014 0.882986
Si Si5 0.740586 0.913951 0.385561
Si Si6 0.487790 0.146417 0.405996
Si Si7 0.194853 0.170529 0.024471
Si Si8 0.409650 0.086858 0.861159
O O1 0.099211 0.240558 0.679734
O O2 0.085513 0.138894 0.550706
O O3 0.971833 0.265322 0.650015
O O4 0.918673 0.156514 0.818653
O O5 0.302880 0.130247 0.339180
O O6 0.386390 0.235174 0.155661
O O7 0.517539 0.147183 0.143645
O O8 0.186120 0.919914 0.590147
O O9 0.188652 0.000000 0.433861
O O10 0.691385 0.380490 0.759548
O O11 0.500000 0.357262 0.000000
O O12 0.676365 0.322859 0.932365
O O13 0.640196 0.857870 0.502388
O O14 0.697836 0.000000 0.396093
O O15 0.500000 0.120306 0.500000
O O16 0.553378 0.088901 0.279483
O O17 0.250000 0.250000 0.000000
O O18 0.279930 0.104008 0.979506
O O19 0.428524 0.000000 0.883132
#
# Coordination Sequence:
#
# PCOD8113988 Si02
#       8
#     8   8   8   8   8   8   8   8
#     4  11  21  39  62  87 122 160 207 256 302 373
#     4  11  20  39  64  92 119 160 213 258 303 363
#     4  11  21  37  61  90 124 157 195 253 318 366
#     4  12  23  38  62  89 122 166 211 260 300 367
#     4  11  22  34  55  90 127 152 185 242 309 370
#     4  11  22  36  59  92 116 155 202 245 305 368
#     4  12  23  42  61  91 124 168 214 250 312 378
#     4  11  23  40  65  93 131 167 202 259 321 376
#
# _framework density 21.089461
#
# number of rings (size 3 to 8) (size 9 to 14) (size 15 to 20)
#    0.000    0.750    7.500    2.625    0.000    3.250 
#    0.000    0.000    0.000    7.125    0.000    0.000 
#    0.000    0.000    0.000    0.000    0.000    0.000 
#
# Total GULP energy -396678.247772 kJ/mol
# GULP energy per Si atom -12396.195243 kJ/mol
# Density = 2.104146 g / cm^3
# Si number density = 21.089461 Si / 1000 Ang^3
#
#
#
# Elastic Constant Matrix: (Units=GPa)
#
#
# Indices 1 2 3 4 5 6 
#
# 1 50.9119 15.9693 12.4538 0.0000 -8.1951 0.0000
# 2 15.9693 100.6840 36.3472 0.0000 -14.3160 0.0000
# 3 12.4538 36.3472 108.8027 0.0000 -23.9601 0.0000
# 4 0.0000 0.0000 0.0000 42.6646 0.0000 -8.8954
# 5 -8.1951 -14.3160 -23.9601 0.0000 28.5005 0.0000
# 6 0.0000 0.0000 0.0000 -8.8954 0.0000 20.6307
#
#
#
# Elastic Compliance Matrix: (Units=1/GPa)
#
#
# Indices 1 2 3 4 5 6 
#
# 1 0.021287 -0.002532 -0.000642 0.000000 0.004310 0.000000
# 2 -0.002532 0.011818 -0.003082 0.000000 0.002618 0.000000
# 3 -0.000642 -0.003082 0.012164 0.000000 0.008494 0.000000
# 4 0.000000 0.000000 0.000000 0.025754 0.000000 0.011104
# 5 0.004310 0.002618 0.008494 0.000000 0.044782 0.000000
# 6 0.000000 0.000000 0.000000 0.011104 0.000000 0.053259
#
#
# Mechanical properties :
#
#
# Convention : Reuss Voigt Hill
#
# Bulk Modulus (GPa) = 30.52629 43.32659 36.92644
# Shear Modulus (GPa) = 25.97474 31.40106 28.68790
#
# Velocity S-wave (km/s) = 3.51329 3.86287 3.69222
# Velocity P-wave (km/s) = 5.56450 6.36274 5.97696
#
# Compressibility (1/GPa) = 0.03275864
#
# Stress axis : x y z
#
# Youngs Moduli (GPa) = 46.97799 84.61394 82.20673
#
# Poissons Ratio (x) = 0.21422 0.05275
# Poissons Ratio (y) = 0.11894 0.25335
# Poissons Ratio (z) = 0.03015 0.26077
#
# Static dielectric constant tensor:
#      x y z
#    x 3.507520 0.000000 -0.110660 
#    y 0.000000 4.102990 0.000000 
#    z -0.110660 0.000000 4.239430 
# 
# 
# High freq. dielectric constant tensor:
#      x y z
#    x 1.803980 0.000000 -0.013680 
#    y 0.000000 1.821230 0.000000 
#    z -0.013680 0.000000 1.830200 
# 
# From -- ./inp_files/226845.got.cif
#   From: 2010.06.25/outbox.cif.g09.slc.cpg/sg12_114_cif.got.tgz:226845.got - 2010.06.28 00:19:55.
