data_PCOD8113394
_publ_section_title
;
Structure prediction by ZEFSAII (Michael W. Deem and Ramdas Pophale) SiO2 
 PCOD8113394
Probable space group: C 2/M
;
_chemical_formula_sum "Si O2"
_cell_formula_units_Z 56
_cell_length_a 24.592978
_cell_length_b 14.807690
_cell_length_c 14.572802
_cell_angle_alpha 90.000000
_cell_angle_beta 28.826430
_cell_angle_gamma 90.000000
_cell_volume 2558.767026
_symmetry_space_group_name_H-M "C 2/M"
_symmetry_group_IT_number 12
_symmetry_cell_setting 'monoclinic'
loop_
_space_group_symop_operation_xyz
x,y,z
-x,y,-z
-x,-y,-z
x,-y,z
1/2+x,1/2+y,z
1/2-x,1/2+y,-z
1/2-x,1/2-y,-z
1/2+x,1/2-y,z
loop_
_atom_site_type_symbol
_atom_site_label
_atom_site_fract_x
_atom_site_fract_y
_atom_site_fract_z
Si Si1 0.511666 0.237453 0.838357
Si Si2 0.245852 0.604677 0.058032
Si Si3 0.225046 0.399278 0.296114
Si Si4 0.991199 0.341265 0.672821
Si Si5 0.971905 0.147835 0.641127
Si Si6 0.687906 0.769224 0.727566
Si Si7 0.104404 0.900430 0.607011
O O1 0.494638 0.172662 0.777211
O O2 0.632849 0.223404 0.708182
O O3 0.519537 0.343757 0.798628
O O4 0.408927 0.211840 0.055415
O O5 0.274529 0.500000 0.013949
O O6 0.254856 0.638882 0.150314
O O7 0.126058 0.619885 0.188326
O O8 0.338283 0.655841 0.859660
O O9 0.276198 0.500000 0.236814
O O10 0.264633 0.330548 0.317716
O O11 0.089694 0.410210 0.500160
O O12 0.022370 0.248005 0.576311
O O13 0.000000 0.109169 0.500000
O O14 0.033873 0.081039 0.619271
O O15 0.784268 0.844656 0.585774
O O16 0.133755 0.000000 0.605119
#
# Coordination Sequence:
#
# PCOD8113394 Si02
#       7
#     8   8   8   8   8   8   8
#     4  10  24  44  68  94 130 174 230 270 336 402
#     4  11  24  39  60  95 134 165 214 276 326 394
#     4  11  22  39  66  98 129 169 218 271 336 401
#     4  11  22  39  64  92 127 172 214 265 330 398
#     4  11  23  39  62  88 126 173 216 256 326 399
#     4  11  23  45  69  95 135 174 219 287 334 399
#     4  11  24  43  68  97 133 175 224 280 335 395
#
# _framework density 21.885539999999999
#
# number of rings (size 3 to 8) (size 9 to 14) (size 15 to 20)
#    0.000    1.143    2.857    4.714    2.000    4.571 
#    0.000    4.286    0.000    0.000    0.000    0.000 
#    0.000    0.000    0.000    0.000    0.000    0.000 
#
# Total GULP energy -347083.225091 kJ/mol
# GULP energy per Si atom -12395.829468 kJ/mol
# Density = 2.183573 g / cm^3
# Si number density = 21.885540 Si / 1000 Ang^3
#
#
#
# Elastic Constant Matrix: (Units=GPa)
#
#
# Indices 1 2 3 4 5 6 
#
# 1 98.2587 7.2754 -1.9529 0.0000 -1.7166 0.0000
# 2 7.2754 65.5658 6.2611 0.0000 7.5730 0.0000
# 3 -1.9529 6.2611 45.8779 0.0000 -11.1166 0.0000
# 4 0.0000 0.0000 0.0000 13.4157 0.0000 0.1057
# 5 -1.7166 7.5730 -11.1166 0.0000 33.8218 0.0000
# 6 0.0000 0.0000 0.0000 0.1057 0.0000 20.2436
#
#
#
# Elastic Compliance Matrix: (Units=1/GPa)
#
#
# Indices 1 2 3 4 5 6 
#
# 1 0.010315 -0.001360 0.000897 0.000000 0.001123 0.000000
# 2 -0.001360 0.016294 -0.003458 0.000000 -0.004854 0.000000
# 3 0.000897 -0.003458 0.024453 0.000000 0.008857 0.000000
# 4 0.000000 0.000000 0.000000 0.074543 0.000000 -0.000389
# 5 0.001123 -0.004854 0.008857 0.000000 0.033622 0.000000
# 6 0.000000 0.000000 0.000000 -0.000389 0.000000 0.049400
#
#
# Mechanical properties :
#
#
# Convention : Reuss Voigt Hill
#
# Bulk Modulus (GPa) = 23.13721 25.87441 24.50581
# Shear Modulus (GPa) = 21.65670 26.70413 24.18041
#
# Velocity S-wave (km/s) = 3.14911 3.49689 3.32755
# Velocity P-wave (km/s) = 4.88031 5.30590 5.09755
#
# Compressibility (1/GPa) = 0.04322043
#
# Stress axis : x y z
#
# Youngs Moduli (GPa) = 96.94294 61.37393 40.89445
#
# Poissons Ratio (x) = 0.08347 -0.03667
# Poissons Ratio (y) = 0.13184 0.14140
# Poissons Ratio (z) = -0.08693 0.21221
#
# Static dielectric constant tensor:
#      x y z
#    x 4.157700 0.000000 -0.043760 
#    y 0.000000 3.712490 0.000000 
#    z -0.043760 0.000000 3.986980 
# 
# 
# High freq. dielectric constant tensor:
#      x y z
#    x 1.866270 0.000000 -0.005590 
#    y 0.000000 1.845290 0.000000 
#    z -0.005590 0.000000 1.872360 
# 
# From -- ./inp_files/240915.got.cif
#   From: 2010.06.25/outbox.cif.g09.slc.cpg/sg12_121_cif.got.tgz:240915.got - 2010.06.28 00:19:55.
