data_PCOD8113093
_publ_section_title
;
Structure prediction by ZEFSAII (Michael W. Deem and Ramdas Pophale) SiO2 
 PCOD8113093
Probable space group: C 2/M
;
_chemical_formula_sum "Si O2"
_cell_formula_units_Z 28
_cell_length_a 13.062959
_cell_length_b 14.818075
_cell_length_c 8.669924
_cell_angle_alpha 90.000000
_cell_angle_beta 49.721457
_cell_angle_gamma 90.000000
_cell_volume 1280.330917
_symmetry_space_group_name_H-M "C 2/M"
_symmetry_group_IT_number 12
_symmetry_cell_setting 'monoclinic'
loop_
_space_group_symop_operation_xyz
x,y,z
-x,y,-z
-x,-y,-z
x,-y,z
1/2+x,1/2+y,z
1/2-x,1/2+y,-z
1/2-x,1/2-y,-z
1/2+x,1/2-y,z
loop_
_atom_site_type_symbol
_atom_site_label
_atom_site_fract_x
_atom_site_fract_y
_atom_site_fract_z
Si Si1 0.355248 0.660685 0.215912
Si Si2 0.756847 0.500000 0.856828
Si Si3 0.361486 0.500000 0.720337
Si Si4 0.473467 0.000000 0.206067
Si Si5 0.266767 0.857418 0.352562
O O1 0.305636 0.762382 0.238991
O O2 0.353769 0.647791 0.403620
O O3 0.500000 0.645811 0.000000
O O4 0.253589 0.589345 0.237314
O O5 0.632429 0.500000 0.100139
O O6 0.897145 0.500000 0.811126
O O7 0.500000 0.500000 0.500000
O O8 0.279959 0.411868 0.750332
O O9 0.389515 0.908175 0.320390
O O10 0.500000 0.000000 0.000000
#
# Coordination Sequence:
#
# PCOD8113093 Si02
#       5
#     8   4   4   4   8
#     4  11  24  43  66  98 131 173 219 278 320 395
#     4  12  24  39  72  98 126 176 227 265 322 387
#     4  11  22  41  64  96 130 171 214 270 320 397
#     4  11  21  45  66  94 134 174 216 274 325 395
#     4  10  23  44  66  91 136 174 209 270 345 372
#
# _framework density 21.869347999999999
#
# number of rings (size 3 to 8) (size 9 to 14) (size 15 to 20)
#    0.000    1.143    2.857    4.714    0.000    3.429 
#   10.286    0.000    0.000    0.000    0.000    0.000 
#    0.000    0.000    0.000    0.000    0.000    0.000 
#
# Total GULP energy -173530.112151 kJ/mol
# GULP energy per Si atom -12395.008011 kJ/mol
# Density = 2.181957 g / cm^3
# Si number density = 21.869348 Si / 1000 Ang^3
#
#
#
# Elastic Constant Matrix: (Units=GPa)
#
#
# Indices 1 2 3 4 5 6 
#
# 1 81.6000 56.5578 21.6001 0.0000 -0.8038 0.0000
# 2 56.5578 195.9526 28.2599 0.0000 5.8846 0.0000
# 3 21.6001 28.2599 102.5209 0.0000 -2.1005 0.0000
# 4 0.0000 0.0000 0.0000 38.5384 0.0000 -0.8970
# 5 -0.8038 5.8846 -2.1005 0.0000 34.0053 0.0000
# 6 0.0000 0.0000 0.0000 -0.8970 0.0000 10.5753
#
#
#
# Elastic Compliance Matrix: (Units=1/GPa)
#
#
# Indices 1 2 3 4 5 6 
#
# 1 0.015795 -0.004282 -0.002128 0.000000 0.000983 0.000000
# 2 -0.004282 0.006510 -0.000919 0.000000 -0.001285 0.000000
# 3 -0.002128 -0.000919 0.010471 0.000000 0.000755 0.000000
# 4 0.000000 0.000000 0.000000 0.025999 0.000000 0.002205
# 5 0.000983 -0.001285 0.000755 0.000000 0.029699 0.000000
# 6 0.000000 0.000000 0.000000 0.002205 0.000000 0.094747
#
#
# Mechanical properties :
#
#
# Convention : Reuss Voigt Hill
#
# Bulk Modulus (GPa) = 55.18544 65.87878 60.53211
# Shear Modulus (GPa) = 24.51953 34.86752 29.69352
#
# Velocity S-wave (km/s) = 3.35204 3.99727 3.68879
# Velocity P-wave (km/s) = 6.34590 7.17589 6.77362
#
# Compressibility (1/GPa) = 0.01812072
#
# Stress axis : x y z
#
# Youngs Moduli (GPa) = 63.30931 153.60538 95.50111
#
# Poissons Ratio (x) = 0.65770 0.20318
# Poissons Ratio (y) = 0.27107 0.08774
# Poissons Ratio (z) = 0.13469 0.14112
#
# Static dielectric constant tensor:
#      x y z
#    x 3.906040 0.000000 -0.048670 
#    y 0.000000 3.935820 0.000000 
#    z -0.048670 0.000000 4.256310 
# 
# 
# High freq. dielectric constant tensor:
#      x y z
#    x 1.829970 0.000000 -0.000900 
#    y 0.000000 1.874690 0.000000 
#    z -0.000900 0.000000 1.885670 
# 
# From -- ./inp_files/45504.got.cif
#   From: 2010.06.25/outbox.cif.g09.slc.cpg/sg12_23_cif.got.tgz:45504.got - 2010.06.28 00:19:55.
