data_PCOD8113238
_publ_section_title
;
Structure prediction by ZEFSAII (Michael W. Deem and Ramdas Pophale) SiO2 
 PCOD8113238
Probable space group: C 2/M
;
_chemical_formula_sum "Si O2"
_cell_formula_units_Z 40
_cell_length_a 14.753810
_cell_length_b 20.704576
_cell_length_c 8.875002
_cell_angle_alpha 90.000000
_cell_angle_beta 137.449608
_cell_angle_gamma 90.000000
_cell_volume 1833.322239
_symmetry_space_group_name_H-M "C 2/M"
_symmetry_group_IT_number 12
_symmetry_cell_setting 'monoclinic'
loop_
_space_group_symop_operation_xyz
x,y,z
-x,y,-z
-x,-y,-z
x,-y,z
1/2+x,1/2+y,z
1/2-x,1/2+y,-z
1/2-x,1/2-y,-z
1/2+x,1/2-y,z
loop_
_atom_site_type_symbol
_atom_site_label
_atom_site_fract_x
_atom_site_fract_y
_atom_site_fract_z
Si Si1 0.167158 0.277280 0.538838
Si Si2 0.875870 0.867844 0.957947
Si Si3 0.684510 0.307127 0.829834
Si Si4 0.538744 0.860828 0.885807
Si Si5 0.011734 0.500000 0.277614
Si Si6 0.770630 0.500000 0.216238
O O1 0.250000 0.250000 0.500000
O O2 0.256045 0.326401 0.742589
O O3 0.121443 0.218520 0.594630
O O4 0.033217 0.315266 0.326229
O O5 0.827627 0.940175 0.919390
O O6 0.918015 0.841286 0.177093
O O7 0.000000 0.863174 0.000000
O O8 0.750000 0.250000 0.000000
O O9 0.801907 0.358806 0.938497
O O10 0.491019 0.934994 0.823762
O O11 0.500000 0.831315 0.000000
O O12 0.155600 0.500000 0.533699
O O13 0.885170 0.500000 0.231808
#
# Coordination Sequence:
#
# PCOD8113238 Si02
#       6
#     8   8   8   8   4   4
#     4  11  24  41  65  97 135 167 218 274 329 405
#     4  11  24  43  63  92 131 180 222 266 329 390
#     4  10  24  39  62  98 130 170 218 267 331 395
#     4  12  23  43  69  97 133 176 218 278 340 394
#     4  11  23  40  66 100 131 169 225 284 331 387
#     4  11  21  40  68  94 125 171 228 278 326 387
#
# _framework density 21.818311999999999
#
# number of rings (size 3 to 8) (size 9 to 14) (size 15 to 20)
#    0.000    1.000    6.000    0.600    5.600    3.200 
#    0.000    0.000    0.000    0.000    0.000    5.600 
#    0.000    0.000    0.000    0.000    0.000    0.000 
#
# Total GULP energy -247943.739665 kJ/mol
# GULP energy per Si atom -12397.186983 kJ/mol
# Density = 2.176865 g / cm^3
# Si number density = 21.818312 Si / 1000 Ang^3
#
#
#
# Elastic Constant Matrix: (Units=GPa)
#
#
# Indices 1 2 3 4 5 6 
#
# 1 145.3167 39.9188 40.7476 0.0000 -19.2806 0.0000
# 2 39.9188 127.1902 51.9878 0.0000 -16.6070 0.0000
# 3 40.7476 51.9878 97.0446 0.0000 -21.6861 0.0000
# 4 0.0000 0.0000 0.0000 26.6213 0.0000 -11.2120
# 5 -19.2806 -16.6070 -21.6861 0.0000 36.0725 0.0000
# 6 0.0000 0.0000 0.0000 -11.2120 0.0000 23.0307
#
#
#
# Elastic Compliance Matrix: (Units=1/GPa)
#
#
# Indices 1 2 3 4 5 6 
#
# 1 0.008187 -0.001368 -0.002158 0.000000 0.002449 0.000000
# 2 -0.001368 0.010376 -0.004714 0.000000 0.001212 0.000000
# 3 -0.002158 -0.004714 0.015009 0.000000 0.005700 0.000000
# 4 0.000000 0.000000 0.000000 0.047252 0.000000 0.023004
# 5 0.002449 0.001212 0.005700 0.000000 0.033016 0.000000
# 6 0.000000 0.000000 0.000000 0.023004 0.000000 0.054619
#
#
# Mechanical properties :
#
#
# Convention : Reuss Voigt Hill
#
# Bulk Modulus (GPa) = 58.49659 70.54000 64.51829
# Shear Modulus (GPa) = 26.22786 32.93804 29.58295
#
# Velocity S-wave (km/s) = 3.47090 3.88964 3.68622
# Velocity P-wave (km/s) = 6.55224 7.25074 6.91032
#
# Compressibility (1/GPa) = 0.01709501
#
# Stress axis : x y z
#
# Youngs Moduli (GPa) = 122.14119 96.37215 66.62524
#
# Poissons Ratio (x) = 0.13183 0.14375
# Poissons Ratio (y) = 0.16708 0.31404
# Poissons Ratio (z) = 0.26353 0.45425
#
# Static dielectric constant tensor:
#      x y z
#    x 4.494590 0.000000 -0.283220 
#    y 0.000000 4.516520 0.000000 
#    z -0.283220 0.000000 4.164170 
# 
# 
# High freq. dielectric constant tensor:
#      x y z
#    x 1.869970 0.000000 -0.014310 
#    y 0.000000 1.859430 0.000000 
#    z -0.014310 0.000000 1.849410 
# 
# From -- ./inp_files/63820.got.cif
#   From: 2010.06.25/outbox.cif.g09.slc.cpg/sg12_32_cif.got.tgz:63820.got - 2010.06.28 00:19:55.
