data_PCOD8113028
_publ_section_title
;
Structure prediction by ZEFSAII (Michael W. Deem and Ramdas Pophale) SiO2 
 PCOD8113028
Probable space group: C 2/M
;
_chemical_formula_sum "Si O2"
_cell_formula_units_Z 48
_cell_length_a 11.563873
_cell_length_b 18.944316
_cell_length_c 11.597601
_cell_angle_alpha 90.000000
_cell_angle_beta 114.711660
_cell_angle_gamma 90.000000
_cell_volume 2308.014777
_symmetry_space_group_name_H-M "C 2/M"
_symmetry_group_IT_number 12
_symmetry_cell_setting 'monoclinic'
loop_
_space_group_symop_operation_xyz
x,y,z
-x,y,-z
-x,-y,-z
x,-y,z
1/2+x,1/2+y,z
1/2-x,1/2+y,-z
1/2-x,1/2-y,-z
1/2+x,1/2-y,z
loop_
_atom_site_type_symbol
_atom_site_label
_atom_site_fract_x
_atom_site_fract_y
_atom_site_fract_z
Si Si1 0.861550 0.338941 0.263027
Si Si2 0.390664 0.079737 0.693170
Si Si3 0.350905 0.417589 0.959347
Si Si4 0.746219 0.670727 0.454395
Si Si5 0.703565 0.578984 0.801648
Si Si6 0.028292 0.193316 0.643349
O O1 0.728743 0.362002 0.149856
O O2 0.843245 0.345897 0.392165
O O3 0.909321 0.258719 0.259398
O O4 0.968508 0.390526 0.259587
O O5 0.286100 0.120296 0.574405
O O6 0.347487 0.083445 0.810235
O O7 0.393119 0.000000 0.649354
O O8 0.319847 0.500000 0.917348
O O9 0.500000 0.402578 0.000000
O O10 0.307468 0.398273 0.070553
O O11 0.750000 0.750000 0.500000
O O12 0.600262 0.662432 0.351675
O O13 0.649171 0.500000 0.765708
O O14 0.623988 0.628856 0.685004
O O15 0.000000 0.216478 0.500000
#
# Coordination Sequence:
#
# PCOD8113028 Si02
#       6
#     8   8   8   8   8   8
#     4  12  24  39  66  94 131 175 218 267 328 393
#     4  11  23  39  64  99 134 172 219 269 326 392
#     4  10  23  46  69  94 131 175 221 272 326 385
#     4  12  22  40  60  93 135 175 211 265 326 388
#     4  10  23  43  66  95 131 172 223 271 319 387
#     4  12  22  39  67  93 130 170 215 266 328 383
#
# _framework density 20.797094000000001
#
# number of rings (size 3 to 8) (size 9 to 14) (size 15 to 20)
#    0.000    0.833    5.000    2.000    0.000    4.333 
#    0.000    2.500    0.000    0.000    0.000    0.000 
#    0.000    0.000    0.000    0.000    0.000    0.000 
#
# Total GULP energy -297461.692569 kJ/mol
# GULP energy per Si atom -12394.237190 kJ/mol
# Density = 2.074976 g / cm^3
# Si number density = 20.797094 Si / 1000 Ang^3
#
#
#
# Elastic Constant Matrix: (Units=GPa)
#
#
# Indices 1 2 3 4 5 6 
#
# 1 142.4131 42.4186 50.3967 0.0000 -12.0598 0.0000
# 2 42.4186 113.2353 51.2247 0.0000 5.3823 0.0000
# 3 50.3967 51.2247 88.3781 0.0000 -4.1353 0.0000
# 4 0.0000 0.0000 0.0000 32.5709 0.0000 8.3004
# 5 -12.0598 5.3823 -4.1353 0.0000 41.5350 0.0000
# 6 0.0000 0.0000 0.0000 8.3004 0.0000 37.4598
#
#
#
# Elastic Compliance Matrix: (Units=1/GPa)
#
#
# Indices 1 2 3 4 5 6 
#
# 1 0.009204 -0.001686 -0.004156 0.000000 0.002477 0.000000
# 2 -0.001686 0.012492 -0.006408 0.000000 -0.002746 0.000000
# 3 -0.004156 -0.006408 0.017462 0.000000 0.001362 0.000000
# 4 0.000000 0.000000 0.000000 0.032540 0.000000 -0.007210
# 5 0.002477 -0.002746 0.001362 0.000000 0.025287 0.000000
# 6 0.000000 0.000000 0.000000 -0.007210 0.000000 0.028293
#
#
# Mechanical properties :
#
#
# Convention : Reuss Voigt Hill
#
# Bulk Modulus (GPa) = 68.21065 70.23407 69.22236
# Shear Modulus (GPa) = 32.32840 35.64557 33.98698
#
# Velocity S-wave (km/s) = 3.94695 4.14450 4.04693
# Velocity P-wave (km/s) = 7.32397 7.53306 7.42925
#
# Compressibility (1/GPa) = 0.01466047
#
# Stress axis : x y z
#
# Youngs Moduli (GPa) = 108.64470 80.05230 57.26614
#
# Poissons Ratio (x) = 0.13496 0.23798
# Poissons Ratio (y) = 0.18316 0.36694
# Poissons Ratio (z) = 0.45149 0.51294
#
# Static dielectric constant tensor:
#      x y z
#    x 6.765560 0.000000 0.268950 
#    y 0.000000 3.731610 0.000000 
#    z 0.268950 0.000000 3.630990 
# 
# 
# High freq. dielectric constant tensor:
#      x y z
#    x 1.842740 0.000000 -0.011810 
#    y 0.000000 1.818340 0.000000 
#    z -0.011810 0.000000 1.786430 
# 
# From -- ./inp_files/131734.got.cif
#   From: 2010.06.25/outbox.cif.g09.slc.cpg/sg12_66_cif.got.tgz:131734.got - 2010.06.28 00:19:55.
