data_PCOD8113399
_publ_section_title
;
Structure prediction by ZEFSAII (Michael W. Deem and Ramdas Pophale) SiO2 
 PCOD8113399
Probable space group: C 2/M
;
_chemical_formula_sum "Si O2"
_cell_formula_units_Z 44
_cell_length_a 8.992285
_cell_length_b 24.975976
_cell_length_c 11.668872
_cell_angle_alpha 90.000000
_cell_angle_beta 48.626244
_cell_angle_gamma 90.000000
_cell_volume 1966.628270
_symmetry_space_group_name_H-M "C 2/M"
_symmetry_group_IT_number 12
_symmetry_cell_setting 'monoclinic'
loop_
_space_group_symop_operation_xyz
x,y,z
-x,y,-z
-x,-y,-z
x,-y,z
1/2+x,1/2+y,z
1/2-x,1/2+y,-z
1/2-x,1/2-y,-z
1/2+x,1/2-y,z
loop_
_atom_site_type_symbol
_atom_site_label
_atom_site_fract_x
_atom_site_fract_y
_atom_site_fract_z
Si Si1 0.691322 0.000000 0.477659
Si Si2 0.901349 0.887500 0.837141
Si Si3 0.603897 0.707816 0.838775
Si Si4 0.013780 0.696167 0.747160
Si Si5 0.817061 0.106471 0.509713
Si Si6 0.500000 0.845523 0.000000
Si Si7 0.536105 0.500000 0.115411
O O1 0.500000 0.000000 0.500000
O O2 0.694321 0.051180 0.561384
O O3 0.857537 0.000000 0.295835
O O4 0.701817 0.876820 0.866027
O O5 0.962989 0.844446 0.902043
O O6 0.094665 0.882805 0.659932
O O7 0.849111 0.944948 0.918884
O O8 0.599914 0.743497 0.723566
O O9 0.833874 0.695626 0.748718
O O10 0.500000 0.739231 0.000000
O O11 0.180403 0.655960 0.616042
O O12 0.938645 0.682564 0.912830
O O13 0.000000 0.097167 0.500000
O O14 0.500000 0.500000 0.000000
#
# Coordination Sequence:
#
# PCOD8113399 Si02
#       7
#     4   8   8   8   8   4   4
#     4  10  25  45  73  99 138 184 226 273 343 407
#     4  11  25  44  70 100 141 174 229 281 344 406
#     4  12  24  44  70 101 136 182 227 287 341 402
#     4  12  26  42  72  97 137 181 232 277 343 404
#     4  11  25  46  68 100 140 180 225 282 342 405
#     4  12  22  43  68 104 128 185 226 280 340 408
#     4  10  24  44  69 102 138 174 223 287 335 400
#
# _framework density 22.373318999999999
#
# number of rings (size 3 to 8) (size 9 to 14) (size 15 to 20)
#    0.000    0.727    4.545    2.455    5.091    1.091 
#    0.000    0.000    0.000    0.000    0.000    0.000 
#    0.000    0.000    0.000    0.000    0.000    0.000 
#
# Total GULP energy -272551.277329 kJ/mol
# GULP energy per Si atom -12388.694424 kJ/mol
# Density = 2.232240 g / cm^3
# Si number density = 22.373319 Si / 1000 Ang^3
#
#
#
# Elastic Constant Matrix: (Units=GPa)
#
#
# Indices 1 2 3 4 5 6 
#
# 1 172.4877 73.9195 11.5644 0.0000 -22.5649 0.0000
# 2 73.9195 158.8547 29.4562 0.0000 -9.9798 0.0000
# 3 11.5644 29.4562 56.7122 0.0000 -0.2777 0.0000
# 4 0.0000 0.0000 0.0000 22.8946 0.0000 9.7271
# 5 -22.5649 -9.9798 -0.2777 0.0000 32.8303 0.0000
# 6 0.0000 0.0000 0.0000 9.7271 0.0000 26.0507
#
#
#
# Elastic Compliance Matrix: (Units=1/GPa)
#
#
# Indices 1 2 3 4 5 6 
#
# 1 0.007807 -0.003396 0.000193 0.000000 0.004335 0.000000
# 2 -0.003396 0.008589 -0.003768 0.000000 0.000245 0.000000
# 3 0.000193 -0.003768 0.019546 0.000000 -0.000847 0.000000
# 4 0.000000 0.000000 0.000000 0.051914 0.000000 -0.019384
# 5 0.004335 0.000245 -0.000847 0.000000 0.033507 0.000000
# 6 0.000000 0.000000 0.000000 -0.019384 0.000000 0.045625
#
#
# Mechanical properties :
#
#
# Convention : Reuss Voigt Hill
#
# Bulk Modulus (GPa) = 45.45135 68.65943 57.05539
# Shear Modulus (GPa) = 26.55853 34.56276 30.56064
#
# Velocity S-wave (km/s) = 3.44912 3.93468 3.69987
# Velocity P-wave (km/s) = 6.01838 7.16917 6.61884
#
# Compressibility (1/GPa) = 0.02200155
#
# Stress axis : x y z
#
# Youngs Moduli (GPa) = 128.08660 116.42125 51.16082
#
# Poissons Ratio (x) = 0.39541 -0.00989
# Poissons Ratio (y) = 0.43503 0.19275
# Poissons Ratio (z) = -0.02476 0.43863
#
# Static dielectric constant tensor:
#      x y z
#    x 4.005840 0.000000 0.067550 
#    y 0.000000 4.416190 0.000000 
#    z 0.067550 0.000000 3.894430 
# 
# 
# High freq. dielectric constant tensor:
#      x y z
#    x 1.893230 0.000000 0.006310 
#    y 0.000000 1.889980 0.000000 
#    z 0.006310 0.000000 1.872330 
# 
# From -- ./inp_files/124103.got.cif
#   From: 2010.06.25/outbox.cif.g09.slc.cpg/sg12_63_cif.got.tgz:124103.got - 2010.06.28 00:19:55.
