data_PCOD8113171
_publ_section_title
;
Structure prediction by ZEFSAII (Michael W. Deem and Ramdas Pophale) SiO2 
 PCOD8113171
Probable space group: C 2/M
;
_chemical_formula_sum "Si O2"
_cell_formula_units_Z 48
_cell_length_a 17.971223
_cell_length_b 9.665881
_cell_length_c 28.820061
_cell_angle_alpha 90.000000
_cell_angle_beta 28.380076
_cell_angle_gamma 90.000000
_cell_volume 2379.570086
_symmetry_space_group_name_H-M "C 2/M"
_symmetry_group_IT_number 12
_symmetry_cell_setting 'monoclinic'
loop_
_space_group_symop_operation_xyz
x,y,z
-x,y,-z
-x,-y,-z
x,-y,z
1/2+x,1/2+y,z
1/2-x,1/2+y,-z
1/2-x,1/2-y,-z
1/2+x,1/2-y,z
loop_
_atom_site_type_symbol
_atom_site_label
_atom_site_fract_x
_atom_site_fract_y
_atom_site_fract_z
Si Si1 0.816936 0.333851 0.420270
Si Si2 0.367492 0.744235 0.792521
Si Si3 0.675881 0.843490 0.417518
Si Si4 0.852847 0.500000 0.116026
Si Si5 0.006701 0.500000 0.131727
Si Si6 0.140197 0.000000 0.053932
Si Si7 0.666934 0.500000 0.930520
Si Si8 0.038418 0.781307 0.793449
O O1 0.792389 0.500000 0.438300
O O2 0.750000 0.250000 0.500000
O O3 0.727088 0.276009 0.424757
O O4 0.000385 0.296877 0.315730
O O5 0.258842 0.630454 0.828809
O O6 0.254781 0.867410 0.865437
O O7 0.445998 0.688660 0.796485
O O8 0.500000 0.811357 0.500000
O O9 0.783578 0.831237 0.312352
O O10 0.690765 0.000000 0.430117
O O11 0.910116 0.500000 0.137476
O O12 0.000000 0.500000 0.000000
O O13 0.963114 0.624458 0.189642
O O14 0.188344 0.500000 0.016994
O O15 0.044105 0.865125 0.120524
O O16 0.158719 0.000000 0.989598
O O17 0.500000 0.500000 0.000000
#
# Coordination Sequence:
#
# PCOD8113171 Si02
#       8
#     8   8   8   4   4   4   4   8
#     4  11  25  45  74 100 132 184 232 284 353 421
#     4  11  24  47  68  97 138 184 224 288 346 415
#     4  10  23  45  70 100 138 174 224 287 348 414
#     4  12  28  42  67 101 145 181 235 289 344 399
#     4  12  26  42  65 100 136 174 231 287 329 405
#     4  12  24  42  69  96 130 184 229 274 332 414
#     4  12  26  42  67  97 137 180 231 275 344 410
#     4  11  23  43  69  96 131 180 227 276 347 402
#
# _framework density 20.171710999999998
#
# number of rings (size 3 to 8) (size 9 to 14) (size 15 to 20)
#    0.000    0.833    3.333    3.000   12.833    1.667 
#    0.000    0.000    0.000    0.000    0.000    0.000 
#    0.000    0.000    0.000    0.000    0.000    0.000 
#
# Total GULP energy -297624.629794 kJ/mol
# GULP energy per Si atom -12401.026241 kJ/mol
# Density = 2.012580 g / cm^3
# Si number density = 20.171711 Si / 1000 Ang^3
#
#
#
# Elastic Constant Matrix: (Units=GPa)
#
#
# Indices 1 2 3 4 5 6 
#
# 1 107.9159 53.7701 67.3833 0.0023 -5.4950 0.0072
# 2 53.7701 162.4872 79.0875 0.0027 0.5101 0.0098
# 3 67.3833 79.0875 178.1554 -0.0016 -11.4380 0.0008
# 4 0.0023 0.0027 -0.0016 49.7672 -0.0008 12.8452
# 5 -5.4950 0.5101 -11.4380 -0.0008 35.3734 -0.0022
# 6 0.0072 0.0098 0.0008 12.8452 -0.0022 53.4749
#
#
#
# Elastic Compliance Matrix: (Units=1/GPa)
#
#
# Indices 1 2 3 4 5 6 
#
# 1 0.012850 -0.002443 -0.003723 0.000000 0.000828 -0.000001
# 2 -0.002443 0.008371 -0.002884 0.000000 -0.001433 -0.000001
# 3 -0.003723 -0.002884 0.008442 0.000000 0.002193 0.000001
# 4 0.000000 0.000000 0.000000 0.021422 0.000000 -0.005146
# 5 0.000828 -0.001433 0.002193 0.000000 0.029128 0.000001
# 6 -0.000001 -0.000001 0.000001 -0.005146 0.000001 0.019936
#
#
# Mechanical properties :
#
#
# Convention : Reuss Voigt Hill
#
# Bulk Modulus (GPa) = 86.47544 94.33780 90.40662
# Shear Modulus (GPa) = 40.94863 44.27761 42.61312
#
# Velocity S-wave (km/s) = 4.51044 4.69020 4.60120
# Velocity P-wave (km/s) = 8.37187 8.72924 8.55242
#
# Compressibility (1/GPa) = 0.01156398
#
# Stress axis : x y z
#
# Youngs Moduli (GPa) = 77.81877 119.45927 118.45248
#
# Poissons Ratio (x) = 0.29185 0.44096
# Poissons Ratio (y) = 0.19012 0.34162
# Poissons Ratio (z) = 0.28969 0.34453
#
# Static dielectric constant tensor:
#      x y z
#    x 3.599460 0.000000 -0.085370 
#    y 0.000000 3.950190 0.000000 
#    z -0.085370 0.000000 4.109930 
# 
# 
# High freq. dielectric constant tensor:
#      x y z
#    x 1.776220 0.000000 -0.002330 
#    y 0.000000 1.808030 0.000000 
#    z -0.002330 0.000000 1.810460 
# 
# From -- ./inp_files/377952.got.cif
#   From: 2010.06.25/outbox.cif.g09.slc.cpg/sg12_189_cif.got.tgz:377952.got - 2010.06.28 00:19:55.
