data_PCOD8113631
_publ_section_title
;
Structure prediction by ZEFSAII (Michael W. Deem and Ramdas Pophale) SiO2 
 PCOD8113631
Probable space group: C 2/M
;
_chemical_formula_sum "Si O2"
_cell_formula_units_Z 56
_cell_length_a 8.796102
_cell_length_b 17.725834
_cell_length_c 20.302739
_cell_angle_alpha 90.000000
_cell_angle_beta 118.425840
_cell_angle_gamma 90.000000
_cell_volume 2783.907548
_symmetry_space_group_name_H-M "C 2/M"
_symmetry_group_IT_number 12
_symmetry_cell_setting 'monoclinic'
loop_
_space_group_symop_operation_xyz
x,y,z
-x,y,-z
-x,-y,-z
x,-y,z
1/2+x,1/2+y,z
1/2-x,1/2+y,-z
1/2-x,1/2-y,-z
1/2+x,1/2-y,z
loop_
_atom_site_type_symbol
_atom_site_label
_atom_site_fract_x
_atom_site_fract_y
_atom_site_fract_z
Si Si1 0.669317 0.087759 0.735336
Si Si2 0.993449 0.641889 0.423254
Si Si3 0.495424 0.703184 0.633658
Si Si4 0.339272 0.414692 0.513451
Si Si5 0.179527 0.280999 0.053239
Si Si6 0.882084 0.693537 0.727530
Si Si7 0.551313 0.694218 0.148809
O O1 0.651530 0.103540 0.653083
O O2 0.504497 0.122525 0.739035
O O3 0.844378 0.125694 0.797340
O O4 0.679395 0.000000 0.752996
O O5 0.983677 0.732218 0.417771
O O6 0.179395 0.612437 0.435187
O O7 0.000000 0.612760 0.500000
O O8 0.360558 0.639477 0.581827
O O9 0.683227 0.666796 0.684908
O O10 0.418480 0.739360 0.683468
O O11 0.500000 0.404485 0.500000
O O12 0.317452 0.500000 0.534164
O O13 0.346380 0.328483 0.113167
O O14 0.123838 0.212078 0.090537
O O15 0.250000 0.250000 0.000000
O O16 0.000000 0.327429 0.000000
O O17 0.920678 0.726956 0.807197
#
# Coordination Sequence:
#
# PCOD8113631 Si02
#       7
#     8   8   8   8   8   8   8
#     4  11  24  38  60  89 126 166 205 255 321 366
#     4  11  22  39  57  77 109 158 219 269 309 360
#     4  11  21  35  56  79 107 150 210 264 314 367
#     4  11  23  36  50  72 108 149 198 263 329 371
#     4   9  19  34  65 104 124 153 199 245 284 348
#     4  11  20  37  60  86 115 155 203 250 296 359
#     4  11  18  38  62  93 128 158 199 248 286 365
#
# _framework density 20.11561
#
# number of rings (size 3 to 8) (size 9 to 14) (size 15 to 20)
#    0.000    1.286    4.286    3.857    0.000    2.857 
#    0.000    0.000    0.000    6.857    0.000    0.000 
#    0.000    0.000    0.000    0.000    0.000    0.000 
#
# Total GULP energy -347003.096592 kJ/mol
# GULP energy per Si atom -12392.967735 kJ/mol
# Density = 2.006983 g / cm^3
# Si number density = 20.115610 Si / 1000 Ang^3
#
#
#
# Elastic Constant Matrix: (Units=GPa)
#
#
# Indices 1 2 3 4 5 6 
#
# 1 86.3355 24.2877 51.3457 0.0000 24.5002 0.0000
# 2 24.2877 111.4180 43.7090 0.0000 14.9547 0.0000
# 3 51.3457 43.7090 118.5690 0.0000 19.1757 0.0000
# 4 0.0000 0.0000 0.0000 10.7861 0.0000 4.6754
# 5 24.5002 14.9547 19.1757 0.0000 54.1231 0.0000
# 6 0.0000 0.0000 0.0000 4.6754 0.0000 18.9529
#
#
#
# Elastic Compliance Matrix: (Units=1/GPa)
#
#
# Indices 1 2 3 4 5 6 
#
# 1 0.016986 -0.000516 -0.006306 0.000000 -0.005312 0.000000
# 2 -0.000516 0.010644 -0.003461 0.000000 -0.001481 0.000000
# 3 -0.006306 -0.003461 0.012543 0.000000 -0.000633 0.000000
# 4 0.000000 0.000000 0.000000 0.103813 0.000000 -0.025609
# 5 -0.005312 -0.001481 -0.000633 0.000000 0.021515 0.000000
# 6 0.000000 0.000000 0.000000 -0.025609 0.000000 0.059080
#
#
# Mechanical properties :
#
#
# Convention : Reuss Voigt Hill
#
# Bulk Modulus (GPa) = 51.00212 61.66748 56.33480
# Shear Modulus (GPa) = 19.86636 29.90443 24.88540
#
# Velocity S-wave (km/s) = 3.14603 3.85986 3.52109
# Velocity P-wave (km/s) = 6.21339 7.11251 6.67810
#
# Compressibility (1/GPa) = 0.01960703
#
# Stress axis : x y z
#
# Youngs Moduli (GPa) = 58.87247 93.94802 79.72534
#
# Poissons Ratio (x) = 0.04845 0.50278
# Poissons Ratio (y) = 0.03036 0.27593
# Poissons Ratio (z) = 0.37127 0.32515
#
# Static dielectric constant tensor:
#      x y z
#    x 4.245280 0.000000 0.465470 
#    y 0.000000 3.296790 0.000000 
#    z 0.465470 0.000000 4.255750 
# 
# 
# High freq. dielectric constant tensor:
#      x y z
#    x 1.811440 0.000000 0.013460 
#    y 0.000000 1.730980 0.000000 
#    z 0.013460 0.000000 1.794190 
# 
# From -- ./inp_files/300866.got.cif
#   From: 2010.06.25/outbox.cif.g09.slc.cpg/sg12_151_cif.got.tgz:300866.got - 2010.06.28 00:19:55.
