data_PCOD8113306
_publ_section_title
;
Structure prediction by ZEFSAII (Michael W. Deem and Ramdas Pophale) SiO2 
 PCOD8113306
Probable space group: C 2/M
;
_chemical_formula_sum "Si O2"
_cell_formula_units_Z 28
_cell_length_a 17.622775
_cell_length_b 16.440253
_cell_length_c 4.935755
_cell_angle_alpha 90.000000
_cell_angle_beta 47.365574
_cell_angle_gamma 90.000000
_cell_volume 1052.037912
_symmetry_space_group_name_H-M "C 2/M"
_symmetry_group_IT_number 12
_symmetry_cell_setting 'monoclinic'
loop_
_space_group_symop_operation_xyz
x,y,z
-x,y,-z
-x,-y,-z
x,-y,z
1/2+x,1/2+y,z
1/2-x,1/2+y,-z
1/2-x,1/2-y,-z
1/2+x,1/2-y,z
loop_
_atom_site_type_symbol
_atom_site_label
_atom_site_fract_x
_atom_site_fract_y
_atom_site_fract_z
Si Si1 0.120462 0.335086 0.661351
Si Si2 0.105958 0.905122 0.110826
Si Si3 0.074608 0.500000 0.570885
Si Si4 0.706529 0.668526 0.352556
O O1 0.141588 0.417460 0.436016
O O2 0.176756 0.341549 0.818275
O O3 0.176333 0.262574 0.358181
O O4 0.000000 0.317961 0.000000
O O5 0.195678 0.885539 0.110429
O O6 0.000000 0.873287 0.500000
O O7 0.101874 0.000000 0.055820
O O8 0.126377 0.859807 0.780109
O O9 0.000000 0.500000 0.500000
O O10 0.000000 0.500000 0.000000
#
# Coordination Sequence:
#
# PCOD8113306 Si02
#       4
#     8   8   4   8
#     4  10  24  45  69 103 141 182 232 285 345 415
#     4  11  24  43  69 101 138 181 230 290 344 411
#     4  10  24  42  66  98 135 182 223 278 340 404
#     4  11  25  43  71 101 135 186 229 288 346 410
#
# _framework density 26.615010000000002
#
# number of rings (size 3 to 8) (size 9 to 14) (size 15 to 20)
#    0.000    1.429    0.000    3.429    4.000   17.143 
#    0.000    0.000    0.000    0.000    0.000    0.000 
#    0.000    0.000    0.000    0.000    0.000    0.000 
#
# Total GULP energy -173628.494782 kJ/mol
# GULP energy per Si atom -12402.035342 kJ/mol
# Density = 2.655443 g / cm^3
# Si number density = 26.615010 Si / 1000 Ang^3
#
#
#
# Elastic Constant Matrix: (Units=GPa)
#
#
# Indices 1 2 3 4 5 6 
#
# 1 132.3381 75.0809 6.1956 0.0000 -6.4064 0.0000
# 2 75.0809 145.4411 27.6992 0.0000 -5.6841 0.0000
# 3 6.1956 27.6992 69.9796 0.0000 -14.5683 0.0000
# 4 0.0000 0.0000 0.0000 13.8445 0.0000 -8.9340
# 5 -6.4064 -5.6841 -14.5683 0.0000 60.1955 0.0000
# 6 0.0000 0.0000 0.0000 -8.9340 0.0000 45.2685
#
#
#
# Elastic Compliance Matrix: (Units=1/GPa)
#
#
# Indices 1 2 3 4 5 6 
#
# 1 0.010858 -0.005865 0.001564 0.000000 0.000980 0.000000
# 2 -0.005865 0.010604 -0.003790 0.000000 -0.000540 0.000000
# 3 0.001564 -0.003790 0.016440 0.000000 0.003787 0.000000
# 4 0.000000 0.000000 0.000000 0.082772 0.000000 0.016336
# 5 0.000980 -0.000540 0.003787 0.000000 0.017582 0.000000
# 6 0.000000 0.000000 0.000000 0.016336 0.000000 0.025314
#
#
# Mechanical properties :
#
#
# Convention : Reuss Voigt Hill
#
# Bulk Modulus (GPa) = 46.04059 62.85668 54.44864
# Shear Modulus (GPa) = 26.73890 39.78057 33.25973
#
# Velocity S-wave (km/s) = 3.17307 3.87029 3.53889
# Velocity P-wave (km/s) = 5.54624 6.60609 6.09923
#
# Compressibility (1/GPa) = 0.02171997
#
# Stress axis : x y z
#
# Youngs Moduli (GPa) = 92.09828 94.30418 60.82656
#
# Poissons Ratio (x) = 0.55307 -0.09514
# Poissons Ratio (y) = 0.54014 0.23056
# Poissons Ratio (z) = -0.14406 0.35746
#
# Static dielectric constant tensor:
#      x y z
#    x 4.838050 0.000000 -0.219640 
#    y 0.000000 4.245530 0.000000 
#    z -0.219640 0.000000 4.725960 
# 
# 
# High freq. dielectric constant tensor:
#      x y z
#    x 2.074400 0.000000 -0.010200 
#    y 0.000000 2.079630 0.000000 
#    z -0.010200 0.000000 2.086010 
# 
# From -- ./inp_files/20075.got.cif
#   From: 2010.06.25/outbox.cif.g09.slc.cpg/sg12_11_cif.got.tgz:20075.got - 2010.06.28 00:19:55.
