data_PCOD8113393
_publ_section_title
;
Structure prediction by ZEFSAII (Michael W. Deem and Ramdas Pophale) SiO2 
 PCOD8113393
Probable space group: C 2/M
;
_chemical_formula_sum "Si O2"
_cell_formula_units_Z 52
_cell_length_a 15.440621
_cell_length_b 14.126544
_cell_length_c 19.015571
_cell_angle_alpha 90.000000
_cell_angle_beta 36.481216
_cell_angle_gamma 90.000000
_cell_volume 2466.068728
_symmetry_space_group_name_H-M "C 2/M"
_symmetry_group_IT_number 12
_symmetry_cell_setting 'monoclinic'
loop_
_space_group_symop_operation_xyz
x,y,z
-x,y,-z
-x,-y,-z
x,-y,z
1/2+x,1/2+y,z
1/2-x,1/2+y,-z
1/2-x,1/2-y,-z
1/2+x,1/2-y,z
loop_
_atom_site_type_symbol
_atom_site_label
_atom_site_fract_x
_atom_site_fract_y
_atom_site_fract_z
Si Si1 0.000000 0.251835 0.500000
Si Si2 0.213526 0.859054 0.026163
Si Si3 0.645059 0.393528 0.227881
Si Si4 0.508598 0.103431 0.773573
Si Si5 0.580885 0.229479 0.598437
Si Si6 0.565354 0.392919 0.881835
Si Si7 0.208439 0.705049 0.749700
O O1 0.044092 0.308078 0.543020
O O2 0.141625 0.188440 0.390975
O O3 0.209660 0.894314 0.108060
O O4 0.059698 0.885513 0.094018
O O5 0.250000 0.750000 0.000000
O O6 0.338518 0.911635 0.900661
O O7 0.599524 0.500000 0.279091
O O8 0.504650 0.326507 0.328952
O O9 0.779687 0.357109 0.187718
O O10 0.526958 0.147620 0.684915
O O11 0.574602 0.170977 0.790203
O O12 0.583927 0.000000 0.724850
O O13 0.750000 0.250000 0.500000
O O14 0.630666 0.500000 0.838565
O O15 0.689970 0.316415 0.781264
O O16 0.500000 0.366672 0.000000
#
# Coordination Sequence:
#
# PCOD8113393 Si02
#       7
#     4   8   8   8   8   8   8
#     4  10  24  44  68  92 130 174 222 280 318 394
#     4  12  22  43  67  97 135 173 214 275 335 397
#     4  11  24  42  68  99 133 173 219 276 339 399
#     4  12  25  42  69  99 133 174 221 276 341 403
#     4  11  23  45  66  96 134 175 228 277 332 397
#     4  11  24  41  65  94 129 176 222 269 333 403
#     4  11  23  44  66  96 135 172 221 277 333 392
#
# _framework density 21.086192
#
# number of rings (size 3 to 8) (size 9 to 14) (size 15 to 20)
#    0.000    0.769    4.615    2.769    2.154    0.615 
#    0.000    5.000    0.000    0.000    0.000    0.000 
#    0.000    0.000    0.000    0.000    0.000    0.000 
#
# Total GULP energy -322354.255605 kJ/mol
# GULP energy per Si atom -12398.240600 kJ/mol
# Density = 2.103820 g / cm^3
# Si number density = 21.086192 Si / 1000 Ang^3
#
#
#
# Elastic Constant Matrix: (Units=GPa)
#
#
# Indices 1 2 3 4 5 6 
#
# 1 124.4201 28.3375 46.1412 -0.0002 28.4830 0.0001
# 2 28.3375 161.9898 38.1229 -0.0002 7.7620 0.0000
# 3 46.1412 38.1229 112.9420 -0.0005 12.3205 0.0001
# 4 -0.0002 -0.0002 -0.0005 -3.0007 0.0003 -3.9130
# 5 28.4830 7.7620 12.3205 0.0003 42.0470 -0.0001
# 6 0.0001 0.0000 0.0001 -3.9130 -0.0001 23.9847
#
#
#
# Elastic Compliance Matrix: (Units=1/GPa)
#
#
# Indices 1 2 3 4 5 6 
#
# 1 0.010954 -0.000787 -0.003529 -0.000001 -0.006241 0.000000
# 2 -0.000787 0.006777 -0.001950 0.000000 -0.000147 0.000000
# 3 -0.003529 -0.001950 0.011006 -0.000001 -0.000475 0.000000
# 4 -0.000001 0.000000 -0.000001 -0.274791 0.000003 -0.044831
# 5 -0.006241 -0.000147 -0.000475 0.000003 0.028177 0.000001
# 6 0.000000 0.000000 0.000000 -0.044831 0.000001 0.034379
#
#
# Mechanical properties :
#
#
# Convention : Reuss Voigt Hill
#
# Bulk Modulus (GPa) = 61.70787 69.39503 65.55145
# Shear Modulus (GPa) = -30.19936 31.72288 0.76176
#
# Velocity S-wave (km/s) = -3.78853 3.88292 0.60170
# Velocity P-wave (km/s) = 3.19231 7.28590 5.62473
#
# Compressibility (1/GPa) = 0.01620539
#
# Stress axis : x y z
#
# Youngs Moduli (GPa) = 91.29243 147.56199 90.86193
#
# Poissons Ratio (x) = 0.11609 0.32062
# Poissons Ratio (y) = 0.07182 0.17719
# Poissons Ratio (z) = 0.32214 0.28776
#
# Static dielectric constant tensor:
#      x y z
#    x 4.289220 0.000000 -0.236440 
#    y 0.000000 3.905240 0.000000 
#    z -0.236440 0.000000 4.709210 
# 
# 
# High freq. dielectric constant tensor:
#      x y z
#    x 1.844870 0.000000 0.009130 
#    y 0.000000 1.818960 0.000000 
#    z 0.009130 0.000000 1.826040 
# 
# From -- ./inp_files/270585.got.cif
#   From: 2010.06.25/outbox.cif.g09.slc.cpg/sg12_136_cif.got.tgz:270585.got - 2010.06.28 00:19:55.
