data_PCOD8113635
_publ_section_title
;
Structure prediction by ZEFSAII (Michael W. Deem and Ramdas Pophale) SiO2 
 PCOD8113635
Probable space group: C 2/M
;
_chemical_formula_sum "Si O2"
_cell_formula_units_Z 40
_cell_length_a 19.886352
_cell_length_b 11.330219
_cell_length_c 15.855251
_cell_angle_alpha 90.000000
_cell_angle_beta 35.957383
_cell_angle_gamma 90.000000
_cell_volume 2097.684993
_symmetry_space_group_name_H-M "C 2/M"
_symmetry_group_IT_number 12
_symmetry_cell_setting 'monoclinic'
loop_
_space_group_symop_operation_xyz
x,y,z
-x,y,-z
-x,-y,-z
x,-y,z
1/2+x,1/2+y,z
1/2-x,1/2+y,-z
1/2-x,1/2-y,-z
1/2+x,1/2-y,z
loop_
_atom_site_type_symbol
_atom_site_label
_atom_site_fract_x
_atom_site_fract_y
_atom_site_fract_z
Si Si1 0.374770 0.752145 0.911281
Si Si2 0.561216 0.000000 0.077847
Si Si3 0.835156 0.500000 0.213381
Si Si4 0.817773 0.205758 0.663726
Si Si5 0.118271 0.137649 0.917821
Si Si6 0.972494 0.140215 0.652416
O O1 0.408241 0.886128 0.897881
O O2 0.461477 0.692553 0.756813
O O3 0.250000 0.750000 0.000000
O O4 0.379581 0.669288 0.987004
O O5 0.427935 0.000000 0.192649
O O6 0.623654 0.000000 0.924940
O O7 0.759635 0.613244 0.306493
O O8 0.736345 0.319926 0.753968
O O9 0.855014 0.160244 0.719096
O O10 0.929806 0.219738 0.491848
O O11 0.115516 0.000000 0.906203
O O12 0.000000 0.194182 0.000000
O O13 0.001506 0.000000 0.623316
#
# Coordination Sequence:
#
# PCOD8113635 Si02
#       6
#     8   4   4   8   8   8
#     4  12  24  38  64  91 123 157 206 261 308 358
#     4  11  24  36  60  95 119 159 205 264 300 354
#     4  11  18  39  66  86 120 154 212 249 302 363
#     4  11  20  39  66  92 119 163 205 255 300 364
#     4  11  24  42  63  90 125 166 204 247 310 373
#     4  11  22  39  63  96 124 158 207 252 311 362
#
# _framework density 19.068639999999998
#
# number of rings (size 3 to 8) (size 9 to 14) (size 15 to 20)
#    0.000    0.800    6.000    2.400    2.800    0.000 
#    1.800    5.000    0.000    0.000    0.000    0.000 
#    0.000    0.000    0.000    0.000    0.000    0.000 
#
# Total GULP energy -247934.887416 kJ/mol
# GULP energy per Si atom -12396.744371 kJ/mol
# Density = 1.902524 g / cm^3
# Si number density = 19.068640 Si / 1000 Ang^3
#
#
#
# Elastic Constant Matrix: (Units=GPa)
#
#
# Indices 1 2 3 4 5 6 
#
# 1 128.9310 41.2639 55.0233 0.0000 -13.5235 0.0000
# 2 41.2639 95.6716 44.6575 0.0000 -5.4682 0.0000
# 3 55.0233 44.6575 106.0682 0.0000 -2.3074 0.0000
# 4 0.0000 0.0000 0.0000 26.4446 0.0000 -5.4621
# 5 -13.5235 -5.4682 -2.3074 0.0000 32.6979 0.0000
# 6 0.0000 0.0000 0.0000 -5.4621 0.0000 29.9448
#
#
#
# Elastic Compliance Matrix: (Units=1/GPa)
#
#
# Indices 1 2 3 4 5 6 
#
# 1 0.010845 -0.002333 -0.004562 0.000000 0.003773 0.000000
# 2 -0.002333 0.013616 -0.004501 0.000000 0.000995 0.000000
# 3 -0.004562 -0.004501 0.013653 0.000000 -0.001676 0.000000
# 4 0.000000 0.000000 0.000000 0.039295 0.000000 0.007168
# 5 0.003773 0.000995 -0.001676 0.000000 0.032192 0.000000
# 6 0.000000 0.000000 0.000000 0.007168 0.000000 0.034702
#
#
# Mechanical properties :
#
#
# Convention : Reuss Voigt Hill
#
# Bulk Modulus (GPa) = 65.25948 68.06224 66.66086
# Shear Modulus (GPa) = 29.03549 30.46588 29.75069
#
# Velocity S-wave (km/s) = 3.90639 4.00145 3.95421
# Velocity P-wave (km/s) = 7.39218 7.55775 7.47542
#
# Compressibility (1/GPa) = 0.01532344
#
# Stress axis : x y z
#
# Youngs Moduli (GPa) = 92.20612 73.44091 73.24380
#
# Poissons Ratio (x) = 0.17131 0.33413
# Poissons Ratio (y) = 0.21508 0.32968
# Poissons Ratio (z) = 0.42063 0.33057
#
# Static dielectric constant tensor:
#      x y z
#    x 3.641070 0.000000 -0.159490 
#    y 0.000000 3.393460 0.000000 
#    z -0.159490 0.000000 3.600060 
# 
# 
# High freq. dielectric constant tensor:
#      x y z
#    x 1.749070 0.000000 -0.014010 
#    y 0.000000 1.736820 0.000000 
#    z -0.014010 0.000000 1.741660 
# 
# From -- ./inp_files/153352.got.cif
#   From: 2010.06.25/outbox.cif.g09.slc.cpg/sg12_77_cif.got.tgz:153352.got - 2010.06.28 00:19:55.
