data_PCOD8113700
_publ_section_title
;
Structure prediction by ZEFSAII (Michael W. Deem and Ramdas Pophale) SiO2 
 PCOD8113700
Probable space group: C 2/M
;
_chemical_formula_sum "Si O2"
_cell_formula_units_Z 40
_cell_length_a 28.258497
_cell_length_b 18.539386
_cell_length_c 10.021568
_cell_angle_alpha 90.000000
_cell_angle_beta 155.690023
_cell_angle_gamma 90.000000
_cell_volume 2161.386962
_symmetry_space_group_name_H-M "C 2/M"
_symmetry_group_IT_number 12
_symmetry_cell_setting 'monoclinic'
loop_
_space_group_symop_operation_xyz
x,y,z
-x,y,-z
-x,-y,-z
x,-y,z
1/2+x,1/2+y,z
1/2-x,1/2+y,-z
1/2-x,1/2-y,-z
1/2+x,1/2-y,z
loop_
_atom_site_type_symbol
_atom_site_label
_atom_site_fract_x
_atom_site_fract_y
_atom_site_fract_z
Si Si1 0.895051 0.500000 0.628699
Si Si2 0.046068 0.789350 0.763523
Si Si3 0.286162 0.146453 0.431694
Si Si4 0.600515 0.288533 0.362740
Si Si5 0.451779 0.000000 0.228869
Si Si6 0.328088 0.853486 0.850529
O O1 0.816147 0.569106 0.449479
O O2 0.941039 0.500000 0.596464
O O3 0.000000 0.500000 0.000000
O O4 0.000000 0.808558 0.500000
O O5 0.942679 0.804624 0.599703
O O6 0.150510 0.842248 0.068433
O O7 0.084556 0.706173 0.869208
O O8 0.356108 0.206247 0.529575
O O9 0.322871 0.155185 0.678712
O O10 0.703068 0.343475 0.593746
O O11 0.500000 0.302348 0.000000
O O12 0.500000 0.000000 0.500000
O O13 0.371586 0.068449 0.001152
#
# Coordination Sequence:
#
# PCOD8113700 Si02
#       6
#     4   8   8   8   4   8
#     4  12  22  38  66  84 111 154 191 233 290 335
#     4  11  23  37  58  89 119 148 190 243 287 328
#     4  11  21  37  62  89 110 151 203 230 273 355
#     4  11  19  36  63  83 115 153 191 238 281 330
#     4  12  26  40  58  89 121 144 186 245 289 333
#     4  11  21  38  61  87 114 152 197 230 281 350
#
# _framework density 18.506634999999999
#
# number of rings (size 3 to 8) (size 9 to 14) (size 15 to 20)
#    0.000    0.800    6.000    3.600    0.000    4.800 
#    0.000    2.000    0.000    0.000    0.000    0.000 
#    0.000    0.000    0.000    0.000    0.000    0.000 
#
# Total GULP energy -248124.256234 kJ/mol
# GULP energy per Si atom -12406.212812 kJ/mol
# Density = 1.846451 g / cm^3
# Si number density = 18.506635 Si / 1000 Ang^3
#
#
#
# Elastic Constant Matrix: (Units=GPa)
#
#
# Indices 1 2 3 4 5 6 
#
# 1 153.1804 37.2247 43.8051 0.0000 8.8050 0.0000
# 2 37.2247 127.8905 37.7425 0.0000 16.9987 0.0000
# 3 43.8051 37.7425 72.1032 0.0000 3.6188 0.0000
# 4 0.0000 0.0000 0.0000 8.2231 0.0000 14.1324
# 5 8.8050 16.9987 3.6188 0.0000 41.7498 0.0000
# 6 0.0000 0.0000 0.0000 14.1324 0.0000 14.7389
#
#
#
# Elastic Compliance Matrix: (Units=1/GPa)
#
#
# Indices 1 2 3 4 5 6 
#
# 1 0.008055 -0.000933 -0.004358 0.000000 -0.000941 0.000000
# 2 -0.000933 0.009850 -0.004417 0.000000 -0.003431 0.000000
# 3 -0.004358 -0.004417 0.018774 0.000000 0.001090 0.000000
# 4 0.000000 0.000000 0.000000 -0.187699 0.000000 0.179974
# 5 -0.000941 -0.003431 0.001090 0.000000 0.025453 0.000000
# 6 0.000000 0.000000 0.000000 0.179974 0.000000 -0.104720
#
#
# Mechanical properties :
#
#
# Convention : Reuss Voigt Hill
#
# Bulk Modulus (GPa) = 57.92749 65.63540 61.78144
# Shear Modulus (GPa) = -24.37665 28.56916 2.09625
#
# Velocity S-wave (km/s) = -3.63324 3.93329 1.06544
# Velocity P-wave (km/s) = 3.71057 7.49470 5.91350
#
# Compressibility (1/GPa) = 0.01726296
#
# Stress axis : x y z
#
# Youngs Moduli (GPa) = 124.13911 101.51864 53.26509
#
# Poissons Ratio (x) = 0.09476 0.23214
# Poissons Ratio (y) = 0.11588 0.23527
# Poissons Ratio (z) = 0.54101 0.44840
#
# Static dielectric constant tensor:
#      x y z
#    x 3.636580 0.000000 0.110190 
#    y 0.000000 3.363050 0.000000 
#    z 0.110190 0.000000 3.265860 
# 
# 
# High freq. dielectric constant tensor:
#      x y z
#    x 1.732960 0.000000 0.007750 
#    y 0.000000 1.710290 0.000000 
#    z 0.007750 0.000000 1.719830 
# 
# From -- ./inp_files/77222.got.cif
#   From: 2010.06.25/outbox.cif.g09.slc.cpg/sg12_39_cif.got.tgz:77222.got - 2010.06.28 00:19:55.
