data_PCOD8113770
_publ_section_title
;
Structure prediction by ZEFSAII (Michael W. Deem and Ramdas Pophale) SiO2 
 PCOD8113770
Probable space group: C 2/M
;
_chemical_formula_sum "Si O2"
_cell_formula_units_Z 32
_cell_length_a 13.653087
_cell_length_b 19.061051
_cell_length_c 7.613872
_cell_angle_alpha 90.000000
_cell_angle_beta 100.683437
_cell_angle_gamma 90.000000
_cell_volume 1947.105087
_symmetry_space_group_name_H-M "C 2/M"
_symmetry_group_IT_number 12
_symmetry_cell_setting 'monoclinic'
loop_
_space_group_symop_operation_xyz
x,y,z
-x,y,-z
-x,-y,-z
x,-y,z
1/2+x,1/2+y,z
1/2-x,1/2+y,-z
1/2-x,1/2-y,-z
1/2+x,1/2-y,z
loop_
_atom_site_type_symbol
_atom_site_label
_atom_site_fract_x
_atom_site_fract_y
_atom_site_fract_z
Si Si1 0.719287 0.150130 0.100228
Si Si2 0.408765 0.863881 0.255953
Si Si3 0.598735 0.271732 0.937810
Si Si4 0.378701 0.081277 0.618463
O O1 0.837529 0.161816 0.109427
O O2 0.704957 0.105874 0.272142
O O3 0.669929 0.108970 0.917507
O O4 0.665687 0.226731 0.099531
O O5 0.429533 0.780598 0.233022
O O6 0.511730 0.905896 0.264652
O O7 0.364045 0.875455 0.434137
O O8 0.500000 0.300604 0.000000
O O9 0.364380 0.000000 0.570977
#
# Coordination Sequence:
#
# PCOD8113770 Si02
#       4
#     8   8   8   8
#     4   9  18  32  49  68  98 129 156 197 239 279
#     4   9  17  30  45  70 100 124 152 196 237 283
#     4   9  16  33  50  70  97 121 161 201 240 281
#     4  11  20  29  47  75 102 130 157 183 240 299
#
# _framework density 16.434653999999998
#
# number of rings (size 3 to 8) (size 9 to 14) (size 15 to 20)
#    1.500    1.000    2.500    2.250    0.000    4.000 
#    0.000    0.000    0.000    0.750    0.000    1.750 
#    0.000    0.000    0.000    0.000    0.000    0.000 
#
# Total GULP energy -198255.837538 kJ/mol
# GULP energy per Si atom -12390.989846 kJ/mol
# Density = 1.639725 g / cm^3
# Si number density = 16.434654 Si / 1000 Ang^3
#
#
#
# Elastic Constant Matrix: (Units=GPa)
#
#
# Indices 1 2 3 4 5 6 
#
# 1 110.0762 35.7347 51.4139 0.0000 -28.2810 0.0000
# 2 35.7347 51.0096 40.8854 0.0000 -12.5006 0.0000
# 3 51.4139 40.8854 104.4540 0.0000 -25.6995 0.0000
# 4 0.0000 0.0000 0.0000 11.0447 0.0000 -3.2217
# 5 -28.2810 -12.5006 -25.6995 0.0000 15.3116 0.0000
# 6 0.0000 0.0000 0.0000 -3.2217 0.0000 21.5075
#
#
#
# Elastic Compliance Matrix: (Units=1/GPa)
#
#
# Indices 1 2 3 4 5 6 
#
# 1 0.018579 -0.006148 0.000800 0.000000 0.030639 0.000000
# 2 -0.006148 0.031152 -0.009716 0.000000 -0.002230 0.000000
# 3 0.000800 -0.009716 0.019411 0.000000 0.026124 0.000000
# 4 0.000000 0.000000 0.000000 0.094678 0.000000 0.014182
# 5 0.030639 -0.002230 0.026124 0.000000 0.163928 0.000000
# 6 0.000000 0.000000 0.000000 0.014182 0.000000 0.048620
#
#
# Mechanical properties :
#
#
# Convention : Reuss Voigt Hill
#
# Bulk Modulus (GPa) = 25.63250 57.95644 41.79447
# Shear Modulus (GPa) = 11.91895 18.73982 15.32938
#
# Velocity S-wave (km/s) = 2.69594 3.38044 3.05740
# Velocity P-wave (km/s) = 5.03202 7.11181 6.16032
#
# Compressibility (1/GPa) = 0.03901298
#
# Stress axis : x y z
#
# Youngs Moduli (GPa) = 53.82545 32.10033 51.51838
#
# Poissons Ratio (x) = 0.19735 -0.04122
# Poissons Ratio (y) = 0.33092 0.50057
# Poissons Ratio (z) = -0.04306 0.31190
#
# Static dielectric constant tensor:
#      x y z
#    x 2.959990 0.000000 -0.073820 
#    y 0.000000 2.763960 0.000000 
#    z -0.073820 0.000000 2.967370 
# 
# 
# High freq. dielectric constant tensor:
#      x y z
#    x 1.613540 0.000000 -0.015470 
#    y 0.000000 1.592000 0.000000 
#    z -0.015470 0.000000 1.624170 
# 
# From -- ./inp_files/47547.got.cif
#   From: 2010.06.25/outbox.cif.g09.slc.cpg/sg12_24_cif.got.tgz:47547.got - 2010.06.28 00:19:55.
