data_PCOD8113334
_publ_section_title
;
Structure prediction by ZEFSAII (Michael W. Deem and Ramdas Pophale) SiO2 
 PCOD8113334
Probable space group: C 2/M
;
_chemical_formula_sum "Si O2"
_cell_formula_units_Z 40
_cell_length_a 18.054748
_cell_length_b 16.829450
_cell_length_c 11.976492
_cell_angle_alpha 90.000000
_cell_angle_beta 28.841245
_cell_angle_gamma 90.000000
_cell_volume 1755.432801
_symmetry_space_group_name_H-M "C 2/M"
_symmetry_group_IT_number 12
_symmetry_cell_setting 'monoclinic'
loop_
_space_group_symop_operation_xyz
x,y,z
-x,y,-z
-x,-y,-z
x,-y,z
1/2+x,1/2+y,z
1/2-x,1/2+y,-z
1/2-x,1/2-y,-z
1/2+x,1/2-y,z
loop_
_atom_site_type_symbol
_atom_site_label
_atom_site_fract_x
_atom_site_fract_y
_atom_site_fract_z
Si Si1 0.382802 0.912836 0.974206
Si Si2 0.344442 0.820698 0.638502
Si Si3 0.317731 0.591652 0.963587
Si Si4 0.138371 0.138569 0.458859
Si Si5 0.685139 0.162782 0.569325
O O1 0.333062 0.896650 0.912608
O O2 0.230603 0.914734 0.250438
O O3 0.459520 0.000000 0.881415
O O4 0.508665 0.847253 0.845685
O O5 0.500000 0.842279 0.500000
O O6 0.336624 0.728489 0.616985
O O7 0.319987 0.867026 0.552635
O O8 0.202534 0.849927 0.903264
O O9 0.336669 0.500000 0.976610
O O10 0.459139 0.619242 0.699274
O O11 0.203288 0.114329 0.495928
O O12 0.750000 0.250000 0.500000
#
# Coordination Sequence:
#
# PCOD8113334 Si02
#       5
#     8   8   8   8   8
#     4  11  23  43  71  99 136 183 229 278 343 414
#     4  11  23  42  71  94 133 185 232 277 339 410
#     4  11  25  44  70 104 141 181 231 286 342 408
#     4  11  25  41  68 102 140 175 228 285 343 403
#     4  10  24  43  64 101 135 178 227 284 335 409
#
# _framework density 22.786404999999998
#
# number of rings (size 3 to 8) (size 9 to 14) (size 15 to 20)
#    0.000    1.200    2.000    3.000    5.600    7.600 
#    0.000    1.000    0.000    0.000    0.000    0.000 
#    0.000    0.000    0.000    0.000    0.000    0.000 
#
# Total GULP energy -247794.114703 kJ/mol
# GULP energy per Si atom -12389.705735 kJ/mol
# Density = 2.273454 g / cm^3
# Si number density = 22.786405 Si / 1000 Ang^3
#
#
#
# Elastic Constant Matrix: (Units=GPa)
#
#
# Indices 1 2 3 4 5 6 
#
# 1 128.5541 44.0974 30.5695 -0.0007 5.8722 0.0001
# 2 44.0974 98.6965 55.5378 -0.0003 -2.5444 0.0001
# 3 30.5695 55.5378 127.3956 -0.0015 -7.0567 0.0005
# 4 -0.0007 -0.0003 -0.0015 30.7416 0.0007 1.4923
# 5 5.8722 -2.5444 -7.0567 0.0007 35.2406 -0.0002
# 6 0.0001 0.0001 0.0005 1.4923 -0.0002 22.3037
#
#
#
# Elastic Compliance Matrix: (Units=1/GPa)
#
#
# Indices 1 2 3 4 5 6 
#
# 1 0.009349 -0.003848 -0.000675 0.000000 -0.001971 0.000000
# 2 -0.003848 0.015011 -0.005587 0.000000 0.000606 0.000000
# 3 -0.000675 -0.005587 0.010548 0.000000 0.001821 0.000000
# 4 0.000000 0.000000 0.000000 0.032635 -0.000001 -0.002184
# 5 -0.001971 0.000606 0.001821 -0.000001 0.029113 0.000000
# 6 0.000000 0.000000 0.000000 -0.002184 0.000000 0.044982
#
#
# Mechanical properties :
#
#
# Convention : Reuss Voigt Hill
#
# Bulk Modulus (GPa) = 68.08313 68.33952 68.21133
# Shear Modulus (GPa) = 29.98408 32.61995 31.30201
#
# Velocity S-wave (km/s) = 3.63144 3.78769 3.71039
# Velocity P-wave (km/s) = 6.89397 7.01322 6.95385
#
# Compressibility (1/GPa) = 0.01468793
#
# Stress axis : x y z
#
# Youngs Moduli (GPa) = 106.95843 66.61787 94.80435
#
# Poissons Ratio (x) = 0.25637 0.06399
# Poissons Ratio (y) = 0.41161 0.52967
# Poissons Ratio (z) = 0.07219 0.37219
#
# Static dielectric constant tensor:
#      x y z
#    x 4.981000 0.000000 0.150390 
#    y 0.000000 3.855210 0.000000 
#    z 0.150390 0.000000 3.987590 
# 
# 
# High freq. dielectric constant tensor:
#      x y z
#    x 1.918730 0.000000 0.004410 
#    y 0.000000 1.878100 0.000000 
#    z 0.004410 0.000000 1.895460 
# 
# From -- ./inp_files/158438.got.cif
#   From: 2010.06.25/outbox.cif.g09.slc.cpg/sg12_80_cif.got.tgz:158438.got - 2010.06.28 00:19:55.
