data_PCOD8113492
_publ_section_title
;
Structure prediction by ZEFSAII (Michael W. Deem and Ramdas Pophale) SiO2 
 PCOD8113492
Probable space group: C 2/M
;
_chemical_formula_sum "Si O2"
_cell_formula_units_Z 44
_cell_length_a 14.512156
_cell_length_b 20.492633
_cell_length_c 11.176430
_cell_angle_alpha 90.000000
_cell_angle_beta 139.376863
_cell_angle_gamma 90.000000
_cell_volume 2164.051899
_symmetry_space_group_name_H-M "C 2/M"
_symmetry_group_IT_number 12
_symmetry_cell_setting 'monoclinic'
loop_
_space_group_symop_operation_xyz
x,y,z
-x,y,-z
-x,-y,-z
x,-y,z
1/2+x,1/2+y,z
1/2-x,1/2+y,-z
1/2-x,1/2-y,-z
1/2+x,1/2-y,z
loop_
_atom_site_type_symbol
_atom_site_label
_atom_site_fract_x
_atom_site_fract_y
_atom_site_fract_z
Si Si1 0.028973 0.122764 0.166835
Si Si2 0.813762 0.426216 0.380614
Si Si3 0.911245 0.761442 0.622535
Si Si4 0.577199 0.127792 0.746074
Si Si5 0.685233 0.425862 0.864294
Si Si6 0.000000 0.847836 0.500000
O O1 0.188067 0.096930 0.343469
O O2 0.012176 0.196504 0.198494
O O3 0.923184 0.074973 0.131622
O O4 0.000000 0.119379 0.000000
O O5 0.790177 0.500000 0.310673
O O6 0.825838 0.376135 0.279090
O O7 0.953359 0.424747 0.601093
O O8 0.750000 0.750000 0.500000
O O9 0.005988 0.697862 0.695328
O O10 0.909644 0.803361 0.500123
O O11 0.669421 0.110238 0.953546
O O12 0.720649 0.500000 0.865320
O O13 0.616613 0.391584 0.681842
#
# Coordination Sequence:
#
# PCOD8113492 Si02
#       6
#     8   8   8   8   8   4
#     4  11  23  38  63  98 129 172 215 276 334 390
#     4  11  21  37  63  97 133 166 209 274 340 391
#     4  11  24  43  65  93 133 171 225 270 330 396
#     4  11  22  38  64  94 131 169 214 275 331 382
#     4  11  23  42  67  98 134 177 223 270 332 403
#     4  10  25  42  68  92 133 186 218 268 324 402
#
# _framework density 20.332228000000001
#
# number of rings (size 3 to 8) (size 9 to 14) (size 15 to 20)
#    0.000    1.091    3.636    4.091    0.000    5.091 
#    0.000    0.000    0.000    1.091    0.000    0.000 
#    0.000    0.000    0.000    0.000    0.000    0.000 
#
# Total GULP energy -272774.776858 kJ/mol
# GULP energy per Si atom -12398.853494 kJ/mol
# Density = 2.028595 g / cm^3
# Si number density = 20.332228 Si / 1000 Ang^3
#
#
#
# Elastic Constant Matrix: (Units=GPa)
#
#
# Indices 1 2 3 4 5 6 
#
# 1 87.1258 48.4939 35.0354 0.0000 2.8556 0.0000
# 2 48.4939 151.7906 51.9212 0.0000 -0.3832 0.0000
# 3 35.0354 51.9212 139.5347 0.0000 -9.6075 0.0000
# 4 0.0000 0.0000 0.0000 20.2924 0.0000 0.6644
# 5 2.8556 -0.3832 -9.6075 0.0000 32.1886 0.0000
# 6 0.0000 0.0000 0.0000 0.6644 0.0000 28.9083
#
#
#
# Elastic Compliance Matrix: (Units=1/GPa)
#
#
# Indices 1 2 3 4 5 6 
#
# 1 0.014659 -0.003874 -0.002381 0.000000 -0.002057 0.000000
# 2 -0.003874 0.008591 -0.002239 0.000000 -0.000222 0.000000
# 3 -0.002381 -0.002239 0.008791 0.000000 0.002808 0.000000
# 4 0.000000 0.000000 0.000000 0.049317 0.000000 -0.001133
# 5 -0.002057 -0.000222 0.002808 0.000000 0.032085 0.000000
# 6 0.000000 0.000000 0.000000 -0.001133 0.000000 0.034618
#
#
# Mechanical properties :
#
#
# Convention : Reuss Voigt Hill
#
# Bulk Modulus (GPa) = 66.43328 72.15023 69.29175
# Shear Modulus (GPa) = 29.40027 32.47790 30.93909
#
# Velocity S-wave (km/s) = 3.80675 4.00104 3.90510
# Velocity P-wave (km/s) = 7.21572 7.54368 7.38152
#
# Compressibility (1/GPa) = 0.01505270
#
# Stress axis : x y z
#
# Youngs Moduli (GPa) = 68.21895 116.39929 113.75134
#
# Poissons Ratio (x) = 0.45093 0.27081
# Poissons Ratio (y) = 0.26428 0.25473
# Poissons Ratio (z) = 0.16241 0.26066
#
# Static dielectric constant tensor:
#      x y z
#    x 3.965900 0.000000 0.187640 
#    y 0.000000 3.757430 0.000000 
#    z 0.187640 0.000000 3.846460 
# 
# 
# High freq. dielectric constant tensor:
#      x y z
#    x 1.787270 0.000000 0.012200 
#    y 0.000000 1.799180 0.000000 
#    z 0.012200 0.000000 1.799560 
# 
# From -- ./inp_files/147778.got.cif
#   From: 2010.06.25/outbox.cif.g09.slc.cpg/sg12_74_cif.got.tgz:147778.got - 2010.06.28 00:19:55.
