data_PCOD8113985
_publ_section_title
;
Structure prediction by ZEFSAII (Michael W. Deem and Ramdas Pophale) SiO2 
 PCOD8113985
Probable space group: C 2/M
;
_chemical_formula_sum "Si O2"
_cell_formula_units_Z 44
_cell_length_a 12.813918
_cell_length_b 20.559732
_cell_length_c 12.038765
_cell_angle_alpha 90.000000
_cell_angle_beta 133.367102
_cell_angle_gamma 90.000000
_cell_volume 2305.670566
_symmetry_space_group_name_H-M "C 2/M"
_symmetry_group_IT_number 12
_symmetry_cell_setting 'monoclinic'
loop_
_space_group_symop_operation_xyz
x,y,z
-x,y,-z
-x,-y,-z
x,-y,z
1/2+x,1/2+y,z
1/2-x,1/2+y,-z
1/2-x,1/2-y,-z
1/2+x,1/2-y,z
loop_
_atom_site_type_symbol
_atom_site_label
_atom_site_fract_x
_atom_site_fract_y
_atom_site_fract_z
Si Si1 0.915447 0.764318 0.621193
Si Si2 0.909457 0.641989 0.330331
Si Si3 0.500000 0.636913 0.500000
Si Si4 0.867618 0.222008 0.826498
Si Si5 0.793450 0.371078 0.800341
Si Si6 0.068636 0.576343 0.884915
O O1 0.750000 0.750000 0.500000
O O2 0.944726 0.823620 0.563738
O O3 0.953672 0.781959 0.774199
O O4 0.003928 0.703391 0.646862
O O5 0.752054 0.665510 0.253681
O O6 0.894692 0.592367 0.216379
O O7 0.000000 0.610601 0.500000
O O8 0.359817 0.598482 0.351857
O O9 0.793399 0.292244 0.794388
O O10 0.000000 0.206039 0.000000
O O11 0.910720 0.398936 0.801480
O O12 0.819917 0.390617 0.947751
O O13 0.077605 0.500000 0.908954
#
# Coordination Sequence:
#
# PCOD8113985 Si02
#       6
#     8   8   4   8   8   8
#     4  12  18  35  54  91 134 152 180 235 309 376
#     4  12  22  38  62  89 124 160 197 244 306 369
#     4  12  22  32  63  96 125 158 184 248 322 364
#     4  12  23  34  59  97 126 156 188 246 317 370
#     4  11  20  39  62  91 121 154 198 253 301 353
#     4  11  25  44  62  82 119 168 213 248 282 348
#
# _framework density 19.083383999999999
#
# number of rings (size 3 to 8) (size 9 to 14) (size 15 to 20)
#    0.000    0.364   10.000    1.091    2.545    1.818 
#    0.000    1.818    0.000    0.545    0.000    0.000 
#    0.000    0.000    0.000    0.000    0.000    0.000 
#
# Total GULP energy -272667.525173 kJ/mol
# GULP energy per Si atom -12393.978417 kJ/mol
# Density = 1.903995 g / cm^3
# Si number density = 19.083384 Si / 1000 Ang^3
#
#
#
# Elastic Constant Matrix: (Units=GPa)
#
#
# Indices 1 2 3 4 5 6 
#
# 1 59.2696 11.8000 48.3413 0.0000 -11.2902 0.0000
# 2 11.8000 51.6418 22.4773 0.0000 -4.4910 0.0000
# 3 48.3413 22.4773 169.2289 0.0000 -2.2124 0.0000
# 4 0.0000 0.0000 0.0000 8.4743 0.0000 -4.9759
# 5 -11.2902 -4.4910 -2.2124 0.0000 49.7749 0.0000
# 6 0.0000 0.0000 0.0000 -4.9759 0.0000 15.1002
#
#
#
# Elastic Compliance Matrix: (Units=1/GPa)
#
#
# Indices 1 2 3 4 5 6 
#
# 1 0.023385 -0.002169 -0.006329 0.000000 0.004827 0.000000
# 2 -0.002169 0.020904 -0.002140 0.000000 0.001299 0.000000
# 3 -0.006329 -0.002140 0.007985 0.000000 -0.001274 0.000000
# 4 0.000000 0.000000 0.000000 0.146313 0.000000 0.048214
# 5 0.004827 0.001299 -0.001274 0.000000 0.021246 0.000000
# 6 0.000000 0.000000 0.000000 0.048214 0.000000 0.082112
#
#
# Mechanical properties :
#
#
# Convention : Reuss Voigt Hill
#
# Bulk Modulus (GPa) = 32.25971 49.48640 40.87306
# Shear Modulus (GPa) = 14.99005 27.83798 21.41402
#
# Velocity S-wave (km/s) = 2.80572 3.82351 3.35345
# Velocity P-wave (km/s) = 5.23807 6.74391 6.03812
#
# Compressibility (1/GPa) = 0.03099842
#
# Stress axis : x y z
#
# Youngs Moduli (GPa) = 42.76155 47.83734 125.24007
#
# Poissons Ratio (x) = 0.10376 0.79265
# Poissons Ratio (y) = 0.09275 0.26801
# Poissons Ratio (z) = 0.27064 0.10237
#
# Static dielectric constant tensor:
#      x y z
#    x 1.774140 0.000000 0.511440 
#    y 0.000000 3.110070 0.000000 
#    z 0.511440 0.000000 3.885890 
# 
# 
# High freq. dielectric constant tensor:
#      x y z
#    x 1.752290 0.000000 -0.007010 
#    y 0.000000 1.691290 0.000000 
#    z -0.007010 0.000000 1.770040 
# 
# From -- ./inp_files/133492.got.cif
#   From: 2010.06.25/outbox.cif.g09.slc.cpg/sg12_67_cif.got.tgz:133492.got - 2010.06.28 00:19:55.
