data_PCOD8113772
_publ_section_title
;
Structure prediction by ZEFSAII (Michael W. Deem and Ramdas Pophale) SiO2 
 PCOD8113772
Probable space group: C 2/M
;
_chemical_formula_sum "Si O2"
_cell_formula_units_Z 64
_cell_length_a 17.987669
_cell_length_b 17.829751
_cell_length_c 11.527630
_cell_angle_alpha 90.000000
_cell_angle_beta 87.123374
_cell_angle_gamma 90.000000
_cell_volume 3692.432802
_symmetry_space_group_name_H-M "C 2/M"
_symmetry_group_IT_number 12
_symmetry_cell_setting 'monoclinic'
loop_
_space_group_symop_operation_xyz
x,y,z
-x,y,-z
-x,-y,-z
x,-y,z
1/2+x,1/2+y,z
1/2-x,1/2+y,-z
1/2-x,1/2-y,-z
1/2+x,1/2-y,z
loop_
_atom_site_type_symbol
_atom_site_label
_atom_site_fract_x
_atom_site_fract_y
_atom_site_fract_z
Si Si1 0.881853 0.416988 0.680284
Si Si2 0.549304 0.330612 0.397775
Si Si3 0.393875 0.588872 0.077344
Si Si4 0.708028 0.672330 0.491887
Si Si5 0.156908 0.414307 0.586396
Si Si6 0.984893 0.328278 0.371795
Si Si7 0.220757 0.911247 0.727372
Si Si8 0.048922 0.911550 0.163529
O O1 0.907567 0.500000 0.712331
O O2 0.860109 0.412432 0.547706
O O3 0.806536 0.393737 0.753113
O O4 0.949908 0.363799 0.712910
O O5 0.500000 0.374295 0.500000
O O6 0.628972 0.306378 0.441871
O O7 0.495575 0.261056 0.365561
O O8 0.570011 0.380242 0.286589
O O9 0.396242 0.500000 0.078208
O O10 0.323732 0.618031 0.156165
O O11 0.467868 0.618861 0.134533
O O12 0.393136 0.615313 0.942163
O O13 0.750000 0.750000 0.500000
O O14 0.759142 0.618413 0.405731
O O15 0.692644 0.633574 0.616994
O O16 0.153041 0.500000 0.634769
O O17 0.096789 0.360221 0.657965
O O18 0.000000 0.358486 0.500000
O O19 0.208983 0.000000 0.703795
O O20 0.049848 0.000000 0.174493
#
# Coordination Sequence:
#
# PCOD8113772 Si02
#       8
#     8   8   8   8   8   8   8   8
#     4   8  13  22  40  64  85 107 143 195 241 271
#     4  11  21  30  44  68  99 131 159 188 236 299
#     4   8  15  30  49  65  85 116 158 202 241 285
#     4  11  20  30  44  66 102 137 160 193 244 298
#     4   9  17  29  45  63  86 122 164 198 228 270
#     4   9  16  28  42  61  88 118 154 191 232 278
#     4   9  16  27  45  67  89 120 162 198 234 287
#     4   9  18  31  46  65  89 122 160 197 238 288
#
# _framework density 17.332747000000001
#
# number of rings (size 3 to 8) (size 9 to 14) (size 15 to 20)
#    0.000    2.750    0.000    6.000    0.000    2.750 
#    0.000    0.000    0.000    3.000    0.000    0.000 
#    0.000    0.000    0.000   14.000    0.000    5.500 
#
# Total GULP energy -396417.894098 kJ/mol
# GULP energy per Si atom -12388.059191 kJ/mol
# Density = 1.729330 g / cm^3
# Si number density = 17.332747 Si / 1000 Ang^3
#
#
#
# Elastic Constant Matrix: (Units=GPa)
#
#
# Indices 1 2 3 4 5 6 
#
# 1 90.4486 29.5956 43.8760 0.0000 -25.6819 0.0000
# 2 29.5956 57.8053 32.7645 0.0000 -11.1191 0.0000
# 3 43.8760 32.7645 94.0767 0.0000 -21.4511 0.0000
# 4 0.0000 0.0000 0.0000 10.3086 0.0000 -3.6631
# 5 -25.6819 -11.1191 -21.4511 0.0000 25.0980 0.0000
# 6 0.0000 0.0000 0.0000 -3.6631 0.0000 26.4207
#
#
#
# Elastic Compliance Matrix: (Units=1/GPa)
#
#
# Indices 1 2 3 4 5 6 
#
# 1 0.018202 -0.004571 -0.003865 0.000000 0.013297 0.000000
# 2 -0.004571 0.023012 -0.005744 0.000000 0.000609 0.000000
# 3 -0.003865 -0.005744 0.016086 0.000000 0.007248 0.000000
# 4 0.000000 0.000000 0.000000 0.102033 0.000000 0.014146
# 5 0.013297 0.000609 0.007248 0.000000 0.059915 0.000000
# 6 0.000000 0.000000 0.000000 0.014146 0.000000 0.039810
#
#
# Mechanical properties :
#
#
# Convention : Reuss Voigt Hill
#
# Bulk Modulus (GPa) = 34.55451 50.53365 42.54408
# Shear Modulus (GPa) = 16.83130 21.43843 19.13487
#
# Velocity S-wave (km/s) = 3.11958 3.52074 3.32621
# Velocity P-wave (km/s) = 5.74064 6.76356 6.27299
#
# Compressibility (1/GPa) = 0.02893978
#
# Stress axis : x y z
#
# Youngs Moduli (GPa) = 54.93850 43.45472 62.16710
#
# Poissons Ratio (x) = 0.19861 0.24031
# Poissons Ratio (y) = 0.25110 0.35710
# Poissons Ratio (z) = 0.21236 0.24961
#
# Static dielectric constant tensor:
#      x y z
#    x 3.550960 0.000000 -0.518220 
#    y 0.000000 3.121670 0.000000 
#    z -0.518220 0.000000 3.151610 
# 
# 
# High freq. dielectric constant tensor:
#      x y z
#    x 1.672880 0.000000 -0.038890 
#    y 0.000000 1.654840 0.000000 
#    z -0.038890 0.000000 1.617790 
# 
# From -- ./inp_files/157818.got.cif
#   From: 2010.06.25/outbox.cif.g09.slc.cpg/sg12_79_cif.got.tgz:157818.got - 2010.06.28 00:19:55.
