data_PCOD8113812
_publ_section_title
;
Structure prediction by ZEFSAII (Michael W. Deem and Ramdas Pophale) SiO2 
 PCOD8113812
Probable space group: C 2/M
;
_chemical_formula_sum "Si O2"
_cell_formula_units_Z 48
_cell_length_a 16.158787
_cell_length_b 17.914170
_cell_length_c 9.423027
_cell_angle_alpha 90.000000
_cell_angle_beta 127.024038
_cell_angle_gamma 90.000000
_cell_volume 2177.745567
_symmetry_space_group_name_H-M "C 2/M"
_symmetry_group_IT_number 12
_symmetry_cell_setting 'monoclinic'
loop_
_space_group_symop_operation_xyz
x,y,z
-x,y,-z
-x,-y,-z
x,-y,z
1/2+x,1/2+y,z
1/2-x,1/2+y,-z
1/2-x,1/2-y,-z
1/2+x,1/2-y,z
loop_
_atom_site_type_symbol
_atom_site_label
_atom_site_fract_x
_atom_site_fract_y
_atom_site_fract_z
Si Si1 0.144178 0.083960 0.457584
Si Si2 0.533239 0.345858 0.883047
Si Si3 0.819810 0.585561 0.842466
Si Si4 0.725654 0.166471 0.621299
Si Si5 0.599190 0.783654 0.239276
Si Si6 0.255426 0.087559 0.085736
O O1 0.202523 0.103238 0.665778
O O2 0.228059 0.098077 0.421132
O O3 0.042360 0.132829 0.325568
O O4 0.105042 0.000000 0.414397
O O5 0.515183 0.255325 0.880888
O O6 0.646474 0.370223 0.955514
O O7 0.500000 0.384055 0.000000
O O8 0.849134 0.500000 0.835000
O O9 0.902672 0.639209 0.850704
O O10 0.822708 0.598839 0.013852
O O11 0.631988 0.203925 0.437664
O O12 0.817501 0.226426 0.746501
O O13 0.684227 0.129611 0.724514
O O14 0.237729 0.000000 0.098542
#
# Coordination Sequence:
#
# PCOD8113812 Si02
#       6
#     8   8   8   8   8   8
#     4   9  16  29  48  71 107 145 176 208 262 325
#     4  11  20  32  50  81 109 149 173 224 268 321
#     4   9  20  35  53  77 107 145 181 225 268 318
#     4   9  17  30  51  75 101 151 180 224 252 315
#     4   9  18  35  52  71 110 143 193 212 260 329
#     4  11  21  33  54  88 116 137 173 221 285 328
#
# _framework density 22.041143999999999
#
# number of rings (size 3 to 8) (size 9 to 14) (size 15 to 20)
#    0.000    2.333    3.333    2.000    0.000    2.667 
#    0.000    2.500    0.000    0.500    0.000    0.000 
#    0.000    2.667    0.000    1.000    0.000    0.000 
#
# Total GULP energy -297430.339133 kJ/mol
# GULP energy per Si atom -12392.930797 kJ/mol
# Density = 2.199098 g / cm^3
# Si number density = 22.041144 Si / 1000 Ang^3
#
#
#
# Elastic Constant Matrix: (Units=GPa)
#
#
# Indices 1 2 3 4 5 6 
#
# 1 25.2791 32.4491 15.4942 0.0000 -4.8233 0.0000
# 2 32.4491 129.6120 41.0932 0.0000 -12.0140 0.0000
# 3 15.4942 41.0932 87.5315 0.0000 -21.4982 0.0000
# 4 0.0000 0.0000 0.0000 39.3465 0.0000 -3.6938
# 5 -4.8233 -12.0140 -21.4982 0.0000 25.9316 0.0000
# 6 0.0000 0.0000 0.0000 -3.6938 0.0000 24.8416
#
#
#
# Elastic Compliance Matrix: (Units=1/GPa)
#
#
# Indices 1 2 3 4 5 6 
#
# 1 0.059612 -0.013574 -0.003768 0.000000 0.001675 0.000000
# 2 -0.013574 0.012170 -0.003197 0.000000 0.000463 0.000000
# 3 -0.003768 -0.003197 0.016395 0.000000 0.011410 0.000000
# 4 0.000000 0.000000 0.000000 0.025775 0.000000 0.003833
# 5 0.001675 0.000463 0.011410 0.000000 0.048548 0.000000
# 6 0.000000 0.000000 0.000000 0.003833 0.000000 0.040825
#
#
# Mechanical properties :
#
#
# Convention : Reuss Voigt Hill
#
# Bulk Modulus (GPa) = 21.23217 46.72174 33.97696
# Shear Modulus (GPa) = 19.22316 28.24967 23.73642
#
# Velocity S-wave (km/s) = 2.95642 3.58394 3.28520
# Velocity P-wave (km/s) = 4.61604 6.19433 5.46248
#
# Compressibility (1/GPa) = 0.04709833
#
# Stress axis : x y z
#
# Youngs Moduli (GPa) = 16.77515 82.16754 60.99577
#
# Poissons Ratio (x) = 1.11537 0.22983
# Poissons Ratio (y) = 0.22771 0.19500
# Poissons Ratio (z) = 0.06321 0.26268
#
# Static dielectric constant tensor:
#      x y z
#    x 3.231440 0.000000 -0.072410 
#    y 0.000000 4.146940 0.000000 
#    z -0.072410 0.000000 4.390950 
# 
# 
# High freq. dielectric constant tensor:
#      x y z
#    x 1.793970 0.000000 -0.001630 
#    y 0.000000 1.873850 0.000000 
#    z -0.001630 0.000000 1.889960 
# 
# From -- ./inp_files/75451.got.cif
#   From: 2010.06.25/outbox.cif.g09.slc.cpg/sg12_38_cif.got.tgz:75451.got - 2010.06.28 00:19:55.
