data_PCOD8113445
_publ_section_title
;
Structure prediction by ZEFSAII (Michael W. Deem and Ramdas Pophale) SiO2 
 PCOD8113445
Probable space group: C 2/M
;
_chemical_formula_sum "Si O2"
_cell_formula_units_Z 56
_cell_length_a 17.588937
_cell_length_b 18.070420
_cell_length_c 9.228195
_cell_angle_alpha 90.000000
_cell_angle_beta 63.838095
_cell_angle_gamma 90.000000
_cell_volume 2632.595212
_symmetry_space_group_name_H-M "C 2/M"
_symmetry_group_IT_number 12
_symmetry_cell_setting 'monoclinic'
loop_
_space_group_symop_operation_xyz
x,y,z
-x,y,-z
-x,-y,-z
x,-y,z
1/2+x,1/2+y,z
1/2-x,1/2+y,-z
1/2-x,1/2-y,-z
1/2+x,1/2-y,z
loop_
_atom_site_type_symbol
_atom_site_label
_atom_site_fract_x
_atom_site_fract_y
_atom_site_fract_z
Si Si1 0.076360 0.816659 0.536411
Si Si2 0.992725 0.584680 0.835556
Si Si3 0.677438 0.151238 0.131483
Si Si4 0.651882 0.823561 0.631616
Si Si5 0.751185 0.082042 0.334473
Si Si6 0.274709 0.308539 0.780604
Si Si7 0.944472 0.915139 0.177949
O O1 0.112895 0.747006 0.589182
O O2 0.151613 0.850654 0.371835
O O3 0.039915 0.875422 0.681659
O O4 0.000000 0.790112 0.500000
O O5 0.977669 0.500000 0.798211
O O6 0.917732 0.637749 0.843455
O O7 0.081307 0.612984 0.698433
O O8 0.000000 0.590454 0.000000
O O9 0.697347 0.089062 0.233040
O O10 0.686036 0.230993 0.199561
O O11 0.744607 0.143488 0.943460
O O12 0.727956 0.856484 0.472131
O O13 0.690893 0.797830 0.752019
O O14 0.848129 0.094654 0.210213
O O15 0.736655 0.000000 0.411112
O O16 0.970949 0.000000 0.179575
O O17 0.000000 0.880244 0.000000
#
# Coordination Sequence:
#
# PCOD8113445 Si02
#       7
#     8   8   8   8   8   8   8
#     4  12  25  42  67 101 132 171 219 277 337 399
#     4  11  24  43  65  97 140 179 219 271 334 409
#     4  11  23  42  65  97 133 176 225 273 330 397
#     4  12  23  44  66 101 135 175 221 272 333 409
#     4  11  23  42  70  97 131 176 219 272 334 401
#     4  11  23  42  67  93 133 174 222 283 327 388
#     4  10  24  46  68  95 130 173 224 278 339 399
#
# _framework density 21.271785000000001
#
# number of rings (size 3 to 8) (size 9 to 14) (size 15 to 20)
#    0.000    0.857    4.286    3.000    2.000    0.857 
#    0.000    2.857    0.000    0.000    0.000    0.000 
#    0.000    0.000    0.000    0.000    0.000    0.000 
#
# Total GULP energy -347254.033604 kJ/mol
# GULP energy per Si atom -12401.929772 kJ/mol
# Density = 2.122337 g / cm^3
# Si number density = 21.271785 Si / 1000 Ang^3
#
#
#
# Elastic Constant Matrix: (Units=GPa)
#
#
# Indices 1 2 3 4 5 6 
#
# 1 110.0199 41.2375 29.2549 0.0000 6.2323 0.0000
# 2 41.2375 86.3975 42.3503 0.0000 1.8748 0.0000
# 3 29.2549 42.3503 132.6792 0.0000 -8.9172 0.0000
# 4 0.0000 0.0000 0.0000 12.2250 0.0000 -13.0755
# 5 6.2323 1.8748 -8.9172 0.0000 39.1654 0.0000
# 6 0.0000 0.0000 0.0000 -13.0755 0.0000 39.0480
#
#
#
# Elastic Compliance Matrix: (Units=1/GPa)
#
#
# Indices 1 2 3 4 5 6 
#
# 1 0.011284 -0.004822 -0.001070 0.000000 -0.001808 0.000000
# 2 -0.004822 0.015891 -0.004071 0.000000 -0.000920 0.000000
# 3 -0.001070 -0.004071 0.009238 0.000000 0.002469 0.000000
# 4 0.000000 0.000000 0.000000 0.127443 0.000000 0.042675
# 5 -0.001808 -0.000920 0.002469 0.000000 0.026427 0.000000
# 6 0.000000 0.000000 0.000000 0.042675 0.000000 0.039899
#
#
# Mechanical properties :
#
#
# Convention : Reuss Voigt Hill
#
# Bulk Modulus (GPa) = 60.65453 61.64245 61.14849
# Shear Modulus (GPa) = 19.56146 32.50462 26.03304
#
# Velocity S-wave (km/s) = 3.03577 3.91328 3.50212
# Velocity P-wave (km/s) = 6.39249 7.03277 6.72026
#
# Compressibility (1/GPa) = 0.01648681
#
# Stress axis : x y z
#
# Youngs Moduli (GPa) = 88.62409 62.92725 108.24394
#
# Poissons Ratio (x) = 0.30342 0.11587
# Poissons Ratio (y) = 0.42732 0.44067
# Poissons Ratio (z) = 0.09487 0.25618
#
# Static dielectric constant tensor:
#      x y z
#    x 3.952480 0.000000 -0.065460 
#    y 0.000000 3.710220 0.000000 
#    z -0.065460 0.000000 4.301560 
# 
# 
# High freq. dielectric constant tensor:
#      x y z
#    x 1.845250 0.000000 0.000370 
#    y 0.000000 1.818750 0.000000 
#    z 0.000370 0.000000 1.848330 
# 
# From -- ./inp_files/75828.got.cif
#   From: 2010.06.25/outbox.cif.g09.slc.cpg/sg12_38_cif.got.tgz:75828.got - 2010.06.28 00:19:55.
