data_PCOD8113470
_publ_section_title
;
Structure prediction by ZEFSAII (Michael W. Deem and Ramdas Pophale) SiO2 
 PCOD8113470
Probable space group: C 2/M
;
_chemical_formula_sum "Si O2"
_cell_formula_units_Z 32
_cell_length_a 11.840479
_cell_length_b 27.948415
_cell_length_c 7.476421
_cell_angle_alpha 90.000000
_cell_angle_beta 37.196608
_cell_angle_gamma 90.000000
_cell_volume 1495.732175
_symmetry_space_group_name_H-M "C 2/M"
_symmetry_group_IT_number 12
_symmetry_cell_setting 'monoclinic'
loop_
_space_group_symop_operation_xyz
x,y,z
-x,y,-z
-x,-y,-z
x,-y,z
1/2+x,1/2+y,z
1/2-x,1/2+y,-z
1/2-x,1/2-y,-z
1/2+x,1/2-y,z
loop_
_atom_site_type_symbol
_atom_site_label
_atom_site_fract_x
_atom_site_fract_y
_atom_site_fract_z
Si Si1 0.176002 0.601862 0.663753
Si Si2 0.500000 0.421429 0.500000
Si Si3 0.500000 0.248622 0.000000
Si Si4 0.366864 0.500000 0.906707
Si Si5 0.775643 0.500000 0.545328
Si Si6 0.138231 0.309186 0.489081
O O1 0.367328 0.609088 0.537165
O O2 0.133700 0.547933 0.649363
O O3 0.199994 0.637313 0.466735
O O4 0.000000 0.618950 0.000000
O O5 0.352850 0.453485 0.798840
O O6 0.319563 0.281089 0.193099
O O7 0.467188 0.216404 0.215035
O O8 0.562106 0.500000 0.760316
O O9 0.205536 0.500000 0.261125
O O10 0.000000 0.313562 0.500000
#
# Coordination Sequence:
#
# PCOD8113470 Si02
#       6
#     8   4   4   4   4   8
#     4  11  23  40  61  95 130 170 214 262 317 382
#     4   9  20  38  60  84 128 170 212 266 314 367
#     4  10  24  48  70  98 126 170 212 274 338 376
#     4   8  16  35  58  82 118 175 222 259 301 369
#     4   9  19  35  59  89 130 169 215 256 312 380
#     4  11  24  45  71  99 131 166 218 269 325 393
#
# _framework density 21.394203999999998
#
# number of rings (size 3 to 8) (size 9 to 14) (size 15 to 20)
#    0.000    2.000    1.250    1.875    0.000    8.000 
#    9.000    1.875    0.000    0.000    0.000    0.000 
#    0.000    0.000    0.000    0.000    0.000    0.000 
#
# Total GULP energy -198390.320012 kJ/mol
# GULP energy per Si atom -12399.395001 kJ/mol
# Density = 2.134551 g / cm^3
# Si number density = 21.394204 Si / 1000 Ang^3
#
#
#
# Elastic Constant Matrix: (Units=GPa)
#
#
# Indices 1 2 3 4 5 6 
#
# 1 160.9214 62.2135 50.5993 0.0000 -10.4452 0.0000
# 2 62.2135 125.4815 31.8036 0.0000 -11.6211 0.0000
# 3 50.5993 31.8036 89.4875 0.0000 -3.8039 0.0000
# 4 0.0000 0.0000 0.0000 0.1377 0.0000 -27.6124
# 5 -10.4452 -11.6211 -3.8039 0.0000 29.6479 0.0000
# 6 0.0000 0.0000 0.0000 -27.6124 0.0000 5.7414
#
#
#
# Elastic Compliance Matrix: (Units=1/GPa)
#
#
# Indices 1 2 3 4 5 6 
#
# 1 0.008732 -0.003264 -0.003721 0.000000 0.001320 0.000000
# 2 -0.003264 0.010261 -0.001689 0.000000 0.002656 0.000000
# 3 -0.003721 -0.001689 0.013871 0.000000 -0.000193 0.000000
# 4 0.000000 0.000000 0.000000 -0.007538 0.000000 -0.036253
# 5 0.001320 0.002656 -0.000193 0.000000 0.035210 0.000000
# 6 0.000000 0.000000 0.000000 -0.036253 0.000000 -0.000181
#
#
# Mechanical properties :
#
#
# Convention : Reuss Voigt Hill
#
# Bulk Modulus (GPa) = 64.44621 73.90258 69.17439
# Shear Modulus (GPa) = 60.33211 22.52366 41.42788
#
# Velocity S-wave (km/s) = 5.31615 3.24820 4.40524
# Velocity P-wave (km/s) = 8.23836 6.97753 7.63402
#
# Compressibility (1/GPa) = 0.01551682
#
# Stress axis : x y z
#
# Youngs Moduli (GPa) = 114.52442 97.45243 72.09437
#
# Poissons Ratio (x) = 0.31807 0.26828
# Poissons Ratio (y) = 0.37379 0.12173
# Poissons Ratio (z) = 0.42617 0.16455
#
# Static dielectric constant tensor:
#      x y z
#    x 4.069220 0.000000 0.349860 
#    y 0.000000 3.852180 0.000000 
#    z 0.349860 0.000000 3.925780 
# 
# 
# High freq. dielectric constant tensor:
#      x y z
#    x 1.848450 0.000000 0.008220 
#    y 0.000000 1.832950 0.000000 
#    z 0.008220 0.000000 1.835350 
# 
# From -- ./inp_files/54553.got.cif
#   From: 2010.06.25/outbox.cif.g09.slc.cpg/sg12_28_cif.got.tgz:54553.got - 2010.06.28 00:19:55.
