data_PCOD8113710
_publ_section_title
;
Structure prediction by ZEFSAII (Michael W. Deem and Ramdas Pophale) SiO2 
 PCOD8113710
Probable space group: C 2/M
;
_chemical_formula_sum "Si O2"
_cell_formula_units_Z 64
_cell_length_a 14.578257
_cell_length_b 24.759257
_cell_length_c 13.055872
_cell_angle_alpha 90.000000
_cell_angle_beta 39.977081
_cell_angle_gamma 90.000000
_cell_volume 3027.676508
_symmetry_space_group_name_H-M "C 2/M"
_symmetry_group_IT_number 12
_symmetry_cell_setting 'monoclinic'
loop_
_space_group_symop_operation_xyz
x,y,z
-x,y,-z
-x,-y,-z
x,-y,z
1/2+x,1/2+y,z
1/2-x,1/2+y,-z
1/2-x,1/2-y,-z
1/2+x,1/2-y,z
loop_
_atom_site_type_symbol
_atom_site_label
_atom_site_fract_x
_atom_site_fract_y
_atom_site_fract_z
Si Si1 0.144489 0.113088 0.570306
Si Si2 0.195519 0.714825 0.638445
Si Si3 0.637614 0.757773 0.323856
Si Si4 0.094269 0.440124 0.267484
Si Si5 0.214748 0.440702 0.373054
Si Si6 0.168363 0.940521 0.355834
Si Si7 0.157526 0.147680 0.212019
Si Si8 0.614109 0.171114 0.149444
O O1 0.206773 0.162637 0.453167
O O2 0.199566 0.105221 0.638669
O O3 0.203826 0.064612 0.446692
O O4 0.973437 0.116655 0.729988
O O5 0.250000 0.750000 0.500000
O O6 0.225521 0.748389 0.718048
O O7 0.028658 0.699973 0.770294
O O8 0.500000 0.782873 0.500000
O O9 0.589766 0.698919 0.326656
O O10 0.672904 0.798969 0.201042
O O11 0.126776 0.500000 0.191470
O O12 0.212348 0.426501 0.254240
O O13 0.092756 0.393035 0.184848
O O14 0.943823 0.441978 0.450191
O O15 0.285568 0.500000 0.327668
O O16 0.235919 0.894730 0.222908
O O17 0.000000 0.930726 0.500000
O O18 0.214818 0.000000 0.277500
O O19 0.267889 0.174327 0.039034
#
# Coordination Sequence:
#
# PCOD8113710 Si02
#       8
#     8   8   8   8   8   8   8   8
#     4  11  19  37  64  88 127 162 221 264 320 381
#     4  12  24  39  67  97 116 167 220 268 325 394
#     4  12  23  44  68  89 127 167 218 276 320 388
#     4   9  20  38  60  93 133 169 209 273 334 382
#     4   9  18  33  60  92 123 164 220 272 309 374
#     4   9  18  35  63  93 124 172 220 261 318 385
#     4  11  23  42  60  93 136 169 202 280 334 388
#     4  12  26  41  68  97 134 171 217 267 344 398
#
# _framework density 21.138321999999999
#
# number of rings (size 3 to 8) (size 9 to 14) (size 15 to 20)
#    0.000    1.375    5.000    1.875    3.500    1.500 
#    0.000    0.625    0.000    2.250    0.000    0.000 
#    0.000    0.000    0.000    0.000    0.000    0.000 
#
# Total GULP energy -396478.787252 kJ/mol
# GULP energy per Si atom -12389.962102 kJ/mol
# Density = 2.109021 g / cm^3
# Si number density = 21.138322 Si / 1000 Ang^3
#
#
#
# Elastic Constant Matrix: (Units=GPa)
#
#
# Indices 1 2 3 4 5 6 
#
# 1 122.5621 31.5815 37.5828 -0.0009 1.5455 0.0032
# 2 31.5815 98.3031 27.6375 -0.0001 6.6617 0.0008
# 3 37.5828 27.6375 90.6980 -0.0007 1.3224 0.0030
# 4 -0.0009 -0.0001 -0.0007 19.1068 0.0007 2.2655
# 5 1.5455 6.6617 1.3224 0.0007 18.5878 -0.0025
# 6 0.0032 0.0008 0.0030 2.2655 -0.0025 21.2498
#
#
#
# Elastic Compliance Matrix: (Units=1/GPa)
#
#
# Indices 1 2 3 4 5 6 
#
# 1 0.009759 -0.002201 -0.003376 0.000000 0.000217 -0.000001
# 2 -0.002201 0.011889 -0.002654 0.000000 -0.003889 0.000000
# 3 -0.003376 -0.002654 0.013229 0.000000 0.000291 -0.000001
# 4 0.000000 0.000000 0.000000 0.053008 -0.000003 -0.005651
# 5 0.000217 -0.003889 0.000291 -0.000003 0.055154 0.000007
# 6 -0.000001 0.000000 -0.000001 -0.005651 0.000007 0.047662
#
#
# Mechanical properties :
#
#
# Convention : Reuss Voigt Hill
#
# Bulk Modulus (GPa) = 54.30428 56.12962 55.21695
# Shear Modulus (GPa) = 23.44100 26.10631 24.77366
#
# Velocity S-wave (km/s) = 3.33368 3.51810 3.42713
# Velocity P-wave (km/s) = 6.36896 6.56611 6.46829
#
# Compressibility (1/GPa) = 0.01841476
#
# Stress axis : x y z
#
# Youngs Moduli (GPa) = 102.47177 84.10823 75.58994
#
# Poissons Ratio (x) = 0.18509 0.25522
# Poissons Ratio (y) = 0.22551 0.20064
# Poissons Ratio (z) = 0.34598 0.22325
#
# Static dielectric constant tensor:
#      x y z
#    x 4.633210 0.000000 0.356050 
#    y 0.000000 3.937900 0.000000 
#    z 0.356050 0.000000 3.444520 
# 
# 
# High freq. dielectric constant tensor:
#      x y z
#    x 1.829780 0.000000 0.016550 
#    y 0.000000 1.840790 0.000000 
#    z 0.016550 0.000000 1.784970 
# 
# From -- ./inp_files/149725.got.cif
#   From: 2010.06.25/outbox.cif.g09.slc.cpg/sg12_75_cif.got.tgz:149725.got - 2010.06.28 00:19:55.
