data_PCOD8113542
_publ_section_title
;
Structure prediction by ZEFSAII (Michael W. Deem and Ramdas Pophale) SiO2 
 PCOD8113542
Probable space group: C 2/M
;
_chemical_formula_sum "Si O2"
_cell_formula_units_Z 48
_cell_length_a 14.030122
_cell_length_b 18.299088
_cell_length_c 9.346816
_cell_angle_alpha 90.000000
_cell_angle_beta 70.927306
_cell_angle_gamma 90.000000
_cell_volume 2267.955518
_symmetry_space_group_name_H-M "C 2/M"
_symmetry_group_IT_number 12
_symmetry_cell_setting 'monoclinic'
loop_
_space_group_symop_operation_xyz
x,y,z
-x,y,-z
-x,-y,-z
x,-y,z
1/2+x,1/2+y,z
1/2-x,1/2+y,-z
1/2-x,1/2-y,-z
1/2+x,1/2-y,z
loop_
_atom_site_type_symbol
_atom_site_label
_atom_site_fract_x
_atom_site_fract_y
_atom_site_fract_z
Si Si1 0.000818 0.346274 0.328653
Si Si2 0.696215 0.081976 0.233088
Si Si3 0.675339 0.583182 0.105656
Si Si4 0.708262 0.674827 0.583890
Si Si5 0.504666 0.700515 0.168175
Si Si6 0.204029 0.584245 0.677764
O O1 0.040426 0.273324 0.230649
O O2 0.892981 0.367956 0.316814
O O3 0.000000 0.334785 0.500000
O O4 0.079706 0.409322 0.243162
O O5 0.709602 0.142950 0.347245
O O6 0.712236 0.000000 0.284352
O O7 0.775617 0.098279 0.070716
O O8 0.635383 0.500000 0.138889
O O9 0.765814 0.596927 0.172989
O O10 0.581201 0.636241 0.172832
O O11 0.750000 0.750000 0.500000
O O12 0.603409 0.679934 0.715722
O O13 0.701162 0.615311 0.459806
O O14 0.500000 0.711959 0.000000
O O15 0.183371 0.500000 0.652270
#
# Coordination Sequence:
#
# PCOD8113542 Si02
#       6
#     8   8   8   8   8   8
#     4  12  26  42  69 101 136 179 231 285 341 417
#     4  11  24  44  70  99 136 183 230 283 342 409
#     4  10  26  46  68 101 138 181 232 284 340 413
#     4  12  24  44  69 103 137 178 227 285 341 410
#     4  12  27  45  70 101 135 184 228 283 350 410
#     4  11  25  45  70 100 138 179 228 286 344 406
#
# _framework density 21.164435999999998
#
# number of rings (size 3 to 8) (size 9 to 14) (size 15 to 20)
#    0.000    0.667    5.000    1.000    7.000    3.000 
#    0.000    4.167    0.000    0.000    0.000    0.000 
#    0.000    0.000    0.000    0.000    0.000    0.000 
#
# Total GULP energy -297560.141691 kJ/mol
# GULP energy per Si atom -12398.339237 kJ/mol
# Density = 2.111626 g / cm^3
# Si number density = 21.164436 Si / 1000 Ang^3
#
#
#
# Elastic Constant Matrix: (Units=GPa)
#
#
# Indices 1 2 3 4 5 6 
#
# 1 107.3907 68.4358 52.9832 0.0000 -13.2187 0.0000
# 2 68.4358 151.5232 85.7153 0.0000 1.0686 0.0000
# 3 52.9832 85.7153 97.7791 0.0000 0.7980 0.0000
# 4 0.0000 0.0000 0.0000 40.5006 0.0000 -1.8750
# 5 -13.2187 1.0686 0.7980 0.0000 35.3141 0.0000
# 6 0.0000 0.0000 0.0000 -1.8750 0.0000 42.8644
#
#
#
# Elastic Compliance Matrix: (Units=1/GPa)
#
#
# Indices 1 2 3 4 5 6 
#
# 1 0.014928 -0.004326 -0.004344 0.000000 0.005817 0.000000
# 2 -0.004326 0.014346 -0.010217 0.000000 -0.001822 0.000000
# 3 -0.004344 -0.010217 0.021553 0.000000 -0.001804 0.000000
# 4 0.000000 0.000000 0.000000 0.024741 0.000000 0.001082
# 5 0.005817 -0.001822 -0.001804 0.000000 0.030591 0.000000
# 6 0.000000 0.000000 0.000000 0.001082 0.000000 0.023377
#
#
# Mechanical properties :
#
#
# Convention : Reuss Voigt Hill
#
# Bulk Modulus (GPa) = 76.61750 85.66238 81.13994
# Shear Modulus (GPa) = 29.12745 33.70641 31.41693
#
# Velocity S-wave (km/s) = 3.71380 3.99506 3.85700
# Velocity P-wave (km/s) = 7.39388 7.86405 7.63258
#
# Compressibility (1/GPa) = 0.01305185
#
# Stress axis : x y z
#
# Youngs Moduli (GPa) = 66.98969 69.70617 46.39822
#
# Poissons Ratio (x) = 0.30152 0.20157
# Poissons Ratio (y) = 0.28977 0.47406
# Poissons Ratio (z) = 0.29103 0.71220
#
# Static dielectric constant tensor:
#      x y z
#    x 3.794250 0.000000 -0.052730 
#    y 0.000000 4.084460 0.000000 
#    z -0.052730 0.000000 4.068140 
# 
# 
# High freq. dielectric constant tensor:
#      x y z
#    x 1.829630 0.000000 -0.005270 
#    y 0.000000 1.842260 0.000000 
#    z -0.005270 0.000000 1.844590 
# 
# From -- ./inp_files/61716.got.cif
#   From: 2010.06.25/outbox.cif.g09.slc.cpg/sg12_31_cif.got.tgz:61716.got - 2010.06.28 00:19:55.
