data_PCOD8113626
_publ_section_title
;
Structure prediction by ZEFSAII (Michael W. Deem and Ramdas Pophale) SiO2 
 PCOD8113626
Probable space group: C 2/M
;
_chemical_formula_sum "Si O2"
_cell_formula_units_Z 48
_cell_length_a 12.781016
_cell_length_b 21.768091
_cell_length_c 10.987561
_cell_angle_alpha 90.000000
_cell_angle_beta 48.659512
_cell_angle_gamma 90.000000
_cell_volume 2295.143649
_symmetry_space_group_name_H-M "C 2/M"
_symmetry_group_IT_number 12
_symmetry_cell_setting 'monoclinic'
loop_
_space_group_symop_operation_xyz
x,y,z
-x,y,-z
-x,-y,-z
x,-y,z
1/2+x,1/2+y,z
1/2-x,1/2+y,-z
1/2-x,1/2-y,-z
1/2+x,1/2-y,z
loop_
_atom_site_type_symbol
_atom_site_label
_atom_site_fract_x
_atom_site_fract_y
_atom_site_fract_z
Si Si1 0.181008 0.351968 0.047048
Si Si2 0.366417 0.428077 0.736902
Si Si3 0.366734 0.743733 0.538083
Si Si4 0.946681 0.623771 0.408802
Si Si5 0.850489 0.237197 0.085198
Si Si6 0.669230 0.616336 0.504142
O O1 0.284860 0.312078 0.046857
O O2 0.062863 0.386426 0.216387
O O3 0.263202 0.407649 0.921878
O O4 0.122335 0.304768 0.991922
O O5 0.355629 0.500000 0.722259
O O6 0.317529 0.395087 0.650421
O O7 0.523835 0.412263 0.660031
O O8 0.500000 0.711778 0.500000
O O9 0.427003 0.803119 0.425472
O O10 0.243173 0.759774 0.723602
O O11 0.320459 0.690613 0.478747
O O12 0.802205 0.589889 0.478360
O O13 0.000000 0.599187 0.500000
O O14 0.000000 0.208961 0.000000
#
# Coordination Sequence:
#
# PCOD8113626 Si02
#       6
#     8   8   8   8   8   8
#     4  11  23  39  60  95 133 165 209 258 315 379
#     4  11  25  44  68  94 118 163 223 273 316 361
#     4  11  18  37  55  97 133 165 199 247 317 388
#     4  11  24  38  60  96 136 167 204 250 321 391
#     4  11  22  35  60  94 134 168 201 249 318 384
#     4  11  21  40  67  91 131 163 209 261 314 375
#
# _framework density 20.913723999999998
#
# number of rings (size 3 to 8) (size 9 to 14) (size 15 to 20)
#    0.000    1.000    6.667    2.500    4.667    0.000 
#    0.000    2.500    0.000    8.000    0.000    0.000 
#    0.000    0.000    0.000    0.000    0.000    0.000 
#
# Total GULP energy -297524.657948 kJ/mol
# GULP energy per Si atom -12396.860748 kJ/mol
# Density = 2.086612 g / cm^3
# Si number density = 20.913724 Si / 1000 Ang^3
#
#
#
# Elastic Constant Matrix: (Units=GPa)
#
#
# Indices 1 2 3 4 5 6 
#
# 1 140.8486 2.9478 43.4600 0.0000 -24.4000 0.0000
# 2 2.9478 49.3338 13.7155 0.0000 0.0103 0.0000
# 3 43.4600 13.7155 145.8783 0.0000 -11.7806 0.0000
# 4 0.0000 0.0000 0.0000 18.8224 0.0000 -0.4673
# 5 -24.4000 0.0103 -11.7806 0.0000 25.5010 0.0000
# 6 0.0000 0.0000 0.0000 -0.4673 0.0000 6.6066
#
#
#
# Elastic Compliance Matrix: (Units=1/GPa)
#
#
# Indices 1 2 3 4 5 6 
#
# 1 0.009081 0.000035 -0.002085 0.000000 0.007726 0.000000
# 2 0.000035 0.020836 -0.002044 0.000000 -0.000919 0.000000
# 3 -0.002085 -0.002044 0.007798 0.000000 0.001609 0.000000
# 4 0.000000 0.000000 0.000000 0.053222 0.000000 0.003764
# 5 0.007726 -0.000919 0.001609 0.000000 0.047350 0.000000
# 6 0.000000 0.000000 0.000000 0.003764 0.000000 0.151630
#
#
# Mechanical properties :
#
#
# Convention : Reuss Voigt Hill
#
# Bulk Modulus (GPa) = 33.86506 50.70082 42.28294
# Shear Modulus (GPa) = 16.23662 28.58182 22.40922
#
# Velocity S-wave (km/s) = 2.78935 3.70084 3.27694
# Velocity P-wave (km/s) = 5.15770 6.52358 5.88043
#
# Compressibility (1/GPa) = 0.02952896
#
# Stress axis : x y z
#
# Youngs Moduli (GPa) = 110.12386 47.99303 128.23505
#
# Poissons Ratio (x) = -0.00170 0.26734
# Poissons Ratio (y) = -0.00390 0.26208
# Poissons Ratio (z) = 0.22958 0.09809
#
# Static dielectric constant tensor:
#      x y z
#    x 4.212000 0.000000 -0.153810 
#    y 0.000000 3.420430 0.000000 
#    z -0.153810 0.000000 3.791050 
# 
# 
# High freq. dielectric constant tensor:
#      x y z
#    x 1.834470 0.000000 -0.012630 
#    y 0.000000 1.779980 0.000000 
#    z -0.012630 0.000000 1.822870 
# 
# From -- ./inp_files/147906.got.cif
#   From: 2010.06.25/outbox.cif.g09.slc.cpg/sg12_74_cif.got.tgz:147906.got - 2010.06.28 00:19:55.
