data_PCOD8113951
_publ_section_title
;
Structure prediction by ZEFSAII (Michael W. Deem and Ramdas Pophale) SiO2 
 PCOD8113951
Probable space group: C 2/M
;
_chemical_formula_sum "Si O2"
_cell_formula_units_Z 48
_cell_length_a 13.074571
_cell_length_b 23.195138
_cell_length_c 8.997574
_cell_angle_alpha 90.000000
_cell_angle_beta 106.912278
_cell_angle_gamma 90.000000
_cell_volume 2610.651384
_symmetry_space_group_name_H-M "C 2/M"
_symmetry_group_IT_number 12
_symmetry_cell_setting 'monoclinic'
loop_
_space_group_symop_operation_xyz
x,y,z
-x,y,-z
-x,-y,-z
x,-y,z
1/2+x,1/2+y,z
1/2-x,1/2+y,-z
1/2-x,1/2-y,-z
1/2+x,1/2-y,z
loop_
_atom_site_type_symbol
_atom_site_label
_atom_site_fract_x
_atom_site_fract_y
_atom_site_fract_z
Si Si1 0.619715 0.934085 0.863993
Si Si2 0.626433 0.934337 0.209402
Si Si3 0.778475 0.327847 0.615871
Si Si4 0.721358 0.168207 0.738193
Si Si5 0.921916 0.232131 0.341540
Si Si6 0.574777 0.266554 0.165236
O O1 0.494158 0.925334 0.784226
O O2 0.689414 0.895039 0.781155
O O3 0.652467 0.000000 0.845022
O O4 0.642741 0.917724 0.044094
O O5 0.702105 0.894462 0.339436
O O6 0.661531 0.000000 0.250502
O O7 0.780607 0.321216 0.439936
O O8 0.661041 0.313208 0.625822
O O9 0.867109 0.288126 0.733326
O O10 0.635882 0.213978 0.764527
O O11 0.838648 0.185486 0.849376
O O12 0.000000 0.257162 0.500000
O O13 0.995639 0.201974 0.248408
O O14 0.500000 0.244408 0.000000
#
# Coordination Sequence:
#
# PCOD8113951 Si02
#       6
#     8   8   8   8   8   8
#     4   9  20  37  57  81 113 144 180 231 278 322
#     4   9  20  37  56  82 111 144 182 227 280 326
#     4  11  22  35  58  84 111 149 184 223 274 329
#     4  11  22  36  57  84 112 147 185 224 274 327
#     4  11  20  38  55  78 119 149 173 226 278 323
#     4  11  24  36  54  86 114 145 186 224 271 329
#
# _framework density 18.386215
#
# number of rings (size 3 to 8) (size 9 to 14) (size 15 to 20)
#    0.000    1.667    3.333    3.000    7.000    2.000 
#    0.000    1.667    0.000    2.000    0.000    0.000 
#    0.000    0.000    0.000    0.000    0.000    0.000 
#
# Total GULP energy -297521.597650 kJ/mol
# GULP energy per Si atom -12396.733235 kJ/mol
# Density = 1.834437 g / cm^3
# Si number density = 18.386215 Si / 1000 Ang^3
#
#
#
# Elastic Constant Matrix: (Units=GPa)
#
#
# Indices 1 2 3 4 5 6 
#
# 1 114.7190 43.3051 34.6346 0.0000 0.2966 0.0000
# 2 43.3051 89.0666 19.0873 0.0000 4.7029 0.0000
# 3 34.6346 19.0873 67.1108 0.0000 11.6177 0.0000
# 4 0.0000 0.0000 0.0000 30.0980 0.0000 -7.3104
# 5 0.2966 4.7029 11.6177 0.0000 26.0924 0.0000
# 6 0.0000 0.0000 0.0000 -7.3104 0.0000 26.1579
#
#
#
# Elastic Compliance Matrix: (Units=1/GPa)
#
#
# Indices 1 2 3 4 5 6 
#
# 1 0.012220 -0.004941 -0.005451 0.000000 0.003179 0.000000
# 2 -0.004941 0.013966 -0.001079 0.000000 -0.001980 0.000000
# 3 -0.005451 -0.001079 0.019478 0.000000 -0.008416 0.000000
# 4 0.000000 0.000000 0.000000 0.035644 0.000000 0.009962
# 5 0.003179 -0.001980 -0.008416 0.000000 0.042393 0.000000
# 6 0.000000 0.000000 0.000000 0.009962 0.000000 0.041013
#
#
# Mechanical properties :
#
#
# Convention : Reuss Voigt Hill
#
# Bulk Modulus (GPa) = 44.01370 51.66115 47.83742
# Shear Modulus (GPa) = 25.61066 28.06096 26.83581
#
# Velocity S-wave (km/s) = 3.73624 3.91089 3.82457
# Velocity P-wave (km/s) = 6.52710 6.96794 6.75112
#
# Compressibility (1/GPa) = 0.02272020
#
# Stress axis : x y z
#
# Youngs Moduli (GPa) = 81.83508 71.60368 51.34004
#
# Poissons Ratio (x) = 0.35379 0.27987
# Poissons Ratio (y) = 0.40434 0.05541
# Poissons Ratio (z) = 0.44611 0.07728
#
# Static dielectric constant tensor:
#      x y z
#    x 3.531400 0.000000 -0.025820 
#    y 0.000000 3.190370 0.000000 
#    z -0.025820 0.000000 3.371260 
# 
# 
# High freq. dielectric constant tensor:
#      x y z
#    x 1.717460 0.000000 -0.006880 
#    y 0.000000 1.689980 0.000000 
#    z -0.006880 0.000000 1.711560 
# 
# From -- ./inp_files/50714.got.cif
#   From: 2010.06.25/outbox.cif.g09.slc.cpg/sg12_26_cif.got.tgz:50714.got - 2010.06.28 00:19:55.
