data_PCOD8113789
_publ_section_title
;
Structure prediction by ZEFSAII (Michael W. Deem and Ramdas Pophale) SiO2 
 PCOD8113789
Probable space group: C 2/M
;
_chemical_formula_sum "Si O2"
_cell_formula_units_Z 64
_cell_length_a 20.281127
_cell_length_b 8.615304
_cell_length_c 20.032470
_cell_angle_alpha 90.000000
_cell_angle_beta 72.983159
_cell_angle_gamma 90.000000
_cell_volume 3346.990349
_symmetry_space_group_name_H-M "C 2/M"
_symmetry_group_IT_number 12
_symmetry_cell_setting 'monoclinic'
loop_
_space_group_symop_operation_xyz
x,y,z
-x,y,-z
-x,-y,-z
x,-y,z
1/2+x,1/2+y,z
1/2-x,1/2+y,-z
1/2-x,1/2-y,-z
1/2+x,1/2-y,z
loop_
_atom_site_type_symbol
_atom_site_label
_atom_site_fract_x
_atom_site_fract_y
_atom_site_fract_z
Si Si1 0.319867 0.820209 0.292424
Si Si2 0.576245 0.819388 0.499700
Si Si3 0.418729 0.828508 0.012539
Si Si4 0.339123 0.320757 0.642184
Si Si5 0.392863 0.679083 0.152619
Si Si6 0.931001 0.679393 0.722850
Si Si7 0.538433 0.818709 0.138400
Si Si8 0.426213 0.679971 0.360756
O O1 0.240753 0.779722 0.328494
O O2 0.337858 0.778258 0.210770
O O3 0.364677 0.715765 0.328532
O O4 0.336028 0.000000 0.300965
O O5 0.500000 0.768150 0.500000
O O6 0.629281 0.784577 0.425034
O O7 0.598745 0.721112 0.557426
O O8 0.579025 0.000000 0.516923
O O9 0.383055 0.715441 0.076648
O O10 0.387213 0.000000 0.032136
O O11 0.500000 0.831786 0.000000
O O12 0.409611 0.773101 0.938009
O O13 0.351433 0.500000 0.621053
O O14 0.375181 0.283399 0.701796
O O15 0.377741 0.500000 0.169205
O O16 0.469239 0.718028 0.155922
O O17 0.916699 0.500000 0.710899
O O18 0.922847 0.715153 0.803918
O O19 0.007778 0.716957 0.676126
O O20 0.517193 0.000000 0.138528
O O21 0.445905 0.500000 0.349829
#
# Coordination Sequence:
#
# PCOD8113789 Si02
#       8
#     8   8   8   8   8   8   8   8
#     4  11  24  42  60  82 117 157 195 236 290 348
#     4  11  23  40  64  89 116 154 190 230 287 348
#     4   8  15  29  48  74 110 151 189 229 282 342
#     4  11  25  42  62  87 115 151 194 243 289 338
#     4  11  20  30  51  82 114 150 189 238 289 335
#     4  11  21  36  60  87 118 154 191 235 287 346
#     4   9  18  32  53  80 113 152 191 232 283 343
#     4  12  24  38  62  91 117 149 192 240 285 336
#
# _framework density 19.121656999999999
#
# number of rings (size 3 to 8) (size 9 to 14) (size 15 to 20)
#    0.000    1.500    2.500    4.500    0.000    5.750 
#    0.000    0.000    0.000    0.750    0.000    0.000 
#    0.000    0.000    0.000    0.000    0.000    0.000 
#
# Total GULP energy -396884.783503 kJ/mol
# GULP energy per Si atom -12402.649484 kJ/mol
# Density = 1.907814 g / cm^3
# Si number density = 19.121657 Si / 1000 Ang^3
#
#
#
# Elastic Constant Matrix: (Units=GPa)
#
#
# Indices 1 2 3 4 5 6 
#
# 1 61.2260 24.5367 29.1762 0.0000 0.6127 0.0000
# 2 24.5367 53.2386 28.8052 0.0000 -2.8609 0.0001
# 3 29.1762 28.8052 122.8604 0.0000 13.1447 0.0000
# 4 0.0000 0.0000 0.0000 24.4557 0.0000 5.8184
# 5 0.6127 -2.8609 13.1447 0.0000 26.8036 0.0000
# 6 0.0000 0.0001 0.0000 5.8184 0.0000 23.3763
#
#
#
# Elastic Compliance Matrix: (Units=1/GPa)
#
#
# Indices 1 2 3 4 5 6 
#
# 1 0.021027 -0.007978 -0.003145 0.000000 0.000210 0.000000
# 2 -0.007978 0.025202 -0.004561 0.000000 0.005109 0.000000
# 3 -0.003145 -0.004561 0.010554 0.000000 -0.005591 0.000000
# 4 0.000000 0.000000 0.000000 0.043464 0.000000 -0.010818
# 5 0.000210 0.005109 -0.005591 0.000000 0.040591 0.000000
# 6 0.000000 0.000000 0.000000 -0.010818 0.000000 0.045471
#
#
# Mechanical properties :
#
#
# Convention : Reuss Voigt Hill
#
# Bulk Modulus (GPa) = 39.34710 44.70680 42.02695
# Shear Modulus (GPa) = 22.10934 25.24757 23.67846
#
# Velocity S-wave (km/s) = 3.40405 3.63762 3.52277
# Velocity P-wave (km/s) = 6.00600 6.40890 6.21072
#
# Compressibility (1/GPa) = 0.02541483
#
# Stress axis : x y z
#
# Youngs Moduli (GPa) = 47.55824 39.67868 94.75319
#
# Poissons Ratio (x) = 0.31655 0.29804
# Poissons Ratio (y) = 0.37941 0.43216
# Poissons Ratio (z) = 0.14959 0.18097
#
# Static dielectric constant tensor:
#      x y z
#    x 3.259200 0.000000 0.267650 
#    y 0.000000 3.452080 0.000000 
#    z 0.267650 0.000000 3.934430 
# 
# 
# High freq. dielectric constant tensor:
#      x y z
#    x 1.704760 0.000000 0.017350 
#    y 0.000000 1.748420 0.000000 
#    z 0.017350 0.000000 1.761520 
# 
# From -- ./inp_files/319866.got.cif
#   From: 2010.06.25/outbox.cif.g09.slc.cpg/sg12_160_cif.got.tgz:319866.got - 2010.06.28 00:19:55.
