data_PCOD8113498
_publ_section_title
;
Structure prediction by ZEFSAII (Michael W. Deem and Ramdas Pophale) SiO2 
 PCOD8113498
Probable space group: C 2/M
;
_chemical_formula_sum "Si O2"
_cell_formula_units_Z 56
_cell_length_a 27.557624
_cell_length_b 18.052000
_cell_length_c 8.490096
_cell_angle_alpha 90.000000
_cell_angle_beta 136.518576
_cell_angle_gamma 90.000000
_cell_volume 2906.320301
_symmetry_space_group_name_H-M "C 2/M"
_symmetry_group_IT_number 12
_symmetry_cell_setting 'monoclinic'
loop_
_space_group_symop_operation_xyz
x,y,z
-x,y,-z
-x,-y,-z
x,-y,z
1/2+x,1/2+y,z
1/2-x,1/2+y,-z
1/2-x,1/2-y,-z
1/2+x,1/2-y,z
loop_
_atom_site_type_symbol
_atom_site_label
_atom_site_fract_x
_atom_site_fract_y
_atom_site_fract_z
Si Si1 0.186162 0.296447 0.285279
Si Si2 0.590677 0.703212 0.831241
Si Si3 0.571004 0.183781 0.253182
Si Si4 0.143434 0.084589 0.719215
Si Si5 0.709566 0.084703 0.089869
Si Si6 0.926916 0.351666 0.390151
Si Si7 0.033791 0.153676 0.239273
O O1 0.250000 0.250000 0.500000
O O2 0.139314 0.335037 0.310207
O O3 0.217405 0.363676 0.259294
O O4 0.139908 0.239369 0.077210
O O5 0.628012 0.635175 0.833300
O O6 0.573508 0.765377 0.660709
O O7 0.521751 0.671724 0.754001
O O8 0.576151 0.141174 0.429509
O O9 0.572116 0.271707 0.276570
O O10 0.500000 0.156546 0.000000
O O11 0.224127 0.100961 0.865252
O O12 0.092211 0.099316 0.449659
O O13 0.132894 0.000000 0.746797
O O14 0.708969 0.000000 0.145145
O O15 0.637929 0.102278 0.829288
O O16 0.000000 0.387413 0.500000
O O17 0.000000 0.117730 0.000000
#
# Coordination Sequence:
#
# PCOD8113498 Si02
#       7
#     8   8   8   8   8   8   8
#     4  11  23  37  64  93 118 159 202 247 303 361
#     4  11  21  36  61  93 120 152 203 252 295 352
#     4  11  19  35  59  95 120 147 190 257 303 345
#     4  11  24  41  58  83 125 166 204 248 299 358
#     4  10  25  44  60  86 125 164 199 247 303 357
#     4  11  20  37  66  91 115 155 201 253 297 358
#     4  11  20  36  61  88 126 154 196 252 305 349
#
# _framework density 19.268350999999999
#
# number of rings (size 3 to 8) (size 9 to 14) (size 15 to 20)
#    0.000    1.143    5.714    2.143    2.000    2.857 
#    0.000    1.429    0.000    1.714    0.000    0.000 
#    0.000    0.000    0.000    0.000    0.000    0.000 
#
# Total GULP energy -347260.923995 kJ/mol
# GULP energy per Si atom -12402.175857 kJ/mol
# Density = 1.922450 g / cm^3
# Si number density = 19.268351 Si / 1000 Ang^3
#
#
#
# Elastic Constant Matrix: (Units=GPa)
#
#
# Indices 1 2 3 4 5 6 
#
# 1 96.5775 42.8160 37.0570 0.0000 -1.4535 0.0000
# 2 42.8160 75.8136 25.7556 0.0000 6.4683 0.0000
# 3 37.0570 25.7556 101.5684 0.0000 3.6019 0.0000
# 4 0.0000 0.0000 0.0000 11.6709 0.0000 4.7123
# 5 -1.4535 6.4683 3.6019 0.0000 38.2124 0.0000
# 6 0.0000 0.0000 0.0000 4.7123 0.0000 24.9172
#
#
#
# Elastic Compliance Matrix: (Units=1/GPa)
#
#
# Indices 1 2 3 4 5 6 
#
# 1 0.015117 -0.007467 -0.003700 0.000000 0.002188 0.000000
# 2 -0.007467 0.018293 -0.001800 0.000000 -0.003211 0.000000
# 3 -0.003700 -0.001800 0.011685 0.000000 -0.000937 0.000000
# 4 0.000000 0.000000 0.000000 0.092767 0.000000 -0.017544
# 5 0.002188 -0.003211 -0.000937 0.000000 0.026885 0.000000
# 6 0.000000 0.000000 0.000000 -0.017544 0.000000 0.043451
#
#
# Mechanical properties :
#
#
# Convention : Reuss Voigt Hill
#
# Bulk Modulus (GPa) = 52.18973 53.91297 53.05135
# Shear Modulus (GPa) = 20.78833 26.18216 23.48525
#
# Velocity S-wave (km/s) = 3.28820 3.69021 3.49499
# Velocity P-wave (km/s) = 6.44677 6.79689 6.62414
#
# Compressibility (1/GPa) = 0.01916086
#
# Stress axis : x y z
#
# Youngs Moduli (GPa) = 66.14890 54.66537 85.57875
#
# Poissons Ratio (x) = 0.40821 0.31660
# Poissons Ratio (y) = 0.49396 0.15408
# Poissons Ratio (z) = 0.24472 0.09842
#
# Static dielectric constant tensor:
#      x y z
#    x 3.745110 0.000000 0.037370 
#    y 0.000000 3.595300 0.000000 
#    z 0.037370 0.000000 3.813430 
# 
# 
# High freq. dielectric constant tensor:
#      x y z
#    x 1.765880 0.000000 0.003200 
#    y 0.000000 1.720890 0.000000 
#    z 0.003200 0.000000 1.762700 
# 
# From -- ./inp_files/105965.got.cif
#   From: 2010.06.25/outbox.cif.g09.slc.cpg/sg12_53_cif.got.tgz:105965.got - 2010.06.28 00:19:55.
