data_PCOD8113945
_publ_section_title
;
Structure prediction by ZEFSAII (Michael W. Deem and Ramdas Pophale) SiO2 
 PCOD8113945
Probable space group: C 2/M
;
_chemical_formula_sum "Si O2"
_cell_formula_units_Z 40
_cell_length_a 11.544744
_cell_length_b 15.741466
_cell_length_c 11.737522
_cell_angle_alpha 90.000000
_cell_angle_beta 66.487557
_cell_angle_gamma 90.000000
_cell_volume 1955.972147
_symmetry_space_group_name_H-M "C 2/M"
_symmetry_group_IT_number 12
_symmetry_cell_setting 'monoclinic'
loop_
_space_group_symop_operation_xyz
x,y,z
-x,y,-z
-x,-y,-z
x,-y,z
1/2+x,1/2+y,z
1/2-x,1/2+y,-z
1/2-x,1/2-y,-z
1/2+x,1/2-y,z
loop_
_atom_site_type_symbol
_atom_site_label
_atom_site_fract_x
_atom_site_fract_y
_atom_site_fract_z
Si Si1 0.058610 0.849128 0.656535
Si Si2 0.323043 0.401526 0.617620
Si Si3 0.076266 0.321347 0.790779
Si Si4 0.401065 0.500000 0.199695
Si Si5 0.685060 0.500000 0.009171
Si Si6 0.326975 0.832162 0.000530
O O1 0.138362 0.848479 0.508855
O O2 0.073379 0.759145 0.710071
O O3 0.121715 0.917104 0.715710
O O4 0.910770 0.869425 0.688237
O O5 0.351993 0.500000 0.584552
O O6 0.174278 0.389536 0.700423
O O7 0.933106 0.354999 0.862899
O O8 0.118655 0.300943 0.901252
O O9 0.301702 0.500000 0.133628
O O10 0.540178 0.500000 0.096271
O O11 0.744782 0.416984 0.043691
O O12 0.250000 0.750000 0.000000
#
# Coordination Sequence:
#
# PCOD8113945 Si02
#       6
#     8   8   8   4   4   8
#     4  11  21  40  63  95 123 168 213 261 307 376
#     4  11  22  40  66  96 127 162 215 264 311 378
#     4  11  24  37  66  88 130 163 209 258 320 372
#     4  11  20  37  63  89 117 167 214 255 307 374
#     4  11  24  37  63  87 129 164 212 261 321 371
#     4  11  24  42  59  95 127 167 212 263 319 382
#
# _framework density 20.450189000000002
#
# number of rings (size 3 to 8) (size 9 to 14) (size 15 to 20)
#    0.000    1.000    2.000    6.000    2.800    4.000 
#    0.000    0.000    0.000    1.200    0.000    0.000 
#    0.000    0.000    0.000    0.000    0.000    0.000 
#
# Total GULP energy -247933.348803 kJ/mol
# GULP energy per Si atom -12396.667440 kJ/mol
# Density = 2.040364 g / cm^3
# Si number density = 20.450189 Si / 1000 Ang^3
#
#
#
# Elastic Constant Matrix: (Units=GPa)
#
#
# Indices 1 2 3 4 5 6 
#
# 1 84.6194 33.0657 35.5446 0.0000 -8.3427 0.0000
# 2 33.0657 106.6621 25.1302 0.0000 9.0419 0.0000
# 3 35.5446 25.1302 94.3215 0.0000 1.0818 0.0000
# 4 0.0000 0.0000 0.0000 36.2799 0.0000 6.0050
# 5 -8.3427 9.0419 1.0818 0.0000 44.5929 0.0000
# 6 0.0000 0.0000 0.0000 6.0050 0.0000 31.3464
#
#
#
# Elastic Compliance Matrix: (Units=1/GPa)
#
#
# Indices 1 2 3 4 5 6 
#
# 1 0.015877 -0.004091 -0.004938 0.000000 0.003920 0.000000
# 2 -0.004091 0.011232 -0.001417 0.000000 -0.003008 0.000000
# 3 -0.004938 -0.001417 0.012851 0.000000 -0.000948 0.000000
# 4 0.000000 0.000000 0.000000 0.028466 0.000000 -0.005453
# 5 0.003920 -0.003008 -0.000948 0.000000 0.023791 0.000000
# 6 0.000000 0.000000 0.000000 -0.005453 0.000000 0.032946
#
#
# Mechanical properties :
#
#
# Convention : Reuss Voigt Hill
#
# Bulk Modulus (GPa) = 52.43971 52.56489 52.50230
# Shear Modulus (GPa) = 32.80592 35.23468 34.02030
#
# Velocity S-wave (km/s) = 4.00958 4.15535 4.08311
# Velocity P-wave (km/s) = 6.86541 6.98443 6.92518
#
# Compressibility (1/GPa) = 0.01906952
#
# Stress axis : x y z
#
# Youngs Moduli (GPa) = 62.98496 89.02887 77.81331
#
# Poissons Ratio (x) = 0.36419 0.38426
# Poissons Ratio (y) = 0.25765 0.11023
# Poissons Ratio (z) = 0.31103 0.12612
#
# Static dielectric constant tensor:
#      x y z
#    x 3.993480 0.000000 0.006250 
#    y 0.000000 2.330560 0.000000 
#    z 0.006250 0.000000 3.994400 
# 
# 
# High freq. dielectric constant tensor:
#      x y z
#    x 1.796940 0.000000 -0.000190 
#    y 0.000000 1.790770 0.000000 
#    z -0.000190 0.000000 1.817200 
# 
# From -- ./inp_files/129617.got.cif
#   From: 2010.06.25/outbox.cif.g09.slc.cpg/sg12_65_cif.got.tgz:129617.got - 2010.06.28 00:19:55.
