data_PCOD8113326
_publ_section_title
;
Structure prediction by ZEFSAII (Michael W. Deem and Ramdas Pophale) SiO2 
 PCOD8113326
Probable space group: C 2/M
;
_chemical_formula_sum "Si O2"
_cell_formula_units_Z 60
_cell_length_a 20.658572
_cell_length_b 19.013298
_cell_length_c 11.305612
_cell_angle_alpha 90.000000
_cell_angle_beta 40.118246
_cell_angle_gamma 90.000000
_cell_volume 2861.443978
_symmetry_space_group_name_H-M "C 2/M"
_symmetry_group_IT_number 12
_symmetry_cell_setting 'monoclinic'
loop_
_space_group_symop_operation_xyz
x,y,z
-x,y,-z
-x,-y,-z
x,-y,z
1/2+x,1/2+y,z
1/2-x,1/2+y,-z
1/2-x,1/2-y,-z
1/2+x,1/2-y,z
loop_
_atom_site_type_symbol
_atom_site_label
_atom_site_fract_x
_atom_site_fract_y
_atom_site_fract_z
Si Si1 0.500000 0.623986 0.000000
Si Si2 0.235078 0.081575 0.268034
Si Si3 0.415345 0.863476 0.894078
Si Si4 0.405032 0.668771 0.691785
Si Si5 0.377747 0.083063 0.473877
Si Si6 0.348863 0.824244 0.736022
Si Si7 0.812635 0.920225 0.405691
Si Si8 0.881446 0.204379 0.977222
O O1 0.425885 0.581826 0.192751
O O2 0.579193 0.669805 0.959580
O O3 0.190810 0.128560 0.224120
O O4 0.196978 0.112658 0.448448
O O5 0.205578 0.000000 0.294494
O O6 0.354026 0.092931 0.079840
O O7 0.525676 0.898363 0.740208
O O8 0.360445 0.866624 0.842667
O O9 0.424407 0.782674 0.919533
O O10 0.500000 0.631143 0.500000
O O11 0.408787 0.751513 0.656283
O O12 0.418591 0.659379 0.813019
O O13 0.392081 0.124633 0.575978
O O14 0.274745 0.111515 0.556454
O O15 0.372107 0.000000 0.508390
O O16 0.237515 0.798332 0.863451
O O17 0.780865 0.000000 0.468202
#
# Coordination Sequence:
#
# PCOD8113326 Si02
#       8
#     4   8   8   8   8   8   8   8
#     4  12  23  44  68  92 123 158 220 268 314 378
#     4  11  23  40  63  91 126 170 216 260 315 386
#     4  11  22  42  64  92 135 167 206 263 324 381
#     4  11  21  40  64  90 127 166 207 262 326 376
#     4  11  24  41  65  98 130 172 221 261 315 380
#     4  11  20  42  65  92 130 167 210 264 319 377
#     4  10  24  43  62  88 128 170 208 260 327 384
#     4  11  22  40  65  96 122 166 211 261 323 380
#
# _framework density 20.968434999999999
#
# number of rings (size 3 to 8) (size 9 to 14) (size 15 to 20)
#    0.000    1.067    4.000    4.200    0.000    3.467 
#    0.000    5.333    0.000    0.000    0.000    0.000 
#    0.000    0.000    0.000    0.000    0.000    0.000 
#
# Total GULP energy -371840.849535 kJ/mol
# GULP energy per Si atom -12394.694984 kJ/mol
# Density = 2.092071 g / cm^3
# Si number density = 20.968435 Si / 1000 Ang^3
#
#
#
# Elastic Constant Matrix: (Units=GPa)
#
#
# Indices 1 2 3 4 5 6 
#
# 1 70.6150 15.3205 13.8997 0.0000 1.6857 0.0000
# 2 15.3205 61.9441 12.2628 0.0000 12.7945 0.0000
# 3 13.8997 12.2628 137.3156 0.0000 -1.7560 0.0000
# 4 0.0000 0.0000 0.0000 30.0364 0.0000 9.6407
# 5 1.6857 12.7945 -1.7560 0.0000 37.4139 0.0000
# 6 0.0000 0.0000 0.0000 9.6407 0.0000 -29.4421
#
#
#
# Elastic Compliance Matrix: (Units=1/GPa)
#
#
# Indices 1 2 3 4 5 6 
#
# 1 0.015171 -0.003616 -0.001206 0.000000 0.000496 0.000000
# 2 -0.003616 0.018604 -0.001375 0.000000 -0.006264 0.000000
# 3 -0.001206 -0.001375 0.007539 0.000000 0.000879 0.000000
# 4 0.000000 0.000000 0.000000 0.030127 0.000000 0.009865
# 5 0.000496 -0.006264 0.000879 0.000000 0.028889 0.000000
# 6 0.000000 0.000000 0.000000 0.009865 0.000000 -0.030735
#
#
# Mechanical properties :
#
#
# Convention : Reuss Voigt Hill
#
# Bulk Modulus (GPa) = 34.58023 39.20451 36.89237
# Shear Modulus (GPa) = 54.56718 22.82776 38.69747
#
# Velocity S-wave (km/s) = 5.10686 3.30308 4.30060
# Velocity P-wave (km/s) = 7.16245 5.76929 6.50328
#
# Compressibility (1/GPa) = 0.02891825
#
# Stress axis : x y z
#
# Youngs Moduli (GPa) = 65.91331 53.75191 132.64910
#
# Poissons Ratio (x) = 0.19437 0.16003
# Poissons Ratio (y) = 0.23834 0.18246
# Poissons Ratio (z) = 0.07952 0.07393
#
# Static dielectric constant tensor:
#      x y z
#    x 3.808070 0.000000 0.072670 
#    y 0.000000 3.515560 0.000000 
#    z 0.072670 0.000000 4.013040 
# 
# 
# High freq. dielectric constant tensor:
#      x y z
#    x 1.817860 0.000000 -0.002790 
#    y 0.000000 1.801410 0.000000 
#    z -0.002790 0.000000 1.843100 
# 
# From -- ./inp_files/168965.got.cif
#   From: 2010.06.25/outbox.cif.g09.slc.cpg/sg12_85_cif.got.tgz:168965.got - 2010.06.28 00:19:55.
