data_PCOD8113226
_publ_section_title
;
Structure prediction by ZEFSAII (Michael W. Deem and Ramdas Pophale) SiO2 
 PCOD8113226
Probable space group: C 2/M
;
_chemical_formula_sum "Si O2"
_cell_formula_units_Z 48
_cell_length_a 14.830045
_cell_length_b 25.833074
_cell_length_c 8.924999
_cell_angle_alpha 90.000000
_cell_angle_beta 43.053918
_cell_angle_gamma 90.000000
_cell_volume 2334.252959
_symmetry_space_group_name_H-M "C 2/M"
_symmetry_group_IT_number 12
_symmetry_cell_setting 'monoclinic'
loop_
_space_group_symop_operation_xyz
x,y,z
-x,y,-z
-x,-y,-z
x,-y,z
1/2+x,1/2+y,z
1/2-x,1/2+y,-z
1/2-x,1/2-y,-z
1/2+x,1/2-y,z
loop_
_atom_site_type_symbol
_atom_site_label
_atom_site_fract_x
_atom_site_fract_y
_atom_site_fract_z
Si Si1 0.168506 0.771699 0.458618
Si Si2 0.279239 0.443155 0.773985
Si Si3 0.622873 0.843108 0.956933
Si Si4 0.536409 0.335140 0.114088
Si Si5 0.990058 0.942677 0.273761
Si Si6 0.187745 0.295946 0.166069
O O1 0.250000 0.750000 0.500000
O O2 0.253770 0.812343 0.260728
O O3 0.125407 0.724570 0.398863
O O4 0.034821 0.800814 0.671155
O O5 0.218623 0.500000 0.878000
O O6 0.158259 0.403484 0.922675
O O7 0.350715 0.442756 0.527207
O O8 0.388848 0.429654 0.763818
O O9 0.500000 0.833272 0.000000
O O10 0.587511 0.823987 0.170274
O O11 0.485340 0.394574 0.165937
O O12 0.500000 0.308606 0.000000
O O13 0.693511 0.335751 0.942900
O O14 0.009761 0.000000 0.174960
O O15 0.250000 0.250000 0.000000
#
# Coordination Sequence:
#
# PCOD8113226 Si02
#       6
#     8   8   8   8   8   8
#     4  11  24  40  58  84 122 157 192 254 295 350
#     4   9  17  33  59  87 114 150 193 246 305 354
#     4  11  23  39  57  84 119 157 208 245 286 355
#     4  12  22  38  64  88 117 156 203 243 307 364
#     4   9  18  34  58  89 119 148 191 250 311 359
#     4  10  24  38  56  85 117 158 199 241 296 353
#
# _framework density 20.563324000000001
#
# number of rings (size 3 to 8) (size 9 to 14) (size 15 to 20)
#    0.000    1.667    5.000    1.000    4.667    3.333 
#    0.000    0.000    0.000    0.000    0.000    0.000 
#    0.000    8.000    0.000    0.000    0.000    0.667 
#
# Total GULP energy -297433.154813 kJ/mol
# GULP energy per Si atom -12393.048117 kJ/mol
# Density = 2.051652 g / cm^3
# Si number density = 20.563324 Si / 1000 Ang^3
#
#
#
# Elastic Constant Matrix: (Units=GPa)
#
#
# Indices 1 2 3 4 5 6 
#
# 1 120.6326 32.6355 34.7503 0.0000 12.1304 0.0000
# 2 32.6355 119.8259 41.3487 0.0000 10.4425 0.0000
# 3 34.7503 41.3487 71.6400 0.0000 15.3296 0.0000
# 4 0.0000 0.0000 0.0000 23.3545 0.0000 -0.4998
# 5 12.1304 10.4425 15.3296 0.0000 28.9927 0.0000
# 6 0.0000 0.0000 0.0000 -0.4998 0.0000 29.3617
#
#
#
# Elastic Compliance Matrix: (Units=1/GPa)
#
#
# Indices 1 2 3 4 5 6 
#
# 1 0.009867 -0.001265 -0.003688 0.000000 -0.001723 0.000000
# 2 -0.001265 0.010594 -0.005410 0.000000 -0.000426 0.000000
# 3 -0.003688 -0.005410 0.020435 0.000000 -0.007313 0.000000
# 4 0.000000 0.000000 0.000000 0.042834 0.000000 0.000729
# 5 -0.001723 -0.000426 -0.007313 0.000000 0.039233 0.000000
# 6 0.000000 0.000000 0.000000 0.000729 0.000000 0.034070
#
#
# Mechanical properties :
#
#
# Convention : Reuss Voigt Hill
#
# Bulk Modulus (GPa) = 49.57488 58.84085 54.20786
# Shear Modulus (GPa) = 27.10304 29.89938 28.50121
#
# Velocity S-wave (km/s) = 3.63440 3.81729 3.72697
# Velocity P-wave (km/s) = 6.46317 6.93582 6.70366
#
# Compressibility (1/GPa) = 0.02017151
#
# Stress axis : x y z
#
# Youngs Moduli (GPa) = 101.34426 94.39462 48.93627
#
# Poissons Ratio (x) = 0.11939 0.18046
# Poissons Ratio (y) = 0.12818 0.26474
# Poissons Ratio (z) = 0.37372 0.51066
#
# Static dielectric constant tensor:
#      x y z
#    x 1.654150 0.000000 0.874780 
#    y 0.000000 3.877910 0.000000 
#    z 0.874780 0.000000 3.493600 
# 
# 
# High freq. dielectric constant tensor:
#      x y z
#    x 1.798810 0.000000 0.013080 
#    y 0.000000 1.808370 0.000000 
#    z 0.013080 0.000000 1.777230 
# 
# From -- ./inp_files/52780.got.cif
#   From: 2010.06.25/outbox.cif.g09.slc.cpg/sg12_27_cif.got.tgz:52780.got - 2010.06.28 00:19:55.
