data_PCOD8113974
_publ_section_title
;
Structure prediction by ZEFSAII (Michael W. Deem and Ramdas Pophale) SiO2 
 PCOD8113974
Probable space group: C 2/M
;
_chemical_formula_sum "Si O2"
_cell_formula_units_Z 48
_cell_length_a 15.776441
_cell_length_b 18.161275
_cell_length_c 8.696257
_cell_angle_alpha 90.000000
_cell_angle_beta 69.218752
_cell_angle_gamma 90.000000
_cell_volume 2329.551613
_symmetry_space_group_name_H-M "C 2/M"
_symmetry_group_IT_number 12
_symmetry_cell_setting 'monoclinic'
loop_
_space_group_symop_operation_xyz
x,y,z
-x,y,-z
-x,-y,-z
x,-y,z
1/2+x,1/2+y,z
1/2-x,1/2+y,-z
1/2-x,1/2-y,-z
1/2+x,1/2-y,z
loop_
_atom_site_type_symbol
_atom_site_label
_atom_site_fract_x
_atom_site_fract_y
_atom_site_fract_z
Si Si1 0.776226 0.914248 0.248284
Si Si2 0.405708 0.852205 0.500441
Si Si3 0.739329 0.665464 0.059049
Si Si4 0.907859 0.336430 0.136329
Si Si5 0.429790 0.302093 0.651969
Si Si6 0.560646 0.321508 0.832418
O O1 0.679689 0.897934 0.385394
O O2 0.859864 0.874114 0.285147
O O3 0.795452 0.000000 0.241875
O O4 0.781180 0.886043 0.071342
O O5 0.500000 0.888401 0.500000
O O6 0.401947 0.856592 0.319131
O O7 0.399401 0.770147 0.575816
O O8 0.825407 0.630242 0.090590
O O9 0.658004 0.655085 0.234701
O O10 0.750000 0.750000 0.000000
O O11 0.893329 0.249139 0.117535
O O12 0.000000 0.366521 0.000000
O O13 0.500000 0.349902 0.500000
O O14 0.493619 0.282106 0.754502
O O15 0.500000 0.364374 0.000000
#
# Coordination Sequence:
#
# PCOD8113974 Si02
#       6
#     8   8   8   8   8   8
#     4  12  27  43  63  93 137 180 213 257 326 400
#     4  11  22  40  65 100 129 162 214 275 329 376
#     4  12  21  39  64  93 128 168 221 273 316 373
#     4  11  21  36  66 102 125 156 212 284 330 368
#     4  11  21  35  63 103 128 157 212 280 326 363
#     4  11  20  38  64  97 126 162 210 266 330 373
#
# _framework density 20.604821999999999
#
# number of rings (size 3 to 8) (size 9 to 14) (size 15 to 20)
#    0.000    0.667    8.333    2.000    2.333    2.000 
#    0.000    0.833    0.000    3.000    0.000    0.000 
#    0.000    0.000    0.000    0.000    0.000    0.000 
#
# Total GULP energy -297355.436742 kJ/mol
# GULP energy per Si atom -12389.809864 kJ/mol
# Density = 2.055792 g / cm^3
# Si number density = 20.604822 Si / 1000 Ang^3
#
#
#
# Elastic Constant Matrix: (Units=GPa)
#
#
# Indices 1 2 3 4 5 6 
#
# 1 88.9635 -0.9150 21.1461 0.0000 -10.0346 0.0000
# 2 -0.9150 36.1772 8.1478 0.0000 -5.2201 0.0000
# 3 21.1461 8.1478 125.8013 0.0000 -20.6494 0.0000
# 4 0.0000 0.0000 0.0000 15.9187 0.0000 -1.3235
# 5 -10.0346 -5.2201 -20.6494 0.0000 50.8014 0.0000
# 6 0.0000 0.0000 0.0000 -1.3235 0.0000 15.0407
#
#
#
# Elastic Compliance Matrix: (Units=1/GPa)
#
#
# Indices 1 2 3 4 5 6 
#
# 1 0.011866 0.000948 -0.001774 0.000000 0.001720 0.000000
# 2 0.000948 0.028379 -0.001594 0.000000 0.002455 0.000000
# 3 -0.001774 -0.001594 0.008857 0.000000 0.003086 0.000000
# 4 0.000000 0.000000 0.000000 0.063282 0.000000 0.005569
# 5 0.001720 0.002455 0.003086 0.000000 0.021531 0.000000
# 6 0.000000 0.000000 0.000000 0.005569 0.000000 0.066976
#
#
# Mechanical properties :
#
#
# Convention : Reuss Voigt Hill
#
# Bulk Modulus (GPa) = 22.59289 34.18885 28.39087
# Shear Modulus (GPa) = 22.67720 31.18969 26.93345
#
# Velocity S-wave (km/s) = 3.32109 3.89486 3.61937
# Velocity P-wave (km/s) = 5.06901 6.07085 5.59241
#
# Compressibility (1/GPa) = 0.04426171
#
# Stress axis : x y z
#
# Youngs Moduli (GPa) = 84.27500 35.23730 112.90546
#
# Poissons Ratio (x) = -0.03340 0.20024
# Poissons Ratio (y) = -0.07988 0.18001
# Poissons Ratio (z) = 0.14947 0.05618
#
# Static dielectric constant tensor:
#      x y z
#    x 4.135670 0.000000 -0.217650 
#    y 0.000000 3.098040 0.000000 
#    z -0.217650 0.000000 4.178260 
# 
# 
# High freq. dielectric constant tensor:
#      x y z
#    x 1.833450 0.000000 -0.007360 
#    y 0.000000 1.725700 0.000000 
#    z -0.007360 0.000000 1.827590 
# 
# From -- ./inp_files/63346.got.cif
#   From: 2010.06.25/outbox.cif.g09.slc.cpg/sg12_32_cif.got.tgz:63346.got - 2010.06.28 00:19:55.
