data_PCOD8113688
_publ_section_title
;
Structure prediction by ZEFSAII (Michael W. Deem and Ramdas Pophale) SiO2 
 PCOD8113688
Probable space group: C 2/M
;
_chemical_formula_sum "Si O2"
_cell_formula_units_Z 56
_cell_length_a 17.494517
_cell_length_b 29.145540
_cell_length_c 9.308560
_cell_angle_alpha 90.000000
_cell_angle_beta 140.187082
_cell_angle_gamma 90.000000
_cell_volume 3038.984393
_symmetry_space_group_name_H-M "C 2/M"
_symmetry_group_IT_number 12
_symmetry_cell_setting 'monoclinic'
loop_
_space_group_symop_operation_xyz
x,y,z
-x,y,-z
-x,-y,-z
x,-y,z
1/2+x,1/2+y,z
1/2-x,1/2+y,-z
1/2-x,1/2-y,-z
1/2+x,1/2-y,z
loop_
_atom_site_type_symbol
_atom_site_label
_atom_site_fract_x
_atom_site_fract_y
_atom_site_fract_z
Si Si1 0.810964 0.949985 0.671553
Si Si2 0.770915 0.295618 0.936337
Si Si3 0.969881 0.292885 0.618736
Si Si4 0.246975 0.148657 0.354008
Si Si5 0.597939 0.355766 0.856152
Si Si6 0.634438 0.701679 0.454083
Si Si7 0.963151 0.951092 0.178088
O O1 0.729030 0.903948 0.557816
O O2 0.898158 0.943969 0.661444
O O3 0.742517 0.000000 0.558592
O O4 0.887534 0.951937 0.924742
O O5 0.694823 0.337119 0.887847
O O6 0.732385 0.288610 0.717609
O O7 0.750000 0.250000 0.000000
O O8 0.908430 0.311201 0.134942
O O9 0.872352 0.333410 0.472042
O O10 0.925892 0.251315 0.656914
O O11 0.000000 0.275678 0.500000
O O12 0.202690 0.182639 0.414563
O O13 0.142939 0.150278 0.084665
O O14 0.470203 0.332419 0.649608
O O15 0.581696 0.409131 0.789476
O O16 0.946238 0.000000 0.235057
#
# Coordination Sequence:
#
# PCOD8113688 Si02
#       7
#     8   8   8   8   8   8   8
#     4   8  14  28  51  83 116 140 174 231 288 325
#     4  12  23  39  56  75 111 161 186 221 280 342
#     4  12  23  40  56  75 113 155 191 223 278 338
#     4  11  22  36  59  89 111 143 191 239 273 320
#     4  11  19  35  60  83 116 146 185 229 280 331
#     4  12  23  37  57  84 110 144 192 234 277 323
#     4   8  14  26  50  83 115 142 175 227 285 330
#
# _framework density 18.427209000000001
#
# number of rings (size 3 to 8) (size 9 to 14) (size 15 to 20)
#    0.000    1.429    5.714    2.143    0.000    0.571 
#    2.571    0.000    0.000    3.857    0.000    1.000 
#    0.000    0.000    0.000    0.000    0.000    0.000 
#
# Total GULP energy -346994.505275 kJ/mol
# GULP energy per Si atom -12392.660903 kJ/mol
# Density = 1.838527 g / cm^3
# Si number density = 18.427209 Si / 1000 Ang^3
#
#
#
# Elastic Constant Matrix: (Units=GPa)
#
#
# Indices 1 2 3 4 5 6 
#
# 1 60.1141 38.6953 15.3339 0.0000 8.7812 0.0000
# 2 38.6953 127.5934 4.0989 0.0000 14.0157 0.0000
# 3 15.3339 4.0989 72.2467 0.0000 11.5643 0.0000
# 4 0.0000 0.0000 0.0000 12.8196 0.0000 -3.4576
# 5 8.7812 14.0157 11.5643 0.0000 26.3735 0.0000
# 6 0.0000 0.0000 0.0000 -3.4576 0.0000 20.4395
#
#
#
# Elastic Compliance Matrix: (Units=1/GPa)
#
#
# Indices 1 2 3 4 5 6 
#
# 1 0.022034 -0.006308 -0.003959 0.000000 -0.002248 0.000000
# 2 -0.006308 0.010134 0.001387 0.000000 -0.003893 0.000000
# 3 -0.003959 0.001387 0.015605 0.000000 -0.006262 0.000000
# 4 0.000000 0.000000 0.000000 0.081735 0.000000 0.013827
# 5 -0.002248 -0.003893 -0.006262 0.000000 0.043480 0.000000
# 6 0.000000 0.000000 0.000000 0.013827 0.000000 0.051264
#
#
# Mechanical properties :
#
#
# Convention : Reuss Voigt Hill
#
# Bulk Modulus (GPa) = 33.31885 41.80114 37.55999
# Shear Modulus (GPa) = 19.84009 25.38159 22.61084
#
# Velocity S-wave (km/s) = 3.28483 3.71536 3.50671
# Velocity P-wave (km/s) = 5.70153 6.41396 6.06821
#
# Compressibility (1/GPa) = 0.03001304
#
# Stress axis : x y z
#
# Youngs Moduli (GPa) = 45.38499 98.68223 64.08084
#
# Poissons Ratio (x) = 0.62249 0.25368
# Poissons Ratio (y) = 0.28629 -0.08889
# Poissons Ratio (z) = 0.17967 -0.13688
#
# Static dielectric constant tensor:
#      x y z
#    x 3.253610 0.000000 0.090250 
#    y 0.000000 4.000400 0.000000 
#    z 0.090250 0.000000 3.329590 
# 
# 
# High freq. dielectric constant tensor:
#      x y z
#    x 1.692810 0.000000 0.001140 
#    y 0.000000 1.724880 0.000000 
#    z 0.001140 0.000000 1.689460 
# 
# From -- ./inp_files/80079.got.cif
#   From: 2010.06.25/outbox.cif.g09.slc.cpg/sg12_41_cif.got.tgz:80079.got - 2010.06.28 00:19:55.
