data_PCOD8113021
_publ_section_title
;
Structure prediction by ZEFSAII (Michael W. Deem and Ramdas Pophale) SiO2 
 PCOD8113021
Probable space group: C 2/M
;
_chemical_formula_sum "Si O2"
_cell_formula_units_Z 64
_cell_length_a 8.308295
_cell_length_b 25.252307
_cell_length_c 29.485820
_cell_angle_alpha 90.000000
_cell_angle_beta 148.432126
_cell_angle_gamma 90.000000
_cell_volume 3238.543349
_symmetry_space_group_name_H-M "C 2/M"
_symmetry_group_IT_number 12
_symmetry_cell_setting 'monoclinic'
loop_
_space_group_symop_operation_xyz
x,y,z
-x,y,-z
-x,-y,-z
x,-y,z
1/2+x,1/2+y,z
1/2-x,1/2+y,-z
1/2-x,1/2-y,-z
1/2+x,1/2-y,z
loop_
_atom_site_type_symbol
_atom_site_label
_atom_site_fract_x
_atom_site_fract_y
_atom_site_fract_z
Si Si1 0.759730 0.791507 0.095927
Si Si2 0.849393 0.807940 0.510370
Si Si3 0.206129 0.151435 0.341535
Si Si4 0.676714 0.439550 0.791435
Si Si5 0.565759 0.940609 0.797805
Si Si6 0.729152 0.656550 0.682982
Si Si7 0.804295 0.085687 0.097312
Si Si8 0.361553 0.255024 0.211792
O O1 0.828560 0.851415 0.099231
O O2 0.656933 0.782174 0.122679
O O3 0.083073 0.760252 0.177718
O O4 0.500000 0.767820 0.000000
O O5 0.750000 0.750000 0.500000
O O6 0.569985 0.848975 0.436769
O O7 0.000000 0.797144 0.500000
O O8 0.116953 0.832040 0.605638
O O9 0.102087 0.098457 0.290469
O O10 0.072568 0.154362 0.359390
O O11 0.102506 0.203365 0.289333
O O12 0.572754 0.500000 0.759119
O O13 0.726199 0.431150 0.857166
O O14 0.977179 0.427646 0.830284
O O15 0.392617 0.900397 0.722998
O O16 0.922526 0.937724 0.868451
O O17 0.450373 0.000000 0.759916
O O18 0.958016 0.701234 0.757126
O O19 0.500000 0.064225 0.000000
#
# Coordination Sequence:
#
# PCOD8113021 Si02
#       8
#     8   8   8   8   8   8   8   8
#     4  11  24  39  58  91 128 165 211 257 313 376
#     4  12  26  38  61  94 129 159 199 257 309 385
#     4  11  23  40  63  90 121 161 206 252 313 375
#     4  10  23  43  66  92 125 169 217 265 320 380
#     4  10  23  43  66  92 125 169 217 265 320 380
#     4  11  23  40  63  90 121 161 206 252 313 375
#     4  11  23  40  65  96 128 167 218 273 321 374
#     4  12  21  37  62  86 122 164 204 249 307 374
#
# _framework density 19.761972
#
# number of rings (size 3 to 8) (size 9 to 14) (size 15 to 20)
#    0.000    1.000    5.000    1.875    3.500    1.500 
#    0.000    1.875    0.000    3.750    0.000    0.000 
#    0.000    0.000    0.000    0.000    0.000    0.000 
#
# Total GULP energy -396495.324893 kJ/mol
# GULP energy per Si atom -12390.478903 kJ/mol
# Density = 1.971699 g / cm^3
# Si number density = 19.761972 Si / 1000 Ang^3
#
#
#
# Elastic Constant Matrix: (Units=GPa)
#
#
# Indices 1 2 3 4 5 6 
#
# 1 108.2874 30.7154 37.7156 1.0732 0.1881 0.3334
# 2 30.7154 103.9721 46.4711 0.7437 1.5906 0.2302
# 3 37.7156 46.4711 100.0809 -0.2555 -3.1052 -0.0775
# 4 1.0732 0.7437 -0.2555 371.8340 0.3652 109.7774
# 5 0.1881 1.5906 -3.1052 0.3652 35.4918 0.1121
# 6 0.3334 0.2302 -0.0775 109.7774 0.1121 57.6748
#
#
#
# Elastic Compliance Matrix: (Units=1/GPa)
#
#
# Indices 1 2 3 4 5 6 
#
# 1 0.010877 -0.001733 -0.003303 -0.000028 -0.000269 -0.000007
# 2 -0.001733 0.012452 -0.005160 -0.000021 -0.001000 -0.000004
# 3 -0.003303 -0.005160 0.013677 0.000026 0.001445 0.000005
# 4 -0.000028 -0.000021 0.000026 0.006139 -0.000023 -0.011685
# 5 -0.000269 -0.001000 0.001445 -0.000023 0.028348 -0.000004
# 6 -0.000007 -0.000004 0.000005 -0.011685 -0.000004 0.039580
#
#
# Mechanical properties :
#
#
# Convention : Reuss Voigt Hill
#
# Bulk Modulus (GPa) = 60.18562 60.23829 60.21195
# Shear Modulus (GPa) = 36.49528 106.16269 71.32899
#
# Velocity S-wave (km/s) = 4.30204 7.33739 6.01435
# Velocity P-wave (km/s) = 7.42954 10.11589 8.87494
#
# Compressibility (1/GPa) = 0.01661526
#
# Stress axis : x y z
#
# Youngs Moduli (GPa) = 91.93423 80.31156 73.11329
#
# Poissons Ratio (x) = 0.13916 0.24149
# Poissons Ratio (y) = 0.15930 0.37725
# Poissons Ratio (z) = 0.30366 0.41439
#
# Static dielectric constant tensor:
#      x y z
#    x 3.972680 -0.000010 0.128960 
#    y -0.000010 3.662770 -0.000030 
#    z 0.128960 -0.000030 3.644750 
# 
# 
# High freq. dielectric constant tensor:
#      x y z
#    x 1.789250 -0.000010 -0.002340 
#    y -0.000010 1.771370 -0.000010 
#    z -0.002340 -0.000010 1.757290 
# 
# From -- ./inp_files/198867.got.cif
#   From: 2010.06.25/outbox.cif.g09.slc.cpg/sg12_100_cif.got.tgz:198867.got - 2010.06.28 00:19:55.
