data_PCOD8113406
_publ_section_title
;
Structure prediction by ZEFSAII (Michael W. Deem and Ramdas Pophale) SiO2 
 PCOD8113406
Probable space group: C 2/M
;
_chemical_formula_sum "Si O2"
_cell_formula_units_Z 36
_cell_length_a 9.171291
_cell_length_b 9.780322
_cell_length_c 18.610904
_cell_angle_alpha 90.000000
_cell_angle_beta 110.233171
_cell_angle_gamma 90.000000
_cell_volume 1566.352673
_symmetry_space_group_name_H-M "C 2/M"
_symmetry_group_IT_number 12
_symmetry_cell_setting 'monoclinic'
loop_
_space_group_symop_operation_xyz
x,y,z
-x,y,-z
-x,-y,-z
x,-y,z
1/2+x,1/2+y,z
1/2-x,1/2+y,-z
1/2-x,1/2-y,-z
1/2+x,1/2-y,z
loop_
_atom_site_type_symbol
_atom_site_label
_atom_site_fract_x
_atom_site_fract_y
_atom_site_fract_z
Si Si1 0.407621 0.500000 0.671185
Si Si2 0.921215 0.224169 0.554538
Si Si3 0.991277 0.500000 0.782297
Si Si4 0.681569 0.791739 0.896267
Si Si5 0.000000 0.231840 0.000000
Si Si6 0.553552 0.000000 0.633470
Si Si7 0.186943 0.000000 0.827337
O O1 0.432639 0.634389 0.627767
O O2 0.526998 0.500000 0.756762
O O3 0.238122 0.500000 0.678078
O O4 0.750000 0.250000 0.500000
O O5 0.007846 0.367117 0.581203
O O6 0.000000 0.148294 0.500000
O O7 0.095140 0.367296 0.817176
O O8 0.959209 0.500000 0.692287
O O9 0.827730 0.500000 0.794784
O O10 0.856958 0.852136 0.938818
O O11 0.694705 0.631230 0.880331
O O12 0.582152 0.821419 0.951570
#
# Coordination Sequence:
#
# PCOD8113406 Si02
#       7
#     4   8   4   8   4   4   4
#     4  12  28  46  71 104 138 187 230 278 342 413
#     4  12  25  47  75 102 141 178 228 286 343 400
#     4  12  28  47  69 101 144 181 230 286 339 408
#     4  11  25  46  73 100 139 181 231 287 345 408
#     4  10  24  44  72 106 132 182 230 286 350 408
#     4  12  28  47  69 105 142 181 232 282 335 415
#     4  12  28  47  69 102 142 182 234 278 344 410
#
# _framework density 22.983329000000001
#
# number of rings (size 3 to 8) (size 9 to 14) (size 15 to 20)
#    0.000    0.444    4.444    2.667    6.222    8.889 
#    0.000    0.000    0.000    0.000    0.000    0.000 
#    0.000    0.000    0.000    0.000    0.000    0.000 
#
# Total GULP energy -223158.942541 kJ/mol
# GULP energy per Si atom -12397.719030 kJ/mol
# Density = 2.293102 g / cm^3
# Si number density = 22.983329 Si / 1000 Ang^3
#
#
#
# Elastic Constant Matrix: (Units=GPa)
#
#
# Indices 1 2 3 4 5 6 
#
# 1 170.2792 21.4945 48.4158 0.0000 11.3965 0.0000
# 2 21.4945 115.7899 20.9706 0.0000 -0.7513 0.0000
# 3 48.4158 20.9706 111.5552 0.0000 4.9789 0.0000
# 4 0.0000 0.0000 0.0000 -26.9354 0.0000 -1.1570
# 5 11.3965 -0.7513 4.9789 0.0000 55.9723 0.0000
# 6 0.0000 0.0000 0.0000 -1.1570 0.0000 19.0221
#
#
#
# Elastic Compliance Matrix: (Units=1/GPa)
#
#
# Indices 1 2 3 4 5 6 
#
# 1 0.006835 -0.000775 -0.002769 0.000000 -0.001156 0.000000
# 2 -0.000775 0.009033 -0.001380 0.000000 0.000402 0.000000
# 3 -0.002769 -0.001380 0.010443 0.000000 -0.000384 0.000000
# 4 0.000000 0.000000 0.000000 -0.037029 0.000000 -0.002252
# 5 -0.001156 0.000402 -0.000384 0.000000 0.018141 0.000000
# 6 0.000000 0.000000 0.000000 -0.002252 0.000000 0.052434
#
#
# Mechanical properties :
#
#
# Convention : Reuss Voigt Hill
#
# Bulk Modulus (GPa) = 60.74265 64.37624 62.55945
# Shear Modulus (GPa) = 66.49743 30.06135 48.27939
#
# Velocity S-wave (km/s) = 5.38477 3.62050 4.58823
# Velocity P-wave (km/s) = 8.07139 6.74894 7.43961
#
# Compressibility (1/GPa) = 0.01646290
#
# Stress axis : x y z
#
# Youngs Moduli (GPa) = 146.29990 110.70967 95.76208
#
# Poissons Ratio (x) = 0.08578 0.26520
# Poissons Ratio (y) = 0.11335 0.13212
# Poissons Ratio (z) = 0.40515 0.15274
#
# Static dielectric constant tensor:
#      x y z
#    x 5.294750 0.000000 -0.602800 
#    y 0.000000 4.012210 0.000000 
#    z -0.602800 0.000000 4.705940 
# 
# 
# High freq. dielectric constant tensor:
#      x y z
#    x 1.931600 0.000000 0.004300 
#    y 0.000000 1.891170 0.000000 
#    z 0.004300 0.000000 1.924600 
# 
# From -- ./inp_files/254839.got.cif
#   From: 2010.06.25/outbox.cif.g09.slc.cpg/sg12_128_cif.got.tgz:254839.got - 2010.06.28 00:19:55.
