data_PCOD8113994
_publ_section_title
;
Structure prediction by ZEFSAII (Michael W. Deem and Ramdas Pophale) SiO2 
 PCOD8113994
Probable space group: C 2/M
;
_chemical_formula_sum "Si O2"
_cell_formula_units_Z 64
_cell_length_a 14.526109
_cell_length_b 19.612210
_cell_length_c 31.699661
_cell_angle_alpha 90.000000
_cell_angle_beta 159.496167
_cell_angle_gamma 90.000000
_cell_volume 3163.249487
_symmetry_space_group_name_H-M "C 2/M"
_symmetry_group_IT_number 12
_symmetry_cell_setting 'monoclinic'
loop_
_space_group_symop_operation_xyz
x,y,z
-x,y,-z
-x,-y,-z
x,-y,z
1/2+x,1/2+y,z
1/2-x,1/2+y,-z
1/2-x,1/2-y,-z
1/2+x,1/2-y,z
loop_
_atom_site_type_symbol
_atom_site_label
_atom_site_fract_x
_atom_site_fract_y
_atom_site_fract_z
Si Si1 0.179864 0.685717 0.537982
Si Si2 0.360762 0.621338 0.816406
Si Si3 0.499324 0.191406 0.813935
Si Si4 0.648800 0.079221 0.450751
Si Si5 0.255294 0.269595 0.213263
Si Si6 0.668003 0.180645 0.033674
Si Si7 0.975616 0.169707 0.440762
Si Si8 0.867684 0.075575 0.986805
O O1 0.153073 0.622110 0.495522
O O2 0.470998 0.696051 0.682228
O O3 0.095480 0.756556 0.479330
O O4 0.000000 0.667590 0.500000
O O5 0.249151 0.688083 0.792243
O O6 0.601685 0.633542 0.886747
O O7 0.446477 0.574117 0.892311
O O8 0.132498 0.584526 0.692562
O O9 0.282265 0.217263 0.753417
O O10 0.708094 0.250657 0.892916
O O11 0.337157 0.169750 0.702954
O O12 0.631257 0.127102 0.893285
O O13 0.879961 0.108440 0.520888
O O14 0.706703 0.000000 0.485611
O O15 0.020184 0.301196 0.085652
O O16 0.500000 0.145887 0.000000
O O17 0.000000 0.154992 0.500000
O O18 0.754140 0.000000 0.931408
O O19 0.000000 0.100448 0.000000
#
# Coordination Sequence:
#
# PCOD8113994 Si02
#       8
#     8   8   8   8   8   8   8   8
#     4  11  24  42  69  95 128 165 217 270 319 379
#     4  11  22  42  62  91 129 160 212 261 316 385
#     4  11  21  40  60  91 128 158 202 263 315 376
#     4  12  26  44  65  91 132 179 218 260 319 390
#     4  11  20  39  67  94 122 161 206 265 323 369
#     4  11  23  35  66 100 124 157 203 266 326 375
#     4  11  25  41  67  99 127 167 213 270 327 379
#     4  11  24  39  59  86 121 169 210 246 308 383
#
# _framework density 20.232358000000001
#
# number of rings (size 3 to 8) (size 9 to 14) (size 15 to 20)
#    0.000    0.875    5.000    3.375    7.000    1.000 
#    0.000    0.000    0.000    1.500    0.000    0.000 
#    0.000    0.000    0.000    0.000    0.000    0.000 
#
# Total GULP energy -396803.333747 kJ/mol
# GULP energy per Si atom -12400.104180 kJ/mol
# Density = 2.018631 g / cm^3
# Si number density = 20.232358 Si / 1000 Ang^3
#
#
#
# Elastic Constant Matrix: (Units=GPa)
#
#
# Indices 1 2 3 4 5 6 
#
# 1 106.2757 27.8431 27.9960 0.0323 1.7373 0.0188
# 2 27.8431 101.6230 20.0095 0.0297 2.4137 0.0185
# 3 27.9960 20.0095 124.1416 0.0410 2.0018 0.0564
# 4 0.0323 0.0297 0.0410 20.9886 0.0112 -4.5035
# 5 1.7373 2.4137 2.0018 0.0112 27.2892 0.0058
# 6 0.0188 0.0185 0.0564 -4.5035 0.0058 15.8308
#
#
#
# Elastic Compliance Matrix: (Units=1/GPa)
#
#
# Indices 1 2 3 4 5 6 
#
# 1 0.010592 -0.002505 -0.001980 -0.000010 -0.000308 -0.000005
# 2 -0.002505 0.010772 -0.001160 -0.000011 -0.000708 -0.000008
# 3 -0.001980 -0.001160 0.008695 -0.000019 -0.000409 -0.000033
# 4 -0.000010 -0.000011 -0.000019 0.050742 -0.000021 0.014435
# 5 -0.000308 -0.000708 -0.000409 -0.000021 0.036757 -0.000017
# 6 -0.000005 -0.000008 -0.000033 0.014435 -0.000017 0.067275
#
#
# Mechanical properties :
#
#
# Convention : Reuss Voigt Hill
#
# Bulk Modulus (GPa) = 53.27699 53.74861 53.51280
# Shear Modulus (GPa) = 24.70603 29.90116 27.30359
#
# Velocity S-wave (km/s) = 3.49824 3.84850 3.67754
# Velocity P-wave (km/s) = 6.53503 6.80965 6.67375
#
# Compressibility (1/GPa) = 0.01876983
#
# Stress axis : x y z
#
# Youngs Moduli (GPa) = 94.40734 92.83480 115.00299
#
# Poissons Ratio (x) = 0.23255 0.22771
# Poissons Ratio (y) = 0.23649 0.13339
# Poissons Ratio (z) = 0.18693 0.10768
#
# Static dielectric constant tensor:
#      x y z
#    x 3.633880 -0.000020 0.007560 
#    y -0.000020 3.454780 -0.000100 
#    z 0.007560 -0.000100 3.777120 
# 
# 
# High freq. dielectric constant tensor:
#      x y z
#    x 1.795090 0.000000 -0.003250 
#    y 0.000000 1.762770 -0.000010 
#    z -0.003250 -0.000010 1.805860 
# 
# From -- ./inp_files/271737.got.cif
#   From: 2010.06.25/outbox.cif.g09.slc.cpg/sg12_136_cif.got.tgz:271737.got - 2010.06.28 00:19:55.
