data_PCOD8113926
_publ_section_title
;
Structure prediction by ZEFSAII (Michael W. Deem and Ramdas Pophale) SiO2 
 PCOD8113926
Probable space group: C 2/M
;
_chemical_formula_sum "Si O2"
_cell_formula_units_Z 64
_cell_length_a 21.806199
_cell_length_b 20.264170
_cell_length_c 18.495118
_cell_angle_alpha 90.000000
_cell_angle_beta 156.078884
_cell_angle_gamma 90.000000
_cell_volume 3313.856749
_symmetry_space_group_name_H-M "C 2/M"
_symmetry_group_IT_number 12
_symmetry_cell_setting 'monoclinic'
loop_
_space_group_symop_operation_xyz
x,y,z
-x,y,-z
-x,-y,-z
x,-y,z
1/2+x,1/2+y,z
1/2-x,1/2+y,-z
1/2-x,1/2-y,-z
1/2+x,1/2-y,z
loop_
_atom_site_type_symbol
_atom_site_label
_atom_site_fract_x
_atom_site_fract_y
_atom_site_fract_z
Si Si1 0.465156 0.925853 0.687840
Si Si2 0.125579 0.743626 0.086721
Si Si3 0.930974 0.249334 0.493404
Si Si4 0.866497 0.687075 0.056266
Si Si5 0.468463 0.306977 0.252490
Si Si6 0.582260 0.890801 0.658090
Si Si7 0.930612 0.888401 0.000460
Si Si8 0.378855 0.425812 0.663217
O O1 0.548824 0.880914 0.836791
O O2 0.533563 0.922883 0.680959
O O3 0.290610 0.904075 0.499015
O O4 0.483602 0.000000 0.736163
O O5 0.259669 0.765539 0.285884
O O6 0.049999 0.809563 0.972580
O O7 0.169409 0.696136 0.067519
O O8 0.000000 0.706333 0.000000
O O9 0.000000 0.207589 0.500000
O O10 0.937146 0.209802 0.573995
O O11 0.039506 0.313410 0.618195
O O12 0.973492 0.746230 0.201466
O O13 0.707935 0.680609 0.925755
O O14 0.547153 0.373372 0.310870
O O15 0.500000 0.923036 0.500000
O O16 0.756758 0.904597 0.829868
O O17 0.000000 0.914438 0.000000
O O18 0.027763 0.926878 0.163120
O O19 0.383249 0.500000 0.634291
#
# Coordination Sequence:
#
# PCOD8113926 Si02
#       8
#     8   8   8   8   8   8   8   8
#     4  11  26  43  60  86 125 168 211 255 305 369
#     4  11  23  36  60  96 130 159 200 254 314 368
#     4  11  20  37  59  95 130 159 196 257 310 369
#     4  11  22  39  63  96 121 159 210 256 309 366
#     4  11  22  37  67  93 124 160 204 261 308 365
#     4  11  20  36  62  87 124 164 202 245 303 368
#     4  11  21  36  60  89 125 161 203 248 301 370
#     4  11  26  43  59  87 126 167 209 256 309 365
#
# _framework density 19.312844999999999
#
# number of rings (size 3 to 8) (size 9 to 14) (size 15 to 20)
#    0.000    1.000    6.250    1.500    3.500    3.000 
#    0.000    0.000    0.000    1.500    0.000    0.000 
#    0.000    0.000    0.000    0.000    0.000    0.000 
#
# Total GULP energy -396639.041367 kJ/mol
# GULP energy per Si atom -12394.970043 kJ/mol
# Density = 1.926889 g / cm^3
# Si number density = 19.312845 Si / 1000 Ang^3
#
#
#
# Elastic Constant Matrix: (Units=GPa)
#
#
# Indices 1 2 3 4 5 6 
#
# 1 93.2267 40.8517 36.8047 0.0004 9.0531 0.0002
# 2 40.8517 88.5311 43.0183 -0.0012 0.3815 -0.0004
# 3 36.8047 43.0183 108.1449 0.0027 6.4898 0.0015
# 4 0.0004 -0.0012 0.0027 19.2000 0.0023 5.7901
# 5 9.0531 0.3815 6.4898 0.0023 39.7541 0.0014
# 6 0.0002 -0.0004 0.0015 5.7901 0.0014 21.3835
#
#
#
# Elastic Compliance Matrix: (Units=1/GPa)
#
#
# Indices 1 2 3 4 5 6 
#
# 1 0.014370 -0.005360 -0.002590 0.000000 -0.002798 0.000000
# 2 -0.005360 0.016025 -0.004660 0.000001 0.001828 0.000000
# 3 -0.002590 -0.004660 0.012062 -0.000002 -0.001335 0.000000
# 4 0.000000 0.000001 -0.000002 0.056715 -0.000002 -0.015357
# 5 -0.002798 0.001828 -0.001335 -0.000002 0.025992 -0.000001
# 6 0.000000 0.000000 0.000000 -0.015357 -0.000001 0.050923
#
#
# Mechanical properties :
#
#
# Convention : Reuss Voigt Hill
#
# Bulk Modulus (GPa) = 58.01729 59.02800 58.52265
# Shear Modulus (GPa) = 24.14833 27.34936 25.74885
#
# Velocity S-wave (km/s) = 3.53990 3.76722 3.65533
# Velocity P-wave (km/s) = 6.84207 7.03940 6.94143
#
# Compressibility (1/GPa) = 0.01723624
#
# Stress axis : x y z
#
# Youngs Moduli (GPa) = 69.59131 62.40131 82.90330
#
# Poissons Ratio (x) = 0.33447 0.21475
# Poissons Ratio (y) = 0.37301 0.38634
# Poissons Ratio (z) = 0.18027 0.29080
#
# Static dielectric constant tensor:
#      x y z
#    x 3.747170 0.000000 0.069070 
#    y 0.000000 3.266210 0.000000 
#    z 0.069070 0.000000 3.619000 
# 
# 
# High freq. dielectric constant tensor:
#      x y z
#    x 1.756210 0.000000 0.009790 
#    y 0.000000 1.718630 0.000000 
#    z 0.009790 0.000000 1.763600 
# 
# From -- ./inp_files/326127.got.cif
#   From: 2010.06.25/outbox.cif.g09.slc.cpg/sg12_164_cif.got.tgz:326127.got - 2010.06.28 00:19:55.
