data_PCOD8113646
_publ_section_title
;
Structure prediction by ZEFSAII (Michael W. Deem and Ramdas Pophale) SiO2 
 PCOD8113646
Probable space group: C 2/M
;
_chemical_formula_sum "Si O2"
_cell_formula_units_Z 64
_cell_length_a 22.622146
_cell_length_b 14.592120
_cell_length_c 11.615415
_cell_angle_alpha 90.000000
_cell_angle_beta 78.865044
_cell_angle_gamma 90.000000
_cell_volume 3762.126628
_symmetry_space_group_name_H-M "C 2/M"
_symmetry_group_IT_number 12
_symmetry_cell_setting 'monoclinic'
loop_
_space_group_symop_operation_xyz
x,y,z
-x,y,-z
-x,-y,-z
x,-y,z
1/2+x,1/2+y,z
1/2-x,1/2+y,-z
1/2-x,1/2-y,-z
1/2+x,1/2-y,z
loop_
_atom_site_type_symbol
_atom_site_label
_atom_site_fract_x
_atom_site_fract_y
_atom_site_fract_z
Si Si1 0.850621 0.736442 0.243014
Si Si2 0.677992 0.747764 0.012223
Si Si3 0.952827 0.603518 0.175218
Si Si4 0.643018 0.394698 0.207632
Si Si5 0.340834 0.604984 0.418207
Si Si6 0.752304 0.897362 0.648287
Si Si7 0.063255 0.109233 0.437004
Si Si8 0.414680 0.898264 0.925810
O O1 0.913094 0.683480 0.249413
O O2 0.845642 0.835702 0.301811
O O3 0.799966 0.673952 0.316844
O O4 0.840033 0.756417 0.113433
O O5 0.651503 0.659553 0.086447
O O6 0.643148 0.834870 0.081397
O O7 0.750000 0.750000 0.000000
O O8 0.943263 0.500000 0.229996
O O9 0.023294 0.631741 0.161738
O O10 0.930218 0.601272 0.053550
O O11 0.637404 0.500000 0.173271
O O12 0.698101 0.378440 0.273306
O O13 0.583055 0.361470 0.300019
O O14 0.353273 0.500000 0.377692
O O15 0.277397 0.613274 0.509022
O O16 0.389843 0.645177 0.487327
O O17 0.726864 0.000000 0.674972
O O18 0.000000 0.152070 0.500000
O O19 0.062951 0.000000 0.440860
O O20 0.395928 0.000000 0.892599
#
# Coordination Sequence:
#
# PCOD8113646 Si02
#       8
#     8   8   8   8   8   8   8   8
#     4  11  19  29  50  73 102 129 164 209 258 302
#     4  11  21  31  45  73 104 136 172 199 241 315
#     4   8  15  29  48  71  90 117 163 207 249 288
#     4   9  18  32  48  68  98 130 163 208 250 290
#     4   9  19  32  46  70 101 129 160 203 258 308
#     4   9  17  32  51  68  90 124 169 219 256 286
#     4   8  15  31  54  72  87 119 169 213 242 283
#     4   8  16  31  48  65  94 127 160 206 245 281
#
# _framework density 17.011655999999999
#
# number of rings (size 3 to 8) (size 9 to 14) (size 15 to 20)
#    0.000    2.875    1.250    3.000    0.000    2.500 
#    0.000    0.000    0.000    0.000    0.000    7.000 
#    0.000    9.500    0.000    0.000    0.000    0.000 
#
# Total GULP energy -396475.333151 kJ/mol
# GULP energy per Si atom -12389.854161 kJ/mol
# Density = 1.697294 g / cm^3
# Si number density = 17.011656 Si / 1000 Ang^3
#
#
#
# Elastic Constant Matrix: (Units=GPa)
#
#
# Indices 1 2 3 4 5 6 
#
# 1 97.1256 54.5695 38.6159 0.0000 -24.2008 0.0000
# 2 54.5695 101.1683 50.3719 0.0000 -14.8113 0.0000
# 3 38.6159 50.3719 74.4572 0.0000 -15.2810 0.0000
# 4 0.0000 0.0000 0.0000 29.8478 0.0000 -5.8208
# 5 -24.2008 -14.8113 -15.2810 0.0000 21.7266 0.0000
# 6 0.0000 0.0000 0.0000 -5.8208 0.0000 25.4604
#
#
#
# Elastic Compliance Matrix: (Units=1/GPa)
#
#
# Indices 1 2 3 4 5 6 
#
# 1 0.018610 -0.006915 -0.001971 0.000000 0.014629 0.000000
# 2 -0.006915 0.017718 -0.008767 0.000000 -0.001790 0.000000
# 3 -0.001971 -0.008767 0.021863 0.000000 0.007204 0.000000
# 4 0.000000 0.000000 0.000000 0.035067 0.000000 0.008017
# 5 0.014629 -0.001790 0.007204 0.000000 0.066167 0.000000
# 6 0.000000 0.000000 0.000000 0.008017 0.000000 0.041109
#
#
# Mechanical properties :
#
#
# Convention : Reuss Voigt Hill
#
# Bulk Modulus (GPa) = 43.70094 62.20731 52.95412
# Shear Modulus (GPa) = 20.53655 24.01989 22.27822
#
# Velocity S-wave (km/s) = 3.47825 3.76169 3.62275
# Velocity P-wave (km/s) = 6.47114 7.45077 6.97816
#
# Compressibility (1/GPa) = 0.02288280
#
# Stress axis : x y z
#
# Youngs Moduli (GPa) = 53.73520 56.44130 45.73973
#
# Poissons Ratio (x) = 0.39028 0.09017
# Poissons Ratio (y) = 0.37157 0.40102
# Poissons Ratio (z) = 0.10593 0.49485
#
# Static dielectric constant tensor:
#      x y z
#    x 3.346760 0.000000 -0.372620 
#    y 0.000000 3.187340 0.000000 
#    z -0.372620 0.000000 3.053080 
# 
# 
# High freq. dielectric constant tensor:
#      x y z
#    x 1.650820 0.000000 -0.028410 
#    y 0.000000 1.647120 0.000000 
#    z -0.028410 0.000000 1.635040 
# 
# From -- ./inp_files/174609.got.cif
#   From: 2010.06.25/outbox.cif.g09.slc.cpg/sg12_88_cif.got.tgz:174609.got - 2010.06.28 00:19:55.
