data_PCOD8113600
_publ_section_title
;
Structure prediction by ZEFSAII (Michael W. Deem and Ramdas Pophale) SiO2 
 PCOD8113600
Probable space group: C 2/M
;
_chemical_formula_sum "Si O2"
_cell_formula_units_Z 40
_cell_length_a 20.466527
_cell_length_b 20.217823
_cell_length_c 10.631730
_cell_angle_alpha 90.000000
_cell_angle_beta 29.547859
_cell_angle_gamma 90.000000
_cell_volume 2169.511048
_symmetry_space_group_name_H-M "C 2/M"
_symmetry_group_IT_number 12
_symmetry_cell_setting 'monoclinic'
loop_
_space_group_symop_operation_xyz
x,y,z
-x,y,-z
-x,-y,-z
x,-y,z
1/2+x,1/2+y,z
1/2-x,1/2+y,-z
1/2-x,1/2-y,-z
1/2+x,1/2-y,z
loop_
_atom_site_type_symbol
_atom_site_label
_atom_site_fract_x
_atom_site_fract_y
_atom_site_fract_z
Si Si1 0.874265 0.571969 0.340245
Si Si2 0.707192 0.500000 0.210334
Si Si3 0.430152 0.500000 0.810869
Si Si4 0.615761 0.395881 0.905635
Si Si5 0.649354 0.116447 0.896298
Si Si6 0.849896 0.748695 0.212306
O O1 0.941125 0.500000 0.226114
O O2 0.751325 0.570182 0.638498
O O3 0.820802 0.588948 0.292282
O O4 0.991617 0.620038 0.189526
O O5 0.569315 0.500000 0.510723
O O6 0.688504 0.500000 0.091483
O O7 0.781103 0.568849 0.119487
O O8 0.424266 0.431697 0.898856
O O9 0.645506 0.317928 0.869707
O O10 0.500000 0.408888 0.000000
O O11 0.700342 0.192867 0.803975
O O12 0.750000 0.750000 0.500000
O O13 0.000000 0.729701 0.000000
#
# Coordination Sequence:
#
# PCOD8113600 Si02
#       6
#     8   4   4   8   8   8
#     4  11  18  32  56  87 114 135 185 235 288 340
#     4  11  24  40  59  77 110 164 192 231 285 332
#     4  11  25  41  55  82 112 148 208 235 268 355
#     4  11  22  35  59  85 116 145 182 245 294 322
#     4  11  19  35  57  84 117 146 183 230 288 344
#     4  11  21  34  55  92 121 144 181 234 296 349
#
# _framework density 18.437334
#
# number of rings (size 3 to 8) (size 9 to 14) (size 15 to 20)
#    0.000    1.000    7.000    2.100    2.800    0.000 
#    0.000    3.000    0.000    0.000    0.000    0.000 
#    0.000    0.000    0.000    0.000    0.000    0.000 
#
# Total GULP energy -247828.697667 kJ/mol
# GULP energy per Si atom -12391.434883 kJ/mol
# Density = 1.839537 g / cm^3
# Si number density = 18.437334 Si / 1000 Ang^3
#
#
#
# Elastic Constant Matrix: (Units=GPa)
#
#
# Indices 1 2 3 4 5 6 
#
# 1 101.1724 54.8387 28.4746 -0.0009 5.7151 0.0002
# 2 54.8387 167.0288 26.9873 -0.0007 9.1115 0.0002
# 3 28.4746 26.9873 84.6047 -0.0026 -6.6264 0.0009
# 4 -0.0009 -0.0007 -0.0026 19.8266 0.0010 -5.0202
# 5 5.7151 9.1115 -6.6264 0.0010 19.9921 -0.0002
# 6 0.0002 0.0002 0.0009 -5.0202 -0.0002 14.1047
#
#
#
# Elastic Compliance Matrix: (Units=1/GPa)
#
#
# Indices 1 2 3 4 5 6 
#
# 1 0.012955 -0.003511 -0.003496 0.000000 -0.003262 0.000000
# 2 -0.003511 0.007532 -0.001449 0.000000 -0.002910 0.000000
# 3 -0.003496 -0.001449 0.013951 0.000001 0.006284 0.000000
# 4 0.000000 0.000000 0.000001 0.055433 -0.000002 0.019730
# 5 -0.003262 -0.002910 0.006284 -0.000002 0.054361 0.000000
# 6 0.000000 0.000000 0.000000 0.019730 0.000000 0.077921
#
#
# Mechanical properties :
#
#
# Convention : Reuss Voigt Hill
#
# Bulk Modulus (GPa) = 57.05449 63.71190 60.38320
# Shear Modulus (GPa) = 20.41594 26.95170 23.68382
#
# Velocity S-wave (km/s) = 3.33124 3.82750 3.58796
# Velocity P-wave (km/s) = 6.76820 7.35961 7.07009
#
# Compressibility (1/GPa) = 0.01752710
#
# Stress axis : x y z
#
# Youngs Moduli (GPa) = 77.18920 132.75889 71.68141
#
# Poissons Ratio (x) = 0.46607 0.25059
# Poissons Ratio (y) = 0.27098 0.10387
# Poissons Ratio (z) = 0.26984 0.19237
#
# Static dielectric constant tensor:
#      x y z
#    x 3.167660 0.000000 -0.172900 
#    y 0.000000 3.853010 0.000000 
#    z -0.172900 0.000000 3.447180 
# 
# 
# High freq. dielectric constant tensor:
#      x y z
#    x 1.660640 0.000000 -0.024720 
#    y 0.000000 1.738170 0.000000 
#    z -0.024720 0.000000 1.725850 
# 
# From -- ./inp_files/77211.got.cif
#   From: 2010.06.25/outbox.cif.g09.slc.cpg/sg12_39_cif.got.tgz:77211.got - 2010.06.28 00:19:55.
