data_PCOD8113604
_publ_section_title
;
Structure prediction by ZEFSAII (Michael W. Deem and Ramdas Pophale) SiO2 
 PCOD8113604
Probable space group: C 2/M
;
_chemical_formula_sum "Si O2"
_cell_formula_units_Z 64
_cell_length_a 22.715687
_cell_length_b 23.452498
_cell_length_c 8.571097
_cell_angle_alpha 90.000000
_cell_angle_beta 61.481816
_cell_angle_gamma 90.000000
_cell_volume 4012.130342
_symmetry_space_group_name_H-M "C 2/M"
_symmetry_group_IT_number 12
_symmetry_cell_setting 'monoclinic'
loop_
_space_group_symop_operation_xyz
x,y,z
-x,y,-z
-x,-y,-z
x,-y,z
1/2+x,1/2+y,z
1/2-x,1/2+y,-z
1/2-x,1/2-y,-z
1/2+x,1/2-y,z
loop_
_atom_site_type_symbol
_atom_site_label
_atom_site_fract_x
_atom_site_fract_y
_atom_site_fract_z
Si Si1 0.073304 0.719735 0.468225
Si Si2 0.357785 0.860476 0.097906
Si Si3 0.200380 0.700932 0.114510
Si Si4 0.790553 0.434579 0.437664
Si Si5 0.261763 0.669261 0.350179
Si Si6 0.585624 0.088483 0.505382
Si Si7 0.555703 0.938411 0.201480
Si Si8 0.354521 0.237623 0.330469
O O1 0.129289 0.727726 0.262395
O O2 0.073207 0.655431 0.528987
O O3 0.092344 0.754990 0.601273
O O4 0.000000 0.738548 0.500000
O O5 0.315343 0.907915 0.243931
O O6 0.383627 0.806395 0.165451
O O7 0.310149 0.840220 0.018270
O O8 0.424670 0.889778 0.946087
O O9 0.236225 0.664368 0.204877
O O10 0.250000 0.750000 0.000000
O O11 0.765940 0.500000 0.445628
O O12 0.731372 0.394205 0.583572
O O13 0.849615 0.432519 0.487952
O O14 0.331730 0.703605 0.275314
O O15 0.207417 0.704884 0.514701
O O16 0.523234 0.059895 0.669669
O O17 0.594115 0.070711 0.315703
O O18 0.576712 0.000000 0.106656
#
# Coordination Sequence:
#
# PCOD8113604 Si02
#       8
#     8   8   8   8   8   8   8   8
#     4  11  19  35  51  70  98 134 172 208 255 303
#     4  11  19  31  45  69  92 121 168 220 255 280
#     4  11  19  31  53  75  96 128 171 211 261 309
#     4  11  21  32  46  67  95 131 172 211 247 290
#     4   9  17  33  51  69  92 125 167 201 253 310
#     4  11  18  33  46  59  89 137 182 205 239 287
#     4  11  21  31  43  60  91 133 178 215 242 280
#     4   9  18  31  52  69  89 124 162 210 253 303
#
# _framework density 15.951625999999999
#
# number of rings (size 3 to 8) (size 9 to 14) (size 15 to 20)
#    0.000    1.500    7.500    1.875    1.750    0.500 
#    2.250    1.875    0.000    0.000    0.000    0.000 
#    0.000    0.500    0.000    1.125    0.000    0.125 
#
# Total GULP energy -396628.770511 kJ/mol
# GULP energy per Si atom -12394.649078 kJ/mol
# Density = 1.591532 g / cm^3
# Si number density = 15.951626 Si / 1000 Ang^3
#
#
#
# Elastic Constant Matrix: (Units=GPa)
#
#
# Indices 1 2 3 4 5 6 
#
# 1 71.6178 34.5263 26.1958 0.0000 5.3624 0.0000
# 2 34.5263 84.0922 42.6929 0.0000 1.5446 0.0000
# 3 26.1958 42.6929 82.9772 0.0000 4.0673 0.0000
# 4 0.0000 0.0000 0.0000 11.3595 0.0000 -15.6649
# 5 5.3624 1.5446 4.0673 0.0000 15.0311 0.0000
# 6 0.0000 0.0000 0.0000 -15.6649 0.0000 -2.2362
#
#
#
# Elastic Compliance Matrix: (Units=1/GPa)
#
#
# Indices 1 2 3 4 5 6 
#
# 1 0.018185 -0.006207 -0.002291 0.000000 -0.005230 0.000000
# 2 -0.006207 0.018220 -0.007532 0.000000 0.002380 0.000000
# 3 -0.002291 -0.007532 0.016795 0.000000 -0.002953 0.000000
# 4 0.000000 0.000000 0.000000 0.008258 0.000000 -0.057849
# 5 -0.005230 0.002380 -0.002953 0.000000 0.068949 0.000000
# 6 0.000000 0.000000 0.000000 -0.057849 0.000000 -0.041949
#
#
# Mechanical properties :
#
#
# Convention : Reuss Voigt Hill
#
# Bulk Modulus (GPa) = 47.30290 49.50191 48.40240
# Shear Modulus (GPa) = 39.19608 13.84903 26.52255
#
# Velocity S-wave (km/s) = 4.96238 2.94970 4.08203
# Velocity P-wave (km/s) = 7.90898 6.53459 7.25441
#
# Compressibility (1/GPa) = 0.02114035
#
# Stress axis : x y z
#
# Youngs Moduli (GPa) = 54.99043 54.88385 59.54271
#
# Poissons Ratio (x) = 0.34067 0.13641
# Poissons Ratio (y) = 0.34134 0.44846
# Poissons Ratio (z) = 0.12598 0.41337
#
# Static dielectric constant tensor:
#      x y z
#    x 3.261380 0.000000 0.166070 
#    y 0.000000 3.186110 0.000000 
#    z 0.166070 0.000000 3.232840 
# 
# 
# High freq. dielectric constant tensor:
#      x y z
#    x 1.587680 0.000000 0.029470 
#    y 0.000000 1.592420 0.000000 
#    z 0.029470 0.000000 1.613580 
# 
# From -- ./inp_files/106239.got.cif
#   From: 2010.06.25/outbox.cif.g09.slc.cpg/sg12_54_cif.got.tgz:106239.got - 2010.06.28 00:19:55.
