data_PCOD8113195
_publ_section_title
;
Structure prediction by ZEFSAII (Michael W. Deem and Ramdas Pophale) SiO2 
 PCOD8113195
Probable space group: C 2/M
;
_chemical_formula_sum "Si O2"
_cell_formula_units_Z 56
_cell_length_a 16.046274
_cell_length_b 18.963425
_cell_length_c 20.305866
_cell_angle_alpha 90.000000
_cell_angle_beta 153.776857
_cell_angle_gamma 90.000000
_cell_volume 2730.268031
_symmetry_space_group_name_H-M "C 2/M"
_symmetry_group_IT_number 12
_symmetry_cell_setting 'monoclinic'
loop_
_space_group_symop_operation_xyz
x,y,z
-x,y,-z
-x,-y,-z
x,-y,z
1/2+x,1/2+y,z
1/2-x,1/2+y,-z
1/2-x,1/2-y,-z
1/2+x,1/2-y,z
loop_
_atom_site_type_symbol
_atom_site_label
_atom_site_fract_x
_atom_site_fract_y
_atom_site_fract_z
Si Si1 0.144861 0.076493 0.508798
Si Si2 0.798331 0.822136 0.568477
Si Si3 0.943262 0.082248 0.884088
Si Si4 0.640531 0.220854 0.155278
Si Si5 0.072502 0.329612 0.622146
Si Si6 0.272442 0.076901 0.736224
Si Si7 0.060940 0.203477 0.876431
O O1 0.132906 0.126915 0.439125
O O2 0.283877 0.100499 0.667117
O O3 0.941252 0.069730 0.395254
O O4 0.212810 0.000000 0.531724
O O5 0.750000 0.750000 0.500000
O O6 0.608098 0.855221 0.464652
O O7 0.969449 0.815054 0.741420
O O8 0.726229 0.107978 0.724597
O O9 0.079040 0.130302 0.932552
O O10 0.958451 0.000000 0.873367
O O11 0.000000 0.092186 0.000000
O O12 0.841587 0.258187 0.283334
O O13 0.635088 0.136227 0.152119
O O14 0.582331 0.247245 0.185990
O O15 0.500000 0.248603 0.000000
O O16 0.000000 0.306022 0.500000
O O17 0.371915 0.000000 0.816737
O O18 0.250000 0.250000 0.000000
#
# Coordination Sequence:
#
# PCOD8113195 Si02
#       7
#     8   8   8   8   8   8   8
#     4   9  20  37  60  88 121 157 194 254 320 370
#     4  12  24  36  63  98 123 160 214 265 314 377
#     4  10  23  46  71  93 126 178 222 262 326 397
#     4  11  23  39  64  87 120 170 211 254 312 379
#     4  11  22  41  62  95 124 164 215 268 321 376
#     4   9  19  39  61  85 120 160 205 252 312 377
#     4  11  25  42  61  94 132 166 203 263 322 376
#
# _framework density 20.510807
#
# number of rings (size 3 to 8) (size 9 to 14) (size 15 to 20)
#    0.000    1.571    2.857    4.286    8.000    1.714 
#    0.000    0.714    0.000    0.000    0.000    0.000 
#    0.000    0.000    0.000    0.000    0.000    0.000 
#
# Total GULP energy -346907.445329 kJ/mol
# GULP energy per Si atom -12389.551619 kJ/mol
# Density = 2.046412 g / cm^3
# Si number density = 20.510807 Si / 1000 Ang^3
#
#
#
# Elastic Constant Matrix: (Units=GPa)
#
#
# Indices 1 2 3 4 5 6 
#
# 1 88.0252 42.3629 36.7320 -0.0360 -10.5951 -0.0894
# 2 42.3629 153.8436 48.2429 0.1694 -12.2357 -0.0590
# 3 36.7320 48.2429 111.5464 0.2901 -13.2764 -0.2817
# 4 -0.0360 0.1694 0.2901 11.8581 0.1471 23.0168
# 5 -10.5951 -12.2357 -13.2764 0.1471 33.0059 -0.1726
# 6 -0.0894 -0.0590 -0.2817 23.0168 -0.1726 -11.7374
#
#
#
# Elastic Compliance Matrix: (Units=1/GPa)
#
#
# Indices 1 2 3 4 5 6 
#
# 1 0.014311 -0.002739 -0.003258 0.000048 0.002268 0.000044
# 2 -0.002739 0.008121 -0.002475 -0.000025 0.001136 -0.000027
# 3 -0.003258 -0.002475 0.011421 0.000052 0.002629 -0.000174
# 4 0.000048 -0.000025 0.000052 0.017547 0.000129 0.034405
# 5 0.002268 0.001136 0.002629 0.000129 0.032502 -0.000312
# 6 0.000044 -0.000027 -0.000174 0.034405 -0.000312 -0.017721
#
#
# Mechanical properties :
#
#
# Convention : Reuss Voigt Hill
#
# Bulk Modulus (GPa) = 59.14220 67.56564 63.35392
# Shear Modulus (GPa) = 56.33134 21.69715 39.01425
#
# Velocity S-wave (km/s) = 5.24632 3.25597 4.36607
# Velocity P-wave (km/s) = 8.09912 6.86645 7.50812
#
# Compressibility (1/GPa) = 0.01690840
#
# Stress axis : x y z
#
# Youngs Moduli (GPa) = 69.87600 123.14143 87.56064
#
# Poissons Ratio (x) = 0.33724 0.28529
# Poissons Ratio (y) = 0.19137 0.21673
# Poissons Ratio (z) = 0.22767 0.30479
#
# Static dielectric constant tensor:
#      x y z
#    x 3.964880 -0.000250 0.026940 
#    y -0.000250 3.928990 -0.000160 
#    z 0.026940 -0.000160 3.639840 
# 
# 
# High freq. dielectric constant tensor:
#      x y z
#    x 1.796600 0.000000 -0.016290 
#    y 0.000000 1.808520 -0.000020 
#    z -0.016290 -0.000020 1.794410 
# 
# From -- ./inp_files/64075.got.cif
#   From: 2010.06.25/outbox.cif.g09.slc.cpg/sg12_33_cif.got.tgz:64075.got - 2010.06.28 00:19:55.
