data_PCOD8113363
_publ_section_title
;
Structure prediction by ZEFSAII (Michael W. Deem and Ramdas Pophale) SiO2 
 PCOD8113363
Probable space group: C 2/M
;
_chemical_formula_sum "Si O2"
_cell_formula_units_Z 44
_cell_length_a 9.123679
_cell_length_b 22.717570
_cell_length_c 10.699356
_cell_angle_alpha 90.000000
_cell_angle_beta 62.103805
_cell_angle_gamma 90.000000
_cell_volume 1959.935987
_symmetry_space_group_name_H-M "C 2/M"
_symmetry_group_IT_number 12
_symmetry_cell_setting 'monoclinic'
loop_
_space_group_symop_operation_xyz
x,y,z
-x,y,-z
-x,-y,-z
x,-y,z
1/2+x,1/2+y,z
1/2-x,1/2+y,-z
1/2-x,1/2-y,-z
1/2+x,1/2-y,z
loop_
_atom_site_type_symbol
_atom_site_label
_atom_site_fract_x
_atom_site_fract_y
_atom_site_fract_z
Si Si1 0.367629 0.298366 0.794311
Si Si2 0.354952 0.875536 0.264020
Si Si3 0.505348 0.500000 0.647236
Si Si4 0.819747 0.669488 0.747612
Si Si5 0.161660 0.876157 0.588383
Si Si6 0.628451 0.000000 0.836671
Si Si7 0.000000 0.179457 0.000000
O O1 0.219462 0.346581 0.833126
O O2 0.302823 0.240310 0.749229
O O3 0.530231 0.324494 0.664008
O O4 0.408235 0.284246 0.924348
O O5 0.516286 0.841083 0.240549
O O6 0.209190 0.873751 0.424599
O O7 0.411917 0.942416 0.226634
O O8 0.500000 0.500000 0.500000
O O9 0.598559 0.440905 0.653617
O O10 0.325744 0.500000 0.787558
O O11 0.823467 0.640406 0.608292
O O12 0.651289 0.642171 0.878968
O O13 0.500000 0.000000 0.000000
#
# Coordination Sequence:
#
# PCOD8113363 Si02
#       7
#     8   8   4   8   8   4   4
#     4  11  23  42  69 102 139 189 231 286 348 426
#     4  12  24  43  71 100 141 182 233 295 349 417
#     4  12  20  47  71  95 133 192 244 278 348 428
#     4  11  26  40  65 105 143 180 234 291 349 421
#     4  11  23  42  71 101 136 189 232 288 356 413
#     4  12  28  43  71 107 133 181 243 292 346 412
#     4  10  24  44  62  93 140 201 232 268 358 418
#
# _framework density 22.449714
#
# number of rings (size 3 to 8) (size 9 to 14) (size 15 to 20)
#    0.000    0.727    3.636    3.818    2.545    5.091 
#    0.000    1.818    0.000    4.364    0.000    0.000 
#    0.000    0.000    0.000    0.000    0.000    0.000 
#
# Total GULP energy -272649.322239 kJ/mol
# GULP energy per Si atom -12393.151011 kJ/mol
# Density = 2.239862 g / cm^3
# Si number density = 22.449714 Si / 1000 Ang^3
#
#
#
# Elastic Constant Matrix: (Units=GPa)
#
#
# Indices 1 2 3 4 5 6 
#
# 1 122.4863 34.9274 35.3486 0.0000 8.0499 0.0000
# 2 34.9274 123.2561 33.7554 0.0000 13.2783 0.0000
# 3 35.3486 33.7554 98.1164 0.0000 3.7915 0.0000
# 4 0.0000 0.0000 0.0000 15.1875 0.0000 8.6361
# 5 8.0499 13.2783 3.7915 0.0000 44.1321 0.0000
# 6 0.0000 0.0000 0.0000 8.6361 0.0000 17.5960
#
#
#
# Elastic Compliance Matrix: (Units=1/GPa)
#
#
# Indices 1 2 3 4 5 6 
#
# 1 0.009552 -0.001846 -0.002770 0.000000 -0.000949 0.000000
# 2 -0.001846 0.009583 -0.002542 0.000000 -0.002328 0.000000
# 3 -0.002770 -0.002542 0.012055 0.000000 0.000234 0.000000
# 4 0.000000 0.000000 0.000000 0.091333 0.000000 -0.044826
# 5 -0.000949 -0.002328 0.000234 0.000000 0.023513 0.000000
# 6 0.000000 0.000000 0.000000 -0.044826 0.000000 0.078831
#
#
# Mechanical properties :
#
#
# Convention : Reuss Voigt Hill
#
# Bulk Modulus (GPa) = 59.25743 61.32462 60.29102
# Shear Modulus (GPa) = 20.42417 31.37163 25.89790
#
# Velocity S-wave (km/s) = 3.01952 3.74226 3.40015
# Velocity P-wave (km/s) = 6.21366 6.78590 6.50607
#
# Compressibility (1/GPa) = 0.01687552
#
# Stress axis : x y z
#
# Youngs Moduli (GPa) = 104.68723 104.34839 82.95148
#
# Poissons Ratio (x) = 0.19264 0.22974
# Poissons Ratio (y) = 0.19327 0.21085
# Poissons Ratio (z) = 0.28994 0.26524
#
# Static dielectric constant tensor:
#      x y z
#    x 4.279600 0.000000 0.049000 
#    y 0.000000 4.253050 0.000000 
#    z 0.049000 0.000000 4.224990 
# 
# 
# High freq. dielectric constant tensor:
#      x y z
#    x 1.898630 0.000000 -0.010570 
#    y 0.000000 1.872890 0.000000 
#    z -0.010570 0.000000 1.881760 
# 
# From -- ./inp_files/122380.got.cif
#   From: 2010.06.25/outbox.cif.g09.slc.cpg/sg12_62_cif.got.tgz:122380.got - 2010.06.28 00:19:55.
