data_PCOD8113120
_publ_section_title
;
Structure prediction by ZEFSAII (Michael W. Deem and Ramdas Pophale) SiO2 
 PCOD8113120
Probable space group: C 2/M
;
_chemical_formula_sum "Si O2"
_cell_formula_units_Z 44
_cell_length_a 17.656205
_cell_length_b 23.865967
_cell_length_c 5.027088
_cell_angle_alpha 90.000000
_cell_angle_beta 79.996926
_cell_angle_gamma 90.000000
_cell_volume 2086.124559
_symmetry_space_group_name_H-M "C 2/M"
_symmetry_group_IT_number 12
_symmetry_cell_setting 'monoclinic'
loop_
_space_group_symop_operation_xyz
x,y,z
-x,y,-z
-x,-y,-z
x,-y,z
1/2+x,1/2+y,z
1/2-x,1/2+y,-z
1/2-x,1/2-y,-z
1/2+x,1/2-y,z
loop_
_atom_site_type_symbol
_atom_site_label
_atom_site_fract_x
_atom_site_fract_y
_atom_site_fract_z
Si Si1 0.812827 0.859202 0.408723
Si Si2 0.172409 0.783209 0.087639
Si Si3 0.860378 0.615049 0.441683
Si Si4 0.055736 0.500000 0.711666
Si Si5 0.917192 0.324510 0.916240
Si Si6 0.451361 0.563518 0.267768
O O1 0.821338 0.823209 0.666645
O O2 0.727848 0.883901 0.408037
O O3 0.868349 0.911777 0.378196
O O4 0.843220 0.820095 0.157690
O O5 0.103024 0.738585 0.161844
O O6 0.250000 0.750000 0.000000
O O7 0.888853 0.554039 0.330294
O O8 0.912972 0.636576 0.655373
O O9 0.860018 0.655140 0.183488
O O10 0.000000 0.500000 0.500000
O O11 0.000000 0.500000 0.000000
O O12 0.000000 0.328921 0.000000
O O13 0.500000 0.569968 0.500000
O O14 0.435295 0.500000 0.194510
O O15 0.500000 0.592931 0.000000
#
# Coordination Sequence:
#
# PCOD8113120 Si02
#       6
#     8   8   8   4   8   8
#     4  12  24  41  71  96 133 170 220 272 317 395
#     4  12  23  43  64  95 133 171 216 268 328 370
#     4  12  24  43  67  96 129 172 218 267 326 381
#     4  12  26  44  66  94 132 170 214 274 320 380
#     4  12  25  42  66  94 131 176 217 261 323 392
#     4  10  23  44  68  97 134 171 210 269 334 387
#
# _framework density 21.091739
#
# number of rings (size 3 to 8) (size 9 to 14) (size 15 to 20)
#    0.000    0.364    3.636    6.000    1.273    2.182 
#    0.000    0.000    0.000    0.000    0.000    0.000 
#    0.000    0.000    0.000    0.000    0.000    0.000 
#
# Total GULP energy -272835.121862 kJ/mol
# GULP energy per Si atom -12401.596448 kJ/mol
# Density = 2.104373 g / cm^3
# Si number density = 21.091739 Si / 1000 Ang^3
#
#
#
# Elastic Constant Matrix: (Units=GPa)
#
#
# Indices 1 2 3 4 5 6 
#
# 1 111.6646 74.6294 32.9279 0.0000 -4.7470 0.0000
# 2 74.6294 114.2118 58.0242 0.0000 1.9721 0.0000
# 3 32.9279 58.0242 144.1694 0.0000 6.7950 0.0000
# 4 0.0000 0.0000 0.0000 53.5731 0.0000 14.3197
# 5 -4.7470 1.9721 6.7950 0.0000 33.5335 0.0000
# 6 0.0000 0.0000 0.0000 14.3197 0.0000 59.6858
#
#
#
# Elastic Compliance Matrix: (Units=1/GPa)
#
#
# Indices 1 2 3 4 5 6 
#
# 1 0.016214 -0.010929 0.000562 0.000000 0.002824 0.000000
# 2 -0.010929 0.018375 -0.004821 0.000000 -0.001651 0.000000
# 3 0.000562 -0.004821 0.008815 0.000000 -0.001423 0.000000
# 4 0.000000 0.000000 0.000000 0.019945 0.000000 -0.004785
# 5 0.002824 -0.001651 -0.001423 0.000000 0.030606 0.000000
# 6 0.000000 0.000000 0.000000 -0.004785 0.000000 0.017902
#
#
# Mechanical properties :
#
#
# Convention : Reuss Voigt Hill
#
# Bulk Modulus (GPa) = 76.75808 77.91210 77.33509
# Shear Modulus (GPa) = 34.11167 42.98944 38.55056
#
# Velocity S-wave (km/s) = 4.02593 4.51955 4.27986
# Velocity P-wave (km/s) = 7.62117 8.01592 7.82104
#
# Compressibility (1/GPa) = 0.01302794
#
# Stress axis : x y z
#
# Youngs Moduli (GPa) = 61.67528 54.42143 113.43746
#
# Poissons Ratio (x) = 0.59478 -0.06379
# Poissons Ratio (y) = 0.67406 0.54694
# Poissons Ratio (z) = -0.03468 0.26239
#
# Static dielectric constant tensor:
#      x y z
#    x 2.595200 0.000000 1.432100 
#    y 0.000000 7.587670 0.000000 
#    z 1.432100 0.000000 2.280730 
# 
# 
# High freq. dielectric constant tensor:
#      x y z
#    x 1.831960 0.000000 0.002760 
#    y 0.000000 1.828320 0.000000 
#    z 0.002760 0.000000 1.849190 
# 
# From -- ./inp_files/16064.got.cif
#   From: 2010.06.25/outbox.cif.g09.slc.cpg/sg12_9_cif.got.tgz:16064.got - 2010.06.28 00:19:55.
