data_PCOD8113922
_publ_section_title
;
Structure prediction by ZEFSAII (Michael W. Deem and Ramdas Pophale) SiO2 
 PCOD8113922
Probable space group: C 2/M
;
_chemical_formula_sum "Si O2"
_cell_formula_units_Z 52
_cell_length_a 12.492874
_cell_length_b 23.525479
_cell_length_c 11.558362
_cell_angle_alpha 90.000000
_cell_angle_beta 128.383414
_cell_angle_gamma 90.000000
_cell_volume 2662.827065
_symmetry_space_group_name_H-M "C 2/M"
_symmetry_group_IT_number 12
_symmetry_cell_setting 'monoclinic'
loop_
_space_group_symop_operation_xyz
x,y,z
-x,y,-z
-x,-y,-z
x,-y,z
1/2+x,1/2+y,z
1/2-x,1/2+y,-z
1/2-x,1/2-y,-z
1/2+x,1/2-y,z
loop_
_atom_site_type_symbol
_atom_site_label
_atom_site_fract_x
_atom_site_fract_y
_atom_site_fract_z
Si Si1 0.500000 0.873953 0.000000
Si Si2 0.697865 0.934172 0.311329
Si Si3 0.103224 0.721898 0.911133
Si Si4 0.140636 0.824126 0.529336
Si Si5 0.893227 0.325944 0.323647
Si Si6 0.978490 0.440646 0.349861
Si Si7 0.345777 0.721791 0.710671
O O1 0.404483 0.914547 0.859139
O O2 0.599901 0.834628 0.987754
O O3 0.821941 0.888780 0.406592
O O4 0.623239 0.931140 0.384703
O O5 0.746980 0.000000 0.320427
O O6 0.053636 0.712701 0.744903
O O7 0.985581 0.765070 0.873796
O O8 0.250000 0.750000 0.000000
O O9 0.263441 0.781134 0.641794
O O10 0.122692 0.816783 0.380029
O O11 0.000000 0.806539 0.500000
O O12 0.880369 0.388421 0.258219
O O13 0.740067 0.315236 0.258199
O O14 0.000000 0.320407 0.500000
O O15 0.912817 0.500000 0.260907
O O16 0.000000 0.443811 0.500000
#
# Coordination Sequence:
#
# PCOD8113922 Si02
#       7
#     4   8   8   8   8   8   8
#     4  12  23  42  60  88 124 168 215 246 308 378
#     4  11  23  40  61  90 124 166 212 256 303 368
#     4  12  25  39  60  89 122 162 202 255 304 380
#     4  11  22  37  61  89 124 158 196 249 316 375
#     4  11  20  36  60  88 119 152 196 248 304 360
#     4   9  17  33  59  87 113 147 194 246 294 343
#     4  11  21  37  60  89 118 158 197 250 315 374
#
# _framework density 19.528117999999999
#
# number of rings (size 3 to 8) (size 9 to 14) (size 15 to 20)
#    0.000    1.077    3.077    6.231    2.154    0.308 
#    0.000    0.000    0.000    0.000    0.000    1.077 
#    0.000    0.000    0.000    0.000    0.000    0.000 
#
# Total GULP energy -322093.240828 kJ/mol
# GULP energy per Si atom -12388.201570 kJ/mol
# Density = 1.948367 g / cm^3
# Si number density = 19.528118 Si / 1000 Ang^3
#
#
#
# Elastic Constant Matrix: (Units=GPa)
#
#
# Indices 1 2 3 4 5 6 
#
# 1 109.4608 32.0594 29.5473 0.0000 6.2794 0.0000
# 2 32.0594 120.5256 30.2699 0.0000 15.4326 0.0000
# 3 29.5473 30.2699 70.0988 0.0000 2.8782 0.0000
# 4 0.0000 0.0000 0.0000 18.9421 0.0000 1.4555
# 5 6.2794 15.4326 2.8782 0.0000 36.9755 0.0000
# 6 0.0000 0.0000 0.0000 1.4555 0.0000 22.6480
#
#
#
# Elastic Compliance Matrix: (Units=1/GPa)
#
#
# Indices 1 2 3 4 5 6 
#
# 1 0.010711 -0.001822 -0.003696 0.000000 -0.000771 0.000000
# 2 -0.001822 0.010115 -0.003450 0.000000 -0.003644 0.000000
# 3 -0.003696 -0.003450 0.017284 0.000000 0.000722 0.000000
# 4 0.000000 0.000000 0.000000 0.053054 0.000000 -0.003410
# 5 -0.000771 -0.003644 0.000722 0.000000 0.028640 0.000000
# 6 0.000000 0.000000 0.000000 -0.003410 0.000000 0.044373
#
#
# Mechanical properties :
#
#
# Convention : Reuss Voigt Hill
#
# Bulk Modulus (GPa) = 49.57222 53.75981 51.66602
# Shear Modulus (GPa) = 26.47752 29.59369 28.03561
#
# Velocity S-wave (km/s) = 3.68620 3.89709 3.79311
# Velocity P-wave (km/s) = 6.59982 6.91657 6.76005
#
# Compressibility (1/GPa) = 0.02017259
#
# Stress axis : x y z
#
# Youngs Moduli (GPa) = 93.35857 98.86602 57.85757
#
# Poissons Ratio (x) = 0.18015 0.21387
# Poissons Ratio (y) = 0.17011 0.19961
# Poissons Ratio (z) = 0.34510 0.34109
#
# Static dielectric constant tensor:
#      x y z
#    x 3.695670 0.000000 -0.279110 
#    y 0.000000 4.597640 0.000000 
#    z -0.279110 0.000000 3.371420 
# 
# 
# High freq. dielectric constant tensor:
#      x y z
#    x 1.772640 0.000000 -0.024900 
#    y 0.000000 1.765730 0.000000 
#    z -0.024900 0.000000 1.734830 
# 
# From -- ./inp_files/135851.got.cif
#   From: 2010.06.25/outbox.cif.g09.slc.cpg/sg12_68_cif.got.tgz:135851.got - 2010.06.28 00:19:55.
