data_PCOD8113522
_publ_section_title
;
Structure prediction by ZEFSAII (Michael W. Deem and Ramdas Pophale) SiO2 
 PCOD8113522
Probable space group: C 2/M
;
_chemical_formula_sum "Si O2"
_cell_formula_units_Z 40
_cell_length_a 14.583711
_cell_length_b 25.016044
_cell_length_c 9.819258
_cell_angle_alpha 90.000000
_cell_angle_beta 29.185124
_cell_angle_gamma 90.000000
_cell_volume 1746.861376
_symmetry_space_group_name_H-M "C 2/M"
_symmetry_group_IT_number 12
_symmetry_cell_setting 'monoclinic'
loop_
_space_group_symop_operation_xyz
x,y,z
-x,y,-z
-x,-y,-z
x,-y,z
1/2+x,1/2+y,z
1/2-x,1/2+y,-z
1/2-x,1/2-y,-z
1/2+x,1/2-y,z
loop_
_atom_site_type_symbol
_atom_site_label
_atom_site_fract_x
_atom_site_fract_y
_atom_site_fract_z
Si Si1 0.096994 0.805544 0.000116
Si Si2 0.860238 0.784030 0.568686
Si Si3 0.319250 0.096638 0.819045
Si Si4 0.671946 0.107885 0.882414
Si Si5 0.726483 0.000000 0.711602
Si Si6 0.453069 0.500000 0.902950
O O1 0.182090 0.754440 0.810006
O O2 0.248081 0.844767 0.869642
O O3 0.000000 0.837392 0.000000
O O4 0.951581 0.783531 0.300941
O O5 0.812453 0.844152 0.672861
O O6 0.000000 0.760407 0.500000
O O7 0.500000 0.078610 0.500000
O O8 0.393572 0.104478 0.876534
O O9 0.158608 0.052365 0.004107
O O10 0.789925 0.053509 0.706790
O O11 0.500000 0.112791 0.000000
O O12 0.500000 0.000000 0.000000
O O13 0.834204 0.000000 0.429176
O O14 0.500000 0.500000 0.000000
#
# Coordination Sequence:
#
# PCOD8113522 Si02
#       6
#     8   8   8   8   4   4
#     4  12  27  45  73 103 145 190 243 300 374 431
#     4  12  25  46  70 104 142 189 244 304 365 434
#     4  12  28  46  75 109 150 190 244 304 365 430
#     4  11  26  46  74 104 143 189 244 296 364 432
#     4  10  25  46  79 104 144 189 242 288 361 431
#     4  12  28  48  77 111 152 189 241 300 365 435
#
# _framework density 22.898211
#
# number of rings (size 3 to 8) (size 9 to 14) (size 15 to 20)
#    0.000    0.400    2.000    5.100   11.200    0.800 
#    0.000    0.000    0.000    0.000    0.000    0.000 
#    0.000    0.000    0.000    0.000    0.000    0.000 
#
# Total GULP energy -247952.423975 kJ/mol
# GULP energy per Si atom -12397.621199 kJ/mol
# Density = 2.284609 g / cm^3
# Si number density = 22.898211 Si / 1000 Ang^3
#
#
#
# Elastic Constant Matrix: (Units=GPa)
#
#
# Indices 1 2 3 4 5 6 
#
# 1 167.2526 19.3124 62.9717 0.0612 34.5557 -0.0293
# 2 19.3124 132.2433 44.0125 -0.0156 0.7632 0.0070
# 3 62.9717 44.0125 187.9846 0.0673 20.3767 -0.0347
# 4 0.0612 -0.0156 0.0673 295.0221 -0.0639 -117.8448
# 5 34.5557 0.7632 20.3767 -0.0639 38.0964 0.0316
# 6 -0.0293 0.0070 -0.0347 -117.8448 0.0316 80.5565
#
#
#
# Elastic Compliance Matrix: (Units=1/GPa)
#
#
# Indices 1 2 3 4 5 6 
#
# 1 0.008048 -0.000508 -0.001897 -0.000002 -0.006276 0.000002
# 2 -0.000508 0.008263 -0.001907 0.000001 0.001315 -0.000001
# 3 -0.001897 -0.001907 0.006593 -0.000001 -0.001768 0.000002
# 4 -0.000002 0.000001 -0.000001 0.008155 0.000006 0.011929
# 5 -0.006276 0.001315 -0.001768 0.000006 0.032861 -0.000007
# 6 0.000002 -0.000001 0.000002 0.011929 -0.000007 0.029865
#
#
# Mechanical properties :
#
#
# Convention : Reuss Voigt Hill
#
# Bulk Modulus (GPa) = 70.02315 82.23039 76.12677
# Shear Modulus (GPa) = 46.65532 106.81393 76.73463
#
# Velocity S-wave (km/s) = 4.51877 6.83729 5.79517
# Velocity P-wave (km/s) = 7.60739 9.91568 8.83722
#
# Compressibility (1/GPa) = 0.01428099
#
# Stress axis : x y z
#
# Youngs Moduli (GPa) = 124.24800 121.02012 151.67301
#
# Poissons Ratio (x) = 0.06146 0.28771
# Poissons Ratio (y) = 0.06310 0.28925
# Poissons Ratio (z) = 0.23569 0.23079
#
# Static dielectric constant tensor:
#      x y z
#    x 1.500980 0.000120 0.430920 
#    y 0.000120 4.444210 -0.000010 
#    z 0.430920 -0.000010 4.093200 
# 
# 
# High freq. dielectric constant tensor:
#      x y z
#    x 1.916730 0.000000 0.008180 
#    y 0.000000 1.919940 0.000000 
#    z 0.008180 0.000000 1.911860 
# 
# From -- ./inp_files/68469.got.cif
#   From: 2010.06.25/outbox.cif.g09.slc.cpg/sg12_35_cif.got.tgz:68469.got - 2010.06.28 00:19:55.
