data_PCOD8113263
_publ_section_title
;
Structure prediction by ZEFSAII (Michael W. Deem and Ramdas Pophale) SiO2 
 PCOD8113263
Probable space group: C 2/M
;
_chemical_formula_sum "Si O2"
_cell_formula_units_Z 44
_cell_length_a 8.570594
_cell_length_b 17.447463
_cell_length_c 16.845152
_cell_angle_alpha 90.000000
_cell_angle_beta 125.332249
_cell_angle_gamma 90.000000
_cell_volume 2054.983529
_symmetry_space_group_name_H-M "C 2/M"
_symmetry_group_IT_number 12
_symmetry_cell_setting 'monoclinic'
loop_
_space_group_symop_operation_xyz
x,y,z
-x,y,-z
-x,-y,-z
x,-y,z
1/2+x,1/2+y,z
1/2-x,1/2+y,-z
1/2-x,1/2-y,-z
1/2+x,1/2-y,z
loop_
_atom_site_type_symbol
_atom_site_label
_atom_site_fract_x
_atom_site_fract_y
_atom_site_fract_z
Si Si1 0.742462 0.000000 0.988361
Si Si2 0.381398 0.654485 0.265482
Si Si3 0.845666 0.196149 0.797266
Si Si4 0.297531 0.414000 0.552840
Si Si5 0.939158 0.585492 0.355653
Si Si6 0.707820 0.000000 0.157828
Si Si7 0.500000 0.369621 0.000000
O O1 0.823984 0.076789 0.973054
O O2 0.518201 0.000000 0.911913
O O3 0.801264 0.000000 0.097974
O O4 0.221593 0.717218 0.237602
O O5 0.492889 0.677116 0.218818
O O6 0.525295 0.644566 0.383407
O O7 0.277330 0.574004 0.224937
O O8 0.659198 0.141519 0.736325
O O9 0.935337 0.186577 0.910567
O O10 0.370159 0.500000 0.554484
O O11 0.185139 0.416719 0.601994
O O12 0.154628 0.385823 0.440716
O O13 0.947204 0.500000 0.320958
#
# Coordination Sequence:
#
# PCOD8113263 Si02
#       7
#     4   8   8   8   8   4   4
#     4  10  24  40  68  90 113 163 211 251 296 361
#     4  11  23  40  62  91 125 162 200 256 302 367
#     4  11  25  38  59  90 129 161 205 254 308 353
#     4   8  14  31  59  87 116 155 202 247 301 359
#     4   8  16  31  57  88 118 156 202 251 299 363
#     4  11  22  44  66  89 118 161 213 245 301 371
#     4  11  24  42  62  93 124 160 200 257 302 356
#
# _framework density 21.411363999999999
#
# number of rings (size 3 to 8) (size 9 to 14) (size 15 to 20)
#    0.000    2.182    2.727    1.091    6.364    2.909 
#    0.000    0.000    0.000    0.000    0.000    3.818 
#    0.000    0.000    0.000    0.000    0.000    0.000 
#
# Total GULP energy -272765.527915 kJ/mol
# GULP energy per Si atom -12398.433087 kJ/mol
# Density = 2.136263 g / cm^3
# Si number density = 21.411364 Si / 1000 Ang^3
#
#
#
# Elastic Constant Matrix: (Units=GPa)
#
#
# Indices 1 2 3 4 5 6 
#
# 1 38.7246 16.5449 10.1558 0.0000 11.9467 0.0000
# 2 16.5449 123.6981 40.4140 0.0000 18.4316 0.0000
# 3 10.1558 40.4140 103.5050 0.0000 17.2202 0.0000
# 4 0.0000 0.0000 0.0000 32.6541 0.0000 4.3193
# 5 11.9467 18.4316 17.2202 0.0000 18.7310 0.0000
# 6 0.0000 0.0000 0.0000 4.3193 0.0000 5.9332
#
#
#
# Elastic Compliance Matrix: (Units=1/GPa)
#
#
# Indices 1 2 3 4 5 6 
#
# 1 0.032421 -0.001636 0.000744 0.000000 -0.019752 0.000000
# 2 -0.001636 0.010155 -0.002734 0.000000 -0.006436 0.000000
# 3 0.000744 -0.002734 0.012145 0.000000 -0.008950 0.000000
# 4 0.000000 0.000000 0.000000 0.033887 0.000000 -0.024670
# 5 -0.019752 -0.006436 -0.008950 0.000000 0.080546 0.000000
# 6 0.000000 0.000000 0.000000 -0.024670 0.000000 0.186503
#
#
# Mechanical properties :
#
#
# Convention : Reuss Voigt Hill
#
# Bulk Modulus (GPa) = 21.06662 44.46193 32.76428
# Shear Modulus (GPa) = 13.20193 24.71784 18.95989
#
# Velocity S-wave (km/s) = 2.48581 3.40137 2.97897
# Velocity P-wave (km/s) = 4.25433 6.01967 5.21228
#
# Compressibility (1/GPa) = 0.04746845
#
# Stress axis : x y z
#
# Youngs Moduli (GPa) = 30.84426 98.47140 82.34007
#
# Poissons Ratio (x) = 0.16113 -0.06126
# Poissons Ratio (y) = 0.05047 0.22511
# Poissons Ratio (z) = -0.02295 0.26921
#
# Static dielectric constant tensor:
#      x y z
#    x 3.577580 0.000000 0.254290 
#    y 0.000000 3.843100 0.000000 
#    z 0.254290 0.000000 4.170780 
# 
# 
# High freq. dielectric constant tensor:
#      x y z
#    x 1.815540 0.000000 0.018470 
#    y 0.000000 1.831730 0.000000 
#    z 0.018470 0.000000 1.850620 
# 
# From -- ./inp_files/257324.got.cif
#   From: 2010.06.25/outbox.cif.g09.slc.cpg/sg12_129_cif.got.tgz:257324.got - 2010.06.28 00:19:55.
