data_PCOD8113164
_publ_section_title
;
Structure prediction by ZEFSAII (Michael W. Deem and Ramdas Pophale) SiO2 
 PCOD8113164
Probable space group: C 2/M
;
_chemical_formula_sum "Si O2"
_cell_formula_units_Z 48
_cell_length_a 14.311042
_cell_length_b 16.458081
_cell_length_c 9.822727
_cell_angle_alpha 90.000000
_cell_angle_beta 86.781621
_cell_angle_gamma 90.000000
_cell_volume 2309.920423
_symmetry_space_group_name_H-M "C 2/M"
_symmetry_group_IT_number 12
_symmetry_cell_setting 'monoclinic'
loop_
_space_group_symop_operation_xyz
x,y,z
-x,y,-z
-x,-y,-z
x,-y,z
1/2+x,1/2+y,z
1/2-x,1/2+y,-z
1/2-x,1/2-y,-z
1/2+x,1/2-y,z
loop_
_atom_site_type_symbol
_atom_site_label
_atom_site_fract_x
_atom_site_fract_y
_atom_site_fract_z
Si Si1 0.891130 0.090939 0.991653
Si Si2 0.161787 0.170609 0.753749
Si Si3 0.506429 0.209660 0.835933
Si Si4 0.671164 0.290950 0.230192
Si Si5 0.713691 0.595561 0.465382
Si Si6 0.070954 0.594325 0.608791
O O1 0.833181 0.097855 0.137205
O O2 0.882368 0.000000 0.934657
O O3 0.836842 0.153151 0.900921
O O4 0.000000 0.115211 0.000000
O O5 0.059769 0.208713 0.787063
O O6 0.230626 0.245571 0.773388
O O7 0.173728 0.128207 0.609275
O O8 0.405190 0.219757 0.774547
O O9 0.554398 0.132776 0.758906
O O10 0.500000 0.196483 0.000000
O O11 0.659027 0.351253 0.358734
O O12 0.691476 0.500000 0.448210
O O13 0.824253 0.612964 0.449865
O O14 0.052802 0.500000 0.631033
O O15 0.000000 0.629339 0.500000
#
# Coordination Sequence:
#
# PCOD8113164 Si02
#       6
#     8   8   8   8   8   8
#     4  11  23  43  65  92 134 177 213 264 329 385
#     4  12  23  42  65  95 130 171 215 270 319 387
#     4  12  25  42  65  99 131 169 221 265 322 390
#     4  12  23  42  67  96 128 170 219 270 320 385
#     4  11  25  43  65  99 129 168 220 265 330 391
#     4  10  23  45  68  93 132 172 212 270 328 385
#
# _framework density 20.779935999999999
#
# number of rings (size 3 to 8) (size 9 to 14) (size 15 to 20)
#    0.000    0.667    5.000    3.000    2.333    0.333 
#    0.000    1.667    0.000    0.000    0.000    0.000 
#    0.000    0.000    0.000    0.000    0.000    0.000 
#
# Total GULP energy -297543.259044 kJ/mol
# GULP energy per Si atom -12397.635793 kJ/mol
# Density = 2.073264 g / cm^3
# Si number density = 20.779936 Si / 1000 Ang^3
#
#
#
# Elastic Constant Matrix: (Units=GPa)
#
#
# Indices 1 2 3 4 5 6 
#
# 1 25.0644 9.3625 28.7351 0.0000 -4.7135 0.0000
# 2 9.3625 70.2306 39.0962 0.0000 -8.4751 0.0000
# 3 28.7351 39.0962 144.4386 0.0000 -19.4663 0.0000
# 4 0.0000 0.0000 0.0000 29.3891 0.0000 -4.0552
# 5 -4.7135 -8.4751 -19.4663 0.0000 34.1241 0.0000
# 6 0.0000 0.0000 0.0000 -4.0552 0.0000 17.2978
#
#
#
# Elastic Compliance Matrix: (Units=1/GPa)
#
#
# Indices 1 2 3 4 5 6 
#
# 1 0.051847 -0.001310 -0.009792 0.000000 0.001251 0.000000
# 2 -0.001310 0.016890 -0.004084 0.000000 0.001684 0.000000
# 3 -0.009792 -0.004084 0.010462 0.000000 0.003601 0.000000
# 4 0.000000 0.000000 0.000000 0.035164 0.000000 0.008244
# 5 0.001251 0.001684 0.003601 0.000000 0.031950 0.000000
# 6 0.000000 0.000000 0.000000 0.008244 0.000000 0.059743
#
#
# Mechanical properties :
#
#
# Convention : Reuss Voigt Hill
#
# Bulk Modulus (GPa) = 20.47998 43.79125 32.13562
# Shear Modulus (GPa) = 19.78593 26.99820 23.39207
#
# Velocity S-wave (km/s) = 3.08907 3.60841 3.35879
# Velocity P-wave (km/s) = 4.75396 6.20326 5.52633
#
# Compressibility (1/GPa) = 0.04882817
#
# Stress axis : x y z
#
# Youngs Moduli (GPa) = 19.28738 59.20563 95.58228
#
# Poissons Ratio (x) = 0.07756 0.93590
# Poissons Ratio (y) = 0.02527 0.39038
# Poissons Ratio (z) = 0.18885 0.24181
#
# Static dielectric constant tensor:
#      x y z
#    x 3.943110 0.000000 0.087310 
#    y 0.000000 3.770340 0.000000 
#    z 0.087310 0.000000 3.872880 
# 
# 
# High freq. dielectric constant tensor:
#      x y z
#    x 1.812690 0.000000 -0.003380 
#    y 0.000000 1.820920 0.000000 
#    z -0.003380 0.000000 1.822730 
# 
# From -- ./inp_files/61708.got.cif
#   From: 2010.06.25/outbox.cif.g09.slc.cpg/sg12_31_cif.got.tgz:61708.got - 2010.06.28 00:19:55.
