data_PCOD8113255
_publ_section_title
;
Structure prediction by ZEFSAII (Michael W. Deem and Ramdas Pophale) SiO2 
 PCOD8113255
Probable space group: C 2/M
;
_chemical_formula_sum "Si O2"
_cell_formula_units_Z 52
_cell_length_a 9.587484
_cell_length_b 26.741910
_cell_length_c 12.064543
_cell_angle_alpha 90.000000
_cell_angle_beta 126.166336
_cell_angle_gamma 90.000000
_cell_volume 2497.162283
_symmetry_space_group_name_H-M "C 2/M"
_symmetry_group_IT_number 12
_symmetry_cell_setting 'monoclinic'
loop_
_space_group_symop_operation_xyz
x,y,z
-x,y,-z
-x,-y,-z
x,-y,z
1/2+x,1/2+y,z
1/2-x,1/2+y,-z
1/2-x,1/2-y,-z
1/2+x,1/2-y,z
loop_
_atom_site_type_symbol
_atom_site_label
_atom_site_fract_x
_atom_site_fract_y
_atom_site_fract_z
Si Si1 0.500000 0.257065 0.000000
Si Si2 0.449134 0.909972 0.152027
Si Si3 0.063421 0.772782 0.407857
Si Si4 0.123318 0.702923 0.844059
Si Si5 0.759037 0.059177 0.146700
Si Si6 0.104315 0.444925 0.439297
Si Si7 0.442105 0.384285 0.599046
O O1 0.669333 0.291563 0.064611
O O2 0.485363 0.221447 0.100072
O O3 0.419168 0.854846 0.185073
O O4 0.620672 0.912444 0.157844
O O5 0.475882 0.943296 0.273529
O O6 0.285574 0.929372 0.003135
O O7 0.250000 0.750000 0.500000
O O8 0.057006 0.828071 0.349714
O O9 0.000000 0.781284 0.500000
O O10 0.938909 0.734381 0.289379
O O11 0.945525 0.080987 0.266196
O O12 0.752693 0.000000 0.165872
O O13 0.190058 0.500000 0.481561
O O14 0.247236 0.402616 0.503412
O O15 0.000000 0.434450 0.500000
O O16 0.500000 0.387527 0.500000
#
# Coordination Sequence:
#
# PCOD8113255 Si02
#       7
#     4   8   8   8   8   8   8
#     4  10  24  40  62  92 126 176 216 256 322 380
#     4  11  23  40  67  97 132 171 219 270 337 389
#     4  11  25  42  65  97 133 173 220 274 326 388
#     4  11  24  41  66  91 135 173 219 266 322 400
#     4  11  23  41  71 103 131 165 225 291 331 380
#     4  11  24  43  65  93 133 176 216 265 336 410
#     4  11  24  41  70  99 129 170 229 277 327 389
#
# _framework density 20.823637999999999
#
# number of rings (size 3 to 8) (size 9 to 14) (size 15 to 20)
#    0.000    1.077    1.538    5.077    8.615    4.308 
#    0.000    0.000    0.000    2.769    0.000    0.000 
#    0.000    0.000    0.000    0.000    0.000    0.000 
#
# Total GULP energy -322333.811778 kJ/mol
# GULP energy per Si atom -12397.454299 kJ/mol
# Density = 2.077624 g / cm^3
# Si number density = 20.823638 Si / 1000 Ang^3
#
#
#
# Elastic Constant Matrix: (Units=GPa)
#
#
# Indices 1 2 3 4 5 6 
#
# 1 77.0861 45.7260 29.8633 0.0000 -1.9244 0.0000
# 2 45.7260 143.3825 33.9946 0.0000 12.1275 0.0000
# 3 29.8633 33.9946 129.7364 0.0000 2.8865 0.0000
# 4 0.0000 0.0000 0.0000 38.6313 0.0000 1.7968
# 5 -1.9244 12.1275 2.8865 0.0000 28.3676 0.0000
# 6 0.0000 0.0000 0.0000 1.7968 0.0000 36.2212
#
#
#
# Elastic Compliance Matrix: (Units=1/GPa)
#
#
# Indices 1 2 3 4 5 6 
#
# 1 0.017152 -0.005142 -0.002682 0.000000 0.003634 0.000000
# 2 -0.005142 0.009239 -0.001144 0.000000 -0.004182 0.000000
# 3 -0.002682 -0.001144 0.008638 0.000000 -0.000572 0.000000
# 4 0.000000 0.000000 0.000000 0.025946 0.000000 -0.001287
# 5 0.003634 -0.004182 -0.000572 0.000000 0.037344 0.000000
# 6 0.000000 0.000000 0.000000 -0.001287 0.000000 0.027672
#
#
# Mechanical properties :
#
#
# Convention : Reuss Voigt Hill
#
# Bulk Modulus (GPa) = 58.50136 63.26363 60.88250
# Shear Modulus (GPa) = 33.41714 36.68541 35.05127
#
# Velocity S-wave (km/s) = 4.01030 4.20184 4.10719
# Velocity P-wave (km/s) = 7.04259 7.34760 7.19671
#
# Compressibility (1/GPa) = 0.01709362
#
# Stress axis : x y z
#
# Youngs Moduli (GPa) = 58.30219 108.23589 115.77010
#
# Poissons Ratio (x) = 0.55650 0.31047
# Poissons Ratio (y) = 0.29976 0.13248
# Poissons Ratio (z) = 0.15635 0.12386
#
# Static dielectric constant tensor:
#      x y z
#    x 3.500980 0.000000 -0.155200 
#    y 0.000000 3.971710 0.000000 
#    z -0.155200 0.000000 3.877950 
# 
# 
# High freq. dielectric constant tensor:
#      x y z
#    x 1.803340 0.000000 0.000370 
#    y 0.000000 1.829770 0.000000 
#    z 0.000370 0.000000 1.827320 
# 
# From -- ./inp_files/124408.got.cif
#   From: 2010.06.25/outbox.cif.g09.slc.cpg/sg12_63_cif.got.tgz:124408.got - 2010.06.28 00:19:55.
