data_PCOD8113133
_publ_section_title
;
Structure prediction by ZEFSAII (Michael W. Deem and Ramdas Pophale) SiO2 
 PCOD8113133
Probable space group: C 2/M
;
_chemical_formula_sum "Si O2"
_cell_formula_units_Z 48
_cell_length_a 10.700139
_cell_length_b 22.519800
_cell_length_c 9.163204
_cell_angle_alpha 90.000000
_cell_angle_beta 91.092179
_cell_angle_gamma 90.000000
_cell_volume 2207.610218
_symmetry_space_group_name_H-M "C 2/M"
_symmetry_group_IT_number 12
_symmetry_cell_setting 'monoclinic'
loop_
_space_group_symop_operation_xyz
x,y,z
-x,y,-z
-x,-y,-z
x,-y,z
1/2+x,1/2+y,z
1/2-x,1/2+y,-z
1/2-x,1/2-y,-z
1/2+x,1/2-y,z
loop_
_atom_site_type_symbol
_atom_site_label
_atom_site_fract_x
_atom_site_fract_y
_atom_site_fract_z
Si Si1 0.118729 0.433987 0.088636
Si Si2 0.679666 0.334972 0.898258
Si Si3 0.911199 0.166648 0.794438
Si Si4 0.614962 0.905641 0.407909
Si Si5 0.180215 0.275011 0.357080
Si Si6 0.869240 0.067893 0.575735
O O1 0.149031 0.500000 0.029010
O O2 0.237387 0.392581 0.074013
O O3 0.085562 0.437799 0.256953
O O4 0.000000 0.406831 0.000000
O O5 0.548446 0.357235 0.831974
O O6 0.732664 0.287678 0.783047
O O7 0.660190 0.310013 0.061376
O O8 0.917875 0.224072 0.689980
O O9 0.843100 0.111647 0.711749
O O10 0.500000 0.928784 0.500000
O O11 0.606640 0.834419 0.395374
O O12 0.752426 0.924772 0.464367
O O13 0.250000 0.250000 0.500000
O O14 0.000000 0.085702 0.500000
O O15 0.876442 0.000000 0.631139
#
# Coordination Sequence:
#
# PCOD8113133 Si02
#       6
#     8   8   8   8   8   8
#     4  10  23  44  69  93 132 179 220 272 335 403
#     4  10  25  45  63 100 136 171 220 278 333 402
#     4  11  24  42  69  97 135 173 221 273 338 402
#     4  11  25  42  65 101 133 168 227 285 334 397
#     4  11  23  41  69  95 132 175 217 271 333 407
#     4  11  24  42  68  99 136 179 226 284 345 408
#
# _framework density 21.742968000000001
#
# number of rings (size 3 to 8) (size 9 to 14) (size 15 to 20)
#    0.000    1.333    1.667    3.000    4.667    4.000 
#   15.000    1.667    0.000    0.000    0.000    0.000 
#    0.000    0.000    0.000    0.000    0.000    0.000 
#
# Total GULP energy -297486.614529 kJ/mol
# GULP energy per Si atom -12395.275605 kJ/mol
# Density = 2.169348 g / cm^3
# Si number density = 21.742968 Si / 1000 Ang^3
#
#
#
# Elastic Constant Matrix: (Units=GPa)
#
#
# Indices 1 2 3 4 5 6 
#
# 1 136.3599 27.4302 57.1513 0.0000 11.2806 0.0000
# 2 27.4302 115.6868 25.6456 0.0000 14.4296 0.0000
# 3 57.1513 25.6456 112.3974 0.0000 20.8663 0.0000
# 4 0.0000 0.0000 0.0000 22.6261 0.0000 5.6179
# 5 11.2806 14.4296 20.8663 0.0000 34.8651 0.0000
# 6 0.0000 0.0000 0.0000 5.6179 0.0000 26.8858
#
#
#
# Elastic Compliance Matrix: (Units=1/GPa)
#
#
# Indices 1 2 3 4 5 6 
#
# 1 0.009487 -0.001260 -0.004572 0.000000 0.000188 0.000000
# 2 -0.001260 0.009529 -0.000987 0.000000 -0.002946 0.000000
# 3 -0.004572 -0.000987 0.012483 0.000000 -0.005583 0.000000
# 4 0.000000 0.000000 0.000000 0.046615 0.000000 -0.009740
# 5 0.000188 -0.002946 -0.005583 0.000000 0.033182 0.000000
# 6 0.000000 0.000000 0.000000 -0.009740 0.000000 0.039230
#
#
# Mechanical properties :
#
#
# Convention : Reuss Voigt Hill
#
# Bulk Modulus (GPa) = 55.98001 64.98870 60.48435
# Shear Modulus (GPa) = 29.39152 33.82318 31.60735
#
# Velocity S-wave (km/s) = 3.68063 3.94838 3.81685
# Velocity P-wave (km/s) = 6.62306 7.12325 6.87770
#
# Compressibility (1/GPa) = 0.01786352
#
# Stress axis : x y z
#
# Youngs Moduli (GPa) = 105.40273 104.94453 80.10713
#
# Poissons Ratio (x) = 0.13218 0.36622
# Poissons Ratio (y) = 0.13276 0.07906
# Poissons Ratio (z) = 0.48186 0.10357
#
# Static dielectric constant tensor:
#      x y z
#    x 3.787420 0.000000 0.051290 
#    y 0.000000 3.891960 0.000000 
#    z 0.051290 0.000000 4.241420 
# 
# 
# High freq. dielectric constant tensor:
#      x y z
#    x 1.848650 0.000000 0.010560 
#    y 0.000000 1.857400 0.000000 
#    z 0.010560 0.000000 1.868870 
# 
# From -- ./inp_files/50694.got.cif
#   From: 2010.06.25/outbox.cif.g09.slc.cpg/sg12_26_cif.got.tgz:50694.got - 2010.06.28 00:19:55.
