data_PCOD8113669
_publ_section_title
;
Structure prediction by ZEFSAII (Michael W. Deem and Ramdas Pophale) SiO2 
 PCOD8113669
Probable space group: C 2/M
;
_chemical_formula_sum "Si O2"
_cell_formula_units_Z 40
_cell_length_a 21.925349
_cell_length_b 7.621571
_cell_length_c 13.797892
_cell_angle_alpha 90.000000
_cell_angle_beta 87.847824
_cell_angle_gamma 90.000000
_cell_volume 2304.078657
_symmetry_space_group_name_H-M "C 2/M"
_symmetry_group_IT_number 12
_symmetry_cell_setting 'monoclinic'
loop_
_space_group_symop_operation_xyz
x,y,z
-x,y,-z
-x,-y,-z
x,-y,z
1/2+x,1/2+y,z
1/2-x,1/2+y,-z
1/2-x,1/2-y,-z
1/2+x,1/2-y,z
loop_
_atom_site_type_symbol
_atom_site_label
_atom_site_fract_x
_atom_site_fract_y
_atom_site_fract_z
Si Si1 0.111510 0.500000 0.323213
Si Si2 0.164992 0.807505 0.864479
Si Si3 0.462501 0.700337 0.208217
Si Si4 0.960612 0.500000 0.870029
Si Si5 0.032025 0.201304 0.397879
Si Si6 0.344966 0.000000 0.989897
Si Si7 0.228138 0.500000 0.204688
O O1 0.081881 0.500000 0.220356
O O2 0.091165 0.325141 0.381873
O O3 0.184784 0.500000 0.301981
O O4 0.109406 0.755711 0.796293
O O5 0.174258 0.670846 0.949506
O O6 0.227821 0.826480 0.797794
O O7 0.151208 0.000000 0.912538
O O8 0.477755 0.500000 0.179414
O O9 0.498390 0.824932 0.131386
O O10 0.482460 0.740058 0.317131
O O11 0.918176 0.500000 0.967911
O O12 0.000000 0.249377 0.500000
O O13 0.054569 0.000000 0.394452
O O14 0.309725 0.000000 0.891885
#
# Coordination Sequence:
#
# PCOD8113669 Si02
#       7
#     4   8   8   4   8   4   4
#     4   9  17  33  48  71 101 121 153 193 237 278
#     4   9  20  32  48  68  89 131 162 193 234 272
#     4   9  17  32  47  70 100 121 154 189 239 293
#     4   9  19  29  49  71  94 123 153 200 247 278
#     4   9  17  30  53  80  95 120 150 191 239 284
#     4  11  19  34  49  68  95 121 166 210 228 268
#     4   9  20  36  48  67  93 131 167 193 225 277
#
# _framework density 17.360519
#
# number of rings (size 3 to 8) (size 9 to 14) (size 15 to 20)
#    0.600    2.200    0.000    1.500    0.000    2.400 
#    1.800    4.000    0.000    1.200    0.000    0.000 
#    0.000    0.000    0.000    0.000    0.000    0.000 
#
# Total GULP energy -247841.917368 kJ/mol
# GULP energy per Si atom -12392.095868 kJ/mol
# Density = 1.732101 g / cm^3
# Si number density = 17.360519 Si / 1000 Ang^3
#
#
#
# Elastic Constant Matrix: (Units=GPa)
#
#
# Indices 1 2 3 4 5 6 
#
# 1 121.8502 47.2059 43.4228 0.0000 -31.7756 0.0000
# 2 47.2059 94.0715 37.1319 0.0000 -22.5170 0.0000
# 3 43.4228 37.1319 59.6248 0.0000 -27.8380 0.0000
# 4 0.0000 0.0000 0.0000 15.0611 0.0000 -3.5619
# 5 -31.7756 -22.5170 -27.8380 0.0000 30.0427 0.0000
# 6 0.0000 0.0000 0.0000 -3.5619 0.0000 17.1686
#
#
#
# Elastic Compliance Matrix: (Units=1/GPa)
#
#
# Indices 1 2 3 4 5 6 
#
# 1 0.012745 -0.003062 -0.003794 0.000000 0.007670 0.000000
# 2 -0.003062 0.015151 -0.006020 0.000000 0.002538 0.000000
# 3 -0.003794 -0.006020 0.034022 0.000000 0.023001 0.000000
# 4 0.000000 0.000000 0.000000 0.069822 0.000000 0.014486
# 5 0.007670 0.002538 0.023001 0.000000 0.064613 0.000000
# 6 0.000000 0.000000 0.000000 0.014486 0.000000 0.061251
#
#
# Mechanical properties :
#
#
# Convention : Reuss Voigt Hill
#
# Bulk Modulus (GPa) = 27.65044 59.00750 43.32897
# Shear Modulus (GPa) = 16.92548 22.30686 19.61617
#
# Velocity S-wave (km/s) = 3.12579 3.58847 3.36509
# Velocity P-wave (km/s) = 5.38416 7.15770 6.33332
#
# Compressibility (1/GPa) = 0.03616579
#
# Stress axis : x y z
#
# Youngs Moduli (GPa) = 78.46054 66.00366 29.39239
#
# Poissons Ratio (x) = 0.20212 0.11152
# Poissons Ratio (y) = 0.24027 0.17694
# Poissons Ratio (z) = 0.29768 0.39734
#
# Static dielectric constant tensor:
#      x y z
#    x 3.434510 0.000000 -0.117100 
#    y 0.000000 3.304270 0.000000 
#    z -0.117100 0.000000 3.026750 
# 
# 
# High freq. dielectric constant tensor:
#      x y z
#    x 1.665770 0.000000 -0.000020 
#    y 0.000000 1.676290 0.000000 
#    z -0.000020 0.000000 1.642200 
# 
# From -- ./inp_files/228905.got.cif
#   From: 2010.06.25/outbox.cif.g09.slc.cpg/sg12_115_cif.got.tgz:228905.got - 2010.06.28 00:19:55.
