data_PCOD8113550
_publ_section_title
;
Structure prediction by ZEFSAII (Michael W. Deem and Ramdas Pophale) SiO2 
 PCOD8113550
Probable space group: C 2/M
;
_chemical_formula_sum "Si O2"
_cell_formula_units_Z 40
_cell_length_a 18.030583
_cell_length_b 23.064636
_cell_length_c 11.860393
_cell_angle_alpha 90.000000
_cell_angle_beta 159.359625
_cell_angle_gamma 90.000000
_cell_volume 1738.665473
_symmetry_space_group_name_H-M "C 2/M"
_symmetry_group_IT_number 12
_symmetry_cell_setting 'monoclinic'
loop_
_space_group_symop_operation_xyz
x,y,z
-x,y,-z
-x,-y,-z
x,-y,z
1/2+x,1/2+y,z
1/2-x,1/2+y,-z
1/2-x,1/2-y,-z
1/2+x,1/2-y,z
loop_
_atom_site_type_symbol
_atom_site_label
_atom_site_fract_x
_atom_site_fract_y
_atom_site_fract_z
Si Si1 0.900835 0.500000 0.190197
Si Si2 0.000000 0.246484 0.000000
Si Si3 0.870595 0.000000 0.923270
Si Si4 0.352207 0.125024 0.186437
Si Si5 0.625527 0.174817 0.376441
Si Si6 0.064951 0.900136 0.335742
Si Si7 0.793486 0.500000 0.779642
O O1 0.811649 0.555668 0.127520
O O2 0.143507 0.500000 0.550709
O O3 0.842704 0.500000 0.978821
O O4 0.788278 0.208211 0.689901
O O5 0.010035 0.284139 0.899507
O O6 0.000000 0.000000 0.000000
O O7 0.922076 0.939712 0.054405
O O8 0.500000 0.144974 0.500000
O O9 0.454277 0.143871 0.212745
O O10 0.107070 0.146300 0.855834
O O11 0.753568 0.131009 0.478296
O O12 0.168116 0.940733 0.577571
O O13 0.000000 0.500000 0.000000
#
# Coordination Sequence:
#
# PCOD8113550 Si02
#       7
#     4   4   4   8   8   8   4
#     4  12  23  38  62 100 151 180 223 273 317 406
#     4  10  26  50  76  98 134 176 232 316 358 416
#     4  11  20  37  64 105 140 190 228 267 319 414
#     4  12  24  42  71 105 143 185 229 282 338 419
#     4  11  25  50  73 101 135 177 235 294 363 410
#     4  11  25  42  70 104 142 185 231 272 348 417
#     4  11  24  42  62 106 152 190 224 275 335 410
#
# _framework density 23.006150999999999
#
# number of rings (size 3 to 8) (size 9 to 14) (size 15 to 20)
#    0.000    0.800    2.000    6.300    5.600    1.600 
#    0.000   11.000    0.000    0.000    0.000    0.000 
#    0.000    0.000    0.000    0.000    0.000    0.000 
#
# Total GULP energy -247817.667789 kJ/mol
# GULP energy per Si atom -12390.883389 kJ/mol
# Density = 2.295379 g / cm^3
# Si number density = 23.006151 Si / 1000 Ang^3
#
#
#
# Elastic Constant Matrix: (Units=GPa)
#
#
# Indices 1 2 3 4 5 6 
#
# 1 183.6721 40.8642 102.4594 0.0005 32.1246 0.0000
# 2 40.8642 81.4293 37.2021 -0.0002 3.0277 0.0000
# 3 102.4594 37.2021 173.2071 -0.0002 4.1424 0.0001
# 4 0.0005 -0.0002 -0.0002 -513.6434 -0.0002 -1.3958
# 5 32.1246 3.0277 4.1424 -0.0002 60.1925 0.0000
# 6 0.0000 0.0000 0.0001 -1.3958 0.0000 23.8670
#
#
#
# Elastic Compliance Matrix: (Units=1/GPa)
#
#
# Indices 1 2 3 4 5 6 
#
# 1 0.009607 -0.002331 -0.005071 0.000000 -0.004661 0.000000
# 2 -0.002331 0.014197 -0.001686 0.000000 0.000646 0.000000
# 3 -0.005071 -0.001686 0.009083 0.000000 0.002166 0.000000
# 4 0.000000 0.000000 0.000000 -0.001947 0.000000 -0.000114
# 5 -0.004661 0.000646 0.002166 0.000000 0.018919 0.000000
# 6 0.000000 0.000000 0.000000 -0.000114 0.000000 0.041892
#
#
# Mechanical properties :
#
#
# Convention : Reuss Voigt Hill
#
# Bulk Modulus (GPa) = 67.97358 88.81779 78.39568
# Shear Modulus (GPa) = 43.54218 -68.73127 -12.59454
#
# Velocity S-wave (km/s) = 4.35516 -5.47175 -2.34229
# Velocity P-wave (km/s) = 7.40944 1.10911 5.18024
#
# Compressibility (1/GPa) = 0.01471160
#
# Stress axis : x y z
#
# Youngs Moduli (GPa) = 104.09012 70.43965 110.09227
#
# Poissons Ratio (x) = 0.16421 0.55826
# Poissons Ratio (y) = 0.24265 0.18558
# Poissons Ratio (z) = 0.52782 0.11874
#
# Static dielectric constant tensor:
#      x y z
#    x 4.301010 0.000000 0.048900 
#    y 0.000000 4.262850 0.000000 
#    z 0.048900 0.000000 4.432040 
# 
# 
# High freq. dielectric constant tensor:
#      x y z
#    x 1.929540 0.000000 0.006920 
#    y 0.000000 1.885240 0.000000 
#    z 0.006920 0.000000 1.928040 
# 
# From -- ./inp_files/161143.got.cif
#   From: 2010.06.25/outbox.cif.g09.slc.cpg/sg12_81_cif.got.tgz:161143.got - 2010.06.28 00:19:55.
