data_PCOD8113316
_publ_section_title
;
Structure prediction by ZEFSAII (Michael W. Deem and Ramdas Pophale) SiO2 
 PCOD8113316
Probable space group: C 2/M
;
_chemical_formula_sum "Si O2"
_cell_formula_units_Z 48
_cell_length_a 9.581574
_cell_length_b 14.670428
_cell_length_c 16.593314
_cell_angle_alpha 90.000000
_cell_angle_beta 85.518918
_cell_angle_gamma 90.000000
_cell_volume 2325.322441
_symmetry_space_group_name_H-M "C 2/M"
_symmetry_group_IT_number 12
_symmetry_cell_setting 'monoclinic'
loop_
_space_group_symop_operation_xyz
x,y,z
-x,y,-z
-x,-y,-z
x,-y,z
1/2+x,1/2+y,z
1/2-x,1/2+y,-z
1/2-x,1/2-y,-z
1/2+x,1/2-y,z
loop_
_atom_site_type_symbol
_atom_site_label
_atom_site_fract_x
_atom_site_fract_y
_atom_site_fract_z
Si Si1 0.865776 0.692291 0.450597
Si Si2 0.521400 0.686066 0.688721
Si Si3 0.433900 0.500000 0.411760
Si Si4 0.645702 0.100279 0.091197
Si Si5 0.337391 0.000000 0.486316
Si Si6 0.240218 0.744140 0.211752
Si Si7 0.681087 0.899209 0.914239
O O1 0.750000 0.750000 0.500000
O O2 0.906758 0.735266 0.365578
O O3 0.804185 0.590883 0.436381
O O4 0.000000 0.684962 0.500000
O O5 0.521773 0.589234 0.641800
O O6 0.619846 0.692195 0.763308
O O7 0.362806 0.717793 0.713732
O O8 0.500000 0.500000 0.500000
O O9 0.264728 0.500000 0.430165
O O10 0.664971 0.167919 0.163483
O O11 0.483353 0.094363 0.082364
O O12 0.702246 0.000000 0.113163
O O13 0.722126 0.131267 0.004089
O O14 0.500000 0.000000 0.500000
O O15 0.264367 0.830008 0.154044
O O16 0.745123 0.000000 0.893587
#
# Coordination Sequence:
#
# PCOD8113316 Si02
#       7
#     8   8   4   8   4   8   8
#     4  11  22  44  65  89 118 159 216 257 317 389
#     4  12  28  42  66  95 133 168 208 278 331 386
#     4  12  28  50  68  94 127 175 214 272 341 395
#     4   9  19  40  67  92 129 179 221 259 308 392
#     4  10  24  42  70  90 116 159 217 262 303 391
#     4  12  24  43  61 101 135 169 210 272 333 376
#     4   9  19  40  67  94 128 178 223 255 310 394
#
# _framework density 20.642299000000001
#
# number of rings (size 3 to 8) (size 9 to 14) (size 15 to 20)
#    0.000    1.333    3.333    3.000    7.000    0.000 
#    3.000    0.000    0.000    2.000    0.000    0.000 
#    0.000    0.000    0.000    0.000    0.000    0.000 
#
# Total GULP energy -297370.598638 kJ/mol
# GULP energy per Si atom -12390.441610 kJ/mol
# Density = 2.059532 g / cm^3
# Si number density = 20.642299 Si / 1000 Ang^3
#
#
#
# Elastic Constant Matrix: (Units=GPa)
#
#
# Indices 1 2 3 4 5 6 
#
# 1 68.6748 23.6387 13.7496 0.0000 -10.7149 0.0000
# 2 23.6387 169.0796 57.7541 0.0000 -10.5421 0.0000
# 3 13.7496 57.7541 80.7737 0.0000 -16.1033 0.0000
# 4 0.0000 0.0000 0.0000 43.4990 0.0000 -6.2854
# 5 -10.7149 -10.5421 -16.1033 0.0000 31.6765 0.0000
# 6 0.0000 0.0000 0.0000 -6.2854 0.0000 27.3470
#
#
#
# Elastic Compliance Matrix: (Units=1/GPa)
#
#
# Indices 1 2 3 4 5 6 
#
# 1 0.015987 -0.001762 -0.000557 0.000000 0.004538 0.000000
# 2 -0.001762 0.008022 -0.005589 0.000000 -0.000767 0.000000
# 3 -0.000557 -0.005589 0.017874 0.000000 0.007038 0.000000
# 4 0.000000 0.000000 0.000000 0.023779 0.000000 0.005465
# 5 0.004538 -0.000767 0.007038 0.000000 0.036427 0.000000
# 6 0.000000 0.000000 0.000000 0.005465 0.000000 0.037823
#
#
# Mechanical properties :
#
#
# Convention : Reuss Voigt Hill
#
# Bulk Modulus (GPa) = 38.36053 56.53478 47.44766
# Shear Modulus (GPa) = 30.41041 35.39688 32.90365
#
# Velocity S-wave (km/s) = 3.84240 4.14548 3.99681
# Velocity P-wave (km/s) = 6.18944 7.09652 6.65845
#
# Compressibility (1/GPa) = 0.02606846
#
# Stress axis : x y z
#
# Youngs Moduli (GPa) = 62.54899 124.65883 55.94616
#
# Poissons Ratio (x) = 0.21965 0.03115
# Poissons Ratio (y) = 0.11021 0.31267
# Poissons Ratio (z) = 0.03483 0.69670
#
# Static dielectric constant tensor:
#      x y z
#    x 5.106490 0.000000 -1.142430 
#    y 0.000000 3.957690 0.000000 
#    z -1.142430 0.000000 4.832700 
# 
# 
# High freq. dielectric constant tensor:
#      x y z
#    x 1.801960 0.000000 -0.005450 
#    y 0.000000 1.827040 0.000000 
#    z -0.005450 0.000000 1.804130 
# 
# From -- ./inp_files/255814.got.cif
#   From: 2010.06.25/outbox.cif.g09.slc.cpg/sg12_128_cif.got.tgz:255814.got - 2010.06.28 00:19:55.
