data_PCOD8113809
_publ_section_title
;
Structure prediction by ZEFSAII (Michael W. Deem and Ramdas Pophale) SiO2 
 PCOD8113809
Probable space group: C 2/M
;
_chemical_formula_sum "Si O2"
_cell_formula_units_Z 64
_cell_length_a 12.432904
_cell_length_b 31.300025
_cell_length_c 17.718563
_cell_angle_alpha 90.000000
_cell_angle_beta 31.836768
_cell_angle_gamma 90.000000
_cell_volume 3637.216201
_symmetry_space_group_name_H-M "C 2/M"
_symmetry_group_IT_number 12
_symmetry_cell_setting 'monoclinic'
loop_
_space_group_symop_operation_xyz
x,y,z
-x,y,-z
-x,-y,-z
x,-y,z
1/2+x,1/2+y,z
1/2-x,1/2+y,-z
1/2-x,1/2-y,-z
1/2+x,1/2-y,z
loop_
_atom_site_type_symbol
_atom_site_label
_atom_site_fract_x
_atom_site_fract_y
_atom_site_fract_z
Si Si1 0.825894 0.634148 0.041232
Si Si2 0.809751 0.135717 0.556451
Si Si3 0.732962 0.261688 0.846413
Si Si4 0.767716 0.954561 0.621036
Si Si5 0.727311 0.770749 0.340128
Si Si6 0.544562 0.046574 0.062095
Si Si7 0.021622 0.691329 0.177621
Si Si8 0.524733 0.681291 0.685831
O O1 0.605916 0.640906 0.209416
O O2 0.812679 0.587996 0.006865
O O3 0.864265 0.674973 0.964913
O O4 0.000000 0.632598 0.000000
O O5 0.753137 0.085974 0.572742
O O6 0.602119 0.151754 0.716822
O O7 0.848939 0.165290 0.461120
O O8 0.000000 0.138361 0.500000
O O9 0.763542 0.288719 0.750778
O O10 0.801307 0.292320 0.873061
O O11 0.875234 0.220038 0.753794
O O12 0.500000 0.247816 0.000000
O O13 0.656739 0.945734 0.767409
O O14 0.000000 0.961556 0.500000
O O15 0.685756 0.000000 0.634504
O O16 0.500000 0.757931 0.500000
O O17 0.813591 0.805304 0.346941
O O18 0.863128 0.728501 0.254812
O O19 0.643334 0.000000 0.024537
O O20 0.500000 0.045869 0.000000
#
# Coordination Sequence:
#
# PCOD8113809 Si02
#       8
#     8   8   8   8   8   8   8   8
#     4  11  20  32  50  75 106 138 166 206 244 296
#     4  11  20  32  50  75 102 137 168 209 240 293
#     4  11  22  37  53  71 100 135 169 215 258 295
#     4   9  18  31  47  71 104 139 168 198 244 299
#     4  11  22  37  52  71 100 134 167 215 259 293
#     4   9  18  31  48  72 104 139 166 197 247 300
#     4  11  21  34  53  75  97 131 178 208 248 301
#     4  11  23  34  51  74 101 132 175 208 247 303
#
# _framework density 17.595873999999998
#
# number of rings (size 3 to 8) (size 9 to 14) (size 15 to 20)
#    0.000    1.500    1.250    6.000    5.250    4.000 
#    0.000    0.000    0.000    0.000    0.000    0.000 
#    0.000   20.000    0.000    0.000    0.000    0.000 
#
# Total GULP energy -396538.090694 kJ/mol
# GULP energy per Si atom -12391.815334 kJ/mol
# Density = 1.755582 g / cm^3
# Si number density = 17.595874 Si / 1000 Ang^3
#
#
#
# Elastic Constant Matrix: (Units=GPa)
#
#
# Indices 1 2 3 4 5 6 
#
# 1 74.8074 30.5472 19.5870 -0.0042 6.5208 0.0046
# 2 30.5472 98.8193 -2.7140 -0.0020 0.6525 0.0022
# 3 19.5870 -2.7140 44.3062 -0.0153 6.6063 0.0167
# 4 -0.0042 -0.0020 -0.0153 -5.1295 0.0063 39.2307
# 5 6.5208 0.6525 6.6063 0.0063 25.7240 -0.0069
# 6 0.0046 0.0022 0.0167 39.2307 -0.0069 -20.8808
#
#
#
# Elastic Compliance Matrix: (Units=1/GPa)
#
#
# Indices 1 2 3 4 5 6 
#
# 1 0.018017 -0.005773 -0.007965 0.000001 -0.002375 -0.000001
# 2 -0.005773 0.011991 0.003238 -0.000001 0.000328 0.000001
# 3 -0.007965 0.003238 0.027036 -0.000006 -0.005006 0.000010
# 4 0.000001 -0.000001 -0.000006 0.014582 0.000005 0.027397
# 5 -0.002375 0.000328 -0.005006 0.000005 0.040754 -0.000008
# 6 -0.000001 0.000001 0.000010 0.027397 -0.000008 0.003582
#
#
# Mechanical properties :
#
#
# Convention : Reuss Voigt Hill
#
# Bulk Modulus (GPa) = 27.74318 34.75259 31.24788
# Shear Modulus (GPa) = 33.56236 11.31023 22.43630
#
# Velocity S-wave (km/s) = 4.37212 2.53806 3.57471
# Velocity P-wave (km/s) = 6.42560 5.32750 5.90214
#
# Compressibility (1/GPa) = 0.03604490
#
# Stress axis : x y z
#
# Youngs Moduli (GPa) = 55.50214 83.39811 36.98766
#
# Poissons Ratio (x) = 0.48142 0.29459
# Poissons Ratio (y) = 0.32039 -0.11975
# Poissons Ratio (z) = 0.44205 -0.27001
#
# Static dielectric constant tensor:
#      x y z
#    x 3.287470 0.000000 0.372690 
#    y 0.000000 3.821290 0.000000 
#    z 0.372690 0.000000 3.602160 
# 
# 
# High freq. dielectric constant tensor:
#      x y z
#    x 1.637400 0.000000 0.024700 
#    y 0.000000 1.684620 0.000000 
#    z 0.024700 0.000000 1.697310 
# 
# From -- ./inp_files/80753.got.cif
#   From: 2010.06.25/outbox.cif.g09.slc.cpg/sg12_41_cif.got.tgz:80753.got - 2010.06.28 00:19:55.
