data_PCOD8113758
_publ_section_title
;
Structure prediction by ZEFSAII (Michael W. Deem and Ramdas Pophale) SiO2 
 PCOD8113758
Probable space group: C 2/M
;
_chemical_formula_sum "Si O2"
_cell_formula_units_Z 40
_cell_length_a 27.496445
_cell_length_b 9.686915
_cell_length_c 26.012882
_cell_angle_alpha 90.000000
_cell_angle_beta 161.093285
_cell_angle_gamma 90.000000
_cell_volume 2245.088393
_symmetry_space_group_name_H-M "C 2/M"
_symmetry_group_IT_number 12
_symmetry_cell_setting 'monoclinic'
loop_
_space_group_symop_operation_xyz
x,y,z
-x,y,-z
-x,-y,-z
x,-y,z
1/2+x,1/2+y,z
1/2-x,1/2+y,-z
1/2-x,1/2-y,-z
1/2+x,1/2-y,z
loop_
_atom_site_type_symbol
_atom_site_label
_atom_site_fract_x
_atom_site_fract_y
_atom_site_fract_z
Si Si1 0.822014 0.000000 0.487878
Si Si2 0.322015 0.500000 0.156151
Si Si3 0.677759 0.500000 0.234835
Si Si4 0.822244 0.000000 0.879318
Si Si5 0.322375 0.277464 0.684344
Si Si6 0.322261 0.500000 0.040770
Si Si7 0.322365 0.277466 0.960394
Si Si8 0.822270 0.000000 0.603761
O O1 0.762934 0.133102 0.398821
O O2 0.755827 0.000000 0.479857
O O3 1.000000 0.000000 0.666010
O O4 0.255823 0.500000 0.031793
O O5 0.262947 0.633105 0.127062
O O6 0.749743 0.500000 0.249744
O O7 0.728019 0.362850 0.315619
O O8 0.500002 0.500000 0.053735
O O9 0.771980 0.862851 0.859577
O O10 0.500005 0.251951 0.861142
O O11 0.268890 0.362821 0.580491
O O12 0.268878 0.362822 0.957276
O O13 0.499994 0.500000 0.219402
#
# Coordination Sequence:
#
# PCOD8113758 Si02
#       8
#     4   4   4   4   8   4   8   4
#     4  11  20  29  43  68 102 129 151 182 222 271
#     4  11  20  29  43  68 102 129 151 182 222 271
#     4   8  15  31  55  75  87 108 151 202 239 269
#     4   8  15  31  55  75  87 108 151 202 239 269
#     4   9  17  31  50  70  92 119 154 192 230 270
#     4   8  16  30  47  67  92 125 159 189 221 263
#     4   9  17  31  50  70  92 119 154 192 230 270
#     4   8  16  30  47  67  92 125 159 189 221 263
#
# _framework density 17.816669999999998
#
# number of rings (size 3 to 8) (size 9 to 14) (size 15 to 20)
#    0.000    3.000    0.000    4.200    0.000    0.000 
#    0.000    7.000    0.000    8.400    0.000    0.000 
#    0.000    0.000    0.000    0.000    0.000    0.000 
#
# Total GULP energy -247938.467378 kJ/mol
# GULP energy per Si atom -12396.923369 kJ/mol
# Density = 1.777612 g / cm^3
# Si number density = 17.816670 Si / 1000 Ang^3
#
#
#
# Elastic Constant Matrix: (Units=GPa)
#
#
# Indices 1 2 3 4 5 6 
#
# 1 128.1157 71.9008 29.7543 -0.0005 -19.3691 0.0001
# 2 71.9008 172.6896 42.6033 -0.0031 -8.4334 -0.0008
# 3 29.7543 42.6033 41.3709 -0.0030 -5.5999 -0.0008
# 4 -0.0005 -0.0031 -0.0030 17.6271 -0.0012 0.9008
# 5 -19.3691 -8.4334 -5.5999 -0.0012 19.4998 -0.0001
# 6 0.0001 -0.0008 -0.0008 0.9008 -0.0001 14.5009
#
#
#
# Elastic Compliance Matrix: (Units=1/GPa)
#
#
# Indices 1 2 3 4 5 6 
#
# 1 0.012155 -0.003698 -0.003658 0.000000 0.009424 0.000000
# 2 -0.003698 0.008911 -0.006755 0.000000 -0.001759 0.000000
# 3 -0.003658 -0.006755 0.034201 0.000005 0.003267 0.000001
# 4 0.000000 0.000000 0.000005 0.056911 0.000005 -0.003535
# 5 0.009424 -0.001759 0.003267 0.000005 0.060820 0.000000
# 6 0.000000 0.000000 0.000001 -0.003535 0.000000 0.069181
#
#
# Mechanical properties :
#
#
# Convention : Reuss Voigt Hill
#
# Bulk Modulus (GPa) = 36.97591 70.07701 53.52646
# Shear Modulus (GPa) = 17.89438 23.52008 20.70723
#
# Velocity S-wave (km/s) = 3.17260 3.63728 3.41286
# Velocity P-wave (km/s) = 5.84971 7.55364 6.75561
#
# Compressibility (1/GPa) = 0.02704464
#
# Stress axis : x y z
#
# Youngs Moduli (GPa) = 82.26865 112.21995 29.23901
#
# Poissons Ratio (x) = 0.41502 0.10696
# Poissons Ratio (y) = 0.30425 0.19751
# Poissons Ratio (z) = 0.30095 0.75803
#
# Static dielectric constant tensor:
#      x y z
#    x 3.659080 0.000000 -0.223640 
#    y 0.000000 3.290160 0.000000 
#    z -0.223640 0.000000 2.882090 
# 
# 
# High freq. dielectric constant tensor:
#      x y z
#    x 1.677330 0.000000 -0.007570 
#    y 0.000000 1.696110 0.000000 
#    z -0.007570 0.000000 1.651030 
# 
# From -- ./inp_files/368959.got.cif
#   From: 2010.06.25/outbox.cif.g09.slc.cpg/sg12_185_cif.got.tgz:368959.got - 2010.06.28 00:19:55.
