data_PCOD8113566
_publ_section_title
;
Structure prediction by ZEFSAII (Michael W. Deem and Ramdas Pophale) SiO2 
 PCOD8113566
Probable space group: C 2/M
;
_chemical_formula_sum "Si O2"
_cell_formula_units_Z 52
_cell_length_a 12.415798
_cell_length_b 19.220363
_cell_length_c 16.793572
_cell_angle_alpha 90.000000
_cell_angle_beta 140.195493
_cell_angle_gamma 90.000000
_cell_volume 2565.515910
_symmetry_space_group_name_H-M "C 2/M"
_symmetry_group_IT_number 12
_symmetry_cell_setting 'monoclinic'
loop_
_space_group_symop_operation_xyz
x,y,z
-x,y,-z
-x,-y,-z
x,-y,z
1/2+x,1/2+y,z
1/2-x,1/2+y,-z
1/2-x,1/2-y,-z
1/2+x,1/2-y,z
loop_
_atom_site_type_symbol
_atom_site_label
_atom_site_fract_x
_atom_site_fract_y
_atom_site_fract_z
Si Si1 0.037431 0.000000 0.161328
Si Si2 0.259440 0.000000 0.131224
Si Si3 0.942206 0.193890 0.049473
Si Si4 0.359851 0.359925 0.699567
Si Si5 0.938964 0.771759 0.304646
Si Si6 0.500000 0.195845 0.500000
Si Si7 0.073684 0.662958 0.115719
Si Si8 0.598203 0.140025 0.831224
O O1 0.066127 0.935542 0.237155
O O2 0.165417 0.000000 0.161276
O O3 0.854567 0.000000 0.014397
O O4 0.379172 0.067566 0.201624
O O5 0.084826 0.189362 0.197024
O O6 0.930052 0.276049 0.029617
O O7 0.767936 0.159270 0.976685
O O8 0.000000 0.155309 0.000000
O O9 0.433830 0.329482 0.659021
O O10 0.158151 0.356394 0.583603
O O11 0.760552 0.809303 0.210360
O O12 0.935722 0.702839 0.248468
O O13 0.001764 0.747961 0.426330
O O14 0.052458 0.627977 0.190467
O O15 0.000000 0.615361 0.000000
#
# Coordination Sequence:
#
# PCOD8113566 Si02
#       8
#     4   4   8   8   8   4   8   8
#     4  11  24  41  59  91 128 158 196 240 308 366
#     4  11  24  34  60  91 131 164 191 236 294 374
#     4  11  17  32  57  87 118 150 192 241 297 352
#     4  12  24  40  62  89 123 162 198 253 302 355
#     4  12  23  40  64  89 121 157 206 257 301 348
#     4  12  24  41  62  89 114 152 216 264 300 343
#     4  11  21  33  59  92 121 156 197 246 299 362
#     4  12  21  37  58  90 126 161 197 240 303 361
#
# _framework density 20.268827000000002
#
# number of rings (size 3 to 8) (size 9 to 14) (size 15 to 20)
#    0.000    0.462    7.692    3.692    0.000    0.308 
#    0.000    1.923    0.000    0.462    0.000    0.000 
#    0.000    0.000    0.000    0.000    0.000    0.000 
#
# Total GULP energy -322150.238185 kJ/mol
# GULP energy per Si atom -12390.393776 kJ/mol
# Density = 2.022269 g / cm^3
# Si number density = 20.268827 Si / 1000 Ang^3
#
#
#
# Elastic Constant Matrix: (Units=GPa)
#
#
# Indices 1 2 3 4 5 6 
#
# 1 125.3935 42.1549 34.3007 -0.0001 -7.0612 0.0001
# 2 42.1549 94.6343 15.8132 0.0000 -0.1186 0.0001
# 3 34.3007 15.8132 85.3727 -0.0005 -7.9817 -0.0001
# 4 -0.0001 0.0000 -0.0005 12.2001 -0.0002 -0.6456
# 5 -7.0612 -0.1186 -7.9817 -0.0002 27.8807 0.0000
# 6 0.0001 0.0001 -0.0001 -0.6456 0.0000 21.1967
#
#
#
# Elastic Compliance Matrix: (Units=1/GPa)
#
#
# Indices 1 2 3 4 5 6 
#
# 1 0.010317 -0.004053 -0.003239 0.000000 0.001669 0.000000
# 2 -0.004053 0.012504 -0.000800 0.000000 -0.001202 0.000000
# 3 -0.003239 -0.000800 0.013446 0.000001 0.003026 0.000000
# 4 0.000000 0.000000 0.000001 0.082099 0.000001 0.002501
# 5 0.001669 -0.001202 0.003026 0.000001 0.037151 0.000000
# 6 0.000000 0.000000 0.000000 0.002501 0.000000 0.047253
#
#
# Mechanical properties :
#
#
# Convention : Reuss Voigt Hill
#
# Bulk Modulus (GPa) = 49.78993 54.43756 52.11374
# Shear Modulus (GPa) = 22.15841 26.46427 24.31134
#
# Velocity S-wave (km/s) = 3.30998 3.61732 3.46706
# Velocity P-wave (km/s) = 6.26307 6.66053 6.46486
#
# Compressibility (1/GPa) = 0.02008438
#
# Stress axis : x y z
#
# Youngs Moduli (GPa) = 96.92631 79.97175 74.37359
#
# Poissons Ratio (x) = 0.32409 0.24086
# Poissons Ratio (y) = 0.39280 0.05952
# Poissons Ratio (z) = 0.31390 0.06400
#
# Static dielectric constant tensor:
#      x y z
#    x 4.155490 0.000000 -0.109220 
#    y 0.000000 3.529670 0.000000 
#    z -0.109220 0.000000 3.576260 
# 
# 
# High freq. dielectric constant tensor:
#      x y z
#    x 1.808070 0.000000 -0.005690 
#    y 0.000000 1.760820 0.000000 
#    z -0.005690 0.000000 1.773690 
# 
# From -- ./inp_files/265155.got.cif
#   From: 2010.06.25/outbox.cif.g09.slc.cpg/sg12_133_cif.got.tgz:265155.got - 2010.06.28 00:19:55.
