data_PCOD8113611
_publ_section_title
;
Structure prediction by ZEFSAII (Michael W. Deem and Ramdas Pophale) SiO2 
 PCOD8113611
Probable space group: C 2/M
;
_chemical_formula_sum "Si O2"
_cell_formula_units_Z 64
_cell_length_a 15.474399
_cell_length_b 29.258601
_cell_length_c 12.987690
_cell_angle_alpha 90.000000
_cell_angle_beta 35.680914
_cell_angle_gamma 90.000000
_cell_volume 3429.804725
_symmetry_space_group_name_H-M "C 2/M"
_symmetry_group_IT_number 12
_symmetry_cell_setting 'monoclinic'
loop_
_space_group_symop_operation_xyz
x,y,z
-x,y,-z
-x,-y,-z
x,-y,z
1/2+x,1/2+y,z
1/2-x,1/2+y,-z
1/2-x,1/2-y,-z
1/2+x,1/2-y,z
loop_
_atom_site_type_symbol
_atom_site_label
_atom_site_fract_x
_atom_site_fract_y
_atom_site_fract_z
Si Si1 0.603639 0.785973 0.319696
Si Si2 0.921841 0.198990 0.970349
Si Si3 0.757206 0.950482 0.780323
Si Si4 0.706776 0.300136 0.356420
Si Si5 0.983044 0.287803 0.215303
Si Si6 0.499022 0.645367 0.296412
Si Si7 0.426497 0.449854 0.417905
Si Si8 0.822222 0.358995 0.068200
O O1 0.500000 0.814704 0.500000
O O2 0.646775 0.740586 0.343012
O O3 0.505307 0.774351 0.313774
O O4 0.748254 0.814771 0.146728
O O5 0.920330 0.252844 0.946650
O O6 0.018706 0.172831 0.791935
O O7 0.000000 0.187354 0.000000
O O8 0.786552 0.945077 0.629954
O O9 0.646616 0.912094 0.932820
O O10 0.919052 0.946700 0.672509
O O11 0.685227 0.000000 0.874013
O O12 0.572929 0.328922 0.536230
O O13 0.809426 0.332743 0.188451
O O14 0.811171 0.282857 0.349654
O O15 0.046094 0.338494 0.129398
O O16 0.425956 0.595195 0.345916
O O17 0.672734 0.643772 0.148246
O O18 0.416327 0.500000 0.371185
#
# Coordination Sequence:
#
# PCOD8113611 Si02
#       8
#     8   8   8   8   8   8   8   8
#     4  12  25  40  55  74 105 146 188 225 268 318
#     4  12  23  39  54  76 111 140 183 234 266 310
#     4   8  14  25  48  79 109 138 172 215 264 322
#     4  12  23  36  55  79 108 146 186 223 264 326
#     4  12  24  39  54  74 112 151 184 227 270 311
#     4  11  22  34  57  84 105 143 185 220 270 325
#     4   8  14  28  49  79 111 136 169 217 270 323
#     4  11  18  34  54  78 111 144 181 218 267 320
#
# _framework density 18.659953999999999
#
# number of rings (size 3 to 8) (size 9 to 14) (size 15 to 20)
#    0.000    1.250    5.000    4.125    1.750    1.000 
#    0.000    0.000    0.000    2.625    0.000    0.000 
#    0.000    1.000    0.000    0.000    0.000    0.000 
#
# Total GULP energy -396541.766923 kJ/mol
# GULP energy per Si atom -12391.930216 kJ/mol
# Density = 1.861748 g / cm^3
# Si number density = 18.659954 Si / 1000 Ang^3
#
#
#
# Elastic Constant Matrix: (Units=GPa)
#
#
# Indices 1 2 3 4 5 6 
#
# 1 86.6742 20.6706 6.7100 0.0000 10.4789 0.0000
# 2 20.6706 116.3224 36.4878 0.0000 12.2052 0.0000
# 3 6.7100 36.4878 56.4622 0.0000 9.3684 0.0000
# 4 0.0000 0.0000 0.0000 21.6929 0.0000 2.7979
# 5 10.4789 12.2052 9.3684 0.0000 24.6277 0.0000
# 6 0.0000 0.0000 0.0000 2.7979 0.0000 7.7750
#
#
#
# Elastic Compliance Matrix: (Units=1/GPa)
#
#
# Indices 1 2 3 4 5 6 
#
# 1 0.012504 -0.001899 0.000500 0.000000 -0.004569 0.000000
# 2 -0.001899 0.011265 -0.006684 0.000000 -0.002232 0.000000
# 3 0.000500 -0.006684 0.022902 0.000000 -0.005612 0.000000
# 4 0.000000 0.000000 0.000000 0.048342 0.000000 -0.017396
# 5 -0.004569 -0.002232 -0.005612 0.000000 0.045790 0.000000
# 6 0.000000 0.000000 0.000000 -0.017396 0.000000 0.134877
#
#
# Mechanical properties :
#
#
# Convention : Reuss Voigt Hill
#
# Bulk Modulus (GPa) = 32.78233 43.02173 37.90203
# Shear Modulus (GPa) = 16.55545 23.85848 20.20697
#
# Velocity S-wave (km/s) = 2.98185 3.57962 3.29432
# Velocity P-wave (km/s) = 5.42786 6.33961 5.90137
#
# Compressibility (1/GPa) = 0.03050423
#
# Stress axis : x y z
#
# Youngs Moduli (GPa) = 79.97347 88.76999 43.66411
#
# Poissons Ratio (x) = 0.16860 -0.02181
# Poissons Ratio (y) = 0.15189 0.29184
# Poissons Ratio (z) = -0.03995 0.59332
#
# Static dielectric constant tensor:
#      x y z
#    x 3.230160 0.000000 -0.001300 
#    y 0.000000 3.659240 0.000000 
#    z -0.001300 0.000000 3.431920 
# 
# 
# High freq. dielectric constant tensor:
#      x y z
#    x 1.701370 0.000000 -0.008160 
#    y 0.000000 1.703240 0.000000 
#    z -0.008160 0.000000 1.718390 
# 
# From -- ./inp_files/150270.got.cif
#   From: 2010.06.25/outbox.cif.g09.slc.cpg/sg12_76_cif.got.tgz:150270.got - 2010.06.28 00:19:55.
