data_PCOD8113999
_publ_section_title
;
Structure prediction by ZEFSAII (Michael W. Deem and Ramdas Pophale) SiO2 
 PCOD8113999
Probable space group: C 2/M
;
_chemical_formula_sum "Si O2"
_cell_formula_units_Z 48
_cell_length_a 9.648236
_cell_length_b 24.639248
_cell_length_c 13.782945
_cell_angle_alpha 90.000000
_cell_angle_beta 134.230604
_cell_angle_gamma 90.000000
_cell_volume 2347.776172
_symmetry_space_group_name_H-M "C 2/M"
_symmetry_group_IT_number 12
_symmetry_cell_setting 'monoclinic'
loop_
_space_group_symop_operation_xyz
x,y,z
-x,y,-z
-x,-y,-z
x,-y,z
1/2+x,1/2+y,z
1/2-x,1/2+y,-z
1/2-x,1/2-y,-z
1/2+x,1/2-y,z
loop_
_atom_site_type_symbol
_atom_site_label
_atom_site_fract_x
_atom_site_fract_y
_atom_site_fract_z
Si Si1 0.026783 0.125156 0.273146
Si Si2 0.684124 0.806534 0.016345
Si Si3 0.362620 0.561691 0.348421
Si Si4 0.819792 0.803246 0.482957
Si Si5 0.354519 0.936426 0.338914
Si Si6 0.517335 0.126467 0.237743
O O1 0.140326 0.153109 0.415426
O O2 0.169092 0.103062 0.260064
O O3 0.866671 0.167933 0.160661
O O4 0.946660 0.069590 0.281998
O O5 0.500000 0.798579 0.000000
O O6 0.750000 0.750000 0.000000
O O7 0.646305 0.849709 0.912261
O O8 0.500000 0.588272 0.500000
O O9 0.331979 0.500000 0.360841
O O10 0.158475 0.590689 0.241837
O O11 0.750000 0.750000 0.500000
O O12 0.633027 0.821814 0.332405
O O13 0.000000 0.791731 0.500000
O O14 0.500000 0.929196 0.500000
O O15 0.444898 0.914355 0.284693
O O16 0.299205 0.000000 0.300083
#
# Coordination Sequence:
#
# PCOD8113999 Si02
#       6
#     8   8   8   8   8   8
#     4  12  23  44  66 100 136 174 227 280 336 402
#     4  12  28  48  71  98 136 184 229 280 347 406
#     4  11  20  39  70  99 131 175 221 281 344 401
#     4  12  24  40  65  96 128 170 231 288 341 398
#     4  11  24  43  72 107 139 179 225 277 342 401
#     4  12  23  44  66 100 136 174 227 280 336 402
#
# _framework density 20.444879
#
# number of rings (size 3 to 8) (size 9 to 14) (size 15 to 20)
#    0.000    0.333    6.667    2.000    4.667    2.667 
#    0.000    5.000    0.000    0.000    0.000    0.000 
#    0.000    0.000    0.000    0.000    0.000    0.000 
#
# Total GULP energy -297487.490921 kJ/mol
# GULP energy per Si atom -12395.312122 kJ/mol
# Density = 2.039835 g / cm^3
# Si number density = 20.444879 Si / 1000 Ang^3
#
#
#
# Elastic Constant Matrix: (Units=GPa)
#
#
# Indices 1 2 3 4 5 6 
#
# 1 80.4005 47.5499 16.2450 0.0000 6.3204 0.0000
# 2 47.5499 108.3176 22.7737 0.0000 3.5725 0.0000
# 3 16.2450 22.7737 55.8682 0.0000 -1.3943 0.0000
# 4 0.0000 0.0000 0.0000 39.3200 0.0000 9.8869
# 5 6.3204 3.5725 -1.3943 0.0000 30.7650 0.0000
# 6 0.0000 0.0000 0.0000 9.8869 0.0000 55.1304
#
#
#
# Elastic Compliance Matrix: (Units=1/GPa)
#
#
# Indices 1 2 3 4 5 6 
#
# 1 0.017259 -0.007014 -0.002230 0.000000 -0.002832 0.000000
# 2 -0.007014 0.013005 -0.003267 0.000000 -0.000217 0.000000
# 3 -0.002230 -0.003267 0.019923 0.000000 0.001740 0.000000
# 4 0.000000 0.000000 0.000000 0.026633 0.000000 -0.004776
# 5 -0.002832 -0.000217 0.001740 0.000000 0.033190 0.000000
# 6 0.000000 0.000000 0.000000 -0.004776 0.000000 0.018995
#
#
# Mechanical properties :
#
#
# Convention : Reuss Voigt Hill
#
# Bulk Modulus (GPa) = 39.73841 46.41372 43.07607
# Shear Modulus (GPa) = 30.78473 35.57760 33.18117
#
# Velocity S-wave (km/s) = 3.88460 4.17606 4.03296
# Velocity P-wave (km/s) = 6.29279 6.78261 6.54229
#
# Compressibility (1/GPa) = 0.02516457
#
# Stress axis : x y z
#
# Youngs Moduli (GPa) = 57.93971 76.89107 50.19330
#
# Poissons Ratio (x) = 0.53934 0.11193
# Poissons Ratio (y) = 0.40641 0.16399
# Poissons Ratio (z) = 0.12920 0.25122
#
# Static dielectric constant tensor:
#      x y z
#    x 3.967680 0.000000 0.121670 
#    y 0.000000 3.572420 0.000000 
#    z 0.121670 0.000000 3.738050 
# 
# 
# High freq. dielectric constant tensor:
#      x y z
#    x 1.813470 0.000000 0.002080 
#    y 0.000000 1.813000 0.000000 
#    z 0.002080 0.000000 1.787950 
# 
# From -- ./inp_files/200229.got.cif
#   From: 2010.06.25/outbox.cif.g09.slc.cpg/sg12_101_cif.got.tgz:200229.got - 2010.06.28 00:19:55.
