data_PCOD8113089
_publ_section_title
;
Structure prediction by ZEFSAII (Michael W. Deem and Ramdas Pophale) SiO2 
 PCOD8113089
Probable space group: C 2/M
;
_chemical_formula_sum "Si O2"
_cell_formula_units_Z 64
_cell_length_a 20.437511
_cell_length_b 16.619148
_cell_length_c 23.615581
_cell_angle_alpha 90.000000
_cell_angle_beta 23.213726
_cell_angle_gamma 90.000000
_cell_volume 3161.624191
_symmetry_space_group_name_H-M "C 2/M"
_symmetry_group_IT_number 12
_symmetry_cell_setting 'monoclinic'
loop_
_space_group_symop_operation_xyz
x,y,z
-x,y,-z
-x,-y,-z
x,-y,z
1/2+x,1/2+y,z
1/2-x,1/2+y,-z
1/2-x,1/2-y,-z
1/2+x,1/2-y,z
loop_
_atom_site_type_symbol
_atom_site_label
_atom_site_fract_x
_atom_site_fract_y
_atom_site_fract_z
Si Si1 0.647333 0.090933 0.338204
Si Si2 0.030171 0.662475 0.138835
Si Si3 0.373621 0.329519 0.244913
Si Si4 0.865159 0.093527 0.895278
Si Si5 0.692565 0.910036 0.592348
Si Si6 0.079561 0.671731 0.568630
Si Si7 0.469567 0.345623 0.693294
Si Si8 0.122860 0.593221 0.948926
O O1 0.500000 0.086414 0.500000
O O2 0.796217 0.145178 0.245874
O O3 0.580673 0.131458 0.333621
O O4 0.709939 0.000000 0.275482
O O5 0.993822 0.751939 0.144857
O O6 0.880697 0.642698 0.299143
O O7 0.200526 0.647229 0.038807
O O8 0.043388 0.604839 0.073888
O O9 0.499426 0.401206 0.162517
O O10 0.226826 0.315585 0.406694
O O11 0.953066 0.135661 0.772405
O O12 0.819703 0.000000 0.920128
O O13 0.641519 0.883790 0.570129
O O14 0.890783 0.904904 0.442437
O O15 0.629492 0.000000 0.651237
O O16 0.027199 0.754883 0.638600
O O17 0.294592 0.360020 0.802138
O O18 0.158395 0.500000 0.910580
O O19 0.000000 0.628849 0.000000
#
# Coordination Sequence:
#
# PCOD8113089 Si02
#       8
#     8   8   8   8   8   8   8   8
#     4   9  20  37  58  86 121 162 204 245 295 363
#     4  11  23  39  60  92 126 156 204 254 317 357
#     4  11  21  37  61  90 123 162 204 254 304 361
#     4  11  22  39  62  88 121 162 210 255 301 367
#     4  12  22  37  63  92 127 162 198 255 314 359
#     4  11  22  37  59  92 129 157 203 251 308 363
#     4  11  21  37  62  90 121 156 205 251 304 363
#     4  10  23  44  65  86 119 164 213 252 298 369
#
# _framework density 20.242760000000001
#
# number of rings (size 3 to 8) (size 9 to 14) (size 15 to 20)
#    0.000    1.250    2.500    5.250    1.750    2.000 
#    0.000    0.625    0.000    2.250    0.000    6.125 
#    0.000    0.000    0.000    0.000    0.000    0.000 
#
# Total GULP energy -396726.260991 kJ/mol
# GULP energy per Si atom -12397.695656 kJ/mol
# Density = 2.019669 g / cm^3
# Si number density = 20.242760 Si / 1000 Ang^3
#
#
#
# Elastic Constant Matrix: (Units=GPa)
#
#
# Indices 1 2 3 4 5 6 
#
# 1 105.7866 26.9291 43.7875 -0.0066 -31.0845 0.0069
# 2 26.9291 116.2220 18.9386 0.0261 -14.8545 0.0061
# 3 43.7875 18.9386 95.6612 0.0182 -16.2346 0.0071
# 4 -0.0066 0.0261 0.0182 24.8593 0.0053 -7.7549
# 5 -31.0845 -14.8545 -16.2346 0.0053 34.7797 -0.0030
# 6 0.0069 0.0061 0.0071 -7.7549 -0.0030 22.7596
#
#
#
# Elastic Compliance Matrix: (Units=1/GPa)
#
#
# Indices 1 2 3 4 5 6 
#
# 1 0.014834 -0.001324 -0.004750 0.000007 0.010475 0.000001
# 2 -0.001324 0.009357 -0.000835 -0.000012 0.002423 -0.000006
# 3 -0.004750 -0.000835 0.013046 -0.000012 0.001487 -0.000006
# 4 0.000007 -0.000012 -0.000012 0.045011 -0.000010 0.015336
# 5 0.010475 0.002423 0.001487 -0.000010 0.039844 -0.000002
# 6 0.000001 -0.000006 -0.000006 0.015336 -0.000002 0.049163
#
#
# Mechanical properties :
#
#
# Convention : Reuss Voigt Hill
#
# Bulk Modulus (GPa) = 42.70273 55.22000 48.96136
# Shear Modulus (GPa) = 25.92289 31.68070 28.80180
#
# Velocity S-wave (km/s) = 3.58243 3.96035 3.77612
# Velocity P-wave (km/s) = 6.18489 6.94626 6.57660
#
# Compressibility (1/GPa) = 0.02341771
#
# Stress axis : x y z
#
# Youngs Moduli (GPa) = 67.41061 106.87392 76.65380
#
# Poissons Ratio (x) = 0.14153 0.36413
# Poissons Ratio (y) = 0.08927 0.06401
# Poissons Ratio (z) = 0.32022 0.08925
#
# Static dielectric constant tensor:
#      x y z
#    x 3.764020 -0.000040 -0.288470 
#    y -0.000040 3.755890 0.000120 
#    z -0.288470 0.000120 3.684550 
# 
# 
# High freq. dielectric constant tensor:
#      x y z
#    x 1.785310 0.000000 -0.018520 
#    y 0.000000 1.798040 0.000010 
#    z -0.018520 0.000010 1.784980 
# 
# From -- ./inp_files/347877.got.cif
#   From: 2010.06.25/outbox.cif.g09.slc.cpg/sg12_174_cif.got.tgz:347877.got - 2010.06.28 00:19:55.
