data_PCOD8113609
_publ_section_title
;
Structure prediction by ZEFSAII (Michael W. Deem and Ramdas Pophale) SiO2 
 PCOD8113609
Probable space group: C 2/M
;
_chemical_formula_sum "Si O2"
_cell_formula_units_Z 40
_cell_length_a 25.058214
_cell_length_b 9.776746
_cell_length_c 24.414358
_cell_angle_alpha 90.000000
_cell_angle_beta 23.859847
_cell_angle_gamma 90.000000
_cell_volume 2419.408010
_symmetry_space_group_name_H-M "C 2/M"
_symmetry_group_IT_number 12
_symmetry_cell_setting 'monoclinic'
loop_
_space_group_symop_operation_xyz
x,y,z
-x,y,-z
-x,-y,-z
x,-y,z
1/2+x,1/2+y,z
1/2-x,1/2+y,-z
1/2-x,1/2-y,-z
1/2+x,1/2-y,z
loop_
_atom_site_type_symbol
_atom_site_label
_atom_site_fract_x
_atom_site_fract_y
_atom_site_fract_z
Si Si1 0.871286 0.500000 0.657038
Si Si2 0.952195 0.500000 0.879938
Si Si3 0.169146 0.708286 0.212046
Si Si4 0.580058 0.500000 0.141716
Si Si5 0.096065 0.000000 0.858520
Si Si6 0.381253 0.000000 0.828640
Si Si7 0.852546 0.000000 0.803296
Si Si8 0.027620 0.791594 0.103163
O O1 0.871675 0.636755 0.693311
O O2 0.747035 0.500000 0.733741
O O3 0.000000 0.500000 0.500000
O O4 0.979105 0.500000 0.789063
O O5 0.015933 0.634210 0.847910
O O6 0.796960 0.500000 0.036057
O O7 0.096624 0.634955 0.228985
O O8 0.121508 0.865644 0.257769
O O9 0.326125 0.693400 0.058639
O O10 0.551003 0.500000 0.234060
O O11 0.519983 0.364858 0.169587
O O12 0.735442 0.500000 0.988826
O O13 0.071342 0.136505 0.846110
O O14 0.000000 0.000000 0.000000
#
# Coordination Sequence:
#
# PCOD8113609 Si02
#       8
#     4   4   8   4   4   4   4   8
#     4  11  22  36  52  66  84 120 168 202 230 276
#     4   9  15  23  38  74 106 122 145 184 229 276
#     4   9  16  28  44  70  94 124 157 188 230 274
#     4   8  13  22  38  68 100 132 151 170 224 284
#     4  11  18  34  52  64  88 126 155 196 242 269
#     4   8  13  22  40  63 104 133 145 177 225 276
#     4   9  15  23  42  69 104 125 144 187 234 276
#     4   9  16  26  45  70  98 124 152 185 227 281
#
# _framework density 16.532969000000001
#
# number of rings (size 3 to 8) (size 9 to 14) (size 15 to 20)
#    0.000    2.800    2.000    2.400    0.000    4.800 
#    0.000    2.000    0.000    0.000    0.000   22.400 
#    0.000    0.000    0.000    0.000    0.000    0.000 
#
# Total GULP energy -247898.760466 kJ/mol
# GULP energy per Si atom -12394.938023 kJ/mol
# Density = 1.649534 g / cm^3
# Si number density = 16.532969 Si / 1000 Ang^3
#
#
#
# Elastic Constant Matrix: (Units=GPa)
#
#
# Indices 1 2 3 4 5 6 
#
# 1 126.6840 74.9789 39.7924 0.0000 1.9765 -0.0001
# 2 74.9789 174.9469 30.1061 -0.0015 5.5656 0.0003
# 3 39.7924 30.1061 48.8580 -0.0014 1.4354 0.0003
# 4 0.0000 -0.0015 -0.0014 13.1233 0.0002 -1.1324
# 5 1.9765 5.5656 1.4354 0.0002 10.9234 0.0001
# 6 -0.0001 0.0003 0.0003 -1.1324 0.0001 20.0884
#
#
#
# Elastic Compliance Matrix: (Units=1/GPa)
#
#
# Indices 1 2 3 4 5 6 
#
# 1 0.012829 -0.004164 -0.007907 -0.000001 0.000839 0.000000
# 2 -0.004164 0.007829 -0.001343 0.000001 -0.003059 0.000000
# 3 -0.007907 -0.001343 0.027780 0.000003 -0.001535 0.000000
# 4 -0.000001 0.000001 0.000003 0.076573 -0.000002 0.004316
# 5 0.000839 -0.003059 -0.001535 -0.000002 0.093155 0.000000
# 6 0.000000 0.000000 0.000000 0.004316 0.000000 0.050023
#
#
# Mechanical properties :
#
#
# Convention : Reuss Voigt Hill
#
# Bulk Modulus (GPa) = 46.27579 71.13817 58.70698
# Shear Modulus (GPa) = 16.54420 22.53445 19.53932
#
# Velocity S-wave (km/s) = 3.16678 3.69589 3.44152
# Velocity P-wave (km/s) = 6.43600 7.83162 7.16786
#
# Compressibility (1/GPa) = 0.02160957
#
# Stress axis : x y z
#
# Youngs Moduli (GPa) = 77.94920 127.72826 35.99705
#
# Poissons Ratio (x) = 0.53188 0.28463
# Poissons Ratio (y) = 0.32460 0.04834
# Poissons Ratio (z) = 0.61636 0.17152
#
# Static dielectric constant tensor:
#      x y z
#    x 3.453250 0.000000 -0.087390 
#    y 0.000000 3.210910 0.000000 
#    z -0.087390 0.000000 2.512340 
# 
# 
# High freq. dielectric constant tensor:
#      x y z
#    x 1.641250 0.000000 0.007450 
#    y 0.000000 1.649100 0.000000 
#    z 0.007450 0.000000 1.554400 
# 
# From -- ./inp_files/179441.got.cif
#   From: 2010.06.25/outbox.cif.g09.slc.cpg/sg12_90_cif.got.tgz:179441.got - 2010.06.28 00:19:55.
