data_PCOD8113910
_publ_section_title
;
Structure prediction by ZEFSAII (Michael W. Deem and Ramdas Pophale) SiO2 
 PCOD8113910
Probable space group: C 2/M
;
_chemical_formula_sum "Si O2"
_cell_formula_units_Z 56
_cell_length_a 12.697184
_cell_length_b 17.325096
_cell_length_c 13.862628
_cell_angle_alpha 90.000000
_cell_angle_beta 126.433882
_cell_angle_gamma 90.000000
_cell_volume 2453.453045
_symmetry_space_group_name_H-M "C 2/M"
_symmetry_group_IT_number 12
_symmetry_cell_setting 'monoclinic'
loop_
_space_group_symop_operation_xyz
x,y,z
-x,y,-z
-x,-y,-z
x,-y,z
1/2+x,1/2+y,z
1/2-x,1/2+y,-z
1/2-x,1/2-y,-z
1/2+x,1/2-y,z
loop_
_atom_site_type_symbol
_atom_site_label
_atom_site_fract_x
_atom_site_fract_y
_atom_site_fract_z
Si Si1 0.839779 0.296807 0.298350
Si Si2 0.052684 0.640919 0.931093
Si Si3 0.335266 0.335393 0.159408
Si Si4 0.046878 0.812685 0.128633
Si Si5 0.293550 0.688192 0.450796
Si Si6 0.036754 0.589404 0.314145
Si Si7 0.003585 0.917379 0.616444
O O1 0.840214 0.253551 0.195560
O O2 0.697238 0.335828 0.232223
O O3 0.858404 0.231891 0.393063
O O4 0.955033 0.361850 0.352069
O O5 0.969599 0.719932 0.874168
O O6 0.038394 0.588296 0.829007
O O7 0.206104 0.654285 0.027670
O O8 0.000000 0.599091 0.000000
O O9 0.459113 0.355026 0.159971
O O10 0.354323 0.391876 0.262825
O O11 0.000000 0.843907 0.000000
O O12 0.250000 0.750000 0.500000
O O13 0.397859 0.647896 0.578766
O O14 0.177317 0.627639 0.366431
O O15 0.052229 0.500000 0.357139
O O16 0.000000 0.924721 0.500000
O O17 0.965921 0.000000 0.641209
#
# Coordination Sequence:
#
# PCOD8113910 Si02
#       7
#     8   8   8   8   8   8   8
#     4  12  21  41  68 100 134 176 238 284 341 411
#     4  11  21  39  67 103 136 179 234 294 347 408
#     4  12  21  40  68  97 135 179 239 286 338 415
#     4  11  20  35  64 103 128 172 229 291 328 396
#     4  12  25  46  73  99 132 179 242 287 333 421
#     4  12  27  45  69 106 148 184 225 293 371 423
#     4  11  25  42  65  97 134 173 219 286 354 405
#
# _framework density 22.824973
#
# number of rings (size 3 to 8) (size 9 to 14) (size 15 to 20)
#    0.000    0.429    7.143    3.429    0.000    0.857 
#    0.000    4.286    0.000    1.714    0.000    0.000 
#    0.000    0.000    0.000    0.000    0.000    0.000 
#
# Total GULP energy -346923.653082 kJ/mol
# GULP energy per Si atom -12390.130467 kJ/mol
# Density = 2.277302 g / cm^3
# Si number density = 22.824973 Si / 1000 Ang^3
#
#
#
# Elastic Constant Matrix: (Units=GPa)
#
#
# Indices 1 2 3 4 5 6 
#
# 1 105.8308 30.0222 3.1091 0.0000 -2.6693 0.0000
# 2 30.0222 118.8188 25.8037 0.0000 1.6076 0.0000
# 3 3.1091 25.8037 62.0907 0.0000 4.3937 0.0000
# 4 0.0000 0.0000 0.0000 44.4985 0.0000 -2.8613
# 5 -2.6693 1.6076 4.3937 0.0000 33.2459 0.0000
# 6 0.0000 0.0000 0.0000 -2.8613 0.0000 22.8202
#
#
#
# Elastic Compliance Matrix: (Units=1/GPa)
#
#
# Indices 1 2 3 4 5 6 
#
# 1 0.010225 -0.002716 0.000554 0.000000 0.000879 0.000000
# 2 -0.002716 0.009973 -0.003996 0.000000 -0.000172 0.000000
# 3 0.000554 -0.003996 0.017889 0.000000 -0.002126 0.000000
# 4 0.000000 0.000000 0.000000 0.022655 0.000000 0.002841
# 5 0.000879 -0.000172 -0.002126 0.000000 0.030439 0.000000
# 6 0.000000 0.000000 0.000000 0.002841 0.000000 0.044177
#
#
# Mechanical properties :
#
#
# Convention : Reuss Voigt Hill
#
# Bulk Modulus (GPa) = 38.80260 44.95670 41.87965
# Shear Modulus (GPa) = 31.99711 35.29993 33.64852
#
# Velocity S-wave (km/s) = 3.74819 3.93688 3.84369
# Velocity P-wave (km/s) = 5.98071 6.35645 6.17144
#
# Compressibility (1/GPa) = 0.02577147
#
# Stress axis : x y z
#
# Youngs Moduli (GPa) = 97.79561 100.27457 55.90044
#
# Poissons Ratio (x) = 0.27234 -0.03100
# Poissons Ratio (y) = 0.26561 0.22339
# Poissons Ratio (z) = -0.05423 0.40072
#
# Static dielectric constant tensor:
#      x y z
#    x 3.535750 0.000000 -0.242380 
#    y 0.000000 4.041110 0.000000 
#    z -0.242380 0.000000 3.900500 
# 
# 
# High freq. dielectric constant tensor:
#      x y z
#    x 1.904790 0.000000 0.001940 
#    y 0.000000 1.861960 0.000000 
#    z 0.001940 0.000000 1.915630 
# 
# From -- ./inp_files/206740.got.cif
#   From: 2010.06.25/outbox.cif.g09.slc.cpg/sg12_104_cif.got.tgz:206740.got - 2010.06.28 00:19:55.
