data_PCOD8113150
_publ_section_title
;
Structure prediction by ZEFSAII (Michael W. Deem and Ramdas Pophale) SiO2 
 PCOD8113150
Probable space group: C 2/M
;
_chemical_formula_sum "Si O2"
_cell_formula_units_Z 48
_cell_length_a 16.521733
_cell_length_b 9.692545
_cell_length_c 28.249783
_cell_angle_alpha 90.000000
_cell_angle_beta 29.848216
_cell_angle_gamma 90.000000
_cell_volume 2251.540184
_symmetry_space_group_name_H-M "C 2/M"
_symmetry_group_IT_number 12
_symmetry_cell_setting 'monoclinic'
loop_
_space_group_symop_operation_xyz
x,y,z
-x,y,-z
-x,-y,-z
x,-y,z
1/2+x,1/2+y,z
1/2-x,1/2+y,-z
1/2-x,1/2-y,-z
1/2+x,1/2-y,z
loop_
_atom_site_type_symbol
_atom_site_label
_atom_site_fract_x
_atom_site_fract_y
_atom_site_fract_z
Si Si1 0.836479 0.333202 0.414867
Si Si2 0.348360 0.738108 0.787502
Si Si3 0.689231 0.844551 0.409880
Si Si4 0.899568 0.500000 0.100574
Si Si5 0.059912 0.500000 0.120032
Si Si6 0.072473 0.000000 0.084921
Si Si7 0.352692 0.500000 0.108602
Si Si8 0.027929 0.782069 0.791863
O O1 0.822969 0.500000 0.427245
O O2 0.750000 0.250000 0.500000
O O3 0.752357 0.281401 0.409703
O O4 0.024453 0.283429 0.318023
O O5 0.217412 0.630728 0.834396
O O6 0.438940 0.680364 0.787708
O O7 0.253014 0.870900 0.851992
O O8 0.500000 0.820287 0.500000
O O9 0.784150 0.829183 0.311414
O O10 0.719455 0.000000 0.415338
O O11 0.023215 0.500000 0.082199
O O12 0.000000 0.500000 0.000000
O O13 0.978363 0.624947 0.189306
O O14 0.254266 0.500000 0.029359
O O15 0.062219 0.864149 0.121467
O O16 0.917839 0.000000 0.128908
O O17 0.500000 0.500000 0.000000
#
# Coordination Sequence:
#
# PCOD8113150 Si02
#       8
#     8   8   8   4   4   4   4   8
#     4  11  25  44  70 101 136 178 225 279 339 404
#     4  11  24  44  68  96 133 177 223 278 335 399
#     4  10  23  44  70  99 134 176 221 275 339 405
#     4  12  26  44  67  98 137 178 227 278 340 402
#     4  12  26  42  63  98 135 170 221 280 328 400
#     4  12  24  42  67  94 129 176 223 270 334 400
#     4  12  24  42  67  98 131 174 221 276 334 402
#     4  11  23  43  67  95 131 175 220 273 335 392
#
# _framework density 21.318740999999999
#
# number of rings (size 3 to 8) (size 9 to 14) (size 15 to 20)
#    0.000    0.833    1.667    5.500    8.167    3.000 
#    0.000    0.000    0.000    0.000    0.000    0.000 
#    0.000    0.000    0.000    0.000    0.000    0.000 
#
# Total GULP energy -297559.970748 kJ/mol
# GULP energy per Si atom -12398.332114 kJ/mol
# Density = 2.127022 g / cm^3
# Si number density = 21.318741 Si / 1000 Ang^3
#
#
#
# Elastic Constant Matrix: (Units=GPa)
#
#
# Indices 1 2 3 4 5 6 
#
# 1 46.8105 -2.6795 12.3273 -0.0004 -1.9912 -0.0002
# 2 -2.6795 142.4473 49.7118 -0.0008 -6.9152 -0.0008
# 3 12.3273 49.7118 161.2715 -0.0009 -12.6348 -0.0011
# 4 -0.0004 -0.0008 -0.0009 23.7397 0.0004 -17.8774
# 5 -1.9912 -6.9152 -12.6348 0.0004 33.2146 0.0006
# 6 -0.0002 -0.0008 -0.0011 -17.8774 0.0006 9.4903
#
#
#
# Elastic Compliance Matrix: (Units=1/GPa)
#
#
# Indices 1 2 3 4 5 6 
#
# 1 0.021981 0.001139 -0.001968 -0.000001 0.000806 -0.000002
# 2 0.001139 0.007943 -0.002474 -0.000001 0.000781 -0.000002
# 3 -0.001968 -0.002474 0.007281 -0.000001 0.002137 -0.000002
# 4 -0.000001 -0.000001 -0.000001 -0.100636 0.000004 -0.189574
# 5 0.000806 0.000781 0.002137 0.000004 0.031131 0.000006
# 6 -0.000002 -0.000002 -0.000002 -0.189574 0.000006 -0.251739
#
#
# Mechanical properties :
#
#
# Convention : Reuss Voigt Hill
#
# Bulk Modulus (GPa) = 32.68120 52.13873 42.40996
# Shear Modulus (GPa) = -18.71023 32.70023 6.99500
#
# Velocity S-wave (km/s) = -2.96572 3.92072 1.81336
# Velocity P-wave (km/s) = 1.90677 6.70864 4.93162
#
# Compressibility (1/GPa) = 0.03059864
#
# Stress axis : x y z
#
# Youngs Moduli (GPa) = 45.49473 125.89723 137.33834
#
# Poissons Ratio (x) = -0.14346 0.27031
# Poissons Ratio (y) = -0.05184 0.33982
# Poissons Ratio (z) = 0.08954 0.31151
#
# Static dielectric constant tensor:
#      x y z
#    x 3.461890 0.000000 -0.024270 
#    y 0.000000 3.790540 0.000000 
#    z -0.024270 0.000000 4.285480 
# 
# 
# High freq. dielectric constant tensor:
#      x y z
#    x 1.821020 0.000000 -0.003320 
#    y 0.000000 1.853230 0.000000 
#    z -0.003320 0.000000 1.858970 
# 
# From -- ./inp_files/377951.got.cif
#   From: 2010.06.25/outbox.cif.g09.slc.cpg/sg12_189_cif.got.tgz:377951.got - 2010.06.28 00:19:55.
