data_PCOD8113070
_publ_section_title
;
Structure prediction by ZEFSAII (Michael W. Deem and Ramdas Pophale) SiO2 
 PCOD8113070
Probable space group: C 2/M
;
_chemical_formula_sum "Si O2"
_cell_formula_units_Z 36
_cell_length_a 22.334377
_cell_length_b 10.557995
_cell_length_c 23.385473
_cell_angle_alpha 90.000000
_cell_angle_beta 18.152937
_cell_angle_gamma 90.000000
_cell_volume 1718.048757
_symmetry_space_group_name_H-M "C 2/M"
_symmetry_group_IT_number 12
_symmetry_cell_setting 'monoclinic'
loop_
_space_group_symop_operation_xyz
x,y,z
-x,y,-z
-x,-y,-z
x,-y,z
1/2+x,1/2+y,z
1/2-x,1/2+y,-z
1/2-x,1/2-y,-z
1/2+x,1/2-y,z
loop_
_atom_site_type_symbol
_atom_site_label
_atom_site_fract_x
_atom_site_fract_y
_atom_site_fract_z
Si Si1 0.027836 0.500000 0.207090
Si Si2 0.510675 0.763658 0.556016
Si Si3 0.409007 0.000000 0.724967
Si Si4 0.133234 0.355158 0.929369
Si Si5 0.075116 0.000000 0.107333
Si Si6 0.575070 0.233179 0.775864
O O1 0.964719 0.500000 0.331114
O O2 0.946367 0.628039 0.253553
O O3 0.262095 0.500000 0.990492
O O4 0.500000 0.806265 0.500000
O O5 0.458095 0.879909 0.643217
O O6 0.355712 0.654342 0.709572
O O7 0.720353 0.710696 0.380064
O O8 0.182522 0.000000 0.947854
O O9 0.077486 0.500000 0.991041
O O10 0.000000 0.297858 0.000000
O O11 0.092528 0.281257 0.025058
O O12 0.942692 0.874911 0.233960
#
# Coordination Sequence:
#
# PCOD8113070 Si02
#       6
#     4   8   4   8   4   8
#     4  10  24  45  74  98 133 183 240 275 345 406
#     4  12  25  42  68 104 140 177 226 280 345 412
#     4  10  24  44  66  97 137 177 236 274 334 408
#     4  11  23  41  65  99 139 178 225 277 336 412
#     4  10  23  43  69  95 137 174 231 280 335 403
#     4  12  23  44  73 101 135 187 222 285 350 399
#
# _framework density 20.954004999999999
#
# number of rings (size 3 to 8) (size 9 to 14) (size 15 to 20)
#    0.667    0.222    5.556    1.667    1.556    1.333 
#    0.000    4.444    0.000    0.000    0.000    0.000 
#    0.000    0.000    0.000    0.000    0.000    0.000 
#
# Total GULP energy -223210.720405 kJ/mol
# GULP energy per Si atom -12400.595578 kJ/mol
# Density = 2.090631 g / cm^3
# Si number density = 20.954005 Si / 1000 Ang^3
#
#
#
# Elastic Constant Matrix: (Units=GPa)
#
#
# Indices 1 2 3 4 5 6 
#
# 1 130.2180 55.8317 39.0877 -0.0143 -15.1537 0.0043
# 2 55.8317 127.4451 22.7770 -0.0646 -0.3671 0.0159
# 3 39.0877 22.7770 98.6174 -0.0810 -16.0369 0.0102
# 4 -0.0143 -0.0646 -0.0810 22.1290 0.0064 -0.4724
# 5 -15.1537 -0.3671 -16.0369 0.0064 35.9128 0.0061
# 6 0.0043 0.0159 0.0102 -0.4724 0.0061 35.8404
#
#
#
# Elastic Compliance Matrix: (Units=1/GPa)
#
#
# Indices 1 2 3 4 5 6 
#
# 1 0.010668 -0.004175 -0.002738 -0.000016 0.003236 0.000001
# 2 -0.004175 0.009841 -0.000958 0.000023 -0.002089 -0.000003
# 3 -0.002738 -0.000958 0.012139 0.000039 0.004255 -0.000003
# 4 -0.000016 0.000023 0.000039 0.045202 0.000002 0.000596
# 5 0.003236 -0.002089 0.004255 0.000002 0.031090 -0.000006
# 6 0.000001 -0.000003 -0.000003 0.000596 -0.000006 0.027909
#
#
# Mechanical properties :
#
#
# Convention : Reuss Voigt Hill
#
# Bulk Modulus (GPa) = 59.14946 65.74147 62.44546
# Shear Modulus (GPa) = 31.60066 34.68204 33.14135
#
# Velocity S-wave (km/s) = 3.88764 4.07277 3.98128
# Velocity P-wave (km/s) = 6.95997 7.31839 7.14143
#
# Compressibility (1/GPa) = 0.01690632
#
# Stress axis : x y z
#
# Youngs Moduli (GPa) = 93.74009 101.61993 82.38190
#
# Poissons Ratio (x) = 0.42424 0.22554
# Poissons Ratio (y) = 0.39134 0.07890
# Poissons Ratio (z) = 0.25664 0.09733
#
# Static dielectric constant tensor:
#      x y z
#    x 3.809900 -0.000010 -0.066570 
#    y -0.000010 3.677500 0.000070 
#    z -0.066570 0.000070 3.761850 
# 
# 
# High freq. dielectric constant tensor:
#      x y z
#    x 1.822870 0.000000 -0.001410 
#    y 0.000000 1.822070 0.000010 
#    z -0.001410 0.000010 1.817130 
# 
# From -- ./inp_files/321473.got.cif
#   From: 2010.06.25/outbox.cif.g09.slc.cpg/sg12_161_cif.got.tgz:321473.got - 2010.06.28 00:19:55.
