data_PCOD8113244
_publ_section_title
;
Structure prediction by ZEFSAII (Michael W. Deem and Ramdas Pophale) SiO2 
 PCOD8113244
Probable space group: C 2/M
;
_chemical_formula_sum "Si O2"
_cell_formula_units_Z 48
_cell_length_a 19.614532
_cell_length_b 14.048019
_cell_length_c 17.004244
_cell_angle_alpha 90.000000
_cell_angle_beta 151.439056
_cell_angle_gamma 90.000000
_cell_volume 2240.077221
_symmetry_space_group_name_H-M "C 2/M"
_symmetry_group_IT_number 12
_symmetry_cell_setting 'monoclinic'
loop_
_space_group_symop_operation_xyz
x,y,z
-x,y,-z
-x,-y,-z
x,-y,z
1/2+x,1/2+y,z
1/2-x,1/2+y,-z
1/2-x,1/2-y,-z
1/2+x,1/2-y,z
loop_
_atom_site_type_symbol
_atom_site_label
_atom_site_fract_x
_atom_site_fract_y
_atom_site_fract_z
Si Si1 0.647315 0.000000 0.104525
Si Si2 0.824536 0.000000 0.055380
Si Si3 0.637863 0.300908 0.832773
Si Si4 0.834038 0.182047 0.315169
Si Si5 0.522195 0.000000 0.803519
Si Si6 0.959590 0.000000 0.868361
Si Si7 0.882540 0.797490 0.813350
Si Si8 0.898133 0.296915 0.671095
O O1 0.739409 0.088378 0.228188
O O2 0.500000 0.000000 0.000000
O O3 0.612606 0.000000 0.976538
O O4 0.875979 0.911281 0.159491
O O5 0.900759 0.000000 0.046950
O O6 0.651123 0.000000 0.869360
O O7 0.684780 0.281382 0.791946
O O8 0.489912 0.249647 0.695895
O O9 0.750000 0.250000 0.000000
O O10 0.770915 0.262147 0.310154
O O11 0.000000 0.160865 0.500000
O O12 0.415988 0.089100 0.685263
O O13 0.866255 0.095655 0.760751
O O14 0.000000 0.000000 0.000000
O O15 0.941760 0.730811 0.803874
O O16 0.000000 0.792668 0.000000
O O17 0.750000 0.250000 0.500000
#
# Coordination Sequence:
#
# PCOD8113244 Si02
#       8
#     4   4   8   8   4   4   8   8
#     4  12  23  42  70  98 133 180 233 286 341 434
#     4  12  22  42  72 103 128 178 248 296 332 416
#     4  12  23  42  70  98 134 184 242 293 346 426
#     4  12  25  42  65 103 143 179 225 294 370 418
#     4  12  24  43  69 102 130 184 240 281 355 429
#     4  10  24  39  69 101 129 176 244 294 335 398
#     4  11  23  44  68  98 137 185 239 285 343 426
#     4  12  26  43  66 102 142 180 227 295 357 417
#
# _framework density 21.427831000000001
#
# number of rings (size 3 to 8) (size 9 to 14) (size 15 to 20)
#    0.000    0.333    5.000    4.750    2.333    1.333 
#    0.000    2.083    0.000    0.000    0.000    0.000 
#    0.000    0.000    0.000    0.000    0.000    0.000 
#
# Total GULP energy -297529.415880 kJ/mol
# GULP energy per Si atom -12397.058995 kJ/mol
# Density = 2.137906 g / cm^3
# Si number density = 21.427831 Si / 1000 Ang^3
#
#
#
# Elastic Constant Matrix: (Units=GPa)
#
#
# Indices 1 2 3 4 5 6 
#
# 1 137.7748 56.7420 24.4808 -0.0003 22.3152 -0.0001
# 2 56.7420 192.1857 59.2083 -0.0007 23.2044 -0.0002
# 3 24.4808 59.2083 116.1328 -0.0020 25.5314 -0.0009
# 4 -0.0003 -0.0007 -0.0020 31.7241 -0.0008 7.4122
# 5 22.3152 23.2044 25.5314 -0.0008 40.5963 -0.0003
# 6 -0.0001 -0.0002 -0.0009 7.4122 -0.0003 35.3173
#
#
#
# Elastic Compliance Matrix: (Units=1/GPa)
#
#
# Indices 1 2 3 4 5 6 
#
# 1 0.008719 -0.002156 0.000051 0.000000 -0.003592 0.000000
# 2 -0.002156 0.006821 -0.002816 0.000000 -0.000943 0.000000
# 3 0.000051 -0.002816 0.011242 0.000000 -0.005489 0.000000
# 4 0.000000 0.000000 0.000000 0.033147 0.000000 -0.006957
# 5 -0.003592 -0.000943 -0.005489 0.000000 0.030598 0.000000
# 6 0.000000 0.000000 0.000000 -0.006957 0.000000 0.029775
#
#
# Mechanical properties :
#
#
# Convention : Reuss Voigt Hill
#
# Bulk Modulus (GPa) = 59.02948 80.77284 69.90116
# Shear Modulus (GPa) = 36.82098 41.90502 39.36300
#
# Velocity S-wave (km/s) = 4.14982 4.42705 4.29068
# Velocity P-wave (km/s) = 7.11120 7.99430 7.56565
#
# Compressibility (1/GPa) = 0.01694069
#
# Stress axis : x y z
#
# Youngs Moduli (GPa) = 114.69150 146.59999 88.94856
#
# Poissons Ratio (x) = 0.31611 -0.00455
# Poissons Ratio (y) = 0.24731 0.25047
# Poissons Ratio (z) = -0.00587 0.41281
#
# Static dielectric constant tensor:
#      x y z
#    x 4.443270 -0.000040 0.153440 
#    y -0.000040 2.541350 0.000020 
#    z 0.153440 0.000020 3.460930 
# 
# 
# High freq. dielectric constant tensor:
#      x y z
#    x 1.862000 0.000000 0.012590 
#    y 0.000000 1.856380 0.000000 
#    z 0.012590 0.000000 1.823930 
# 
# From -- ./inp_files/278296.got.cif
#   From: 2010.06.25/outbox.cif.g09.slc.cpg/sg12_140_cif.got.tgz:278296.got - 2010.06.28 00:19:55.
