data_PCOD8113660
_publ_section_title
;
Structure prediction by ZEFSAII (Michael W. Deem and Ramdas Pophale) SiO2 
 PCOD8113660
Probable space group: C 2/M
;
_chemical_formula_sum "Si O2"
_cell_formula_units_Z 52
_cell_length_a 17.953557
_cell_length_b 25.239417
_cell_length_c 8.452666
_cell_angle_alpha 90.000000
_cell_angle_beta 137.457548
_cell_angle_gamma 90.000000
_cell_volume 2589.749628
_symmetry_space_group_name_H-M "C 2/M"
_symmetry_group_IT_number 12
_symmetry_cell_setting 'monoclinic'
loop_
_space_group_symop_operation_xyz
x,y,z
-x,y,-z
-x,-y,-z
x,-y,z
1/2+x,1/2+y,z
1/2-x,1/2+y,-z
1/2-x,1/2-y,-z
1/2+x,1/2-y,z
loop_
_atom_site_type_symbol
_atom_site_label
_atom_site_fract_x
_atom_site_fract_y
_atom_site_fract_z
Si Si1 0.203987 0.167374 0.722224
Si Si2 0.957861 0.237892 0.684141
Si Si3 0.831218 0.760464 0.792930
Si Si4 0.106501 0.942020 0.887174
Si Si5 0.000000 0.325882 0.500000
Si Si6 0.738517 0.149551 0.837680
Si Si7 0.865058 0.058427 0.442514
O O1 0.082800 0.191974 0.497523
O O2 0.303593 0.202143 0.812349
O O3 0.215804 0.108871 0.658804
O O4 0.206458 0.169548 0.915006
O O5 0.849838 0.244774 0.632171
O O6 0.995183 0.290101 0.649603
O O7 0.057471 0.218921 0.948855
O O8 0.741390 0.804375 0.708185
O O9 0.115549 0.941372 0.713494
O O10 0.977092 0.930645 0.717936
O O11 0.137681 0.000000 0.002522
O O12 0.191618 0.901978 0.107017
O O13 0.890762 0.362960 0.329455
O O14 0.816587 0.000000 0.415222
#
# Coordination Sequence:
#
# PCOD8113660 Si02
#       7
#     8   8   8   8   4   8   8
#     4  11  19  33  54  78 106 145 175 217 268 316
#     4  11  23  35  53  76 111 142 180 220 261 326
#     4  11  22  36  50  80 111 145 176 216 272 319
#     4   8  15  30  51  78 107 137 173 222 266 308
#     4  12  22  36  51  76 109 140 186 222 260 312
#     4  11  21  34  54  79 109 146 182 220 262 322
#     4   8  15  28  50  79 105 130 176 224 263 309
#
# _framework density 20.079162
#
# number of rings (size 3 to 8) (size 9 to 14) (size 15 to 20)
#    0.000    1.846    3.077    3.692    0.000    2.462 
#    0.000    0.385    0.000    0.923    0.000    7.538 
#    0.000    0.000    0.000    0.000    0.000    0.000 
#
# Total GULP energy -322147.147742 kJ/mol
# GULP energy per Si atom -12390.274913 kJ/mol
# Density = 2.003346 g / cm^3
# Si number density = 20.079162 Si / 1000 Ang^3
#
#
#
# Elastic Constant Matrix: (Units=GPa)
#
#
# Indices 1 2 3 4 5 6 
#
# 1 69.8620 32.1190 21.5487 0.0000 6.2693 0.0000
# 2 32.1190 133.2328 39.6201 0.0000 11.0560 0.0000
# 3 21.5487 39.6201 69.5438 0.0000 1.6920 0.0000
# 4 0.0000 0.0000 0.0000 27.1272 0.0000 14.3646
# 5 6.2693 11.0560 1.6920 0.0000 25.4416 0.0000
# 6 0.0000 0.0000 0.0000 14.3646 0.0000 13.5472
#
#
#
# Elastic Compliance Matrix: (Units=1/GPa)
#
#
# Indices 1 2 3 4 5 6 
#
# 1 0.016951 -0.002791 -0.003596 0.000000 -0.002725 0.000000
# 2 -0.002791 0.009836 -0.004659 0.000000 -0.003277 0.000000
# 3 -0.003596 -0.004659 0.018107 0.000000 0.001707 0.000000
# 4 0.000000 0.000000 0.000000 0.084063 0.000000 -0.089135
# 5 -0.002725 -0.003277 0.001707 0.000000 0.041288 0.000000
# 6 0.000000 0.000000 0.000000 -0.089135 0.000000 0.168330
#
#
# Mechanical properties :
#
#
# Convention : Reuss Voigt Hill
#
# Bulk Modulus (GPa) = 43.85755 51.02381 47.44068
# Shear Modulus (GPa) = 13.57712 25.17991 19.37851
#
# Velocity S-wave (km/s) = 2.60317 3.54507 3.10999
# Velocity P-wave (km/s) = 5.56103 6.49794 6.04765
#
# Compressibility (1/GPa) = 0.02280109
#
# Stress axis : x y z
#
# Youngs Moduli (GPa) = 58.99435 101.66835 55.22869
#
# Poissons Ratio (x) = 0.28375 0.19860
# Poissons Ratio (y) = 0.16465 0.25732
# Poissons Ratio (z) = 0.21214 0.47369
#
# Static dielectric constant tensor:
#      x y z
#    x 3.550460 0.000000 0.150600 
#    y 0.000000 3.924000 0.000000 
#    z 0.150600 0.000000 3.741370 
# 
# 
# High freq. dielectric constant tensor:
#      x y z
#    x 1.755210 0.000000 0.006030 
#    y 0.000000 1.764880 0.000000 
#    z 0.006030 0.000000 1.789770 
# 
# From -- ./inp_files/90717.got.cif
#   From: 2010.06.25/outbox.cif.g09.slc.cpg/sg12_46_cif.got.tgz:90717.got - 2010.06.28 00:19:55.
