data_PCOD8113124
_publ_section_title
;
Structure prediction by ZEFSAII (Michael W. Deem and Ramdas Pophale) SiO2 
 PCOD8113124
Probable space group: C 2/M
;
_chemical_formula_sum "Si O2"
_cell_formula_units_Z 36
_cell_length_a 8.902611
_cell_length_b 20.041521
_cell_length_c 9.144289
_cell_angle_alpha 90.000000
_cell_angle_beta 85.224434
_cell_angle_gamma 90.000000
_cell_volume 1625.877129
_symmetry_space_group_name_H-M "C 2/M"
_symmetry_group_IT_number 12
_symmetry_cell_setting 'monoclinic'
loop_
_space_group_symop_operation_xyz
x,y,z
-x,y,-z
-x,-y,-z
x,-y,z
1/2+x,1/2+y,z
1/2-x,1/2+y,-z
1/2-x,1/2-y,-z
1/2+x,1/2-y,z
loop_
_atom_site_type_symbol
_atom_site_label
_atom_site_fract_x
_atom_site_fract_y
_atom_site_fract_z
Si Si1 0.826636 0.427134 0.485718
Si Si2 0.452394 0.302721 0.156482
Si Si3 0.278481 0.820065 0.241106
Si Si4 0.755157 0.074082 0.181593
Si Si5 0.500000 0.884366 0.000000
O O1 0.766813 0.500000 0.433005
O O2 0.798871 0.367749 0.376669
O O3 0.751379 0.409473 0.646045
O O4 0.000000 0.434674 0.500000
O O5 0.343470 0.254751 0.261687
O O6 0.600009 0.317880 0.237451
O O7 0.368213 0.370264 0.111480
O O8 0.500000 0.266887 0.000000
O O9 0.367596 0.844282 0.091166
O O10 0.822277 0.000000 0.150682
O O11 0.589912 0.074555 0.117494
#
# Coordination Sequence:
#
# PCOD8113124 Si02
#       5
#     8   8   8   8   4
#     4  10  23  44  68  98 136 175 219 275 329 392
#     4  12  25  45  68 101 136 173 221 284 333 386
#     4  12  25  43  71  96 135 178 224 271 336 395
#     4  11  25  44  68 101 138 174 221 275 331 396
#     4  12  21  42  72 100 131 178 222 270 333 400
#
# _framework density 22.141894000000001
#
# number of rings (size 3 to 8) (size 9 to 14) (size 15 to 20)
#    0.000    0.667    5.556    2.333    0.000    4.000 
#    0.000    2.222    0.000    0.000    0.000    0.000 
#    0.000    0.000    0.000    0.000    0.000    0.000 
#
# Total GULP energy -223078.398396 kJ/mol
# GULP energy per Si atom -12393.244355 kJ/mol
# Density = 2.209150 g / cm^3
# Si number density = 22.141894 Si / 1000 Ang^3
#
#
#
# Elastic Constant Matrix: (Units=GPa)
#
#
# Indices 1 2 3 4 5 6 
#
# 1 121.8315 61.5268 31.8782 0.0000 18.6909 0.0000
# 2 61.5268 158.8513 60.2931 0.0000 19.9207 0.0000
# 3 31.8782 60.2931 97.0154 0.0000 18.6465 0.0000
# 4 0.0000 0.0000 0.0000 50.5056 0.0000 -10.6879
# 5 18.6909 19.9207 18.6465 0.0000 23.5736 0.0000
# 6 0.0000 0.0000 0.0000 -10.6879 0.0000 30.6885
#
#
#
# Elastic Compliance Matrix: (Units=1/GPa)
#
#
# Indices 1 2 3 4 5 6 
#
# 1 0.010849 -0.003356 -0.000437 0.000000 -0.005420 0.000000
# 2 -0.003356 0.009520 -0.004456 0.000000 -0.001858 0.000000
# 3 -0.000437 -0.004456 0.014659 0.000000 -0.007483 0.000000
# 4 0.000000 0.000000 0.000000 0.021375 0.000000 0.007444
# 5 -0.005420 -0.001858 -0.007483 0.000000 0.054207 0.000000
# 6 0.000000 0.000000 0.000000 0.007444 0.000000 0.035178
#
#
# Mechanical properties :
#
#
# Convention : Reuss Voigt Hill
#
# Bulk Modulus (GPa) = 53.97272 76.12160 65.04716
# Shear Modulus (GPa) = 29.68005 35.88687 32.78346
#
# Velocity S-wave (km/s) = 3.66518 4.03024 3.85204
# Velocity P-wave (km/s) = 6.50693 7.49071 7.01609
#
# Compressibility (1/GPa) = 0.01852788
#
# Stress axis : x y z
#
# Youngs Moduli (GPa) = 92.17436 105.04569 68.21783
#
# Poissons Ratio (x) = 0.35258 0.02983
# Poissons Ratio (y) = 0.30938 0.30399
# Poissons Ratio (z) = 0.04030 0.46810
#
# Static dielectric constant tensor:
#      x y z
#    x 3.874200 0.000000 -0.185230 
#    y 0.000000 4.184840 0.000000 
#    z -0.185230 0.000000 2.886220 
# 
# 
# High freq. dielectric constant tensor:
#      x y z
#    x 1.868000 0.000000 -0.000800 
#    y 0.000000 1.882940 0.000000 
#    z -0.000800 0.000000 1.865560 
# 
# From -- ./inp_files/38012.got.cif
#   From: 2010.06.25/outbox.cif.g09.slc.cpg/sg12_20_cif.got.tgz:38012.got - 2010.06.28 00:19:55.
