data_PCOD8113877
_publ_section_title
;
Structure prediction by ZEFSAII (Michael W. Deem and Ramdas Pophale) SiO2 
 PCOD8113877
Probable space group: C 2/M
;
_chemical_formula_sum "Si O2"
_cell_formula_units_Z 24
_cell_length_a 18.548809
_cell_length_b 12.938090
_cell_length_c 7.568663
_cell_angle_alpha 90.000000
_cell_angle_beta 43.732993
_cell_angle_gamma 90.000000
_cell_volume 1255.657073
_symmetry_space_group_name_H-M "C 2/M"
_symmetry_group_IT_number 12
_symmetry_cell_setting 'monoclinic'
loop_
_space_group_symop_operation_xyz
x,y,z
-x,y,-z
-x,-y,-z
x,-y,z
1/2+x,1/2+y,z
1/2-x,1/2+y,-z
1/2-x,1/2-y,-z
1/2+x,1/2-y,z
loop_
_atom_site_type_symbol
_atom_site_label
_atom_site_fract_x
_atom_site_fract_y
_atom_site_fract_z
Si Si1 0.383710 0.500000 0.367012
Si Si2 0.000000 0.670591 0.000000
Si Si3 0.164131 0.500000 0.625789
Si Si4 0.976636 0.826362 0.733264
Si Si5 0.162915 0.000000 0.935560
O O1 0.256809 0.500000 0.607069
O O2 0.425360 0.397336 0.387058
O O3 0.588099 0.500000 0.892447
O O4 0.903596 0.602401 0.235036
O O5 0.040423 0.737477 0.092868
O O6 0.215494 0.500000 0.336449
O O7 0.000000 0.776767 0.500000
O O8 0.871018 0.896004 0.901335
#
# Coordination Sequence:
#
# PCOD8113877 Si02
#       5
#     4   4   4   8   4
#     4   9  17  36  57  83 102 142 178 217 274 313
#     4  11  20  41  52  80 112 145 188 213 274 316
#     4   9  22  35  62  70 110 159 174 225 262 320
#     4  11  20  34  60  85 110 137 176 230 273 321
#     4   9  17  36  57  83 102 142 178 217 274 313
#
# _framework density 19.113496999999999
#
# number of rings (size 3 to 8) (size 9 to 14) (size 15 to 20)
#    1.000    1.000    3.333    3.000    0.000    5.333 
#    0.000   13.333    0.000    0.000    0.000    0.000 
#    0.000    0.000    0.000    0.000    0.000    0.000 
#
# Total GULP energy -148723.053698 kJ/mol
# GULP energy per Si atom -12393.587808 kJ/mol
# Density = 1.906999 g / cm^3
# Si number density = 19.113497 Si / 1000 Ang^3
#
#
#
# Elastic Constant Matrix: (Units=GPa)
#
#
# Indices 1 2 3 4 5 6 
#
# 1 22.3828 11.9324 25.2394 0.0000 12.4700 0.0000
# 2 11.9324 108.8840 53.1589 0.0000 2.3518 0.0000
# 3 25.2394 53.1589 133.8461 0.0000 4.6743 0.0000
# 4 0.0000 0.0000 0.0000 11.2088 0.0000 -2.3093
# 5 12.4700 2.3518 4.6743 0.0000 47.1579 0.0000
# 6 0.0000 0.0000 0.0000 -2.3093 0.0000 2.5845
#
#
#
# Elastic Compliance Matrix: (Units=1/GPa)
#
#
# Indices 1 2 3 4 5 6 
#
# 1 0.067891 -0.001382 -0.011669 0.000000 -0.016727 0.000000
# 2 -0.001382 0.011422 -0.004284 0.000000 0.000220 0.000000
# 3 -0.011669 -0.004284 0.011297 0.000000 0.002180 0.000000
# 4 0.000000 0.000000 0.000000 0.109344 0.000000 0.097700
# 5 -0.016727 0.000220 0.002180 0.000000 0.025401 0.000000
# 6 0.000000 0.000000 0.000000 0.097700 0.000000 0.474210
#
#
# Mechanical properties :
#
#
# Convention : Reuss Voigt Hill
#
# Bulk Modulus (GPa) = 17.87596 49.53047 33.70321
# Shear Modulus (GPa) = 6.64115 23.84239 15.24177
#
# Velocity S-wave (km/s) = 1.86605 3.53570 2.82695
# Velocity P-wave (km/s) = 3.74375 6.52981 5.32231
#
# Compressibility (1/GPa) = 0.05594107
#
# Stress axis : x y z
#
# Youngs Moduli (GPa) = 14.72943 87.54992 88.51949
#
# Poissons Ratio (x) = 0.12096 1.03297
# Poissons Ratio (y) = 0.02035 0.37918
# Poissons Ratio (z) = 0.17188 0.37503
#
# Static dielectric constant tensor:
#      x y z
#    x 3.169670 0.000000 0.063860 
#    y 0.000000 3.344050 0.000000 
#    z 0.063860 0.000000 3.507870 
# 
# 
# High freq. dielectric constant tensor:
#      x y z
#    x 1.710960 0.000000 0.004930 
#    y 0.000000 1.731580 0.000000 
#    z 0.004930 0.000000 1.751840 
# 
# From -- ./inp_files/43849.got.cif
#   From: 2010.06.25/outbox.cif.g09.slc.cpg/sg12_22_cif.got.tgz:43849.got - 2010.06.28 00:19:55.
