data_PCOD8113896
_publ_section_title
;
Structure prediction by ZEFSAII (Michael W. Deem and Ramdas Pophale) SiO2 
 PCOD8113896
Probable space group: C 2/M
;
_chemical_formula_sum "Si O2"
_cell_formula_units_Z 56
_cell_length_a 14.852207
_cell_length_b 24.312779
_cell_length_c 11.051319
_cell_angle_alpha 90.000000
_cell_angle_beta 139.168225
_cell_angle_gamma 90.000000
_cell_volume 2609.224256
_symmetry_space_group_name_H-M "C 2/M"
_symmetry_group_IT_number 12
_symmetry_cell_setting 'monoclinic'
loop_
_space_group_symop_operation_xyz
x,y,z
-x,y,-z
-x,-y,-z
x,-y,z
1/2+x,1/2+y,z
1/2-x,1/2+y,-z
1/2-x,1/2-y,-z
1/2+x,1/2-y,z
loop_
_atom_site_type_symbol
_atom_site_label
_atom_site_fract_x
_atom_site_fract_y
_atom_site_fract_z
Si Si1 0.661529 0.935560 0.657145
Si Si2 0.626261 0.734244 0.202428
Si Si3 0.449002 0.641612 0.316309
Si Si4 0.196699 0.871837 0.413548
Si Si5 0.621476 0.238737 0.703724
Si Si6 0.187935 0.632779 0.909459
Si Si7 0.442075 0.147491 0.812425
O O1 0.500000 0.920497 0.500000
O O2 0.743562 0.914187 0.623357
O O3 0.730222 0.906801 0.842779
O O4 0.685982 0.000000 0.689328
O O5 0.696904 0.689891 0.361026
O O6 0.748477 0.758962 0.243617
O O7 0.557509 0.786111 0.200939
O O8 0.500000 0.705631 0.000000
O O9 0.500000 0.621389 0.500000
O O10 0.544540 0.614987 0.308341
O O11 0.451311 0.708202 0.309800
O O12 0.294784 0.622848 0.127714
O O13 0.289920 0.874319 0.629407
O O14 0.500000 0.209563 0.500000
O O15 0.685424 0.196321 0.864595
O O16 0.037479 0.619459 0.807737
O O17 0.500000 0.128247 0.000000
#
# Coordination Sequence:
#
# PCOD8113896 Si02
#       7
#     8   8   8   8   8   8   8
#     4  11  25  47  73  99 117 153 217 283 332 363
#     4  11  21  34  56  92 136 169 217 252 301 378
#     4  11  24  38  58  94 138 178 206 245 311 393
#     4  12  22  40  64  90 129 171 208 270 314 370
#     4  11  20  35  57  90 134 173 214 255 308 374
#     4  12  21  40  64  88 129 170 211 266 312 371
#     4  11  22  36  58  91 126 176 214 246 300 381
#
# _framework density 21.462319000000001
#
# number of rings (size 3 to 8) (size 9 to 14) (size 15 to 20)
#    0.000    0.714    2.857    8.143    0.000    0.000 
#    0.000    1.429    0.000    5.143    0.000    0.000 
#    0.000    0.000    0.000    0.000    0.000    0.000 
#
# Total GULP energy -347113.222324 kJ/mol
# GULP energy per Si atom -12396.900797 kJ/mol
# Density = 2.141347 g / cm^3
# Si number density = 21.462319 Si / 1000 Ang^3
#
#
#
# Elastic Constant Matrix: (Units=GPa)
#
#
# Indices 1 2 3 4 5 6 
#
# 1 111.1834 33.9633 22.1593 0.0000 10.5555 0.0000
# 2 33.9633 58.8730 16.2159 0.0000 -5.1481 0.0000
# 3 22.1593 16.2159 134.0768 0.0000 -0.8105 0.0000
# 4 0.0000 0.0000 0.0000 9.6791 0.0000 3.0501
# 5 10.5555 -5.1481 -0.8105 0.0000 37.7695 0.0000
# 6 0.0000 0.0000 0.0000 3.0501 0.0000 22.1845
#
#
#
# Elastic Compliance Matrix: (Units=1/GPa)
#
#
# Indices 1 2 3 4 5 6 
#
# 1 0.011701 -0.006806 -0.001136 0.000000 -0.004222 0.000000
# 2 -0.006806 0.021741 -0.001475 0.000000 0.004834 0.000000
# 3 -0.001136 -0.001475 0.007826 0.000000 0.000284 0.000000
# 4 0.000000 0.000000 0.000000 0.107994 0.000000 -0.014848
# 5 -0.004222 0.004834 0.000284 0.000000 0.028321 0.000000
# 6 0.000000 0.000000 0.000000 -0.014848 0.000000 0.047118
#
#
# Mechanical properties :
#
#
# Convention : Reuss Voigt Hill
#
# Bulk Modulus (GPa) = 44.57780 49.86777 47.22279
# Shear Modulus (GPa) = 19.91919 29.37960 24.64940
#
# Velocity S-wave (km/s) = 3.04978 3.70387 3.39262
# Velocity P-wave (km/s) = 5.76341 6.44802 6.11530
#
# Compressibility (1/GPa) = 0.02243269
#
# Stress axis : x y z
#
# Youngs Moduli (GPa) = 85.46639 45.99558 127.77356
#
# Poissons Ratio (x) = 0.31305 0.14517
# Poissons Ratio (y) = 0.58170 0.18851
# Poissons Ratio (z) = 0.09710 0.06786
#
# Static dielectric constant tensor:
#      x y z
#    x 3.966540 0.000000 0.032660 
#    y 0.000000 3.238490 0.000000 
#    z 0.032660 0.000000 4.121450 
# 
# 
# High freq. dielectric constant tensor:
#      x y z
#    x 1.854430 0.000000 0.005580 
#    y 0.000000 1.770240 0.000000 
#    z 0.005580 0.000000 1.863830 
# 
# From -- ./inp_files/149499.got.cif
#   From: 2010.06.25/outbox.cif.g09.slc.cpg/sg12_75_cif.got.tgz:149499.got - 2010.06.28 00:19:55.
