data_PCOD8113767
_publ_section_title
;
Structure prediction by ZEFSAII (Michael W. Deem and Ramdas Pophale) SiO2 
 PCOD8113767
Probable space group: C 2/M
;
_chemical_formula_sum "Si O2"
_cell_formula_units_Z 48
_cell_length_a 14.472777
_cell_length_b 28.326285
_cell_length_c 16.036560
_cell_angle_alpha 90.000000
_cell_angle_beta 153.755795
_cell_angle_gamma 90.000000
_cell_volume 2907.163487
_symmetry_space_group_name_H-M "C 2/M"
_symmetry_group_IT_number 12
_symmetry_cell_setting 'monoclinic'
loop_
_space_group_symop_operation_xyz
x,y,z
-x,y,-z
-x,-y,-z
x,-y,z
1/2+x,1/2+y,z
1/2-x,1/2+y,-z
1/2-x,1/2-y,-z
1/2+x,1/2-y,z
loop_
_atom_site_type_symbol
_atom_site_label
_atom_site_fract_x
_atom_site_fract_y
_atom_site_fract_z
Si Si1 0.718648 0.149264 0.993067
Si Si2 0.180364 0.294734 0.289187
Si Si3 0.880796 0.795888 0.276213
Si Si4 0.205110 0.946125 0.704486
Si Si5 0.353798 0.946113 0.004631
Si Si6 0.401734 0.286567 0.006067
O O1 0.480811 0.167426 0.804775
O O2 0.725086 0.091984 0.991307
O O3 0.841915 0.163844 0.176591
O O4 0.833169 0.168573 0.004067
O O5 0.253328 0.310672 0.255917
O O6 0.374253 0.290502 0.508500
O O7 0.071025 0.243552 0.195078
O O8 0.799037 0.746034 0.174845
O O9 0.418542 0.926592 0.838143
O O10 0.000000 0.919689 0.500000
O O11 0.199037 0.000000 0.670498
O O12 0.202798 0.942862 0.802358
O O13 0.353745 0.000000 0.039795
O O14 0.500000 0.305956 0.000000
#
# Coordination Sequence:
#
# PCOD8113767 Si02
#       6
#     8   8   8   8   8   8
#     4  11  20  29  47  69  91 122 158 189 223 270
#     4   9  18  31  48  71  98 121 143 180 227 278
#     4   9  18  31  48  71  98 121 143 180 227 278
#     4   8  15  29  46  61  85 122 151 175 216 269
#     4   9  19  31  43  64  93 121 152 188 224 265
#     4   9  19  34  48  64  90 121 156 194 229 268
#
# _framework density 16.510939
#
# number of rings (size 3 to 8) (size 9 to 14) (size 15 to 20)
#    0.000    2.833    0.000    4.500    4.667    4.000 
#    0.000    0.000    0.000    0.500    0.000    0.000 
#    0.000    0.000    0.000   19.667    0.000    0.000 
#
# Total GULP energy -297478.349979 kJ/mol
# GULP energy per Si atom -12394.931249 kJ/mol
# Density = 1.647336 g / cm^3
# Si number density = 16.510939 Si / 1000 Ang^3
#
#
#
# Elastic Constant Matrix: (Units=GPa)
#
#
# Indices 1 2 3 4 5 6 
#
# 1 69.3905 56.2349 27.6956 -0.0004 2.2287 -0.0002
# 2 56.2349 106.6965 23.3060 -0.0002 0.6432 -0.0001
# 3 27.6956 23.3060 123.4872 0.0001 16.4438 -0.0003
# 4 -0.0004 -0.0002 0.0001 6.6402 -0.0003 -2.3958
# 5 2.2287 0.6432 16.4438 -0.0003 11.7317 -0.0003
# 6 -0.0002 -0.0001 -0.0003 -2.3958 -0.0003 25.8079
#
#
#
# Elastic Compliance Matrix: (Units=1/GPa)
#
#
# Indices 1 2 3 4 5 6 
#
# 1 0.026497 -0.013196 -0.003539 0.000001 0.000650 0.000000
# 2 -0.013196 0.016409 -0.000432 0.000000 0.002212 0.000000
# 3 -0.003539 -0.000432 0.010918 -0.000001 -0.014608 0.000000
# 4 0.000001 0.000000 -0.000001 0.155817 0.000006 0.014465
# 5 0.000650 0.002212 -0.014608 0.000006 0.105469 0.000002
# 6 0.000000 0.000000 0.000000 0.014465 0.000002 0.040091
#
#
# Mechanical properties :
#
#
# Convention : Reuss Voigt Hill
#
# Bulk Modulus (GPa) = 51.30742 57.11636 54.21189
# Shear Modulus (GPa) = 12.62524 21.65846 17.14185
#
# Velocity S-wave (km/s) = 2.76825 3.62576 3.22562
# Velocity P-wave (km/s) = 6.43116 7.22470 6.83945
#
# Compressibility (1/GPa) = 0.01949036
#
# Stress axis : x y z
#
# Youngs Moduli (GPa) = 37.73965 60.94355 91.58878
#
# Poissons Ratio (x) = 0.80424 0.32411
# Poissons Ratio (y) = 0.49803 0.03954
# Poissons Ratio (z) = 0.13355 0.02631
#
# Static dielectric constant tensor:
#      x y z
#    x 2.865300 0.000000 0.151930 
#    y 0.000000 2.905460 0.000000 
#    z 0.151930 0.000000 3.437710 
# 
# 
# High freq. dielectric constant tensor:
#      x y z
#    x 1.597560 0.000000 0.008920 
#    y 0.000000 1.614130 0.000000 
#    z 0.008920 0.000000 1.646140 
# 
# From -- ./inp_files/218969.got.cif
#   From: 2010.06.25/outbox.cif.g09.slc.cpg/sg12_110_cif.got.tgz:218969.got - 2010.06.28 00:19:55.
