data_PCOD8113540
_publ_section_title
;
Structure prediction by ZEFSAII (Michael W. Deem and Ramdas Pophale) SiO2 
 PCOD8113540
Probable space group: C 2/M
;
_chemical_formula_sum "Si O2"
_cell_formula_units_Z 52
_cell_length_a 16.631747
_cell_length_b 19.713686
_cell_length_c 14.353356
_cell_angle_alpha 90.000000
_cell_angle_beta 149.119405
_cell_angle_gamma 90.000000
_cell_volume 2415.397639
_symmetry_space_group_name_H-M "C 2/M"
_symmetry_group_IT_number 12
_symmetry_cell_setting 'monoclinic'
loop_
_space_group_symop_operation_xyz
x,y,z
-x,y,-z
-x,-y,-z
x,-y,z
1/2+x,1/2+y,z
1/2-x,1/2+y,-z
1/2-x,1/2-y,-z
1/2+x,1/2-y,z
loop_
_atom_site_type_symbol
_atom_site_label
_atom_site_fract_x
_atom_site_fract_y
_atom_site_fract_z
Si Si1 0.122272 0.758666 0.536798
Si Si2 0.091004 0.646551 0.187763
Si Si3 0.553775 0.000000 0.449555
Si Si4 0.602119 0.389962 0.970703
Si Si5 0.012569 0.500000 0.121402
Si Si6 0.768912 0.500000 0.027721
Si Si7 0.430936 0.747400 0.158121
Si Si8 0.270989 0.615228 0.708988
O O1 0.235104 0.823994 0.654644
O O2 0.234446 0.693028 0.647306
O O3 0.000000 0.757351 0.500000
O O4 0.028182 0.763822 0.348062
O O5 0.991852 0.685857 0.167112
O O6 0.104643 0.569086 0.240392
O O7 0.000000 0.649456 0.000000
O O8 0.500000 0.000000 0.500000
O O9 0.649244 0.069363 0.532134
O O10 0.421343 0.000000 0.242207
O O11 0.664329 0.433544 0.945142
O O12 0.551735 0.314802 0.893799
O O13 0.437588 0.416393 0.845541
O O14 0.735387 0.391644 0.184115
O O15 0.000000 0.500000 0.000000
O O16 0.834888 0.500000 0.988093
O O17 0.250000 0.750000 0.000000
#
# Coordination Sequence:
#
# PCOD8113540 Si02
#       8
#     8   8   4   8   4   4   8   8
#     4  12  26  42  69 102 140 181 228 284 339 408
#     4  11  23  47  70  99 132 177 229 288 346 396
#     4  12  23  37  63  98 143 182 221 261 325 413
#     4  11  23  41  65  98 140 183 220 274 339 407
#     4  10  26  45  72  93 132 179 237 290 346 398
#     4  12  25  42  69 103 136 184 230 274 340 416
#     4  12  25  41  68  99 135 179 233 278 339 408
#     4  11  23  41  64  99 146 184 216 271 341 413
#
# _framework density 21.528545999999999
#
# number of rings (size 3 to 8) (size 9 to 14) (size 15 to 20)
#    0.000    0.615    3.077    5.077    4.308    2.462 
#    0.000    1.154    0.000    0.000    0.000    0.000 
#    0.000    0.000    0.000    0.000    0.000    0.000 
#
# Total GULP energy -322317.355673 kJ/mol
# GULP energy per Si atom -12396.821372 kJ/mol
# Density = 2.147955 g / cm^3
# Si number density = 21.528546 Si / 1000 Ang^3
#
#
#
# Elastic Constant Matrix: (Units=GPa)
#
#
# Indices 1 2 3 4 5 6 
#
# 1 118.9047 44.5252 41.4088 0.0000 7.8065 0.0000
# 2 44.5252 162.1986 38.0338 0.0000 12.5091 0.0000
# 3 41.4088 38.0338 109.4984 0.0000 5.6093 0.0000
# 4 0.0000 0.0000 0.0000 -65.4200 0.0000 -67.4824
# 5 7.8065 12.5091 5.6093 0.0000 36.6096 0.0000
# 6 0.0000 0.0000 0.0000 -67.4824 0.0000 -28.2833
#
#
#
# Elastic Compliance Matrix: (Units=1/GPa)
#
#
# Indices 1 2 3 4 5 6 
#
# 1 0.010331 -0.002017 -0.003154 0.000000 -0.001031 0.000000
# 2 -0.002017 0.007247 -0.001663 0.000000 -0.001791 0.000000
# 3 -0.003154 -0.001663 0.010925 0.000000 -0.000433 0.000000
# 4 0.000000 0.000000 0.000000 0.010461 0.000000 -0.024960
# 5 -0.001031 -0.001791 -0.000433 0.000000 0.028214 0.000000
# 6 0.000000 0.000000 0.000000 -0.024960 0.000000 0.024197
#
#
# Mechanical properties :
#
#
# Convention : Reuss Voigt Hill
#
# Bulk Modulus (GPa) = 67.40098 70.94858 69.17478
# Shear Modulus (GPa) = 45.45964 6.35686 25.90825
#
# Velocity S-wave (km/s) = 4.60020 1.72022 3.47282
# Velocity P-wave (km/s) = 7.71955 6.08052 6.94853
#
# Compressibility (1/GPa) = 0.01483658
#
# Stress axis : x y z
#
# Youngs Moduli (GPa) = 96.79313 137.98761 91.53453
#
# Poissons Ratio (x) = 0.27833 0.28866
# Poissons Ratio (y) = 0.19524 0.15219
# Poissons Ratio (z) = 0.30524 0.22943
#
# Static dielectric constant tensor:
#      x y z
#    x 4.339810 0.000000 0.453200 
#    y 0.000000 4.190910 0.000000 
#    z 0.453200 0.000000 4.017980 
# 
# 
# High freq. dielectric constant tensor:
#      x y z
#    x 1.857960 0.000000 0.006730 
#    y 0.000000 1.856010 0.000000 
#    z 0.006730 0.000000 1.839610 
# 
# From -- ./inp_files/227468.got.cif
#   From: 2010.06.25/outbox.cif.g09.slc.cpg/sg12_114_cif.got.tgz:227468.got - 2010.06.28 00:19:55.
