data_PCOD8113970
_publ_section_title
;
Structure prediction by ZEFSAII (Michael W. Deem and Ramdas Pophale) SiO2 
 PCOD8113970
Probable space group: C 2/M
;
_chemical_formula_sum "Si O2"
_cell_formula_units_Z 48
_cell_length_a 22.556699
_cell_length_b 17.927448
_cell_length_c 11.347550
_cell_angle_alpha 90.000000
_cell_angle_beta 34.380503
_cell_angle_gamma 90.000000
_cell_volume 2591.214061
_symmetry_space_group_name_H-M "C 2/M"
_symmetry_group_IT_number 12
_symmetry_cell_setting 'monoclinic'
loop_
_space_group_symop_operation_xyz
x,y,z
-x,y,-z
-x,-y,-z
x,-y,z
1/2+x,1/2+y,z
1/2-x,1/2+y,-z
1/2-x,1/2-y,-z
1/2+x,1/2-y,z
loop_
_atom_site_type_symbol
_atom_site_label
_atom_site_fract_x
_atom_site_fract_y
_atom_site_fract_z
Si Si1 0.382627 0.148982 0.212230
Si Si2 0.267314 0.312634 0.744819
Si Si3 0.208151 0.914423 0.645023
Si Si4 0.116763 0.087238 0.264584
Si Si5 0.083329 0.201188 0.708468
Si Si6 0.649458 0.668667 0.968579
O O1 0.322286 0.148929 0.187251
O O2 0.324523 0.094683 0.399510
O O3 0.378675 0.232521 0.269747
O O4 0.500000 0.118921 0.000000
O O5 0.299601 0.371681 0.790370
O O6 0.367457 0.289307 0.501756
O O7 0.222679 0.238769 0.882012
O O8 0.122753 0.875721 0.700669
O O9 0.208392 0.880529 0.774842
O O10 0.175990 0.000000 0.704509
O O11 0.000000 0.104218 0.500000
O O12 0.142470 0.000000 0.225566
O O13 0.127660 0.116769 0.115042
O O14 0.958424 0.201168 0.907111
#
# Coordination Sequence:
#
# PCOD8113970 Si02
#       6
#     8   8   8   8   8   8
#     4  11  20  39  64  89 123 158 196 249 292 354
#     4  11  21  38  65  89 118 159 205 246 294 354
#     4  11  23  35  56  92 125 157 196 240 304 361
#     4  11  25  42  59  87 124 159 201 249 300 353
#     4  11  20  38  63  90 121 154 197 251 298 351
#     4  12  21  39  65  86 118 162 199 248 297 353
#
# _framework density 18.524135000000001
#
# number of rings (size 3 to 8) (size 9 to 14) (size 15 to 20)
#    0.000    0.833    6.667    2.500    0.000    5.000 
#    0.000    0.000    0.000    0.000    0.000    3.500 
#    0.000    0.000    0.000    0.000    0.000    0.000 
#
# Total GULP energy -297724.738507 kJ/mol
# GULP energy per Si atom -12405.197438 kJ/mol
# Density = 1.848197 g / cm^3
# Si number density = 18.524135 Si / 1000 Ang^3
#
#
#
# Elastic Constant Matrix: (Units=GPa)
#
#
# Indices 1 2 3 4 5 6 
#
# 1 85.8686 50.2023 30.4809 0.0000 3.4904 0.0000
# 2 50.2023 117.1760 37.6439 0.0000 -1.9412 0.0000
# 3 30.4809 37.6439 105.9141 0.0000 6.7194 0.0000
# 4 0.0000 0.0000 0.0000 15.1225 0.0000 -2.3550
# 5 3.4904 -1.9412 6.7194 0.0000 27.7587 0.0000
# 6 0.0000 0.0000 0.0000 -2.3550 0.0000 27.9452
#
#
#
# Elastic Compliance Matrix: (Units=1/GPa)
#
#
# Indices 1 2 3 4 5 6 
#
# 1 0.016184 -0.006218 -0.002327 0.000000 -0.001907 0.000000
# 2 -0.006218 0.012087 -0.002650 0.000000 0.002269 0.000000
# 3 -0.002327 -0.002650 0.011219 0.000000 -0.002608 0.000000
# 4 0.000000 0.000000 0.000000 0.067006 0.000000 0.005647
# 5 -0.001907 0.002269 -0.002608 0.000000 0.037055 0.000000
# 6 0.000000 0.000000 0.000000 0.005647 0.000000 0.036260
#
#
# Mechanical properties :
#
#
# Convention : Reuss Voigt Hill
#
# Bulk Modulus (GPa) = 58.47989 60.62366 59.55178
# Shear Modulus (GPa) = 24.04980 26.87404 25.46192
#
# Velocity S-wave (km/s) = 3.60710 3.81301 3.71148
# Velocity P-wave (km/s) = 6.99902 7.22380 7.11230
#
# Compressibility (1/GPa) = 0.01709989
#
# Stress axis : x y z
#
# Youngs Moduli (GPa) = 61.78765 82.73154 89.13657
#
# Poissons Ratio (x) = 0.51443 0.20740
# Poissons Ratio (y) = 0.38420 0.23626
# Poissons Ratio (z) = 0.14376 0.21928
#
# Static dielectric constant tensor:
#      x y z
#    x 3.257190 0.000000 0.051830 
#    y 0.000000 3.287460 0.000000 
#    z 0.051830 0.000000 3.678360 
# 
# 
# High freq. dielectric constant tensor:
#      x y z
#    x 1.708640 0.000000 0.007000 
#    y 0.000000 1.711730 0.000000 
#    z 0.007000 0.000000 1.734780 
# 
# From -- ./inp_files/144783.got.cif
#   From: 2010.06.25/outbox.cif.g09.slc.cpg/sg12_73_cif.got.tgz:144783.got - 2010.06.28 00:19:55.
