data_PCOD8113204
_publ_section_title
;
Structure prediction by ZEFSAII (Michael W. Deem and Ramdas Pophale) SiO2 
 PCOD8113204
Probable space group: C 2/M
;
_chemical_formula_sum "Si O2"
_cell_formula_units_Z 56
_cell_length_a 9.134806
_cell_length_b 13.469776
_cell_length_c 22.760306
_cell_angle_alpha 90.000000
_cell_angle_beta 61.361827
_cell_angle_gamma 90.000000
_cell_volume 2457.910199
_symmetry_space_group_name_H-M "C 2/M"
_symmetry_group_IT_number 12
_symmetry_cell_setting 'monoclinic'
loop_
_space_group_symop_operation_xyz
x,y,z
-x,y,-z
-x,-y,-z
x,-y,z
1/2+x,1/2+y,z
1/2-x,1/2+y,-z
1/2-x,1/2-y,-z
1/2+x,1/2-y,z
loop_
_atom_site_type_symbol
_atom_site_label
_atom_site_fract_x
_atom_site_fract_y
_atom_site_fract_z
Si Si1 0.602116 0.116387 0.235277
Si Si2 0.992521 0.886064 0.320944
Si Si3 0.435431 0.283180 0.453062
Si Si4 0.178025 0.290706 0.794124
Si Si5 0.036850 0.311895 0.061701
Si Si6 0.866742 0.895304 0.975262
Si Si7 0.627992 0.889221 0.361600
O O1 0.782909 0.173361 0.199390
O O2 0.467560 0.180096 0.223769
O O3 0.539794 0.118418 0.314937
O O4 0.619923 0.000000 0.211321
O O5 0.960060 0.857338 0.394591
O O6 0.824689 0.862333 0.316567
O O7 0.145090 0.828782 0.262671
O O8 0.042598 0.000000 0.309367
O O9 0.500000 0.336644 0.500000
O O10 0.250000 0.250000 0.500000
O O11 0.543119 0.183824 0.423400
O O12 0.121073 0.340121 0.867365
O O13 0.099688 0.201700 0.070994
O O14 0.188296 0.387131 0.043095
O O15 0.000000 0.312827 0.000000
O O16 0.868232 0.000000 0.938842
O O17 0.000000 0.901588 0.000000
O O18 0.611540 0.000000 0.390748
#
# Coordination Sequence:
#
# PCOD8113204 Si02
#       7
#     8   8   8   8   8   8   8
#     4  11  26  46  74 107 142 191 244 299 367 434
#     4  11  25  47  72 105 143 187 246 300 363 441
#     4  12  25  42  69 103 142 185 232 293 363 427
#     4  12  26  45  75 106 148 190 240 310 369 438
#     4  10  24  44  68 101 139 182 231 293 362 431
#     4   9  20  41  66  93 130 175 228 282 344 424
#     4  10  23  47  72  99 138 186 241 295 359 437
#
# _framework density 22.783581999999999
#
# number of rings (size 3 to 8) (size 9 to 14) (size 15 to 20)
#    0.000    1.286    2.857    1.286    8.000    3.143 
#    0.000    0.714    0.000    0.000    0.000    0.000 
#    0.000    0.000    0.000    0.000    0.000    0.000 
#
# Total GULP energy -346898.146407 kJ/mol
# GULP energy per Si atom -12389.219515 kJ/mol
# Density = 2.273173 g / cm^3
# Si number density = 22.783582 Si / 1000 Ang^3
#
#
#
# Elastic Constant Matrix: (Units=GPa)
#
#
# Indices 1 2 3 4 5 6 
#
# 1 121.7408 57.9244 43.3369 0.0000 -1.5348 0.0000
# 2 57.9244 98.8170 4.6222 0.0000 1.5577 0.0000
# 3 43.3369 4.6222 117.4044 0.0000 -3.0067 0.0000
# 4 0.0000 0.0000 0.0000 20.4764 0.0000 -9.7457
# 5 -1.5348 1.5577 -3.0067 0.0000 34.5766 0.0000
# 6 0.0000 0.0000 0.0000 -9.7457 0.0000 44.1095
#
#
#
# Elastic Compliance Matrix: (Units=1/GPa)
#
#
# Indices 1 2 3 4 5 6 
#
# 1 0.013578 -0.007748 -0.004693 0.000000 0.000544 0.000000
# 2 -0.007748 0.014568 0.002266 0.000000 -0.000803 0.000000
# 3 -0.004693 0.002266 0.010175 0.000000 0.000574 0.000000
# 4 0.000000 0.000000 0.000000 0.054576 0.000000 0.012058
# 5 0.000544 -0.000803 0.000574 0.000000 0.029032 0.000000
# 6 0.000000 0.000000 0.000000 0.012058 0.000000 0.025335
#
#
# Mechanical properties :
#
#
# Convention : Reuss Voigt Hill
#
# Bulk Modulus (GPa) = 55.64504 61.08104 58.36304
# Shear Modulus (GPa) = 28.80086 35.30440 32.05263
#
# Velocity S-wave (km/s) = 3.55928 3.94071 3.75484
# Velocity P-wave (km/s) = 6.43177 6.89732 6.66861
#
# Compressibility (1/GPa) = 0.01797105
#
# Stress axis : x y z
#
# Youngs Moduli (GPa) = 73.64652 68.64202 98.27603
#
# Poissons Ratio (x) = 0.53187 0.46122
# Poissons Ratio (y) = 0.57064 -0.22269
# Poissons Ratio (z) = 0.34563 -0.15554
#
# Static dielectric constant tensor:
#      x y z
#    x 4.681920 0.000000 0.368800 
#    y 0.000000 4.906660 0.000000 
#    z 0.368800 0.000000 4.654240 
# 
# 
# High freq. dielectric constant tensor:
#      x y z
#    x 1.907140 0.000000 -0.004450 
#    y 0.000000 1.903770 0.000000 
#    z -0.004450 0.000000 1.887230 
# 
# From -- ./inp_files/332841.got.cif
#   From: 2010.06.25/outbox.cif.g09.slc.cpg/sg12_167_cif.got.tgz:332841.got - 2010.06.28 00:19:55.
