data_PCOD8113258
_publ_section_title
;
Structure prediction by ZEFSAII (Michael W. Deem and Ramdas Pophale) SiO2 
 PCOD8113258
Probable space group: C 2/M
;
_chemical_formula_sum "Si O2"
_cell_formula_units_Z 60
_cell_length_a 17.816867
_cell_length_b 25.294176
_cell_length_c 6.444520
_cell_angle_alpha 90.000000
_cell_angle_beta 95.089035
_cell_angle_gamma 90.000000
_cell_volume 2892.857917
_symmetry_space_group_name_H-M "C 2/M"
_symmetry_group_IT_number 12
_symmetry_cell_setting 'monoclinic'
loop_
_space_group_symop_operation_xyz
x,y,z
-x,y,-z
-x,-y,-z
x,-y,z
1/2+x,1/2+y,z
1/2-x,1/2+y,-z
1/2-x,1/2-y,-z
1/2+x,1/2-y,z
loop_
_atom_site_type_symbol
_atom_site_label
_atom_site_fract_x
_atom_site_fract_y
_atom_site_fract_z
Si Si1 0.092509 0.805970 0.854874
Si Si2 0.673220 0.126376 0.190326
Si Si3 0.223524 0.438536 0.834269
Si Si4 0.500000 0.632078 0.500000
Si Si5 0.082320 0.396435 0.545449
Si Si6 0.214237 0.802935 0.572089
Si Si7 0.130468 0.126861 0.256438
Si Si8 0.069151 0.313760 0.887211
O O1 0.038136 0.830150 0.673713
O O2 0.175384 0.794406 0.784977
O O3 0.058898 0.749014 0.899723
O O4 0.096030 0.849512 0.037421
O O5 0.604436 0.105417 0.309624
O O6 0.725820 0.150864 0.380709
O O7 0.713952 0.080039 0.070577
O O8 0.646955 0.170481 0.019377
O O9 0.241026 0.500000 0.839212
O O10 0.145646 0.428692 0.689550
O O11 0.298677 0.411796 0.757542
O O12 0.564259 0.599089 0.384556
O O13 0.070886 0.338796 0.655130
O O14 0.000000 0.424286 0.500000
O O15 0.250000 0.750000 0.500000
O O16 0.155881 0.820827 0.383871
O O17 0.000000 0.338910 0.000000
#
# Coordination Sequence:
#
# PCOD8113258 Si02
#       8
#     8   8   8   4   8   8   8   8
#     4  11  23  37  59  94 136 176 216 261 315 392
#     4  11  22  41  59  92 128 167 214 270 323 379
#     4  11  26  45  70  96 121 167 226 281 335 383
#     4  10  24  40  63  94 132 176 209 260 330 396
#     4  11  23  42  65  93 133 172 212 273 323 382
#     4  11  22  35  61  95 128 174 214 254 320 396
#     4  11  22  43  64  94 131 169 219 273 325 387
#     4  11  22  34  59  91 131 177 219 253 309 389
#
# _framework density 20.740735000000001
#
# number of rings (size 3 to 8) (size 9 to 14) (size 15 to 20)
#    0.000    1.067    4.000    2.800    2.800    4.000 
#    0.000    1.000    0.000    1.600    0.000    0.000 
#    0.000    0.000    0.000    0.000    0.000    0.000 
#
# Total GULP energy -371710.482305 kJ/mol
# GULP energy per Si atom -12390.349410 kJ/mol
# Density = 2.069353 g / cm^3
# Si number density = 20.740735 Si / 1000 Ang^3
#
#
#
# Elastic Constant Matrix: (Units=GPa)
#
#
# Indices 1 2 3 4 5 6 
#
# 1 138.5313 42.5773 61.4276 0.0000 -26.2931 0.0000
# 2 42.5773 90.4526 40.5097 0.0000 -8.5089 0.0000
# 3 61.4276 40.5097 117.1981 0.0000 -11.4992 0.0000
# 4 0.0000 0.0000 0.0000 17.4442 0.0000 -1.5661
# 5 -26.2931 -8.5089 -11.4992 0.0000 54.0946 0.0000
# 6 0.0000 0.0000 0.0000 -1.5661 0.0000 15.8194
#
#
#
# Elastic Compliance Matrix: (Units=1/GPa)
#
#
# Indices 1 2 3 4 5 6 
#
# 1 0.010692 -0.002757 -0.004273 0.000000 0.003855 0.000000
# 2 -0.002757 0.013858 -0.003332 0.000000 0.000132 0.000000
# 3 -0.004273 -0.003332 0.011917 0.000000 -0.000068 0.000000
# 4 0.000000 0.000000 0.000000 0.057840 0.000000 0.005726
# 5 0.003855 0.000132 -0.000068 0.000000 0.020366 0.000000
# 6 0.000000 0.000000 0.000000 0.005726 0.000000 0.063780
#
#
# Mechanical properties :
#
#
# Convention : Reuss Voigt Hill
#
# Bulk Modulus (GPa) = 63.51800 70.57904 67.04852
# Shear Modulus (GPa) = 24.45878 30.91614 27.68746
#
# Velocity S-wave (km/s) = 3.43777 3.86502 3.65764
# Velocity P-wave (km/s) = 6.81534 7.34989 7.08766
#
# Compressibility (1/GPa) = 0.01574357
#
# Stress axis : x y z
#
# Youngs Moduli (GPa) = 93.52518 72.16135 83.91100
#
# Poissons Ratio (x) = 0.19892 0.35856
# Poissons Ratio (y) = 0.25781 0.27961
# Poissons Ratio (z) = 0.39964 0.24046
#
# Static dielectric constant tensor:
#      x y z
#    x 4.286390 0.000000 -0.230070 
#    y 0.000000 3.216290 0.000000 
#    z -0.230070 0.000000 3.965680 
# 
# 
# High freq. dielectric constant tensor:
#      x y z
#    x 1.838070 0.000000 -0.008420 
#    y 0.000000 1.754970 0.000000 
#    z -0.008420 0.000000 1.831070 
# 
# From -- ./inp_files/17674.got.cif
#   From: 2010.06.25/outbox.cif.g09.slc.cpg/sg12_9_cif.got.tgz:17674.got - 2010.06.28 00:19:55.
