data_PCOD8113067
_publ_section_title
;
Structure prediction by ZEFSAII (Michael W. Deem and Ramdas Pophale) SiO2 
 PCOD8113067
Probable space group: C 2/M
;
_chemical_formula_sum "Si O2"
_cell_formula_units_Z 32
_cell_length_a 22.536718
_cell_length_b 15.500680
_cell_length_c 5.084629
_cell_angle_alpha 90.000000
_cell_angle_beta 49.948598
_cell_angle_gamma 90.000000
_cell_volume 1359.650947
_symmetry_space_group_name_H-M "C 2/M"
_symmetry_group_IT_number 12
_symmetry_cell_setting 'monoclinic'
loop_
_space_group_symop_operation_xyz
x,y,z
-x,y,-z
-x,-y,-z
x,-y,z
1/2+x,1/2+y,z
1/2-x,1/2+y,-z
1/2-x,1/2-y,-z
1/2+x,1/2-y,z
loop_
_atom_site_type_symbol
_atom_site_label
_atom_site_fract_x
_atom_site_fract_y
_atom_site_fract_z
Si Si1 0.770079 0.350326 0.440418
Si Si2 0.086969 0.405171 0.656203
Si Si3 0.815793 0.095774 0.806466
Si Si4 0.051448 0.231497 0.594921
O O1 0.750000 0.250000 0.500000
O O2 0.858880 0.372337 0.258118
O O3 0.785585 0.104993 0.187841
O O4 0.754913 0.388836 0.194417
O O5 0.115143 0.500000 0.469007
O O6 0.088368 0.327322 0.436082
O O7 0.000000 0.417179 0.000000
O O8 0.881864 0.163153 0.546594
O O9 0.849963 0.000000 0.673963
O O10 0.000000 0.200352 0.500000
O O11 0.000000 0.236544 0.000000
#
# Coordination Sequence:
#
# PCOD8113067 Si02
#       4
#     8   8   8   8
#     4  12  25  46  73 103 139 189 233 298 355 422
#     4  10  23  43  69 102 140 183 233 291 355 423
#     4  12  26  45  72 105 141 186 239 295 353 422
#     4  11  25  43  69 101 141 189 235 287 352 419
#
# _framework density 23.535453
#
# number of rings (size 3 to 8) (size 9 to 14) (size 15 to 20)
#    0.000    0.750    2.500    4.500    3.500    1.500 
#    0.000    5.000    0.000    0.000    0.000    0.000 
#    0.000    0.000    0.000    0.000    0.000    0.000 
#
# Total GULP energy -198375.722984 kJ/mol
# GULP energy per Si atom -12398.482686 kJ/mol
# Density = 2.348189 g / cm^3
# Si number density = 23.535453 Si / 1000 Ang^3
#
#
#
# Elastic Constant Matrix: (Units=GPa)
#
#
# Indices 1 2 3 4 5 6 
#
# 1 140.0486 48.5590 18.5700 0.0000 -8.9394 0.0000
# 2 48.5590 207.8184 22.0881 0.0000 -18.3763 0.0000
# 3 18.5700 22.0881 47.8211 0.0000 9.1773 0.0000
# 4 0.0000 0.0000 0.0000 39.6880 0.0000 -11.5100
# 5 -8.9394 -18.3763 9.1773 0.0000 35.5434 0.0000
# 6 0.0000 0.0000 0.0000 -11.5100 0.0000 27.2710
#
#
#
# Elastic Compliance Matrix: (Units=1/GPa)
#
#
# Indices 1 2 3 4 5 6 
#
# 1 0.008148 -0.001411 -0.002909 0.000000 0.002071 0.000000
# 2 -0.001411 0.005725 -0.002731 0.000000 0.003310 0.000000
# 3 -0.002909 -0.002731 0.024950 0.000000 -0.008586 0.000000
# 4 0.000000 0.000000 0.000000 0.028711 0.000000 0.012118
# 5 0.002071 0.003310 -0.008586 0.000000 0.032584 0.000000
# 6 0.000000 0.000000 0.000000 0.012118 0.000000 0.041783
#
#
# Mechanical properties :
#
#
# Convention : Reuss Voigt Hill
#
# Bulk Modulus (GPa) = 40.45555 63.79135 52.12345
# Shear Modulus (GPa) = 30.44249 40.93188 35.68719
#
# Velocity S-wave (km/s) = 3.60039 4.17485 3.89821
# Velocity P-wave (km/s) = 5.87454 7.09946 6.51585
#
# Compressibility (1/GPa) = 0.02471849
#
# Stress axis : x y z
#
# Youngs Moduli (GPa) = 122.73370 174.68230 40.07964
#
# Poissons Ratio (x) = 0.24656 0.11661
# Poissons Ratio (y) = 0.17324 0.10947
# Poissons Ratio (z) = 0.35708 0.47711
#
# Static dielectric constant tensor:
#      x y z
#    x 4.568770 0.000000 0.021340 
#    y 0.000000 5.063060 0.000000 
#    z 0.021340 0.000000 3.885560 
# 
# 
# High freq. dielectric constant tensor:
#      x y z
#    x 1.945170 0.000000 -0.003500 
#    y 0.000000 1.956830 0.000000 
#    z -0.003500 0.000000 1.912500 
# 
# From -- ./inp_files/19612.got.cif
#   From: 2010.06.25/outbox.cif.g09.slc.cpg/sg12_10_cif.got.tgz:19612.got - 2010.06.28 00:19:55.
