data_PCOD8113520
_publ_section_title
;
Structure prediction by ZEFSAII (Michael W. Deem and Ramdas Pophale) SiO2 
 PCOD8113520
Probable space group: C 2/M
;
_chemical_formula_sum "Si O2"
_cell_formula_units_Z 28
_cell_length_a 11.064678
_cell_length_b 21.232366
_cell_length_c 5.112732
_cell_angle_alpha 90.000000
_cell_angle_beta 74.394343
_cell_angle_gamma 90.000000
_cell_volume 1156.852052
_symmetry_space_group_name_H-M "C 2/M"
_symmetry_group_IT_number 12
_symmetry_cell_setting 'monoclinic'
loop_
_space_group_symop_operation_xyz
x,y,z
-x,y,-z
-x,-y,-z
x,-y,z
1/2+x,1/2+y,z
1/2-x,1/2+y,-z
1/2-x,1/2-y,-z
1/2+x,1/2-y,z
loop_
_atom_site_type_symbol
_atom_site_label
_atom_site_fract_x
_atom_site_fract_y
_atom_site_fract_z
Si Si1 0.500000 0.370446 0.000000
Si Si2 0.080740 0.605596 0.210969
Si Si3 0.696334 0.568953 0.227744
Si Si4 0.262562 0.319796 0.393645
O O1 0.440547 0.414736 0.810418
O O2 0.605835 0.324217 0.829939
O O3 0.142304 0.671149 0.274801
O O4 0.000000 0.575546 0.500000
O O5 0.199915 0.561989 0.065295
O O6 0.000000 0.618463 0.000000
O O7 0.687236 0.500000 0.370330
O O8 0.743441 0.624511 0.388648
O O9 0.250000 0.250000 0.500000
#
# Coordination Sequence:
#
# PCOD8113520 Si02
#       4
#     4   8   8   8
#     4  10  25  46  74 110 145 196 254 318 373 450
#     4  11  24  48  72 109 150 199 247 312 372 447
#     4  11  25  47  74 108 151 200 251 312 379 446
#     4  11  26  47  75 109 151 199 255 310 378 447
#
# _framework density 24.203612
#
# number of rings (size 3 to 8) (size 9 to 14) (size 15 to 20)
#    0.000    1.143    2.857    1.286    0.000   17.143 
#    2.571    0.000    0.000    0.000    0.000    0.000 
#    0.000    0.000    0.000    0.000    0.000    0.000 
#
# Total GULP energy -173474.232923 kJ/mol
# GULP energy per Si atom -12391.016637 kJ/mol
# Density = 2.414852 g / cm^3
# Si number density = 24.203612 Si / 1000 Ang^3
#
#
#
# Elastic Constant Matrix: (Units=GPa)
#
#
# Indices 1 2 3 4 5 6 
#
# 1 137.2362 31.7240 26.9460 0.0000 29.2108 0.0000
# 2 31.7240 195.4897 39.0003 0.0000 23.2739 0.0000
# 3 26.9460 39.0003 111.0549 0.0000 8.9139 0.0000
# 4 0.0000 0.0000 0.0000 24.8100 0.0000 13.0731
# 5 29.2108 23.2739 8.9139 0.0000 54.2634 0.0000
# 6 0.0000 0.0000 0.0000 13.0731 0.0000 10.7841
#
#
#
# Elastic Compliance Matrix: (Units=1/GPa)
#
#
# Indices 1 2 3 4 5 6 
#
# 1 0.008606 -0.000597 -0.001548 0.000000 -0.004122 0.000000
# 2 -0.000597 0.005781 -0.001735 0.000000 -0.001873 0.000000
# 3 -0.001548 -0.001735 0.009995 0.000000 -0.000065 0.000000
# 4 0.000000 0.000000 0.000000 0.111581 0.000000 -0.135264
# 5 -0.004122 -0.001873 -0.000065 0.000000 0.021462 0.000000
# 6 0.000000 0.000000 0.000000 -0.135264 0.000000 0.256703
#
#
# Mechanical properties :
#
#
# Convention : Reuss Voigt Hill
#
# Bulk Modulus (GPa) = 60.15910 71.01350 65.58630
# Shear Modulus (GPa) = 11.69789 41.04553 26.37171
#
# Velocity S-wave (km/s) = 2.20082 4.12253 3.30446
# Velocity P-wave (km/s) = 5.60067 7.21554 6.45878
#
# Compressibility (1/GPa) = 0.01662259
#
# Stress axis : x y z
#
# Youngs Moduli (GPa) = 116.19727 172.96791 100.05441
#
# Poissons Ratio (x) = 0.10327 0.15484
# Poissons Ratio (y) = 0.06938 0.17360
# Poissons Ratio (z) = 0.17982 0.30012
#
# Static dielectric constant tensor:
#      x y z
#    x 4.790280 0.000000 -0.193540 
#    y 0.000000 3.855150 0.000000 
#    z -0.193540 0.000000 4.714460 
# 
# 
# High freq. dielectric constant tensor:
#      x y z
#    x 1.989110 0.000000 -0.011900 
#    y 0.000000 1.931060 0.000000 
#    z -0.011900 0.000000 1.970550 
# 
# From -- ./inp_files/5632.got.cif
#   From: 2010.06.25/outbox.cif.g09.slc.cpg/sg12_3_cif.got.tgz:5632.got - 2010.06.28 00:19:55.
