data_PCOD8113241
_publ_section_title
;
Structure prediction by ZEFSAII (Michael W. Deem and Ramdas Pophale) SiO2 
 PCOD8113241
Probable space group: C 2/M
;
_chemical_formula_sum "Si O2"
_cell_formula_units_Z 52
_cell_length_a 25.096012
_cell_length_b 24.451870
_cell_length_c 8.174808
_cell_angle_alpha 90.000000
_cell_angle_beta 149.376155
_cell_angle_gamma 90.000000
_cell_volume 2555.365010
_symmetry_space_group_name_H-M "C 2/M"
_symmetry_group_IT_number 12
_symmetry_cell_setting 'monoclinic'
loop_
_space_group_symop_operation_xyz
x,y,z
-x,y,-z
-x,-y,-z
x,-y,z
1/2+x,1/2+y,z
1/2-x,1/2+y,-z
1/2-x,1/2-y,-z
1/2+x,1/2-y,z
loop_
_atom_site_type_symbol
_atom_site_label
_atom_site_fract_x
_atom_site_fract_y
_atom_site_fract_z
Si Si1 0.916606 0.410971 0.897940
Si Si2 0.469274 0.000000 0.602590
Si Si3 0.286480 0.237319 0.323872
Si Si4 0.585446 0.710992 0.598072
Si Si5 0.463768 0.381307 0.089118
Si Si6 0.699291 0.000000 0.610851
Si Si7 0.062969 0.000000 0.829813
Si Si8 0.257620 0.170627 0.557910
O O1 0.840239 0.446375 0.584370
O O2 0.843894 0.374776 0.822008
O O3 0.000000 0.379498 0.000000
O O4 0.982722 0.446369 0.195004
O O5 0.500000 0.000000 0.500000
O O6 0.345211 0.000000 0.319195
O O7 0.390867 0.246410 0.488220
O O8 0.312561 0.205168 0.557756
O O9 0.251234 0.297354 0.294435
O O10 0.196799 0.205170 0.985271
O O11 0.500000 0.735236 0.500000
O O12 0.542837 0.652682 0.416549
O O13 0.461318 0.445161 0.131394
O O14 0.500000 0.377319 0.000000
O O15 0.350483 0.353247 0.797990
O O16 0.821763 0.000000 0.935500
O O17 0.000000 0.000000 0.500000
#
# Coordination Sequence:
#
# PCOD8113241 Si02
#       8
#     8   4   8   8   8   4   4   8
#     4   9  19  37  65  89 117 160 203 259 312 378
#     4   9  19  40  63  88 120 159 198 257 333 363
#     4  10  24  39  64  93 121 175 219 258 327 381
#     4  11  22  42  64  90 130 172 213 272 325 382
#     4  12  24  44  68  94 136 173 217 268 332 393
#     4   9  18  40  63  86 122 161 207 249 317 391
#     4  12  26  42  67 104 130 176 219 264 331 406
#     4  11  21  41  66  95 126 165 221 264 320 395
#
# _framework density 20.349342
#
# number of rings (size 3 to 8) (size 9 to 14) (size 15 to 20)
#    0.000    1.538    4.615    1.615    0.000    1.231 
#    2.769    6.923    0.000    0.000    0.000    0.000 
#    0.000    0.000    0.000    0.000    0.000    0.000 
#
# Total GULP energy -322130.720461 kJ/mol
# GULP energy per Si atom -12389.643095 kJ/mol
# Density = 2.030303 g / cm^3
# Si number density = 20.349342 Si / 1000 Ang^3
#
#
#
# Elastic Constant Matrix: (Units=GPa)
#
#
# Indices 1 2 3 4 5 6 
#
# 1 169.9646 44.9163 39.0338 0.0000 11.6598 0.0000
# 2 44.9163 93.8444 39.0239 0.0000 12.3019 0.0000
# 3 39.0338 39.0239 87.0658 0.0000 11.1334 0.0000
# 4 0.0000 0.0000 0.0000 24.0623 0.0000 0.9315
# 5 11.6598 12.3019 11.1334 0.0000 34.3587 0.0000
# 6 0.0000 0.0000 0.0000 0.9315 0.0000 30.2548
#
#
#
# Elastic Compliance Matrix: (Units=1/GPa)
#
#
# Indices 1 2 3 4 5 6 
#
# 1 0.007037 -0.002443 -0.001947 0.000000 -0.000882 0.000000
# 2 -0.002443 0.014229 -0.004942 0.000000 -0.002664 0.000000
# 3 -0.001947 -0.004942 0.014879 0.000000 -0.002391 0.000000
# 4 0.000000 0.000000 0.000000 0.041608 0.000000 -0.001281
# 5 -0.000882 -0.002664 -0.002391 0.000000 0.031133 0.000000
# 6 0.000000 0.000000 0.000000 -0.001281 0.000000 0.033092
#
#
# Mechanical properties :
#
#
# Convention : Reuss Voigt Hill
#
# Bulk Modulus (GPa) = 57.20147 66.31367 61.75757
# Shear Modulus (GPa) = 30.03549 32.92854 31.48201
#
# Velocity S-wave (km/s) = 3.84603 4.02700 3.93756
# Velocity P-wave (km/s) = 6.92051 7.36754 7.14752
#
# Compressibility (1/GPa) = 0.01748207
#
# Stress axis : x y z
#
# Youngs Moduli (GPa) = 142.11009 70.27722 67.20738
#
# Poissons Ratio (x) = 0.17166 0.13086
# Poissons Ratio (y) = 0.34712 0.33214
# Poissons Ratio (z) = 0.27671 0.34731
#
# Static dielectric constant tensor:
#      x y z
#    x 4.300750 0.000000 0.140470 
#    y 0.000000 3.881600 0.000000 
#    z 0.140470 0.000000 3.496390 
# 
# 
# High freq. dielectric constant tensor:
#      x y z
#    x 1.816130 0.000000 0.009740 
#    y 0.000000 1.784940 0.000000 
#    z 0.009740 0.000000 1.783870 
# 
# From -- ./inp_files/106882.got.cif
#   From: 2010.06.25/outbox.cif.g09.slc.cpg/sg12_54_cif.got.tgz:106882.got - 2010.06.28 00:19:55.
