data_PCOD8113813
_publ_section_title
;
Structure prediction by ZEFSAII (Michael W. Deem and Ramdas Pophale) SiO2 
 PCOD8113813
Probable space group: C 2/M
;
_chemical_formula_sum "Si O2"
_cell_formula_units_Z 48
_cell_length_a 19.458474
_cell_length_b 8.777995
_cell_length_c 22.380964
_cell_angle_alpha 90.000000
_cell_angle_beta 43.980908
_cell_angle_gamma 90.000000
_cell_volume 2654.631618
_symmetry_space_group_name_H-M "C 2/M"
_symmetry_group_IT_number 12
_symmetry_cell_setting 'monoclinic'
loop_
_space_group_symop_operation_xyz
x,y,z
-x,y,-z
-x,-y,-z
x,-y,z
1/2+x,1/2+y,z
1/2-x,1/2+y,-z
1/2-x,1/2-y,-z
1/2+x,1/2-y,z
loop_
_atom_site_type_symbol
_atom_site_label
_atom_site_fract_x
_atom_site_fract_y
_atom_site_fract_z
Si Si1 0.794875 0.320744 0.759104
Si Si2 0.652935 0.180254 0.531239
Si Si3 0.560671 0.680898 0.779035
Si Si4 0.471572 0.320336 0.713902
Si Si5 0.067651 0.180337 0.905595
Si Si6 0.279788 0.179599 0.636773
O O1 0.813005 0.500000 0.756097
O O2 0.681957 0.275003 0.844115
O O3 0.822527 0.266302 0.674171
O O4 0.862764 0.229934 0.762752
O O5 0.750000 0.250000 0.500000
O O6 0.552896 0.243207 0.621277
O O7 0.651025 0.226856 0.462008
O O8 0.657363 0.000000 0.536542
O O9 0.564865 0.500000 0.778517
O O10 0.486025 0.734643 0.773654
O O11 0.529624 0.741053 0.864498
O O12 0.669575 0.746543 0.695172
O O13 0.484450 0.500000 0.700101
O O14 0.057133 0.000000 0.913830
O O15 0.000000 0.254525 0.000000
O O16 0.268608 0.000000 0.647729
#
# Coordination Sequence:
#
# PCOD8113813 Si02
#       6
#     8   8   8   8   8   8
#     4   9  18  33  52  73  99 128 164 206 249 294
#     4  11  20  32  51  74  99 130 173 212 245 286
#     4   8  14  27  47  69  95 129 165 197 242 297
#     4  11  21  33  48  70 104 138 166 201 250 298
#     4   8  14  28  54  80  95 118 165 213 242 286
#     4   8  15  30  50  68  91 130 171 202 237 289
#
# _framework density 18.081605
#
# number of rings (size 3 to 8) (size 9 to 14) (size 15 to 20)
#    0.000    2.833    1.667    3.000    0.000    0.667 
#    0.000    5.833    0.000    0.500    0.000    0.000 
#    0.000    0.000    0.000    0.000    0.000    0.000 
#
# Total GULP energy -297394.182710 kJ/mol
# GULP energy per Si atom -12391.424280 kJ/mol
# Density = 1.804045 g / cm^3
# Si number density = 18.081605 Si / 1000 Ang^3
#
#
#
# Elastic Constant Matrix: (Units=GPa)
#
#
# Indices 1 2 3 4 5 6 
#
# 1 148.0119 26.7104 76.5878 0.0000 19.2935 0.0001
# 2 26.7104 37.4022 27.0707 0.0001 3.3990 0.0002
# 3 76.5878 27.0707 146.2782 0.0000 20.9396 0.0000
# 4 0.0000 0.0001 0.0000 14.2603 0.0000 -2.8280
# 5 19.2935 3.3990 20.9396 0.0000 24.5587 0.0000
# 6 0.0001 0.0002 0.0000 -2.8280 0.0000 28.2016
#
#
#
# Elastic Compliance Matrix: (Units=1/GPa)
#
#
# Indices 1 2 3 4 5 6 
#
# 1 0.010030 -0.003940 -0.003955 0.000000 -0.003962 0.000000
# 2 -0.003940 0.032429 -0.004259 0.000000 0.002238 0.000000
# 3 -0.003955 -0.004259 0.010440 0.000000 -0.005205 0.000000
# 4 0.000000 0.000000 0.000000 0.071548 0.000000 0.007175
# 5 -0.003962 0.002238 -0.005205 0.000000 0.047960 0.000000
# 6 0.000000 0.000000 0.000000 0.007175 0.000000 0.036178
#
#
# Mechanical properties :
#
#
# Convention : Reuss Voigt Hill
#
# Bulk Modulus (GPa) = 34.97570 65.82556 50.40063
# Shear Modulus (GPa) = 20.62489 26.82567 23.72528
#
# Velocity S-wave (km/s) = 3.38102 3.85592 3.62625
# Velocity P-wave (km/s) = 5.88447 7.50386 6.74296
#
# Compressibility (1/GPa) = 0.02859128
#
# Stress axis : x y z
#
# Youngs Moduli (GPa) = 99.69687 30.83631 95.78133
#
# Poissons Ratio (x) = 0.12150 0.37884
# Poissons Ratio (y) = 0.39284 0.40792
# Poissons Ratio (z) = 0.39433 0.13133
#
# Static dielectric constant tensor:
#      x y z
#    x 3.590680 0.000000 0.375600 
#    y 0.000000 2.910280 0.000000 
#    z 0.375600 0.000000 3.727210 
# 
# 
# High freq. dielectric constant tensor:
#      x y z
#    x 1.703730 0.000000 0.017300 
#    y 0.000000 1.655190 0.000000 
#    z 0.017300 0.000000 1.694830 
# 
# From -- ./inp_files/230351.got.cif
#   From: 2010.06.25/outbox.cif.g09.slc.cpg/sg12_116_cif.got.tgz:230351.got - 2010.06.28 00:19:55.
