data_PCOD8113987
_publ_section_title
;
Structure prediction by ZEFSAII (Michael W. Deem and Ramdas Pophale) SiO2 
 PCOD8113987
Probable space group: C 2/M
;
_chemical_formula_sum "Si O2"
_cell_formula_units_Z 64
_cell_length_a 19.446949
_cell_length_b 15.013635
_cell_length_c 19.123452
_cell_angle_alpha 90.000000
_cell_angle_beta 144.666144
_cell_angle_gamma 90.000000
_cell_volume 3229.138576
_symmetry_space_group_name_H-M "C 2/M"
_symmetry_group_IT_number 12
_symmetry_cell_setting 'monoclinic'
loop_
_space_group_symop_operation_xyz
x,y,z
-x,y,-z
-x,-y,-z
x,-y,z
1/2+x,1/2+y,z
1/2-x,1/2+y,-z
1/2-x,1/2-y,-z
1/2+x,1/2-y,z
loop_
_atom_site_type_symbol
_atom_site_label
_atom_site_fract_x
_atom_site_fract_y
_atom_site_fract_z
Si Si1 0.772519 0.748730 0.436009
Si Si2 0.827983 0.361033 0.196107
Si Si3 0.879317 0.830428 0.212731
Si Si4 0.848210 0.399915 0.051786
Si Si5 0.948994 0.101743 0.532705
Si Si6 0.572171 0.399894 0.995558
Si Si7 0.449797 0.900239 0.531947
Si Si8 0.493762 0.735691 0.816278
O O1 0.750000 0.750000 0.500000
O O2 0.839193 0.837041 0.465103
O O3 0.847055 0.661892 0.476870
O O4 0.647323 0.743702 0.292096
O O5 0.826723 0.255254 0.208843
O O6 0.709780 0.400136 0.133154
O O7 0.943503 0.405862 0.324457
O O8 0.818299 0.385915 0.107307
O O9 0.773940 0.886316 0.091262
O O10 0.946181 0.892484 0.323401
O O11 0.973914 0.790254 0.236125
O O12 0.894717 0.500000 0.075999
O O13 0.948947 0.329762 0.112543
O O14 0.000000 0.132632 0.500000
O O15 0.903496 0.000000 0.491373
O O16 0.528886 0.500000 0.943136
O O17 0.500000 0.358592 0.000000
O O18 0.549113 0.341361 0.908763
O O19 0.500000 0.862839 0.500000
O O20 0.397787 0.000000 0.479051
#
# Coordination Sequence:
#
# PCOD8113987 Si02
#       8
#     8   8   8   8   8   8   8   8
#     4  12  24  43  64  91 129 169 210 264 314 376
#     4  11  20  39  64  89 123 161 201 256 306 366
#     4  11  20  40  68  92 121 160 210 261 313 370
#     4  11  21  38  66  94 121 156 203 258 312 370
#     4  11  25  44  67  94 125 168 218 265 317 377
#     4  11  24  38  58  90 126 164 202 251 318 378
#     4  11  25  42  64  95 129 170 214 257 314 381
#     4  11  23  40  62  93 128 159 206 256 320 375
#
# _framework density 19.819528999999999
#
# number of rings (size 3 to 8) (size 9 to 14) (size 15 to 20)
#    0.000    0.875    5.000    3.375    1.750    2.000 
#    0.000    0.000    0.000    0.375    0.000    0.000 
#    0.000    0.000    0.000    0.000    0.000    0.000 
#
# Total GULP energy -396889.591661 kJ/mol
# GULP energy per Si atom -12402.799739 kJ/mol
# Density = 1.977442 g / cm^3
# Si number density = 19.819529 Si / 1000 Ang^3
#
#
#
# Elastic Constant Matrix: (Units=GPa)
#
#
# Indices 1 2 3 4 5 6 
#
# 1 111.1623 51.8700 44.3408 0.0000 12.5891 0.0000
# 2 51.8700 127.6746 30.5691 0.0000 8.8519 0.0000
# 3 44.3408 30.5691 123.8516 0.0000 24.2067 -0.0001
# 4 0.0000 0.0000 0.0000 21.5682 0.0000 2.8260
# 5 12.5891 8.8519 24.2067 0.0000 31.4423 -0.0001
# 6 0.0000 0.0000 -0.0001 2.8260 -0.0001 65.7952
#
#
#
# Elastic Compliance Matrix: (Units=1/GPa)
#
#
# Indices 1 2 3 4 5 6 
#
# 1 0.012343 -0.004172 -0.003123 0.000000 -0.001363 0.000000
# 2 -0.004172 0.009756 -0.000829 0.000000 -0.000438 0.000000
# 3 -0.003123 -0.000829 0.010720 0.000000 -0.006769 0.000000
# 4 0.000000 0.000000 0.000000 0.046627 0.000000 -0.002003
# 5 -0.001363 -0.000438 -0.006769 0.000000 0.037685 0.000000
# 6 0.000000 0.000000 0.000000 -0.002003 0.000000 0.015285
#
#
# Mechanical properties :
#
#
# Convention : Reuss Voigt Hill
#
# Bulk Modulus (GPa) = 60.34452 68.47203 64.40827
# Shear Modulus (GPa) = 32.42832 39.48837 35.95834
#
# Velocity S-wave (km/s) = 4.04936 4.46847 4.26407
# Velocity P-wave (km/s) = 7.23714 7.82596 7.53730
#
# Compressibility (1/GPa) = 0.01657151
#
# Stress axis : x y z
#
# Youngs Moduli (GPa) = 81.02005 102.49840 93.28605
#
# Poissons Ratio (x) = 0.42765 0.29130
# Poissons Ratio (y) = 0.33804 0.07730
# Poissons Ratio (z) = 0.25300 0.08494
#
# Static dielectric constant tensor:
#      x y z
#    x 3.585420 0.000000 0.046770 
#    y 0.000000 3.731930 0.000000 
#    z 0.046770 0.000000 3.739090 
# 
# 
# High freq. dielectric constant tensor:
#      x y z
#    x 1.760420 0.000000 0.000430 
#    y 0.000000 1.783420 0.000000 
#    z 0.000430 0.000000 1.780890 
# 
# From -- ./inp_files/278192.got.cif
#   From: 2010.06.25/outbox.cif.g09.slc.cpg/sg12_140_cif.got.tgz:278192.got - 2010.06.28 00:19:55.
