data_PCOD8113372
_publ_section_title
;
Structure prediction by ZEFSAII (Michael W. Deem and Ramdas Pophale) SiO2 
 PCOD8113372
Probable space group: C 2/M
;
_chemical_formula_sum "Si O2"
_cell_formula_units_Z 56
_cell_length_a 30.532232
_cell_length_b 8.765740
_cell_length_c 20.805609
_cell_angle_alpha 90.000000
_cell_angle_beta 151.505751
_cell_angle_gamma 90.000000
_cell_volume 2656.502182
_symmetry_space_group_name_H-M "C 2/M"
_symmetry_group_IT_number 12
_symmetry_cell_setting 'monoclinic'
loop_
_space_group_symop_operation_xyz
x,y,z
-x,y,-z
-x,-y,-z
x,-y,z
1/2+x,1/2+y,z
1/2-x,1/2+y,-z
1/2-x,1/2-y,-z
1/2+x,1/2-y,z
loop_
_atom_site_type_symbol
_atom_site_label
_atom_site_fract_x
_atom_site_fract_y
_atom_site_fract_z
Si Si1 0.587986 0.168305 0.571039
Si Si2 0.874093 0.678235 0.876080
Si Si3 0.832115 0.818748 0.063540
Si Si4 0.536338 0.681286 0.370276
Si Si5 0.743635 0.179969 0.160413
Si Si6 0.063735 0.679641 0.175171
Si Si7 0.157488 0.177143 0.408312
O O1 0.500000 0.147372 0.500000
O O2 0.565520 0.254181 0.476310
O O3 0.652360 0.264325 0.702603
O O4 0.628726 0.000000 0.607950
O O5 0.887213 0.500000 0.899828
O O6 0.790922 0.732399 0.813227
O O7 0.859763 0.715917 0.781972
O O8 0.968641 0.744237 0.025394
O O9 0.933053 0.763219 0.217661
O O10 0.825019 0.000000 0.057611
O O11 0.750000 0.750000 0.000000
O O12 0.817565 0.762395 0.972079
O O13 0.536440 0.500000 0.373861
O O14 0.614687 0.737203 0.420529
O O15 0.738494 0.000000 0.141185
O O16 0.064569 0.500000 0.194547
O O17 0.079467 0.784401 0.256530
O O18 0.250000 0.250000 0.500000
O O19 0.177309 0.000000 0.439567
#
# Coordination Sequence:
#
# PCOD8113372 Si02
#       7
#     8   8   8   8   8   8   8
#     4  11  25  43  63  90 124 161 206 259 312 370
#     4   8  17  33  57  86 115 151 191 236 292 351
#     4  11  23  41  65  94 125 160 204 258 316 376
#     4  10  24  44  65  89 125 169 211 257 313 375
#     4  11  22  37  61  91 123 159 201 247 302 367
#     4   9  17  35  59  83 115 153 195 240 288 347
#     4  11  24  40  58  85 120 161 207 253 302 358
#
# _framework density 21.080352000000001
#
# number of rings (size 3 to 8) (size 9 to 14) (size 15 to 20)
#    0.000    1.857    0.000    4.286    2.000    5.714 
#    0.000    2.857    0.000    0.000    0.000    0.000 
#    0.000    0.000    0.000    0.000    0.000    0.000 
#
# Total GULP energy -346963.578924 kJ/mol
# GULP energy per Si atom -12391.556390 kJ/mol
# Density = 2.103237 g / cm^3
# Si number density = 21.080352 Si / 1000 Ang^3
#
#
#
# Elastic Constant Matrix: (Units=GPa)
#
#
# Indices 1 2 3 4 5 6 
#
# 1 98.0692 26.2610 21.6856 0.0000 -0.8166 0.0000
# 2 26.2610 47.8347 23.0522 0.0000 3.9342 0.0000
# 3 21.6856 23.0522 86.0768 0.0000 -6.5255 0.0000
# 4 0.0000 0.0000 0.0000 31.7800 0.0000 -6.4652
# 5 -0.8166 3.9342 -6.5255 0.0000 39.9015 0.0000
# 6 0.0000 0.0000 0.0000 -6.4652 0.0000 30.2099
#
#
#
# Elastic Compliance Matrix: (Units=1/GPa)
#
#
# Indices 1 2 3 4 5 6 
#
# 1 0.012126 -0.006037 -0.001391 0.000000 0.000616 0.000000
# 2 -0.006037 0.027491 -0.006132 0.000000 -0.003837 0.000000
# 3 -0.001391 -0.006132 0.013825 0.000000 0.002837 0.000000
# 4 0.000000 0.000000 0.000000 0.032899 0.000000 0.007041
# 5 0.000616 -0.003837 0.002837 0.000000 0.025917 0.000000
# 6 0.000000 0.000000 0.000000 0.007041 0.000000 0.034608
#
#
# Mechanical properties :
#
#
# Convention : Reuss Voigt Hill
#
# Bulk Modulus (GPa) = 37.99332 41.55313 39.77322
# Shear Modulus (GPa) = 27.35805 31.11041 29.23423
#
# Velocity S-wave (km/s) = 3.60641 3.84578 3.72802
# Velocity P-wave (km/s) = 5.95011 6.28288 6.11876
#
# Compressibility (1/GPa) = 0.02632042
#
# Stress axis : x y z
#
# Youngs Moduli (GPa) = 82.46467 36.37612 72.33063
#
# Poissons Ratio (x) = 0.21962 0.10065
# Poissons Ratio (y) = 0.49787 0.44354
# Poissons Ratio (z) = 0.11475 0.22306
#
# Static dielectric constant tensor:
#      x y z
#    x 5.811830 0.000000 0.527900 
#    y 0.000000 3.722100 0.000000 
#    z 0.527900 0.000000 4.162780 
# 
# 
# High freq. dielectric constant tensor:
#      x y z
#    x 1.845020 0.000000 -0.000330 
#    y 0.000000 1.807310 0.000000 
#    z -0.000330 0.000000 1.831580 
# 
# From -- ./inp_files/329676.got.cif
#   From: 2010.06.25/outbox.cif.g09.slc.cpg/sg12_165_cif.got.tgz:329676.got - 2010.06.28 00:19:55.
