data_PCOD8113477
_publ_section_title
;
Structure prediction by ZEFSAII (Michael W. Deem and Ramdas Pophale) SiO2 
 PCOD8113477
Probable space group: C 2/M
;
_chemical_formula_sum "Si O2"
_cell_formula_units_Z 60
_cell_length_a 26.832093
_cell_length_b 19.327712
_cell_length_c 14.766000
_cell_angle_alpha 90.000000
_cell_angle_beta 19.860421
_cell_angle_gamma 90.000000
_cell_volume 2601.546986
_symmetry_space_group_name_H-M "C 2/M"
_symmetry_group_IT_number 12
_symmetry_cell_setting 'monoclinic'
loop_
_space_group_symop_operation_xyz
x,y,z
-x,y,-z
-x,-y,-z
x,-y,z
1/2+x,1/2+y,z
1/2-x,1/2+y,-z
1/2-x,1/2-y,-z
1/2+x,1/2-y,z
loop_
_atom_site_type_symbol
_atom_site_label
_atom_site_fract_x
_atom_site_fract_y
_atom_site_fract_z
Si Si1 0.558691 0.078523 0.677737
Si Si2 0.394033 0.880479 0.603049
Si Si3 0.563921 0.424022 0.197628
Si Si4 0.288275 0.736839 0.831473
Si Si5 0.134284 0.821540 0.578290
Si Si6 0.405688 0.790475 0.995744
Si Si7 0.500000 0.618291 0.500000
Si Si8 0.840416 0.921249 0.307414
O O1 0.538214 0.097067 0.607980
O O2 0.459758 0.130016 0.906788
O O3 0.728301 0.088040 0.415927
O O4 0.505173 0.000000 0.787537
O O5 0.500000 0.911005 0.500000
O O6 0.390622 0.797330 0.616354
O O7 0.232022 0.910309 0.887490
O O8 0.521627 0.500000 0.231911
O O9 0.461251 0.366383 0.328606
O O10 0.551367 0.427355 0.327884
O O11 0.369913 0.664685 0.682641
O O12 0.250000 0.750000 0.000000
O O13 0.139693 0.730981 0.028333
O O14 0.204153 0.871313 0.534311
O O15 0.036818 0.762747 0.795150
O O16 0.268130 0.782979 0.298620
O O17 0.839176 0.000000 0.345169
O O18 0.000000 0.899704 0.000000
#
# Coordination Sequence:
#
# PCOD8113477 Si02
#       8
#     8   8   8   8   8   8   4   8
#     4  11  27  48  70 104 147 185 235 298 361 435
#     4  12  24  42  71 101 143 190 241 291 358 433
#     4  12  26  42  66 102 145 190 242 300 358 428
#     4  12  22  41  67  97 136 189 242 292 352 422
#     4  12  26  49  76 107 144 188 245 301 362 431
#     4  12  27  46  73 109 145 189 240 301 364 427
#     4  12  23  42  64  98 139 186 238 296 353 420
#     4  10  24  49  80 109 143 192 241 294 368 438
#
# _framework density 23.063199999999998
#
# number of rings (size 3 to 8) (size 9 to 14) (size 15 to 20)
#    0.000    0.400    4.667    3.400    1.867    4.267 
#    0.000    1.333    0.000    0.000    0.000    0.000 
#    0.000    0.000    0.000    0.000    0.000    0.000 
#
# Total GULP energy -372123.609917 kJ/mol
# GULP energy per Si atom -12404.120331 kJ/mol
# Density = 2.301071 g / cm^3
# Si number density = 23.063200 Si / 1000 Ang^3
#
#
#
# Elastic Constant Matrix: (Units=GPa)
#
#
# Indices 1 2 3 4 5 6 
#
# 1 96.1027 32.6967 15.4266 -0.0020 -1.2736 0.0005
# 2 32.6967 132.2777 42.3387 -0.0034 3.9008 0.0003
# 3 15.4266 42.3387 105.8892 -0.0038 4.6756 0.0017
# 4 -0.0020 -0.0034 -0.0038 28.4716 0.0027 -0.9248
# 5 -1.2736 3.9008 4.6756 0.0027 27.2630 -0.0002
# 6 0.0005 0.0003 0.0017 -0.9248 -0.0002 35.4479
#
#
#
# Elastic Compliance Matrix: (Units=1/GPa)
#
#
# Indices 1 2 3 4 5 6 
#
# 1 0.011424 -0.002645 -0.000652 0.000000 0.001024 0.000000
# 2 -0.002645 0.009293 -0.003291 0.000001 -0.000889 0.000000
# 3 -0.000652 -0.003291 0.010918 0.000001 -0.001432 0.000000
# 4 0.000000 0.000001 0.000001 0.035153 -0.000004 0.000917
# 5 0.001024 -0.000889 -0.001432 -0.000004 0.037100 0.000000
# 6 0.000000 0.000000 0.000000 0.000917 0.000000 0.028234
#
#
# Mechanical properties :
#
#
# Convention : Reuss Voigt Hill
#
# Bulk Modulus (GPa) = 54.17580 57.24374 55.70977
# Shear Modulus (GPa) = 33.01381 34.49034 33.75208
#
# Velocity S-wave (km/s) = 3.78755 3.87133 3.82967
# Velocity P-wave (km/s) = 6.53212 6.69755 6.61535
#
# Compressibility (1/GPa) = 0.01845843
#
# Stress axis : x y z
#
# Youngs Moduli (GPa) = 87.53702 107.60353 91.59206
#
# Poissons Ratio (x) = 0.28465 0.05970
# Poissons Ratio (y) = 0.23156 0.30145
# Poissons Ratio (z) = 0.05706 0.35415
#
# Static dielectric constant tensor:
#      x y z
#    x 4.204510 -0.000010 -0.161330 
#    y -0.000010 4.422290 0.000010 
#    z -0.161330 0.000010 4.358720 
# 
# 
# High freq. dielectric constant tensor:
#      x y z
#    x 1.911900 0.000000 -0.006050 
#    y 0.000000 1.919870 0.000000 
#    z -0.006050 0.000000 1.905480 
# 
# From -- ./inp_files/247261.got.cif
#   From: 2010.06.25/outbox.cif.g09.slc.cpg/sg12_124_cif.got.tgz:247261.got - 2010.06.28 00:19:55.
