data_PCOD8113886
_publ_section_title
;
Structure prediction by ZEFSAII (Michael W. Deem and Ramdas Pophale) SiO2 
 PCOD8113886
Probable space group: C 2/M
;
_chemical_formula_sum "Si O2"
_cell_formula_units_Z 56
_cell_length_a 13.555765
_cell_length_b 26.717831
_cell_length_c 9.392405
_cell_angle_alpha 90.000000
_cell_angle_beta 55.571475
_cell_angle_gamma 90.000000
_cell_volume 2805.870401
_symmetry_space_group_name_H-M "C 2/M"
_symmetry_group_IT_number 12
_symmetry_cell_setting 'monoclinic'
loop_
_space_group_symop_operation_xyz
x,y,z
-x,y,-z
-x,-y,-z
x,-y,z
1/2+x,1/2+y,z
1/2-x,1/2+y,-z
1/2-x,1/2-y,-z
1/2+x,1/2-y,z
loop_
_atom_site_type_symbol
_atom_site_label
_atom_site_fract_x
_atom_site_fract_y
_atom_site_fract_z
Si Si1 0.076813 0.732957 0.063959
Si Si2 0.027117 0.401864 0.639586
Si Si3 0.369518 0.342984 0.058994
Si Si4 0.806067 0.629374 0.005151
Si Si5 0.127246 0.554492 0.822723
Si Si6 0.280354 0.177058 0.566469
Si Si7 0.587259 0.273253 0.550494
O O1 0.992518 0.747239 0.263943
O O2 0.137835 0.783477 0.958783
O O3 0.173148 0.689377 0.010844
O O4 0.000000 0.708850 0.000000
O O5 0.110141 0.439108 0.665743
O O6 0.100124 0.350013 0.585283
O O7 0.000000 0.420703 0.500000
O O8 0.902782 0.395497 0.822481
O O9 0.273355 0.354836 0.260331
O O10 0.500000 0.361340 0.000000
O O11 0.326562 0.374523 0.956267
O O12 0.799731 0.600277 0.161982
O O13 0.189321 0.500000 0.796416
O O14 0.000000 0.554798 0.000000
O O15 0.323021 0.231564 0.585829
O O16 0.172284 0.182332 0.539611
O O17 0.500000 0.295238 0.500000
#
# Coordination Sequence:
#
# PCOD8113886 Si02
#       7
#     8   8   8   8   8   8   8
#     4  11  20  35  49  80 115 157 196 223 274 333
#     4  11  20  35  61  84 111 150 182 227 292 346
#     4  11  22  37  52  79 118 156 196 233 266 328
#     4  11  21  35  61  81 115 154 189 231 285 340
#     4   9  21  39  59  91 118 136 178 238 296 352
#     4  11  21  36  52  77 115 147 198 242 269 328
#     4  11  22  34  51  74 113 157 197 240 271 315
#
# _framework density 19.958155999999999
#
# number of rings (size 3 to 8) (size 9 to 14) (size 15 to 20)
#    0.000    1.286    5.714    3.000    0.000    1.429 
#    0.000    0.000    0.000    0.429    0.000    1.000 
#    0.000    0.000    0.000    0.000    0.000    0.000 
#
# Total GULP energy -346893.536730 kJ/mol
# GULP energy per Si atom -12389.054883 kJ/mol
# Density = 1.991273 g / cm^3
# Si number density = 19.958156 Si / 1000 Ang^3
#
#
#
# Elastic Constant Matrix: (Units=GPa)
#
#
# Indices 1 2 3 4 5 6 
#
# 1 157.3025 38.5379 35.2282 0.0000 24.8554 0.0000
# 2 38.5379 55.6396 6.6078 0.0000 8.1710 0.0000
# 3 35.2282 6.6078 57.6853 0.0000 19.5835 0.0000
# 4 0.0000 0.0000 0.0000 6.9852 0.0000 3.4446
# 5 24.8554 8.1710 19.5835 0.0000 33.0095 0.0000
# 6 0.0000 0.0000 0.0000 3.4446 0.0000 10.4628
#
#
#
# Elastic Compliance Matrix: (Units=1/GPa)
#
#
# Indices 1 2 3 4 5 6 
#
# 1 0.009023 -0.005325 -0.003808 0.000000 -0.003217 0.000000
# 2 -0.005325 0.021817 0.001534 0.000000 -0.002301 0.000000
# 3 -0.003808 0.001534 0.023342 0.000000 -0.011360 0.000000
# 4 0.000000 0.000000 0.000000 0.170906 0.000000 -0.056266
# 5 -0.003217 -0.002301 -0.011360 0.000000 0.040026 0.000000
# 6 0.000000 0.000000 0.000000 -0.056266 0.000000 0.114100
#
#
# Mechanical properties :
#
#
# Convention : Reuss Voigt Hill
#
# Bulk Modulus (GPa) = 25.65204 47.93058 36.79131
# Shear Modulus (GPa) = 12.27276 22.77507 17.52391
#
# Velocity S-wave (km/s) = 2.48246 3.38174 2.96638
# Velocity P-wave (km/s) = 4.59321 6.27024 5.49607
#
# Compressibility (1/GPa) = 0.03898326
#
# Stress axis : x y z
#
# Youngs Moduli (GPa) = 110.82967 45.83637 42.84101
#
# Poissons Ratio (x) = 0.24407 0.16315
# Poissons Ratio (y) = 0.59016 -0.06572
# Poissons Ratio (z) = 0.42207 -0.07031
#
# Static dielectric constant tensor:
#      x y z
#    x 3.930540 0.000000 0.277950 
#    y 0.000000 3.419740 0.000000 
#    z 0.277950 0.000000 3.587460 
# 
# 
# High freq. dielectric constant tensor:
#      x y z
#    x 1.789540 0.000000 0.018110 
#    y 0.000000 1.722150 0.000000 
#    z 0.018110 0.000000 1.769160 
# 
# From -- ./inp_files/68100.got.cif
#   From: 2010.06.25/outbox.cif.g09.slc.cpg/sg12_35_cif.got.tgz:68100.got - 2010.06.28 00:19:55.
