data_PCOD8113321
_publ_section_title
;
Structure prediction by ZEFSAII (Michael W. Deem and Ramdas Pophale) SiO2 
 PCOD8113321
Probable space group: C 2/M
;
_chemical_formula_sum "Si O2"
_cell_formula_units_Z 60
_cell_length_a 9.381559
_cell_length_b 21.542888
_cell_length_c 15.653638
_cell_angle_alpha 90.000000
_cell_angle_beta 107.055508
_cell_angle_gamma 90.000000
_cell_volume 3024.556367
_symmetry_space_group_name_H-M "C 2/M"
_symmetry_group_IT_number 12
_symmetry_cell_setting 'monoclinic'
loop_
_space_group_symop_operation_xyz
x,y,z
-x,y,-z
-x,-y,-z
x,-y,z
1/2+x,1/2+y,z
1/2-x,1/2+y,-z
1/2-x,1/2-y,-z
1/2+x,1/2-y,z
loop_
_atom_site_type_symbol
_atom_site_label
_atom_site_fract_x
_atom_site_fract_y
_atom_site_fract_z
Si Si1 0.853727 0.873749 0.680998
Si Si2 0.852905 0.069712 0.212553
Si Si3 0.951050 0.213550 0.394022
Si Si4 0.834634 0.433166 0.499467
Si Si5 0.304182 0.300641 0.114321
Si Si6 0.116832 0.690910 0.739583
Si Si7 0.179083 0.371483 0.323179
Si Si8 0.500000 0.252417 0.000000
O O1 0.928577 0.815514 0.648098
O O2 0.748069 0.904451 0.594529
O O3 0.764298 0.850458 0.749773
O O4 0.974002 0.924296 0.731884
O O5 0.812357 0.127867 0.144958
O O6 0.747867 0.073698 0.277690
O O7 0.829802 0.000000 0.168649
O O8 0.000000 0.205695 0.500000
O O9 0.937229 0.285199 0.363971
O O10 0.789583 0.186528 0.344022
O O11 0.761681 0.500000 0.508386
O O12 0.831312 0.391209 0.581512
O O13 0.000000 0.443732 0.500000
O O14 0.351537 0.248617 0.191983
O O15 0.131353 0.290841 0.060080
O O16 0.420603 0.295650 0.056659
O O17 0.979228 0.648344 0.747357
#
# Coordination Sequence:
#
# PCOD8113321 Si02
#       8
#     8   8   8   8   8   8   8   4
#     4  11  22  37  56  86 117 168 217 262 309 350
#     4  11  24  42  63  89 124 163 209 250 299 370
#     4  11  23  33  53  88 127 161 206 258 315 355
#     4  11  22  37  52  76 121 174 229 272 301 344
#     4  11  22  43  68  99 125 157 191 244 318 375
#     4  12  23  37  63  90 126 163 203 260 316 374
#     4  11  22  37  56  86 117 168 217 262 309 350
#     4  10  24  42  74 102 126 146 188 248 312 398
#
# _framework density 19.837620000000001
#
# number of rings (size 3 to 8) (size 9 to 14) (size 15 to 20)
#    0.000    0.933    5.333    3.200    1.867    1.067 
#    0.000    2.667    0.000    0.000    0.000    0.000 
#    0.000    0.000    0.000    0.000    0.000    0.000 
#
# Total GULP energy -371806.608962 kJ/mol
# GULP energy per Si atom -12393.553632 kJ/mol
# Density = 1.979247 g / cm^3
# Si number density = 19.837620 Si / 1000 Ang^3
#
#
#
# Elastic Constant Matrix: (Units=GPa)
#
#
# Indices 1 2 3 4 5 6 
#
# 1 131.7018 45.5615 39.4008 0.0000 5.6898 0.0000
# 2 45.5615 113.2102 39.0022 0.0000 11.9176 0.0000
# 3 39.4008 39.0022 81.6954 0.0000 8.2571 0.0000
# 4 0.0000 0.0000 0.0000 22.6006 0.0000 0.7904
# 5 5.6898 11.9176 8.2571 0.0000 23.8626 0.0000
# 6 0.0000 0.0000 0.0000 0.7904 0.0000 22.8161
#
#
#
# Elastic Compliance Matrix: (Units=1/GPa)
#
#
# Indices 1 2 3 4 5 6 
#
# 1 0.009513 -0.002710 -0.003318 0.000000 0.000233 0.000000
# 2 -0.002710 0.011662 -0.003873 0.000000 -0.003838 0.000000
# 3 -0.003318 -0.003873 0.015973 0.000000 -0.002802 0.000000
# 4 0.000000 0.000000 0.000000 0.044300 0.000000 -0.001535
# 5 0.000233 -0.003838 -0.002802 0.000000 0.044737 0.000000
# 6 0.000000 0.000000 0.000000 -0.001535 0.000000 0.043882
#
#
# Mechanical properties :
#
#
# Convention : Reuss Voigt Hill
#
# Bulk Modulus (GPa) = 57.64742 63.83737 60.74240
# Shear Modulus (GPa) = 25.55585 27.36540 26.46063
#
# Velocity S-wave (km/s) = 3.59312 3.71815 3.65617
# Velocity P-wave (km/s) = 6.80711 7.11918 6.96489
#
# Compressibility (1/GPa) = 0.01734683
#
# Stress axis : x y z
#
# Youngs Moduli (GPa) = 105.12026 85.74877 62.60679
#
# Poissons Ratio (x) = 0.23238 0.20771
# Poissons Ratio (y) = 0.28488 0.24245
# Poissons Ratio (z) = 0.34876 0.33207
#
# Static dielectric constant tensor:
#      x y z
#    x 3.418630 0.000000 0.022900 
#    y 0.000000 3.560430 0.000000 
#    z 0.022900 0.000000 3.538130 
# 
# 
# High freq. dielectric constant tensor:
#      x y z
#    x 1.797430 0.000000 0.001610 
#    y 0.000000 1.763190 0.000000 
#    z 0.001610 0.000000 1.754460 
# 
# From -- ./inp_files/198937.got.cif
#   From: 2010.06.25/outbox.cif.g09.slc.cpg/sg12_100_cif.got.tgz:198937.got - 2010.06.28 00:19:55.
