data_PCOD8113610
_publ_section_title
;
Structure prediction by ZEFSAII (Michael W. Deem and Ramdas Pophale) SiO2 
 PCOD8113610
Probable space group: C 2/M
;
_chemical_formula_sum "Si O2"
_cell_formula_units_Z 64
_cell_length_a 27.716650
_cell_length_b 19.175932
_cell_length_c 9.926010
_cell_angle_alpha 90.000000
_cell_angle_beta 45.594126
_cell_angle_gamma 90.000000
_cell_volume 3768.894216
_symmetry_space_group_name_H-M "C 2/M"
_symmetry_group_IT_number 12
_symmetry_cell_setting 'monoclinic'
loop_
_space_group_symop_operation_xyz
x,y,z
-x,y,-z
-x,-y,-z
x,-y,z
1/2+x,1/2+y,z
1/2-x,1/2+y,-z
1/2-x,1/2-y,-z
1/2+x,1/2-y,z
loop_
_atom_site_type_symbol
_atom_site_label
_atom_site_fract_x
_atom_site_fract_y
_atom_site_fract_z
Si Si1 0.711835 0.180719 0.020531
Si Si2 0.552313 0.808692 0.005772
Si Si3 0.204853 0.081983 0.967771
Si Si4 0.204109 0.152703 0.686303
Si Si5 0.795843 0.684564 0.276993
Si Si6 0.941131 0.702058 0.708785
Si Si7 0.447456 0.644881 0.001042
Si Si8 0.943017 0.867912 0.713907
O O1 0.632080 0.183271 0.207301
O O2 0.750000 0.250000 0.000000
O O3 0.739969 0.113343 0.040261
O O4 0.720819 0.165844 0.844164
O O5 0.542404 0.833438 0.179197
O O6 0.500000 0.843092 0.000000
O O7 0.628331 0.830110 0.818924
O O8 0.539424 0.726692 0.033591
O O9 0.131550 0.103134 0.170631
O O10 0.212542 0.000000 0.952073
O O11 0.222122 0.109367 0.784245
O O12 0.216771 0.233161 0.694006
O O13 0.249465 0.137235 0.465895
O O14 0.127769 0.133030 0.796667
O O15 0.941567 0.785135 0.713644
O O16 0.000000 0.672384 0.500000
O O17 0.500000 0.609135 0.000000
O O18 0.460517 0.608325 0.831654
O O19 0.000000 0.897628 0.500000
#
# Coordination Sequence:
#
# PCOD8113610 Si02
#       8
#     8   8   8   8   8   8   8   8
#     4  11  18  34  53  77 110 136 173 227 262 309
#     4   8  14  25  39  65 100 124 149 197 259 308
#     4  11  22  35  51  73 107 149 180 215 270 321
#     4   9  17  31  47  72  97 128 173 214 264 312
#     4   9  17  29  51  74  98 128 167 219 267 306
#     4   9  17  29  48  77 104 133 167 217 269 307
#     4   8  14  25  40  62  93 123 158 207 251 297
#     4   9  17  30  48  70 100 137 179 216 258 308
#
# _framework density 16.981109
#
# number of rings (size 3 to 8) (size 9 to 14) (size 15 to 20)
#    0.000    2.750    2.500    1.500    0.000    2.250 
#    4.500    0.625    0.000    6.375    0.000    0.000 
#    0.000    4.500    0.000    0.000    0.000    0.000 
#
# Total GULP energy -396475.883718 kJ/mol
# GULP energy per Si atom -12389.871366 kJ/mol
# Density = 1.694246 g / cm^3
# Si number density = 16.981109 Si / 1000 Ang^3
#
#
#
# Elastic Constant Matrix: (Units=GPa)
#
#
# Indices 1 2 3 4 5 6 
#
# 1 137.2879 26.3923 52.5301 0.0000 -5.9935 0.0000
# 2 26.3923 34.4561 33.2297 0.0000 -0.8880 0.0000
# 3 52.5301 33.2297 128.8930 0.0000 -13.5950 0.0000
# 4 0.0000 0.0000 0.0000 7.7682 0.0000 0.8741
# 5 -5.9935 -0.8880 -13.5950 0.0000 15.8407 0.0000
# 6 0.0000 0.0000 0.0000 0.8741 0.0000 10.7372
#
#
#
# Elastic Compliance Matrix: (Units=1/GPa)
#
#
# Indices 1 2 3 4 5 6 
#
# 1 0.009150 -0.004656 -0.002409 0.000000 0.001133 0.000000
# 2 -0.004656 0.041718 -0.009672 0.000000 -0.007724 0.000000
# 3 -0.002409 -0.009672 0.012183 0.000000 0.009002 0.000000
# 4 0.000000 0.000000 0.000000 0.129920 0.000000 -0.010576
# 5 0.001133 -0.007724 0.009002 0.000000 0.070850 0.000000
# 6 0.000000 0.000000 0.000000 -0.010576 0.000000 0.093995
#
#
# Mechanical properties :
#
#
# Convention : Reuss Voigt Hill
#
# Bulk Modulus (GPa) = 33.81103 58.32680 46.06892
# Shear Modulus (GPa) = 12.46412 19.43489 15.94951
#
# Velocity S-wave (km/s) = 2.71218 3.38672 3.06804
# Velocity P-wave (km/s) = 5.45547 7.05094 6.30388
#
# Compressibility (1/GPa) = 0.02957614
#
# Stress axis : x y z
#
# Youngs Moduli (GPa) = 109.28481 23.97056 82.07894
#
# Poissons Ratio (x) = 0.11161 0.19775
# Poissons Ratio (y) = 0.50885 0.79389
# Poissons Ratio (z) = 0.26330 0.23185
#
# Static dielectric constant tensor:
#      x y z
#    x 3.473500 0.000000 0.136220 
#    y 0.000000 2.607910 0.000000 
#    z 0.136220 0.000000 3.680630 
# 
# 
# High freq. dielectric constant tensor:
#      x y z
#    x 1.666190 0.000000 0.002320 
#    y 0.000000 1.589520 0.000000 
#    z 0.002320 0.000000 1.661680 
# 
# From -- ./inp_files/106390.got.cif
#   From: 2010.06.25/outbox.cif.g09.slc.cpg/sg12_54_cif.got.tgz:106390.got - 2010.06.28 00:19:55.
