data_PCOD8113642
_publ_section_title
;
Structure prediction by ZEFSAII (Michael W. Deem and Ramdas Pophale) SiO2 
 PCOD8113642
Probable space group: C 2/M
;
_chemical_formula_sum "Si O2"
_cell_formula_units_Z 40
_cell_length_a 21.556876
_cell_length_b 23.880671
_cell_length_c 9.498212
_cell_angle_alpha 90.000000
_cell_angle_beta 32.121161
_cell_angle_gamma 90.000000
_cell_volume 2599.861350
_symmetry_space_group_name_H-M "C 2/M"
_symmetry_group_IT_number 12
_symmetry_cell_setting 'monoclinic'
loop_
_space_group_symop_operation_xyz
x,y,z
-x,y,-z
-x,-y,-z
x,-y,z
1/2+x,1/2+y,z
1/2-x,1/2+y,-z
1/2-x,1/2-y,-z
1/2+x,1/2-y,z
loop_
_atom_site_type_symbol
_atom_site_label
_atom_site_fract_x
_atom_site_fract_y
_atom_site_fract_z
Si Si1 0.879175 0.307734 0.781787
Si Si2 0.200371 0.880638 0.248778
Si Si3 0.646144 0.684951 0.096837
Si Si4 0.944066 0.000000 0.832744
Si Si5 0.822372 0.000000 0.792284
Si Si6 0.993572 0.882715 0.850758
O O1 0.911693 0.245678 0.772175
O O2 0.000000 0.336448 0.500000
O O3 0.818735 0.343118 0.025969
O O4 0.787887 0.306502 0.825132
O O5 0.115908 0.857010 0.285553
O O6 0.243066 0.943865 0.132745
O O7 0.124414 0.876953 0.536473
O O8 0.598570 0.659069 0.044461
O O9 0.944369 0.054376 0.931159
O O10 0.831953 0.000000 0.944386
O O11 0.052650 0.000000 0.520663
O O12 0.000000 0.865435 0.000000
#
# Coordination Sequence:
#
# PCOD8113642 Si02
#       6
#     8   8   8   4   4   8
#     4   9  17  30  52  68  84 116 162 194 225 265
#     4   9  17  29  47  67  91 122 149 191 226 264
#     4   9  18  29  51  68  89 118 155 190 231 266
#     4   9  15  26  42  68  96 124 142 182 232 276
#     4   9  14  24  47  68  90 114 157 191 224 258
#     4  11  19  28  44  72 101 122 148 180 230 284
#
# _framework density 15.385434999999999
#
# number of rings (size 3 to 8) (size 9 to 14) (size 15 to 20)
#    1.200    1.400    2.000    2.100    0.000    0.000 
#    0.000    1.500    0.000    0.000    0.000    0.000 
#    0.000    8.000    0.000    0.000    0.000    0.000 
#
# Total GULP energy -247767.413821 kJ/mol
# GULP energy per Si atom -12388.370691 kJ/mol
# Density = 1.535042 g / cm^3
# Si number density = 15.385435 Si / 1000 Ang^3
#
#
#
# Elastic Constant Matrix: (Units=GPa)
#
#
# Indices 1 2 3 4 5 6 
#
# 1 67.0198 29.5268 42.1525 -0.0001 14.4081 0.0001
# 2 29.5268 115.2034 35.7820 -0.0001 4.8605 0.0001
# 3 42.1525 35.7820 85.1693 -0.0003 0.0893 0.0001
# 4 -0.0001 -0.0001 -0.0003 10.6192 0.0003 0.6344
# 5 14.4081 4.8605 0.0893 0.0003 24.6443 -0.0001
# 6 0.0001 0.0001 0.0001 0.6344 -0.0001 12.5758
#
#
#
# Elastic Compliance Matrix: (Units=1/GPa)
#
#
# Indices 1 2 3 4 5 6 
#
# 1 0.027050 -0.002455 -0.012340 0.000000 -0.015286 0.000000
# 2 -0.002455 0.010301 -0.003112 0.000000 -0.000585 0.000000
# 3 -0.012340 -0.003112 0.019148 0.000000 0.007759 0.000000
# 4 0.000000 0.000000 0.000000 0.094454 -0.000001 -0.004765
# 5 -0.015286 -0.000585 0.007759 -0.000001 0.049601 0.000001
# 6 0.000000 0.000000 0.000000 -0.004765 0.000001 0.079758
#
#
# Mechanical properties :
#
#
# Convention : Reuss Voigt Hill
#
# Bulk Modulus (GPa) = 48.34578 53.59057 50.96817
# Shear Modulus (GPa) = 15.47879 20.22994 17.85436
#
# Velocity S-wave (km/s) = 3.17530 3.63006 3.41027
# Velocity P-wave (km/s) = 6.70333 7.24413 6.97897
#
# Compressibility (1/GPa) = 0.02068433
#
# Stress axis : x y z
#
# Youngs Moduli (GPa) = 36.96794 97.07978 52.22427
#
# Poissons Ratio (x) = 0.23835 0.64447
# Poissons Ratio (y) = 0.09076 0.16252
# Poissons Ratio (z) = 0.45620 0.30210
#
# Static dielectric constant tensor:
#      x y z
#    x 2.571850 0.000000 -0.039560 
#    y 0.000000 3.138040 0.000000 
#    z -0.039560 0.000000 2.635560 
# 
# 
# High freq. dielectric constant tensor:
#      x y z
#    x 1.547900 0.000000 -0.004860 
#    y 0.000000 1.604450 0.000000 
#    z -0.004860 0.000000 1.560380 
# 
# From -- ./inp_files/99892.got.cif
#   From: 2010.06.25/outbox.cif.g09.slc.cpg/sg12_50_cif.got.tgz:99892.got - 2010.06.28 00:19:55.
