data_PCOD8113964
_publ_section_title
;
Structure prediction by ZEFSAII (Michael W. Deem and Ramdas Pophale) SiO2 
 PCOD8113964
Probable space group: C 2/M
;
_chemical_formula_sum "Si O2"
_cell_formula_units_Z 56
_cell_length_a 9.922568
_cell_length_b 21.897712
_cell_length_c 14.803142
_cell_angle_alpha 90.000000
_cell_angle_beta 75.303904
_cell_angle_gamma 90.000000
_cell_volume 3111.223425
_symmetry_space_group_name_H-M "C 2/M"
_symmetry_group_IT_number 12
_symmetry_cell_setting 'monoclinic'
loop_
_space_group_symop_operation_xyz
x,y,z
-x,y,-z
-x,-y,-z
x,-y,z
1/2+x,1/2+y,z
1/2-x,1/2+y,-z
1/2-x,1/2-y,-z
1/2+x,1/2-y,z
loop_
_atom_site_type_symbol
_atom_site_label
_atom_site_fract_x
_atom_site_fract_y
_atom_site_fract_z
Si Si1 0.730296 0.500000 0.968324
Si Si2 0.477799 0.500000 0.149298
Si Si3 0.157786 0.376440 0.985568
Si Si4 0.274959 0.679669 0.809856
Si Si5 0.328794 0.297414 0.607967
Si Si6 0.563443 0.371171 0.776190
Si Si7 0.351065 0.299108 0.075363
Si Si8 0.142693 0.814340 0.589597
O O1 0.670630 0.500000 0.877221
O O2 0.602492 0.500000 0.057993
O O3 0.825688 0.440643 0.966879
O O4 0.488956 0.440590 0.210116
O O5 0.217339 0.379674 0.872922
O O6 0.236791 0.320214 0.021464
O O7 0.000000 0.357210 0.000000
O O8 0.247095 0.672503 0.706888
O O9 0.440860 0.679553 0.796868
O O10 0.200214 0.739256 0.863480
O O11 0.259332 0.233100 0.599177
O O12 0.489009 0.284358 0.608137
O O13 0.319083 0.339268 0.518314
O O14 0.649318 0.354261 0.851416
O O15 0.645844 0.366332 0.666667
O O16 0.500000 0.290826 0.000000
#
# Coordination Sequence:
#
# PCOD8113964 Si02
#       8
#     4   4   8   8   8   8   8   8
#     4  11  21  40  56  75 105 148 203 231 266 321
#     4  11  20  38  62  78 102 151 205 231 260 324
#     4  12  25  36  53  80 114 149 184 236 278 326
#     4  11  22  34  53  82 114 147 179 226 283 332
#     4   9  18  32  54  76 112 140 175 221 274 341
#     4  11  21  36  60  81 108 148 190 233 275 326
#     4  12  22  37  53  82 114 152 188 222 281 341
#     4   9  18  34  53  81 107 140 177 225 277 329
#
# _framework density 17.999351999999998
#
# number of rings (size 3 to 8) (size 9 to 14) (size 15 to 20)
#    0.000    1.286    5.714    1.071    2.000    0.000 
#    0.000    0.000    0.000    7.714    0.000    0.000 
#    0.000   10.286    0.000    0.000    0.000    0.000 
#
# Total GULP energy -346893.141149 kJ/mol
# GULP energy per Si atom -12389.040755 kJ/mol
# Density = 1.795838 g / cm^3
# Si number density = 17.999352 Si / 1000 Ang^3
#
#
#
# Elastic Constant Matrix: (Units=GPa)
#
#
# Indices 1 2 3 4 5 6 
#
# 1 78.7069 13.3024 34.0429 0.0000 3.6232 0.0000
# 2 13.3024 61.7160 32.5609 0.0000 -3.3127 0.0000
# 3 34.0429 32.5609 154.5137 0.0000 6.3776 0.0000
# 4 0.0000 0.0000 0.0000 12.8012 0.0000 4.5981
# 5 3.6232 -3.3127 6.3776 0.0000 17.3794 0.0000
# 6 0.0000 0.0000 0.0000 4.5981 0.0000 12.7147
#
#
#
# Elastic Compliance Matrix: (Units=1/GPa)
#
#
# Indices 1 2 3 4 5 6 
#
# 1 0.014271 -0.001793 -0.002670 0.000000 -0.002337 0.000000
# 2 -0.001793 0.018886 -0.003807 0.000000 0.005371 0.000000
# 3 -0.002670 -0.003807 0.007990 0.000000 -0.003101 0.000000
# 4 0.000000 0.000000 0.000000 0.089780 0.000000 -0.032468
# 5 -0.002337 0.005371 -0.003101 0.000000 0.060188 0.000000
# 6 0.000000 0.000000 0.000000 -0.032468 0.000000 0.090391
#
#
# Mechanical properties :
#
#
# Convention : Reuss Voigt Hill
#
# Bulk Modulus (GPa) = 40.63592 50.52767 45.58180
# Shear Modulus (GPa) = 16.32660 22.91440 19.62050
#
# Velocity S-wave (km/s) = 3.01502 3.57188 3.30520
# Velocity P-wave (km/s) = 5.89456 6.71893 6.32020
#
# Compressibility (1/GPa) = 0.02460877
#
# Stress axis : x y z
#
# Youngs Moduli (GPa) = 70.07328 52.94843 125.15110
#
# Poissons Ratio (x) = 0.09492 0.33414
# Poissons Ratio (y) = 0.12563 0.47640
# Poissons Ratio (z) = 0.18709 0.20155
#
# Static dielectric constant tensor:
#      x y z
#    x 3.364730 0.000000 0.106500 
#    y 0.000000 3.048850 0.000000 
#    z 0.106500 0.000000 3.969700 
# 
# 
# High freq. dielectric constant tensor:
#      x y z
#    x 1.695450 0.000000 0.009580 
#    y 0.000000 1.659030 0.000000 
#    z 0.009580 0.000000 1.711930 
# 
# From -- ./inp_files/207255.got.cif
#   From: 2010.06.25/outbox.cif.g09.slc.cpg/sg12_104_cif.got.tgz:207255.got - 2010.06.28 00:19:55.
