data_PCOD8113943
_publ_section_title
;
Structure prediction by ZEFSAII (Michael W. Deem and Ramdas Pophale) SiO2 
 PCOD8113943
Probable space group: C 2/M
;
_chemical_formula_sum "Si O2"
_cell_formula_units_Z 64
_cell_length_a 19.093329
_cell_length_b 19.951289
_cell_length_c 9.858654
_cell_angle_alpha 90.000000
_cell_angle_beta 117.353797
_cell_angle_gamma 90.000000
_cell_volume 3335.602273
_symmetry_space_group_name_H-M "C 2/M"
_symmetry_group_IT_number 12
_symmetry_cell_setting 'monoclinic'
loop_
_space_group_symop_operation_xyz
x,y,z
-x,y,-z
-x,-y,-z
x,-y,z
1/2+x,1/2+y,z
1/2-x,1/2+y,-z
1/2-x,1/2-y,-z
1/2+x,1/2-y,z
loop_
_atom_site_type_symbol
_atom_site_label
_atom_site_fract_x
_atom_site_fract_y
_atom_site_fract_z
Si Si1 0.782558 0.576256 0.360176
Si Si2 0.941101 0.631761 0.559097
Si Si3 0.588743 0.281053 0.555355
Si Si4 0.045727 0.371812 0.912101
Si Si5 0.203023 0.575407 0.941459
Si Si6 0.810165 0.808521 0.090827
Si Si7 0.814211 0.803719 0.605574
Si Si8 0.087136 0.227096 0.050995
O O1 0.751924 0.500000 0.349210
O O2 0.866760 0.582726 0.509979
O O3 0.795523 0.596041 0.214911
O O4 0.720882 0.626302 0.374118
O O5 0.910007 0.702891 0.478645
O O6 0.000000 0.600265 0.500000
O O7 0.982210 0.641070 0.739218
O O8 0.500000 0.307689 0.500000
O O9 0.640842 0.289517 0.734368
O O10 0.628013 0.322147 0.467419
O O11 0.114456 0.420026 0.920660
O O12 0.083631 0.301237 0.986276
O O13 0.000000 0.404152 0.000000
O O14 0.232916 0.500000 0.989015
O O15 0.262242 0.623352 0.076179
O O16 0.750000 0.750000 0.000000
O O17 0.869826 0.820722 0.018844
O O18 0.750000 0.750000 0.500000
O O19 0.864134 0.768505 0.767521
O O20 0.000000 0.197755 0.000000
#
# Coordination Sequence:
#
# PCOD8113943 Si02
#       8
#     8   8   8   8   8   8   8   8
#     4  11  24  41  63  90 123 169 211 253 304 369
#     4  11  20  37  61  92 127 168 205 243 300 385
#     4  11  23  37  62  94 128 156 200 259 318 364
#     4  11  23  36  60  93 131 164 202 248 309 377
#     4  11  24  42  62  89 126 169 209 252 307 370
#     4  12  21  38  65  91 119 163 207 255 307 357
#     4  12  23  39  64  95 125 161 208 260 305 357
#     4  11  22  37  61  92 126 158 202 257 309 359
#
# _framework density 19.18694
#
# number of rings (size 3 to 8) (size 9 to 14) (size 15 to 20)
#    0.000    0.750    5.000    5.250    0.000    1.000 
#    0.000    1.875    0.000    4.500    0.000    0.000 
#    0.000    0.000    0.000    0.000    0.000    0.000 
#
# Total GULP energy -396912.927933 kJ/mol
# GULP energy per Si atom -12403.528998 kJ/mol
# Density = 1.914327 g / cm^3
# Si number density = 19.186940 Si / 1000 Ang^3
#
#
#
# Elastic Constant Matrix: (Units=GPa)
#
#
# Indices 1 2 3 4 5 6 
#
# 1 130.5921 51.3344 52.8949 0.0000 -16.7220 0.0000
# 2 51.3344 86.4612 39.4594 0.0000 6.5790 0.0000
# 3 52.8949 39.4594 170.6764 0.0000 8.0974 0.0000
# 4 0.0000 0.0000 0.0000 14.6821 0.0000 -2.5747
# 5 -16.7220 6.5790 8.0974 0.0000 36.6117 0.0000
# 6 0.0000 0.0000 0.0000 -2.5747 0.0000 24.9921
#
#
#
# Elastic Compliance Matrix: (Units=1/GPa)
#
#
# Indices 1 2 3 4 5 6 
#
# 1 0.012280 -0.006659 -0.002617 0.000000 0.007384 0.000000
# 2 -0.006659 0.016644 -0.001514 0.000000 -0.005697 0.000000
# 3 -0.002617 -0.001514 0.007139 0.000000 -0.002502 0.000000
# 4 0.000000 0.000000 0.000000 0.069363 0.000000 0.007146
# 5 0.007384 -0.005697 -0.002502 0.000000 0.032263 0.000000
# 6 0.000000 0.000000 0.000000 0.007146 0.000000 0.040749
#
#
# Mechanical properties :
#
#
# Convention : Reuss Voigt Hill
#
# Bulk Modulus (GPa) = 69.04223 75.01190 72.02706
# Shear Modulus (GPa) = 24.40862 31.52658 27.96760
#
# Velocity S-wave (km/s) = 3.57059 4.05795 3.82204
# Velocity P-wave (km/s) = 7.28429 7.81896 7.55635
#
# Compressibility (1/GPa) = 0.01448389
#
# Stress axis : x y z
#
# Youngs Moduli (GPa) = 81.43080 60.08197 140.08117
#
# Poissons Ratio (x) = 0.40008 0.36655
# Poissons Ratio (y) = 0.54224 0.21208
# Poissons Ratio (z) = 0.21308 0.09096
#
# Static dielectric constant tensor:
#      x y z
#    x 3.965970 0.000000 -0.095950 
#    y 0.000000 3.183250 0.000000 
#    z -0.095950 0.000000 3.605540 
# 
# 
# High freq. dielectric constant tensor:
#      x y z
#    x 1.762790 0.000000 -0.002560 
#    y 0.000000 1.710950 0.000000 
#    z -0.002560 0.000000 1.758670 
# 
# From -- ./inp_files/89636.got.cif
#   From: 2010.06.25/outbox.cif.g09.slc.cpg/sg12_45_cif.got.tgz:89636.got - 2010.06.28 00:19:55.
