data_PCOD8113721
_publ_section_title
;
Structure prediction by ZEFSAII (Michael W. Deem and Ramdas Pophale) SiO2 
 PCOD8113721
Probable space group: C 2/M
;
_chemical_formula_sum "Si O2"
_cell_formula_units_Z 48
_cell_length_a 14.331267
_cell_length_b 19.792595
_cell_length_c 12.160674
_cell_angle_alpha 90.000000
_cell_angle_beta 47.442920
_cell_angle_gamma 90.000000
_cell_volume 2540.849843
_symmetry_space_group_name_H-M "C 2/M"
_symmetry_group_IT_number 12
_symmetry_cell_setting 'monoclinic'
loop_
_space_group_symop_operation_xyz
x,y,z
-x,y,-z
-x,-y,-z
x,-y,z
1/2+x,1/2+y,z
1/2-x,1/2+y,-z
1/2-x,1/2-y,-z
1/2+x,1/2-y,z
loop_
_atom_site_type_symbol
_atom_site_label
_atom_site_fract_x
_atom_site_fract_y
_atom_site_fract_z
Si Si1 0.792915 0.808729 0.675691
Si Si2 0.404649 0.077751 0.170609
Si Si3 0.703026 0.078162 0.320300
Si Si4 0.095112 0.811077 0.825928
Si Si5 0.008977 0.219785 0.663056
Si Si6 0.018592 0.620932 0.654847
O O1 0.723849 0.880237 0.738670
O O2 0.694716 0.748906 0.735804
O O3 0.870053 0.794883 0.725764
O O4 0.884713 0.813457 0.498140
O O5 0.473970 0.089192 0.230982
O O6 0.366869 0.000000 0.186021
O O7 0.500000 0.101923 0.000000
O O8 0.834671 0.118126 0.211272
O O9 0.631466 0.090784 0.491772
O O10 0.616674 0.101905 0.287727
O O11 0.736551 0.000000 0.281189
O O12 0.014558 0.814139 0.777985
O O13 0.000000 0.795750 0.000000
O O14 0.034835 0.299214 0.647587
#
# Coordination Sequence:
#
# PCOD8113721 Si02
#       6
#     8   8   8   8   8   8
#     4  11  21  41  61  85 116 152 191 243 283 334
#     4  11  24  39  58  87 120 155 192 233 285 341
#     4  11  22  38  60  88 117 149 193 240 288 337
#     4  12  24  37  58  89 118 155 189 230 292 346
#     4  11  22  38  64  89 114 144 199 242 284 336
#     4  11  19  38  64  89 112 147 195 248 283 331
#
# _framework density 18.891317000000001
#
# number of rings (size 3 to 8) (size 9 to 14) (size 15 to 20)
#    0.000    0.833    5.000    5.000    0.000    2.333 
#    0.000    2.500    0.000    0.000    0.000    0.000 
#    0.000    0.000    0.000    0.000    0.000    0.000 
#
# Total GULP energy -297763.122388 kJ/mol
# GULP energy per Si atom -12406.796766 kJ/mol
# Density = 1.884832 g / cm^3
# Si number density = 18.891317 Si / 1000 Ang^3
#
#
#
# Elastic Constant Matrix: (Units=GPa)
#
#
# Indices 1 2 3 4 5 6 
#
# 1 106.2132 14.5241 42.9768 0.0001 11.5510 -0.0002
# 2 14.5241 96.0433 12.9065 0.0000 -10.8959 -0.0001
# 3 42.9768 12.9065 68.7505 0.0003 21.4418 -0.0005
# 4 0.0001 0.0000 0.0003 21.4238 -0.0002 -2.9623
# 5 11.5510 -10.8959 21.4418 -0.0002 16.6828 0.0003
# 6 -0.0002 -0.0001 -0.0005 -2.9623 0.0003 45.2581
#
#
#
# Elastic Compliance Matrix: (Units=1/GPa)
#
#
# Indices 1 2 3 4 5 6 
#
# 1 0.012688 -0.000656 -0.008236 0.000000 0.001372 0.000000
# 2 -0.000656 0.014050 -0.008731 0.000000 0.020852 0.000000
# 3 -0.008236 -0.008731 0.035605 -0.000001 -0.045761 0.000001
# 4 0.000000 0.000000 -0.000001 0.047103 0.000001 0.003083
# 5 0.001372 0.020852 -0.045761 0.000001 0.131427 -0.000001
# 6 0.000000 0.000000 0.000001 0.003083 -0.000001 0.022297
#
#
# Mechanical properties :
#
#
# Convention : Reuss Voigt Hill
#
# Bulk Modulus (GPa) = 36.90475 45.75797 41.33136
# Shear Modulus (GPa) = 16.26288 30.04626 23.15457
#
# Velocity S-wave (km/s) = 2.93723 3.99241 3.50476
# Velocity P-wave (km/s) = 5.57502 6.74735 6.18900
#
# Compressibility (1/GPa) = 0.02709678
#
# Stress axis : x y z
#
# Youngs Moduli (GPa) = 78.81367 71.17398 28.08616
#
# Poissons Ratio (x) = 0.04672 0.23132
# Poissons Ratio (y) = 0.05173 0.24521
# Poissons Ratio (z) = 0.64912 0.62139
#
# Static dielectric constant tensor:
#      x y z
#    x 3.793680 0.000000 0.100690 
#    y 0.000000 3.514270 0.000000 
#    z 0.100690 0.000000 3.417600 
# 
# 
# High freq. dielectric constant tensor:
#      x y z
#    x 1.745670 0.000000 0.008790 
#    y 0.000000 1.736220 0.000000 
#    z 0.008790 0.000000 1.727470 
# 
# From -- ./inp_files/147910.got.cif
#   From: 2010.06.25/outbox.cif.g09.slc.cpg/sg12_74_cif.got.tgz:147910.got - 2010.06.28 00:19:55.
