data_PCOD8113180
_publ_section_title
;
Structure prediction by ZEFSAII (Michael W. Deem and Ramdas Pophale) SiO2 
 PCOD8113180
Probable space group: C 2/M
;
_chemical_formula_sum "Si O2"
_cell_formula_units_Z 48
_cell_length_a 10.535371
_cell_length_b 17.633641
_cell_length_c 13.579915
_cell_angle_alpha 90.000000
_cell_angle_beta 112.824055
_cell_angle_gamma 90.000000
_cell_volume 2325.298144
_symmetry_space_group_name_H-M "C 2/M"
_symmetry_group_IT_number 12
_symmetry_cell_setting 'monoclinic'
loop_
_space_group_symop_operation_xyz
x,y,z
-x,y,-z
-x,-y,-z
x,-y,z
1/2+x,1/2+y,z
1/2-x,1/2+y,-z
1/2-x,1/2-y,-z
1/2+x,1/2-y,z
loop_
_atom_site_type_symbol
_atom_site_label
_atom_site_fract_x
_atom_site_fract_y
_atom_site_fract_z
Si Si1 0.346175 0.160415 0.201418
Si Si2 0.142290 0.081762 1.000000
Si Si3 0.563043 0.910469 0.126086
Si Si4 0.938970 0.911791 0.587032
Si Si5 0.355242 0.339585 0.201418
Si Si6 0.351938 0.088209 0.412968
O O1 0.478740 0.124188 0.190591
O O2 0.349725 0.250000 0.199451
O O3 0.327678 0.135426 0.307674
O O4 0.216278 0.132300 0.102236
O O5 0.114042 0.132300 0.897764
O O6 0.220311 0.000000 1.000000
O O7 0.000000 0.056120 0.000000
O O8 0.711852 0.875812 0.190591
O O9 0.569896 0.000000 0.139792
O O10 0.500000 0.887164 0.000000
O O11 0.774194 0.894988 0.548387
O O12 0.000000 0.886346 0.500000
O O13 0.020004 0.864574 0.692326
O O14 0.968778 0.000000 0.614124
O O15 0.500000 0.113654 0.500000
O O16 0.354654 0.000000 0.385876
#
# Coordination Sequence:
#
# PCOD8113180 Si02
#       6
#     8   8   8   8   8   8
#     4  12  26  40  65  97 136 172 216 275 336 391
#     4  11  23  41  67  93 127 173 219 267 327 401
#     4  11  24  42  66  95 132 182 230 268 321 400
#     4  10  23  45  71  96 126 169 222 273 328 403
#     4  12  26  40  65  97 136 172 216 275 336 391
#     4  10  23  45  71  96 126 169 222 273 328 403
#
# _framework density 20.642513000000001
#
# number of rings (size 3 to 8) (size 9 to 14) (size 15 to 20)
#    0.000    1.000    1.667    4.500    7.000    3.333 
#    0.000    1.667    0.000    0.000    0.000    0.000 
#    0.000    0.000    0.000    0.000    0.000    0.000 
#
# Total GULP energy -297567.666012 kJ/mol
# GULP energy per Si atom -12398.652750 kJ/mol
# Density = 2.059553 g / cm^3
# Si number density = 20.642513 Si / 1000 Ang^3
#
#
#
# Elastic Constant Matrix: (Units=GPa)
#
#
# Indices 1 2 3 4 5 6 
#
# 1 150.6154 51.7974 54.4163 0.0000 0.2837 0.0000
# 2 51.7974 129.7544 73.4650 0.0000 -1.1964 0.0000
# 3 54.4163 73.4650 147.5021 0.0000 -0.1119 0.0000
# 4 0.0000 0.0000 0.0000 59.4231 0.0000 -1.5665
# 5 0.2837 -1.1964 -0.1119 0.0000 45.5524 0.0000
# 6 0.0000 0.0000 0.0000 -1.5665 0.0000 31.0537
#
#
#
# Elastic Compliance Matrix: (Units=1/GPa)
#
#
# Indices 1 2 3 4 5 6 
#
# 1 0.008065 -0.002139 -0.001910 0.000000 -0.000111 0.000000
# 2 -0.002139 0.011304 -0.004841 0.000000 0.000298 0.000000
# 3 -0.001910 -0.004841 0.009895 0.000000 -0.000091 0.000000
# 4 0.000000 0.000000 0.000000 0.016851 0.000000 0.000850
# 5 -0.000111 0.000298 -0.000091 0.000000 0.021961 0.000000
# 6 0.000000 0.000000 0.000000 0.000850 0.000000 0.032245
#
#
# Mechanical properties :
#
#
# Convention : Reuss Voigt Hill
#
# Bulk Modulus (GPa) = 87.07261 87.46991 87.27126
# Shear Modulus (GPa) = 41.00688 43.75205 42.37947
#
# Velocity S-wave (km/s) = 4.46188 4.60881 4.53594
# Velocity P-wave (km/s) = 8.29562 8.41351 8.35477
#
# Compressibility (1/GPa) = 0.01148467
#
# Stress axis : x y z
#
# Youngs Moduli (GPa) = 123.98578 88.46107 101.05900
#
# Poissons Ratio (x) = 0.18924 0.19303
# Poissons Ratio (y) = 0.26523 0.48921
# Poissons Ratio (z) = 0.23683 0.42823
#
# Static dielectric constant tensor:
#      x y z
#    x 4.086330 0.000000 0.019720 
#    y 0.000000 3.720950 0.000000 
#    z 0.019720 0.000000 3.729140 
# 
# 
# High freq. dielectric constant tensor:
#      x y z
#    x 1.828130 0.000000 0.001220 
#    y 0.000000 1.813330 0.000000 
#    z 0.001220 0.000000 1.805960 
# 
# From -- ./inp_files/205123.got.cif
#   From: 2010.06.25/outbox.cif.g09.slc.cpg/sg12_103_cif.got.tgz:205123.got - 2010.06.28 00:19:55.
