data_PCOD8113193
_publ_section_title
;
Structure prediction by ZEFSAII (Michael W. Deem and Ramdas Pophale) SiO2 
 PCOD8113193
Probable space group: C 2/M
;
_chemical_formula_sum "Si O2"
_cell_formula_units_Z 64
_cell_length_a 16.738393
_cell_length_b 16.796031
_cell_length_c 14.894795
_cell_angle_alpha 90.000000
_cell_angle_beta 136.157183
_cell_angle_gamma 90.000000
_cell_volume 2900.608265
_symmetry_space_group_name_H-M "C 2/M"
_symmetry_group_IT_number 12
_symmetry_cell_setting 'monoclinic'
loop_
_space_group_symop_operation_xyz
x,y,z
-x,y,-z
-x,-y,-z
x,-y,z
1/2+x,1/2+y,z
1/2-x,1/2+y,-z
1/2-x,1/2-y,-z
1/2+x,1/2-y,z
loop_
_atom_site_type_symbol
_atom_site_label
_atom_site_fract_x
_atom_site_fract_y
_atom_site_fract_z
Si Si1 0.343793 0.408005 0.116275
Si Si2 0.127053 0.409052 0.207101
Si Si3 0.117373 0.351474 0.003695
Si Si4 0.411534 0.908276 0.539372
Si Si5 0.336832 0.094500 0.287073
Si Si6 0.396243 0.665889 0.979546
Si Si7 0.984263 0.091820 0.588684
Si Si8 0.256484 0.335785 0.460805
O O1 0.326383 0.500000 0.079179
O O2 0.220312 0.364237 0.016876
O O3 0.400486 0.396354 0.260083
O O4 0.418756 0.369176 0.097285
O O5 0.156996 0.500000 0.258800
O O6 0.144332 0.401089 0.115129
O O7 0.212997 0.345165 0.323234
O O8 0.997757 0.387577 0.133481
O O9 0.098894 0.260353 0.013066
O O10 0.542652 0.876777 0.662607
O O11 0.349754 0.874082 0.400093
O O12 0.328299 0.894493 0.555032
O O13 0.428281 0.000000 0.532913
O O14 0.228478 0.138871 0.156329
O O15 0.314889 0.000000 0.261003
O O16 0.500000 0.634727 0.000000
O O17 0.888813 0.138492 0.568619
O O18 0.000000 0.125573 0.500000
O O19 0.946772 0.000000 0.552206
O O20 0.250000 0.250000 0.500000
#
# Coordination Sequence:
#
# PCOD8113193 Si02
#       8
#     8   8   8   8   8   8   8   8
#     4  11  25  43  69  98 135 185 235 279 341 427
#     4  11  23  44  73 100 132 178 233 290 345 407
#     4  11  24  44  71  99 137 177 233 295 344 403
#     4   9  20  42  67  94 128 174 231 284 329 397
#     4   9  21  41  67  95 132 182 232 272 333 420
#     4  12  26  42  66 100 151 182 222 282 363 418
#     4  10  23  46  70  96 134 181 232 282 338 411
#     4  12  27  39  68 103 138 169 223 285 354 411
#
# _framework density 22.064336999999998
#
# number of rings (size 3 to 8) (size 9 to 14) (size 15 to 20)
#    0.000    1.375    1.250    4.875    7.000    3.000 
#    2.250    0.000    0.000    0.000    0.000    0.000 
#    0.000    0.000    0.000    0.000    0.000    0.000 
#
# Total GULP energy -396775.678829 kJ/mol
# GULP energy per Si atom -12399.239963 kJ/mol
# Density = 2.201412 g / cm^3
# Si number density = 22.064337 Si / 1000 Ang^3
#
#
#
# Elastic Constant Matrix: (Units=GPa)
#
#
# Indices 1 2 3 4 5 6 
#
# 1 132.8839 22.5391 16.0862 0.0000 11.4211 0.0000
# 2 22.5391 86.9133 32.6540 0.0000 1.8678 0.0000
# 3 16.0862 32.6540 92.9885 0.0000 4.8855 0.0000
# 4 0.0000 0.0000 0.0000 27.2585 0.0000 -4.6171
# 5 11.4211 1.8678 4.8855 0.0000 30.5175 0.0000
# 6 0.0000 0.0000 0.0000 -4.6171 0.0000 30.0254
#
#
#
# Elastic Compliance Matrix: (Units=1/GPa)
#
#
# Indices 1 2 3 4 5 6 
#
# 1 0.008153 -0.001820 -0.000622 0.000000 -0.002840 0.000000
# 2 -0.001820 0.013661 -0.004512 0.000000 0.000567 0.000000
# 3 -0.000622 -0.004512 0.012525 0.000000 -0.001496 0.000000
# 4 0.000000 0.000000 0.000000 0.037667 0.000000 0.005792
# 5 -0.002840 0.000567 -0.001496 0.000000 0.034036 0.000000
# 6 0.000000 0.000000 0.000000 0.005792 0.000000 0.034196
#
#
# Mechanical properties :
#
#
# Convention : Reuss Voigt Hill
#
# Bulk Modulus (GPa) = 48.94553 50.59381 49.76967
# Shear Modulus (GPa) = 31.06443 33.66069 32.36256
#
# Velocity S-wave (km/s) = 3.75627 3.91009 3.83395
# Velocity P-wave (km/s) = 6.40656 6.58521 6.49650
#
# Compressibility (1/GPa) = 0.02043087
#
# Stress axis : x y z
#
# Youngs Moduli (GPa) = 122.64736 73.20300 79.84191
#
# Poissons Ratio (x) = 0.13320 0.04968
# Poissons Ratio (y) = 0.22317 0.36026
# Poissons Ratio (z) = 0.07632 0.33030
#
# Static dielectric constant tensor:
#      x y z
#    x 4.234580 0.000000 0.018810 
#    y 0.000000 3.749880 0.000000 
#    z 0.018810 0.000000 3.998440 
# 
# 
# High freq. dielectric constant tensor:
#      x y z
#    x 1.878940 0.000000 0.002660 
#    y 0.000000 1.854360 0.000000 
#    z 0.002660 0.000000 1.874430 
# 
# From -- ./inp_files/226891.got.cif
#   From: 2010.06.25/outbox.cif.g09.slc.cpg/sg12_114_cif.got.tgz:226891.got - 2010.06.28 00:19:55.
