data_PCOD8113236
_publ_section_title
;
Structure prediction by ZEFSAII (Michael W. Deem and Ramdas Pophale) SiO2 
 PCOD8113236
Probable space group: C 2/M
;
_chemical_formula_sum "Si O2"
_cell_formula_units_Z 36
_cell_length_a 8.321115
_cell_length_b 17.404285
_cell_length_c 11.600097
_cell_angle_alpha 90.000000
_cell_angle_beta 73.459460
_cell_angle_gamma 90.000000
_cell_volume 1610.442245
_symmetry_space_group_name_H-M "C 2/M"
_symmetry_group_IT_number 12
_symmetry_cell_setting 'monoclinic'
loop_
_space_group_symop_operation_xyz
x,y,z
-x,y,-z
-x,-y,-z
x,-y,z
1/2+x,1/2+y,z
1/2-x,1/2+y,-z
1/2-x,1/2-y,-z
1/2+x,1/2-y,z
loop_
_atom_site_type_symbol
_atom_site_label
_atom_site_fract_x
_atom_site_fract_y
_atom_site_fract_z
Si Si1 0.353585 0.791852 0.618491
Si Si2 0.151522 0.657314 0.133896
Si Si3 0.000000 0.224993 0.000000
Si Si4 0.990425 0.000000 0.806367
Si Si5 0.770826 0.500000 0.943470
Si Si6 0.506772 0.361495 0.624673
O O1 0.500000 0.812506 0.500000
O O2 0.377725 0.846037 0.724322
O O3 0.358187 0.702404 0.659750
O O4 0.176151 0.810776 0.596802
O O5 0.035098 0.722649 0.103735
O O6 0.108636 0.574182 0.089228
O O7 0.346881 0.670594 0.063493
O O8 0.989793 0.076294 0.728123
O O9 0.149952 0.000000 0.856366
O O10 0.823108 0.000000 0.915576
O O11 0.500000 0.402218 0.500000
#
# Coordination Sequence:
#
# PCOD8113236 Si02
#       6
#     8   8   4   4   4   8
#     4  11  23  41  67  97 128 168 214 266 316 378
#     4  11  23  43  65  96 129 169 215 265 320 382
#     4  10  24  38  70  96 126 166 218 268 318 376
#     4  11  23  42  64  96 127 172 212 263 320 390
#     4  11  24  41  64  92 133 172 210 262 327 378
#     4  11  23  42  68  97 127 167 217 265 319 379
#
# _framework density 22.354108
#
# number of rings (size 3 to 8) (size 9 to 14) (size 15 to 20)
#    0.000    1.111    2.222    5.667    6.222    0.444 
#    0.000    2.222    0.000    1.333    0.000    0.778 
#    0.000    0.000    0.000    0.000    0.000    0.000 
#
# Total GULP energy -223231.007329 kJ/mol
# GULP energy per Si atom -12401.722629 kJ/mol
# Density = 2.230323 g / cm^3
# Si number density = 22.354108 Si / 1000 Ang^3
#
#
#
# Elastic Constant Matrix: (Units=GPa)
#
#
# Indices 1 2 3 4 5 6 
#
# 1 57.7745 21.6956 19.0599 0.0000 17.6179 0.0000
# 2 21.6956 135.9851 49.3671 0.0000 -7.8862 0.0000
# 3 19.0599 49.3671 136.3798 0.0000 15.3269 0.0000
# 4 0.0000 0.0000 0.0000 27.9743 0.0000 4.2686
# 5 17.6179 -7.8862 15.3269 0.0000 21.2468 0.0000
# 6 0.0000 0.0000 0.0000 4.2686 0.0000 -1.9734
#
#
#
# Elastic Compliance Matrix: (Units=1/GPa)
#
#
# Indices 1 2 3 4 5 6 
#
# 1 0.027102 -0.006334 0.001409 0.000000 -0.025841 0.000000
# 2 -0.006334 0.010666 -0.004365 0.000000 0.012360 0.000000
# 3 0.001409 -0.004365 0.009825 0.000000 -0.009876 0.000000
# 4 0.000000 0.000000 0.000000 0.026876 0.000000 0.058134
# 5 -0.025841 0.012360 -0.009876 0.000000 0.080205 0.000000
# 6 0.000000 0.000000 0.000000 0.058134 0.000000 -0.380981
#
#
# Mechanical properties :
#
#
# Convention : Reuss Voigt Hill
#
# Bulk Modulus (GPa) = 34.46567 56.70939 45.58753
# Shear Modulus (GPa) = -25.24545 25.45066 0.10260
#
# Velocity S-wave (km/s) = -3.36422 3.37786 0.21447
# Velocity P-wave (km/s) = 0.60077 6.37472 4.52758
#
# Compressibility (1/GPa) = 0.02901438
#
# Stress axis : x y z
#
# Youngs Moduli (GPa) = 36.89706 93.75961 101.77773
#
# Poissons Ratio (x) = 0.59390 -0.14343
# Poissons Ratio (y) = 0.23372 0.44421
# Poissons Ratio (z) = -0.05200 0.40922
#
# Static dielectric constant tensor:
#      x y z
#    x 3.991490 0.000000 0.243680 
#    y 0.000000 4.035520 0.000000 
#    z 0.243680 0.000000 4.140320 
# 
# 
# High freq. dielectric constant tensor:
#      x y z
#    x 1.869830 0.000000 0.020450 
#    y 0.000000 1.877810 0.000000 
#    z 0.020450 0.000000 1.899050 
# 
# From -- ./inp_files/118801.got.cif
#   From: 2010.06.25/outbox.cif.g09.slc.cpg/sg12_60_cif.got.tgz:118801.got - 2010.06.28 00:19:55.
