data_PCOD8113954
_publ_section_title
;
Structure prediction by ZEFSAII (Michael W. Deem and Ramdas Pophale) SiO2 
 PCOD8113954
Probable space group: C 2/M
;
_chemical_formula_sum "Si O2"
_cell_formula_units_Z 48
_cell_length_a 21.433096
_cell_length_b 15.050558
_cell_length_c 17.549464
_cell_angle_alpha 90.000000
_cell_angle_beta 154.019473
_cell_angle_gamma 90.000000
_cell_volume 2479.936542
_symmetry_space_group_name_H-M "C 2/M"
_symmetry_group_IT_number 12
_symmetry_cell_setting 'monoclinic'
loop_
_space_group_symop_operation_xyz
x,y,z
-x,y,-z
-x,-y,-z
x,-y,z
1/2+x,1/2+y,z
1/2-x,1/2+y,-z
1/2-x,1/2-y,-z
1/2+x,1/2-y,z
loop_
_atom_site_type_symbol
_atom_site_label
_atom_site_fract_x
_atom_site_fract_y
_atom_site_fract_z
Si Si1 0.957092 0.267865 0.759489
Si Si2 0.852444 0.102400 0.014566
Si Si3 0.947528 0.146005 0.366367
Si Si4 0.187255 0.756381 0.553731
Si Si5 0.194448 0.597423 0.991238
Si Si6 0.347252 0.829722 0.328154
O O1 0.886071 0.289554 0.600046
O O2 0.844190 0.289599 0.702071
O O3 0.010234 0.166024 0.827082
O O4 0.089288 0.333495 0.915222
O O5 0.773212 0.113553 0.846608
O O6 0.902645 0.000000 0.078345
O O7 0.739286 0.129052 0.956068
O O8 0.835980 0.088252 0.197592
O O9 0.875241 0.239088 0.311982
O O10 0.000000 0.094447 0.500000
O O11 0.087019 0.161604 0.467442
O O12 0.206052 0.687905 0.644251
O O13 0.123033 0.500000 0.909405
O O14 0.500000 0.881189 0.500000
#
# Coordination Sequence:
#
# PCOD8113954 Si02
#       6
#     8   8   8   8   8   8
#     4  11  20  38  58  84 116 151 194 237 288 341
#     4  11  22  35  59  88 116 154 194 239 286 345
#     4   9  17  35  58  82 108 145 192 233 281 339
#     4   9  20  35  60  81 110 159 185 232 291 339
#     4  11  21  35  59  87 114 150 194 240 287 339
#     4   9  18  35  57  84 111 149 193 231 286 340
#
# _framework density 19.355333999999999
#
# number of rings (size 3 to 8) (size 9 to 14) (size 15 to 20)
#    0.000    2.333    3.333    2.500    0.000    1.333 
#    0.000    6.667    0.000    6.000    0.000    0.000 
#    0.000    0.000    0.000    0.000    0.000    0.000 
#
# Total GULP energy -297495.395284 kJ/mol
# GULP energy per Si atom -12395.641470 kJ/mol
# Density = 1.931128 g / cm^3
# Si number density = 19.355334 Si / 1000 Ang^3
#
#
#
# Elastic Constant Matrix: (Units=GPa)
#
#
# Indices 1 2 3 4 5 6 
#
# 1 142.6029 30.5961 57.3532 -0.0003 8.4199 -0.0001
# 2 30.5961 67.3109 29.5595 -0.0004 12.1895 -0.0002
# 3 57.3532 29.5595 100.4188 -0.0006 -3.2889 -0.0004
# 4 -0.0003 -0.0004 -0.0006 13.8488 -0.0003 -5.0563
# 5 8.4199 12.1895 -3.2889 -0.0003 40.7918 -0.0002
# 6 -0.0001 -0.0002 -0.0004 -5.0563 -0.0002 8.5673
#
#
#
# Elastic Compliance Matrix: (Units=1/GPa)
#
#
# Indices 1 2 3 4 5 6 
#
# 1 0.009501 -0.001815 -0.004952 0.000000 -0.001818 0.000000
# 2 -0.001815 0.018744 -0.004665 0.000000 -0.005603 0.000000
# 3 -0.004952 -0.004665 0.014276 0.000001 0.003567 0.000001
# 4 0.000000 0.000000 0.000001 0.092041 0.000001 0.054321
# 5 -0.001818 -0.005603 0.003567 0.000001 0.026852 0.000001
# 6 0.000000 0.000000 0.000001 0.054321 0.000001 0.148782
#
#
# Mechanical properties :
#
#
# Convention : Reuss Voigt Hill
#
# Bulk Modulus (GPa) = 50.86643 60.59447 55.73045
# Shear Modulus (GPa) = 14.72271 25.49651 20.10961
#
# Velocity S-wave (km/s) = 2.76099 3.63338 3.22680
# Velocity P-wave (km/s) = 6.04164 6.99830 6.53750
#
# Compressibility (1/GPa) = 0.01965933
#
# Stress axis : x y z
#
# Youngs Moduli (GPa) = 105.25604 53.34916 70.04652
#
# Poissons Ratio (x) = 0.09682 0.34684
# Poissons Ratio (y) = 0.19102 0.32674
# Poissons Ratio (z) = 0.52118 0.24885
#
# Static dielectric constant tensor:
#      x y z
#    x 3.637420 0.000000 -0.150580 
#    y 0.000000 3.074350 0.000000 
#    z -0.150580 0.000000 3.652540 
# 
# 
# High freq. dielectric constant tensor:
#      x y z
#    x 1.754810 0.000000 -0.014380 
#    y 0.000000 1.715460 0.000000 
#    z -0.014380 0.000000 1.758960 
# 
# From -- ./inp_files/284081.got.cif
#   From: 2010.06.25/outbox.cif.g09.slc.cpg/sg12_143_cif.got.tgz:284081.got - 2010.06.28 00:19:55.
