data_PCOD8113271
_publ_section_title
;
Structure prediction by ZEFSAII (Michael W. Deem and Ramdas Pophale) SiO2 
 PCOD8113271
Probable space group: C 2/M
;
_chemical_formula_sum "Si O2"
_cell_formula_units_Z 64
_cell_length_a 19.838715
_cell_length_b 17.985691
_cell_length_c 11.247789
_cell_angle_alpha 90.000000
_cell_angle_beta 56.644315
_cell_angle_gamma 90.000000
_cell_volume 3352.250522
_symmetry_space_group_name_H-M "C 2/M"
_symmetry_group_IT_number 12
_symmetry_cell_setting 'monoclinic'
loop_
_space_group_symop_operation_xyz
x,y,z
-x,y,-z
-x,-y,-z
x,-y,z
1/2+x,1/2+y,z
1/2-x,1/2+y,-z
1/2-x,1/2-y,-z
1/2+x,1/2-y,z
loop_
_atom_site_type_symbol
_atom_site_label
_atom_site_fract_x
_atom_site_fract_y
_atom_site_fract_z
Si Si1 0.846550 0.691832 0.941611
Si Si2 0.504564 0.791694 0.632826
Si Si3 0.096645 0.416382 0.645876
Si Si4 0.732276 0.585844 0.641874
Si Si5 0.910628 0.681641 0.120287
Si Si6 0.095534 0.811791 0.707236
Si Si7 0.462774 0.582251 0.905193
Si Si8 0.210353 0.849478 0.915654
O O1 0.785142 0.636007 0.933876
O O2 0.919626 0.718030 0.784108
O O3 0.872910 0.649019 0.035501
O O4 0.806550 0.763560 0.042419
O O5 0.500000 0.769513 0.500000
O O6 0.532384 0.876827 0.621533
O O7 0.579846 0.744034 0.613174
O O8 0.066266 0.500000 0.685654
O O9 0.185534 0.411064 0.508103
O O10 0.097345 0.382538 0.776205
O O11 0.705103 0.500000 0.691258
O O12 0.666120 0.627536 0.623100
O O13 0.743387 0.630903 0.753192
O O14 0.880201 0.762212 0.200207
O O15 0.000000 0.702888 0.000000
O O16 0.010832 0.855404 0.788235
O O17 0.474801 0.500000 0.838742
O O18 0.500000 0.583965 0.000000
O O19 0.367934 0.599787 0.988541
#
# Coordination Sequence:
#
# PCOD8113271 Si02
#       8
#     8   8   8   8   8   8   8   8
#     4  11  21  38  59  89 125 155 197 262 298 349
#     4  11  23  41  62  87 118 159 205 249 304 363
#     4  10  24  41  60  87 121 159 205 251 299 361
#     4  11  22  39  59  90 127 158 201 253 302 359
#     4  11  19  39  65  89 119 153 205 251 298 359
#     4  11  20  36  63  91 119 153 202 252 297 361
#     4  11  19  32  58  90 120 154 196 247 301 355
#     4  11  21  35  58  89 126 159 199 250 304 352
#
# _framework density 19.091652
#
# number of rings (size 3 to 8) (size 9 to 14) (size 15 to 20)
#    0.000    1.125    6.250    1.875    0.000    2.500 
#    4.500    2.500    0.000    3.000    0.000    0.000 
#    0.000    0.000    0.000    0.000    0.000    0.000 
#
# Total GULP energy -396478.542806 kJ/mol
# GULP energy per Si atom -12389.954463 kJ/mol
# Density = 1.904820 g / cm^3
# Si number density = 19.091652 Si / 1000 Ang^3
#
#
#
# Elastic Constant Matrix: (Units=GPa)
#
#
# Indices 1 2 3 4 5 6 
#
# 1 118.2905 28.4361 22.0515 0.0000 13.9375 0.0000
# 2 28.4361 99.8600 23.4339 0.0000 3.8016 0.0000
# 3 22.0515 23.4339 64.3031 0.0000 16.4257 0.0000
# 4 0.0000 0.0000 0.0000 27.7572 0.0000 -11.6896
# 5 13.9375 3.8016 16.4257 0.0000 29.3184 0.0000
# 6 0.0000 0.0000 0.0000 -11.6896 0.0000 -0.2428
#
#
#
# Elastic Compliance Matrix: (Units=1/GPa)
#
#
# Indices 1 2 3 4 5 6 
#
# 1 0.009700 -0.002248 -0.001638 0.000000 -0.003402 0.000000
# 2 -0.002248 0.011494 -0.003863 0.000000 0.001743 0.000000
# 3 -0.001638 -0.003863 0.020066 0.000000 -0.009962 0.000000
# 4 0.000000 0.000000 0.000000 0.001694 0.000000 -0.081525
# 5 -0.003402 0.001743 -0.009962 0.000000 0.041081 0.000000
# 6 0.000000 0.000000 0.000000 -0.081525 0.000000 -0.193584
#
#
# Mechanical properties :
#
#
# Convention : Reuss Voigt Hill
#
# Bulk Modulus (GPa) = 38.81764 47.81072 43.31418
# Shear Modulus (GPa) = -58.50484 25.26871 -16.61807
#
# Velocity S-wave (km/s) = -5.54173 3.64201 -2.95352
# Velocity P-wave (km/s) = 4.53555 6.54085 3.33253
#
# Compressibility (1/GPa) = 0.02576149
#
# Stress axis : x y z
#
# Youngs Moduli (GPa) = 103.08760 86.99857 49.83637
#
# Poissons Ratio (x) = 0.19560 0.08164
# Poissons Ratio (y) = 0.23178 0.19252
# Poissons Ratio (z) = 0.16888 0.33608
#
# Static dielectric constant tensor:
#      x y z
#    x 3.900820 0.000000 -0.134180 
#    y 0.000000 3.672210 0.000000 
#    z -0.134180 0.000000 3.342190 
# 
# 
# High freq. dielectric constant tensor:
#      x y z
#    x 1.746500 0.000000 -0.009390 
#    y 0.000000 1.739820 0.000000 
#    z -0.009390 0.000000 1.730550 
# 
# From -- ./inp_files/168774.got.cif
#   From: 2010.06.25/outbox.cif.g09.slc.cpg/sg12_85_cif.got.tgz:168774.got - 2010.06.28 00:19:55.
