data_PCOD8113553
_publ_section_title
;
Structure prediction by ZEFSAII (Michael W. Deem and Ramdas Pophale) SiO2 
 PCOD8113553
Probable space group: C 2/M
;
_chemical_formula_sum "Si O2"
_cell_formula_units_Z 52
_cell_length_a 9.122761
_cell_length_b 28.708898
_cell_length_c 16.013794
_cell_angle_alpha 90.000000
_cell_angle_beta 35.738068
_cell_angle_gamma 90.000000
_cell_volume 2449.682889
_symmetry_space_group_name_H-M "C 2/M"
_symmetry_group_IT_number 12
_symmetry_cell_setting 'monoclinic'
loop_
_space_group_symop_operation_xyz
x,y,z
-x,y,-z
-x,-y,-z
x,-y,z
1/2+x,1/2+y,z
1/2-x,1/2+y,-z
1/2-x,1/2-y,-z
1/2+x,1/2-y,z
loop_
_atom_site_type_symbol
_atom_site_label
_atom_site_fract_x
_atom_site_fract_y
_atom_site_fract_z
Si Si1 0.000000 0.359069 0.500000
Si Si2 0.383944 0.000000 0.960159
Si Si3 0.327539 0.400227 0.934856
Si Si4 0.220312 0.663016 0.232388
Si Si5 0.906869 0.000000 0.638250
Si Si6 0.989605 0.904156 0.333337
Si Si7 0.391621 0.151574 0.229529
Si Si8 0.525966 0.239772 0.899222
O O1 0.871571 0.327787 0.630452
O O2 0.797992 0.390534 0.545842
O O3 0.604170 0.000000 0.788315
O O4 0.500000 0.000000 0.000000
O O5 0.211233 0.954615 0.024128
O O6 0.575460 0.378808 0.864679
O O7 0.350496 0.396242 0.824580
O O8 0.091953 0.370346 0.073360
O O9 0.326833 0.712218 0.153845
O O10 0.991883 0.648089 0.277798
O O11 0.022543 0.957062 0.633905
O O12 0.000000 0.000000 0.500000
O O13 0.126722 0.874956 0.343605
O O14 0.340369 0.205405 0.228119
O O15 0.500000 0.213928 0.000000
O O16 0.250000 0.250000 0.000000
#
# Coordination Sequence:
#
# PCOD8113553 Si02
#       8
#     4   4   8   8   4   8   8   8
#     4  10  28  45  66  90 140 184 228 265 338 418
#     4  12  20  40  66 102 130 169 235 277 339 401
#     4  11  20  40  69 102 131 171 223 291 334 392
#     4  11  25  44  62 101 141 177 227 278 338 408
#     4  12  26  41  67 102 141 179 229 276 333 423
#     4  11  24  44  68  95 133 180 227 277 336 403
#     4  12  23  39  71  99 133 171 224 287 346 389
#     4  12  22  40  68 103 135 168 219 285 344 397
#
# _framework density 21.227236999999999
#
# number of rings (size 3 to 8) (size 9 to 14) (size 15 to 20)
#    0.000    0.615    6.154    1.846    4.308    0.308 
#    0.000    6.154    0.000    0.000    0.000    0.000 
#    0.000    0.000    0.000    0.000    0.000    0.000 
#
# Total GULP energy -322385.481510 kJ/mol
# GULP energy per Si atom -12399.441597 kJ/mol
# Density = 2.117892 g / cm^3
# Si number density = 21.227237 Si / 1000 Ang^3
#
#
#
# Elastic Constant Matrix: (Units=GPa)
#
#
# Indices 1 2 3 4 5 6 
#
# 1 150.2452 52.9234 27.5824 0.0000 -11.5535 0.0000
# 2 52.9234 123.3054 18.3610 0.0000 -3.4051 0.0000
# 3 27.5824 18.3610 76.4844 0.0000 0.6799 0.0000
# 4 0.0000 0.0000 0.0000 8.1264 0.0000 9.8209
# 5 -11.5535 -3.4051 0.6799 0.0000 35.2788 0.0000
# 6 0.0000 0.0000 0.0000 9.8209 0.0000 27.1746
#
#
#
# Elastic Compliance Matrix: (Units=1/GPa)
#
#
# Indices 1 2 3 4 5 6 
#
# 1 0.008390 -0.003193 -0.002281 0.000000 0.002484 0.000000
# 2 -0.003193 0.009651 -0.001165 0.000000 -0.000092 0.000000
# 3 -0.002281 -0.001165 0.014187 0.000000 -0.001133 0.000000
# 4 0.000000 0.000000 0.000000 0.218478 0.000000 -0.078958
# 5 0.002484 -0.000092 -0.001133 0.000000 0.029172 0.000000
# 6 0.000000 0.000000 0.000000 -0.078958 0.000000 0.065334
#
#
# Mechanical properties :
#
#
# Convention : Reuss Voigt Hill
#
# Bulk Modulus (GPa) = 52.76846 60.86319 56.81582
# Shear Modulus (GPa) = 13.70587 30.86050 22.28319
#
# Velocity S-wave (km/s) = 2.54377 3.81703 3.24349
# Velocity P-wave (km/s) = 5.79141 6.93980 6.39145
#
# Compressibility (1/GPa) = 0.01895071
#
# Stress axis : x y z
#
# Youngs Moduli (GPa) = 119.18588 103.61375 70.48734
#
# Poissons Ratio (x) = 0.33082 0.16081
# Poissons Ratio (y) = 0.38054 0.08209
# Poissons Ratio (z) = 0.27191 0.12067
#
# Static dielectric constant tensor:
#      x y z
#    x 3.737730 0.000000 -0.058300 
#    y 0.000000 3.620170 0.000000 
#    z -0.058300 0.000000 3.751950 
# 
# 
# High freq. dielectric constant tensor:
#      x y z
#    x 1.840240 0.000000 0.006410 
#    y 0.000000 1.834290 0.000000 
#    z 0.006410 0.000000 1.823460 
# 
# From -- ./inp_files/201219.got.cif
#   From: 2010.06.25/outbox.cif.g09.slc.cpg/sg12_101_cif.got.tgz:201219.got - 2010.06.28 00:19:55.
