data_PCOD8113417
_publ_section_title
;
Structure prediction by ZEFSAII (Michael W. Deem and Ramdas Pophale) SiO2 
 PCOD8113417
Probable space group: C 2/M
;
_chemical_formula_sum "Si O2"
_cell_formula_units_Z 40
_cell_length_a 23.954587
_cell_length_b 8.850303
_cell_length_c 9.471027
_cell_angle_alpha 90.000000
_cell_angle_beta 77.792379
_cell_angle_gamma 90.000000
_cell_volume 1962.505151
_symmetry_space_group_name_H-M "C 2/M"
_symmetry_group_IT_number 12
_symmetry_cell_setting 'monoclinic'
loop_
_space_group_symop_operation_xyz
x,y,z
-x,y,-z
-x,-y,-z
x,-y,z
1/2+x,1/2+y,z
1/2-x,1/2+y,-z
1/2-x,1/2-y,-z
1/2+x,1/2-y,z
loop_
_atom_site_type_symbol
_atom_site_label
_atom_site_fract_x
_atom_site_fract_y
_atom_site_fract_z
Si Si1 0.412073 0.321780 0.402686
Si Si2 0.891359 0.674764 0.703658
Si Si3 0.004452 0.325645 0.160134
Si Si4 0.703080 0.828976 0.619043
Si Si5 0.725123 0.670550 0.148397
O O1 0.408113 0.500000 0.421714
O O2 0.421047 0.251552 0.552778
O O3 0.464610 0.279334 0.275458
O O4 0.355234 0.262125 0.358863
O O5 0.883023 0.500000 0.672993
O O6 0.829645 0.744784 0.761940
O O7 0.930763 0.697542 0.820566
O O8 0.985195 0.500000 0.186922
O O9 0.000000 0.274080 0.000000
O O10 0.750000 0.750000 0.500000
O O11 0.723411 0.827372 0.768643
O O12 0.693625 0.000000 0.570404
O O13 0.706859 0.500000 0.121603
O O14 0.750000 0.750000 0.000000
#
# Coordination Sequence:
#
# PCOD8113417 Si02
#       5
#     8   8   8   8   8
#     4  12  25  41  65  96 129 168 211 262 317 375
#     4  11  23  42  68  94 125 168 215 263 316 375
#     4  10  24  45  67  93 125 164 211 264 320 378
#     4  11  23  41  66  95 128 167 212 258 311 375
#     4  11  25  42  64  95 132 169 209 258 316 379
#
# _framework density 20.382113
#
# number of rings (size 3 to 8) (size 9 to 14) (size 15 to 20)
#    0.000    1.000    2.000    4.200    2.800    6.800 
#    0.000    0.000    0.000    0.000    0.000    0.000 
#    0.000    0.000    0.000    0.000    0.000    0.000 
#
# Total GULP energy -248114.879229 kJ/mol
# GULP energy per Si atom -12405.743961 kJ/mol
# Density = 2.033572 g / cm^3
# Si number density = 20.382113 Si / 1000 Ang^3
#
#
#
# Elastic Constant Matrix: (Units=GPa)
#
#
# Indices 1 2 3 4 5 6 
#
# 1 88.5050 40.8548 31.8765 0.0000 12.0932 0.0000
# 2 40.8548 163.9575 57.0379 0.0000 2.1357 0.0000
# 3 31.8765 57.0379 131.1991 0.0000 7.1644 0.0000
# 4 0.0000 0.0000 0.0000 35.8240 0.0000 -6.6493
# 5 12.0932 2.1357 7.1644 0.0000 35.8870 0.0000
# 6 0.0000 0.0000 0.0000 -6.6493 0.0000 34.6678
#
#
#
# Elastic Compliance Matrix: (Units=1/GPa)
#
#
# Indices 1 2 3 4 5 6 
#
# 1 0.013814 -0.002709 -0.001955 0.000000 -0.004104 0.000000
# 2 -0.002709 0.007718 -0.002752 0.000000 0.001003 0.000000
# 3 -0.001955 -0.002752 0.009350 0.000000 -0.001044 0.000000
# 4 0.000000 0.000000 0.000000 0.028945 0.000000 0.005552
# 5 -0.004104 0.001003 -0.001044 0.000000 0.029397 0.000000
# 6 0.000000 0.000000 0.000000 0.005552 0.000000 0.029910
#
#
# Mechanical properties :
#
#
# Convention : Reuss Voigt Hill
#
# Bulk Modulus (GPa) = 62.29844 71.46668 66.88256
# Shear Modulus (GPa) = 35.88966 38.20190 37.04578
#
# Velocity S-wave (km/s) = 4.20079 4.33400 4.26791
# Velocity P-wave (km/s) = 7.35938 7.75785 7.56124
#
# Compressibility (1/GPa) = 0.01605177
#
# Stress axis : x y z
#
# Youngs Moduli (GPa) = 72.39115 129.55926 106.94704
#
# Poissons Ratio (x) = 0.35094 0.20904
# Poissons Ratio (y) = 0.19609 0.29434
# Poissons Ratio (z) = 0.14149 0.35657
#
# Static dielectric constant tensor:
#      x y z
#    x 3.759070 0.000000 0.657700 
#    y 0.000000 3.880610 0.000000 
#    z 0.657700 0.000000 3.809690 
# 
# 
# High freq. dielectric constant tensor:
#      x y z
#    x 1.807580 0.000000 0.008360 
#    y 0.000000 1.809190 0.000000 
#    z 0.008360 0.000000 1.803670 
# 
# From -- ./inp_files/92783.got.cif
#   From: 2010.06.25/outbox.cif.g09.slc.cpg/sg12_47_cif.got.tgz:92783.got - 2010.06.28 00:19:55.
