data_PCOD8113511
_publ_section_title
;
Structure prediction by ZEFSAII (Michael W. Deem and Ramdas Pophale) SiO2 
 PCOD8113511
Probable space group: C 2/M
;
_chemical_formula_sum "Si O2"
_cell_formula_units_Z 44
_cell_length_a 11.675579
_cell_length_b 23.115591
_cell_length_c 9.032038
_cell_angle_alpha 90.000000
_cell_angle_beta 55.506308
_cell_angle_gamma 90.000000
_cell_volume 2009.073185
_symmetry_space_group_name_H-M "C 2/M"
_symmetry_group_IT_number 12
_symmetry_cell_setting 'monoclinic'
loop_
_space_group_symop_operation_xyz
x,y,z
-x,y,-z
-x,-y,-z
x,-y,z
1/2+x,1/2+y,z
1/2-x,1/2+y,-z
1/2-x,1/2-y,-z
1/2+x,1/2-y,z
loop_
_atom_site_type_symbol
_atom_site_label
_atom_site_fract_x
_atom_site_fract_y
_atom_site_fract_z
Si Si1 0.766086 0.625345 0.630046
Si Si2 0.633135 0.000000 0.502268
Si Si3 0.424524 0.000000 0.901701
Si Si4 0.214479 0.618752 0.040489
Si Si5 0.894919 0.721688 0.362304
Si Si6 0.486407 0.663132 0.677767
Si Si7 0.500000 0.816740 0.000000
O O1 0.776598 0.556990 0.593370
O O2 0.891439 0.659912 0.452604
O O3 0.616735 0.643531 0.679134
O O4 0.772953 0.639365 0.799453
O O5 0.500000 0.000000 0.500000
O O6 0.570074 0.000000 0.709940
O O7 0.500000 0.000000 0.000000
O O8 0.317618 0.948675 0.946232
O O9 0.350636 0.635833 0.849733
O O10 0.081968 0.648165 0.063939
O O11 0.750000 0.750000 0.500000
O O12 0.018272 0.765927 0.321731
O O13 0.896182 0.718621 0.181257
O O14 0.500000 0.639821 0.500000
#
# Coordination Sequence:
#
# PCOD8113511 Si02
#       7
#     8   4   4   8   8   8   4
#     4  11  25  47  73 102 140 184 235 290 350 417
#     4  12  24  45  72 105 135 179 234 291 345 416
#     4  12  26  43  72 103 141 182 231 287 347 420
#     4  12  25  45  73 105 140 183 236 290 352 417
#     4  10  25  45  68  99 141 187 233 286 349 414
#     4  11  27  47  68 101 145 186 233 290 351 421
#     4  12  26  41  68 104 138 183 236 288 350 418
#
# _framework density 21.900644
#
# number of rings (size 3 to 8) (size 9 to 14) (size 15 to 20)
#    0.000    0.727    2.727    3.818   10.182    1.455 
#    0.000    2.727    0.000    0.000    0.000    0.000 
#    0.000    0.000    0.000    0.000    0.000    0.000 
#
# Total GULP energy -272650.145386 kJ/mol
# GULP energy per Si atom -12393.188427 kJ/mol
# Density = 2.185080 g / cm^3
# Si number density = 21.900644 Si / 1000 Ang^3
#
#
#
# Elastic Constant Matrix: (Units=GPa)
#
#
# Indices 1 2 3 4 5 6 
#
# 1 124.3408 31.9215 55.0008 0.0000 22.9555 0.0000
# 2 31.9215 122.3100 51.0589 0.0000 -1.3307 0.0000
# 3 55.0008 51.0589 209.7125 0.0000 23.1337 0.0000
# 4 0.0000 0.0000 0.0000 53.4378 0.0000 0.2534
# 5 22.9555 -1.3307 23.1337 0.0000 46.4756 0.0000
# 6 0.0000 0.0000 0.0000 0.2534 0.0000 15.8727
#
#
#
# Elastic Compliance Matrix: (Units=1/GPa)
#
#
# Indices 1 2 3 4 5 6 
#
# 1 0.010072 -0.001964 -0.001702 0.000000 -0.004184 0.000000
# 2 -0.001964 0.009576 -0.002067 0.000000 0.002273 0.000000
# 3 -0.001702 -0.002067 0.005959 0.000000 -0.002185 0.000000
# 4 0.000000 0.000000 0.000000 0.018715 0.000000 -0.000299
# 5 -0.004184 0.002273 -0.002185 0.000000 0.024736 0.000000
# 6 0.000000 0.000000 0.000000 -0.000299 0.000000 0.063006
#
#
# Mechanical properties :
#
#
# Convention : Reuss Voigt Hill
#
# Bulk Modulus (GPa) = 70.71432 81.36950 76.04191
# Shear Modulus (GPa) = 33.72841 44.38269 39.05555
#
# Velocity S-wave (km/s) = 3.92862 4.50660 4.22750
# Velocity P-wave (km/s) = 7.27582 8.01959 7.65674
#
# Compressibility (1/GPa) = 0.01414141
#
# Stress axis : x y z
#
# Youngs Moduli (GPa) = 99.28758 104.42596 167.81048
#
# Poissons Ratio (x) = 0.20506 0.28559
# Poissons Ratio (y) = 0.19497 0.34691
# Poissons Ratio (z) = 0.16897 0.21588
#
# Static dielectric constant tensor:
#      x y z
#    x 3.880320 0.000000 0.003750 
#    y 0.000000 4.490900 0.000000 
#    z 0.003750 0.000000 3.836090 
# 
# 
# High freq. dielectric constant tensor:
#      x y z
#    x 1.860720 0.000000 0.011660 
#    y 0.000000 1.866340 0.000000 
#    z 0.011660 0.000000 1.886480 
# 
# From -- ./inp_files/51234.got.cif
#   From: 2010.06.25/outbox.cif.g09.slc.cpg/sg12_26_cif.got.tgz:51234.got - 2010.06.28 00:19:55.
