data_PCOD8113794
_publ_section_title
;
Structure prediction by ZEFSAII (Michael W. Deem and Ramdas Pophale) SiO2 
 PCOD8113794
Probable space group: C 2/M
;
_chemical_formula_sum "Si O2"
_cell_formula_units_Z 48
_cell_length_a 20.629166
_cell_length_b 9.202410
_cell_length_c 23.376612
_cell_angle_alpha 90.000000
_cell_angle_beta 40.125986
_cell_angle_gamma 90.000000
_cell_volume 2860.011977
_symmetry_space_group_name_H-M "C 2/M"
_symmetry_group_IT_number 12
_symmetry_cell_setting 'monoclinic'
loop_
_space_group_symop_operation_xyz
x,y,z
-x,y,-z
-x,-y,-z
x,-y,z
1/2+x,1/2+y,z
1/2-x,1/2+y,-z
1/2-x,1/2-y,-z
1/2+x,1/2-y,z
loop_
_atom_site_type_symbol
_atom_site_label
_atom_site_fract_x
_atom_site_fract_y
_atom_site_fract_z
Si Si1 0.386702 0.665877 0.913388
Si Si2 0.411843 0.332519 0.728376
Si Si3 0.031573 0.172660 0.540100
Si Si4 0.754330 0.172042 0.557723
Si Si5 0.771622 0.666164 0.895883
Si Si6 0.929739 0.163957 0.277453
O O1 0.359561 0.500000 0.911617
O O2 0.333999 0.783331 0.908848
O O3 0.507387 0.686250 0.824335
O O4 0.346653 0.687896 0.005974
O O5 0.385547 0.500000 0.739128
O O6 0.454592 0.267490 0.640158
O O7 0.306623 0.254671 0.816233
O O8 0.495860 0.305753 0.719814
O O9 0.144567 0.221353 0.478389
O O10 0.000000 0.238054 0.500000
O O11 0.025494 0.000000 0.543679
O O12 0.750000 0.250000 0.500000
O O13 0.661654 0.223133 0.659663
O O14 0.749987 0.000000 0.551210
O O15 0.796350 0.500000 0.866154
O O16 0.887015 0.000000 0.310623
#
# Coordination Sequence:
#
# PCOD8113794 Si02
#       6
#     8   8   8   8   8   8
#     4   8  15  26  38  56  88 122 149 179 220 268
#     4   9  16  28  44  63  88 119 151 185 227 271
#     4   9  18  33  50  66  88 122 161 192 223 272
#     4  11  20  31  48  70  92 119 153 190 230 273
#     4   9  15  23  38  61  87 117 149 183 223 267
#     4   9  16  28  44  65  91 120 150 184 226 272
#
# _framework density 16.783147
#
# number of rings (size 3 to 8) (size 9 to 14) (size 15 to 20)
#    0.000    2.833    1.667    2.000    0.000    3.333 
#    0.000    0.000    0.000    4.500    0.000    1.167 
#    0.000    9.333    0.000    0.000    0.000    0.000 
#
# Total GULP energy -297342.804174 kJ/mol
# GULP energy per Si atom -12389.283507 kJ/mol
# Density = 1.674495 g / cm^3
# Si number density = 16.783147 Si / 1000 Ang^3
#
#
#
# Elastic Constant Matrix: (Units=GPa)
#
#
# Indices 1 2 3 4 5 6 
#
# 1 62.0316 24.4437 48.5049 0.0000 1.0452 0.0002
# 2 24.4437 61.1736 54.5577 0.0000 -2.1331 0.0004
# 3 48.5049 54.5577 187.6594 0.0000 2.3430 0.0001
# 4 0.0000 0.0000 0.0000 32.9225 0.0000 -2.2138
# 5 1.0452 -2.1331 2.3430 0.0000 13.5964 -0.0001
# 6 0.0002 0.0004 0.0001 -2.2138 -0.0001 10.4824
#
#
#
# Elastic Compliance Matrix: (Units=1/GPa)
#
#
# Indices 1 2 3 4 5 6 
#
# 1 0.021256 -0.004958 -0.004031 0.000000 -0.001717 0.000000
# 2 -0.004958 0.023514 -0.005617 0.000000 0.005038 -0.000001
# 3 -0.004031 -0.005617 0.008028 0.000000 -0.001955 0.000000
# 4 0.000000 0.000000 0.000000 0.030812 0.000000 0.006507
# 5 -0.001717 0.005038 -0.001955 0.000000 0.074808 0.000000
# 6 0.000000 -0.000001 0.000000 0.006507 0.000000 0.096772
#
#
# Mechanical properties :
#
#
# Convention : Reuss Voigt Hill
#
# Bulk Modulus (GPa) = 42.40097 62.87524 52.63811
# Shear Modulus (GPa) = 17.10780 23.62416 20.36598
#
# Velocity S-wave (km/s) = 3.19618 3.75589 3.48728
# Velocity P-wave (km/s) = 6.24016 7.50690 6.90265
#
# Compressibility (1/GPa) = 0.02358436
#
# Stress axis : x y z
#
# Youngs Moduli (GPa) = 47.04655 42.52853 124.55947
#
# Poissons Ratio (x) = 0.21086 0.50212
# Poissons Ratio (y) = 0.23326 0.69971
# Poissons Ratio (z) = 0.18965 0.23890
#
# Static dielectric constant tensor:
#      x y z
#    x 2.690630 0.000000 0.019010 
#    y 0.000000 3.082290 0.000000 
#    z 0.019010 0.000000 3.908990 
# 
# 
# High freq. dielectric constant tensor:
#      x y z
#    x 1.567950 0.000000 0.000030 
#    y 0.000000 1.637360 0.000000 
#    z 0.000030 0.000000 1.679740 
# 
# From -- ./inp_files/229318.got.cif
#   From: 2010.06.25/outbox.cif.g09.slc.cpg/sg12_115_cif.got.tgz:229318.got - 2010.06.28 00:19:55.
