data_PCOD8113574
_publ_section_title
;
Structure prediction by ZEFSAII (Michael W. Deem and Ramdas Pophale) SiO2 
 PCOD8113574
Probable space group: C 2/M
;
_chemical_formula_sum "Si O2"
_cell_formula_units_Z 56
_cell_length_a 18.263130
_cell_length_b 19.512960
_cell_length_c 20.160328
_cell_angle_alpha 90.000000
_cell_angle_beta 157.400265
_cell_angle_gamma 90.000000
_cell_volume 2760.935313
_symmetry_space_group_name_H-M "C 2/M"
_symmetry_group_IT_number 12
_symmetry_cell_setting 'monoclinic'
loop_
_space_group_symop_operation_xyz
x,y,z
-x,y,-z
-x,-y,-z
x,-y,z
1/2+x,1/2+y,z
1/2-x,1/2+y,-z
1/2-x,1/2-y,-z
1/2+x,1/2-y,z
loop_
_atom_site_type_symbol
_atom_site_label
_atom_site_fract_x
_atom_site_fract_y
_atom_site_fract_z
Si Si1 0.753300 0.077796 0.189499
Si Si2 0.594973 0.145352 0.175684
Si Si3 0.058675 0.615305 0.293486
Si Si4 0.955372 0.208508 0.037732
Si Si5 0.608452 0.749122 0.818274
Si Si6 0.454415 0.398559 0.672450
Si Si7 0.872150 0.073804 0.046334
O O1 0.764066 0.117698 0.269289
O O2 0.954426 0.076739 0.320499
O O3 0.684609 0.000000 0.144423
O O4 0.605756 0.119495 0.020783
O O5 0.617318 0.110637 0.265635
O O6 0.593154 0.229194 0.177507
O O7 0.229907 0.582765 0.479866
O O8 0.052268 0.694560 0.307396
O O9 0.856346 0.581230 0.140415
O O10 0.976574 0.137807 0.097829
O O11 0.738027 0.235176 0.862106
O O12 0.000000 0.188797 0.000000
O O13 0.490293 0.681283 0.711253
O O14 0.750000 0.750000 0.000000
O O15 0.545756 0.436039 0.811308
O O16 0.911363 0.000000 0.043233
#
# Coordination Sequence:
#
# PCOD8113574 Si02
#       7
#     8   8   8   8   8   8   8
#     4  11  22  35  57  87 124 166 199 235 299 369
#     4  11  18  37  59  88 121 161 201 246 298 356
#     4  11  23  35  64  91 118 160 205 253 297 360
#     4  11  19  36  66  90 115 161 205 246 306 367
#     4  11  17  38  62  92 121 153 196 249 299 352
#     4  12  21  38  61  90 122 161 204 245 306 362
#     4  11  24  41  59  85 123 158 205 264 312 355
#
# _framework density 20.282982000000001
#
# number of rings (size 3 to 8) (size 9 to 14) (size 15 to 20)
#    0.000    0.857    8.571    1.714    0.000    2.571 
#    0.000    0.714    0.000    6.857    0.000    5.000 
#    0.000    0.000    0.000    0.000    0.000    0.000 
#
# Total GULP energy -346963.661392 kJ/mol
# GULP energy per Si atom -12391.559335 kJ/mol
# Density = 2.023682 g / cm^3
# Si number density = 20.282982 Si / 1000 Ang^3
#
#
#
# Elastic Constant Matrix: (Units=GPa)
#
#
# Indices 1 2 3 4 5 6 
#
# 1 98.2694 23.3680 23.8888 0.0071 7.9683 -0.0015
# 2 23.3680 149.2749 16.1041 0.0080 -1.1087 0.0064
# 3 23.8888 16.1041 94.4783 0.0907 1.4350 0.0563
# 4 0.0071 0.0080 0.0907 -7.1842 0.0342 1.4016
# 5 7.9683 -1.1087 1.4350 0.0342 14.9326 0.0162
# 6 -0.0015 0.0064 0.0563 1.4016 0.0162 16.4251
#
#
#
# Elastic Compliance Matrix: (Units=1/GPa)
#
#
# Indices 1 2 3 4 5 6 
#
# 1 0.011679 -0.001594 -0.002589 -0.000048 -0.006102 0.000021
# 2 -0.001594 0.007048 -0.000820 0.000002 0.001453 -0.000002
# 3 -0.002589 -0.000820 0.011375 0.000131 0.000227 -0.000050
# 4 -0.000048 0.000002 0.000131 -0.136913 0.000314 0.011682
# 5 -0.006102 0.001453 0.000227 0.000314 0.070309 -0.000098
# 6 0.000021 -0.000002 -0.000050 0.011682 -0.000098 0.059886
#
#
# Mechanical properties :
#
#
# Convention : Reuss Voigt Hill
#
# Bulk Modulus (GPa) = 49.76133 52.08272 50.92202
# Shear Modulus (GPa) = 124.72062 23.41216 74.06639
#
# Velocity S-wave (km/s) = 7.85008 3.40115 6.04945
# Velocity P-wave (km/s) = 10.33208 6.41541 8.59969
#
# Compressibility (1/GPa) = 0.02009592
#
# Stress axis : x y z
#
# Youngs Moduli (GPa) = 85.62160 141.88581 87.91021
#
# Poissons Ratio (x) = 0.22622 0.22757
# Poissons Ratio (y) = 0.13651 0.07211
# Poissons Ratio (z) = 0.22164 0.11638
#
# Static dielectric constant tensor:
#      x y z
#    x 3.680240 -0.002600 0.251220 
#    y -0.002600 3.389860 0.003730 
#    z 0.251220 0.003730 3.252180 
# 
# 
# High freq. dielectric constant tensor:
#      x y z
#    x 1.783960 -0.000010 0.008090 
#    y -0.000010 1.810220 -0.000020 
#    z 0.008090 -0.000020 1.755670 
# 
# From -- ./inp_files/318049.got.cif
#   From: 2010.06.25/outbox.cif.g09.slc.cpg/sg12_160_cif.got.tgz:318049.got - 2010.06.28 00:19:55.
