data_PCOD8113220
_publ_section_title
;
Structure prediction by ZEFSAII (Michael W. Deem and Ramdas Pophale) SiO2 
 PCOD8113220
Probable space group: C 2/M
;
_chemical_formula_sum "Si O2"
_cell_formula_units_Z 56
_cell_length_a 8.749506
_cell_length_b 20.406857
_cell_length_c 15.924448
_cell_angle_alpha 90.000000
_cell_angle_beta 66.656483
_cell_angle_gamma 90.000000
_cell_volume 2610.571805
_symmetry_space_group_name_H-M "C 2/M"
_symmetry_group_IT_number 12
_symmetry_cell_setting 'monoclinic'
loop_
_space_group_symop_operation_xyz
x,y,z
-x,y,-z
-x,-y,-z
x,-y,z
1/2+x,1/2+y,z
1/2-x,1/2+y,-z
1/2-x,1/2-y,-z
1/2+x,1/2-y,z
loop_
_atom_site_type_symbol
_atom_site_label
_atom_site_fract_x
_atom_site_fract_y
_atom_site_fract_z
Si Si1 0.355796 0.574624 0.724451
Si Si2 0.594607 0.925011 0.629173
Si Si3 0.651388 0.840532 0.228228
Si Si4 0.697949 0.574966 0.950498
Si Si5 0.620328 0.577496 0.542650
Si Si6 0.941872 0.252337 0.157922
Si Si7 0.735827 0.340497 0.095888
O O1 0.359335 0.500000 0.756285
O O2 0.218542 0.582021 0.681581
O O3 0.542045 0.595508 0.650588
O O4 0.318141 0.620444 0.810108
O O5 0.431451 0.879982 0.676558
O O6 0.689727 0.901664 0.522238
O O7 0.534069 0.000000 0.633756
O O8 0.739642 0.892509 0.148148
O O9 0.787292 0.788451 0.230875
O O10 0.503196 0.801701 0.215448
O O11 0.757988 0.500000 0.938095
O O12 0.500000 0.580112 0.000000
O O13 0.786813 0.611043 0.009670
O O14 0.500000 0.610510 0.500000
O O15 0.612020 0.500000 0.532831
O O16 0.887347 0.292945 0.087290
O O17 0.084774 0.203774 0.094982
#
# Coordination Sequence:
#
# PCOD8113220 Si02
#       7
#     8   8   8   8   8   8   8
#     4   9  16  30  55  85 114 143 180 230 284 330
#     4   9  16  30  55  85 114 143 180 230 284 330
#     4  11  21  40  56  82 110 150 183 234 263 328
#     4  11  24  40  60  87 114 141 176 223 286 338
#     4   7  12  24  48  82 112 141 178 221 276 337
#     4  10  24  37  60  77 108 150 198 223 266 309
#     4  11  21  40  56  82 110 150 183 234 263 328
#
# _framework density 21.451239000000001
#
# number of rings (size 3 to 8) (size 9 to 14) (size 15 to 20)
#    0.000    2.286    2.857    2.571    0.000    4.000 
#    0.000    0.714    0.000    6.000    0.000    3.000 
#    0.000    0.000    0.000    0.000    0.000    0.000 
#
# Total GULP energy -347007.540749 kJ/mol
# GULP energy per Si atom -12393.126455 kJ/mol
# Density = 2.140241 g / cm^3
# Si number density = 21.451239 Si / 1000 Ang^3
#
#
#
# Elastic Constant Matrix: (Units=GPa)
#
#
# Indices 1 2 3 4 5 6 
#
# 1 56.0786 24.6070 -7.1453 0.0000 -12.5394 0.0000
# 2 24.6070 98.9184 21.1148 0.0000 -10.9262 0.0000
# 3 -7.1453 21.1148 70.9316 0.0000 -19.5762 0.0000
# 4 0.0000 0.0000 0.0000 17.8109 0.0000 -3.7982
# 5 -12.5394 -10.9262 -19.5762 0.0000 23.6040 0.0000
# 6 0.0000 0.0000 0.0000 -3.7982 0.0000 20.2510
#
#
#
# Elastic Compliance Matrix: (Units=1/GPa)
#
#
# Indices 1 2 3 4 5 6 
#
# 1 0.026209 -0.006514 0.009843 0.000000 0.019071 0.000000
# 2 -0.006514 0.012583 -0.004863 0.000000 -0.001669 0.000000
# 3 0.009843 -0.004863 0.022512 0.000000 0.021648 0.000000
# 4 0.000000 0.000000 0.000000 0.058485 0.000000 0.010969
# 5 0.019071 -0.001669 0.021648 0.000000 0.069679 0.000000
# 6 0.000000 0.000000 0.000000 0.010969 0.000000 0.051438
#
#
# Mechanical properties :
#
#
# Convention : Reuss Voigt Hill
#
# Bulk Modulus (GPa) = 17.17158 33.67575 25.42366
# Shear Modulus (GPa) = 18.98360 24.82332 21.90346
#
# Velocity S-wave (km/s) = 2.97806 3.40545 3.19890
# Velocity P-wave (km/s) = 4.45505 5.58530 5.05188
#
# Compressibility (1/GPa) = 0.05823577
#
# Stress axis : x y z
#
# Youngs Moduli (GPa) = 38.15496 79.46935 44.42134
#
# Poissons Ratio (x) = 0.51768 -0.43722
# Poissons Ratio (y) = 0.24855 0.21600
# Poissons Ratio (z) = -0.37554 0.38642
#
# Static dielectric constant tensor:
#      x y z
#    x 3.755700 0.000000 -0.306250 
#    y 0.000000 4.063020 0.000000 
#    z -0.306250 0.000000 3.970350 
# 
# 
# High freq. dielectric constant tensor:
#      x y z
#    x 1.825870 0.000000 -0.021910 
#    y 0.000000 1.832830 0.000000 
#    z -0.021910 0.000000 1.834520 
# 
# From -- ./inp_files/258011.got.cif
#   From: 2010.06.25/outbox.cif.g09.slc.cpg/sg12_130_cif.got.tgz:258011.got - 2010.06.28 00:19:55.
