data_PCOD8113455
_publ_section_title
;
Structure prediction by ZEFSAII (Michael W. Deem and Ramdas Pophale) SiO2 
 PCOD8113455
Probable space group: C 2/M
;
_chemical_formula_sum "Si O2"
_cell_formula_units_Z 36
_cell_length_a 17.290080
_cell_length_b 19.781886
_cell_length_c 14.539446
_cell_angle_alpha 90.000000
_cell_angle_beta 18.002433
_cell_angle_gamma 90.000000
_cell_volume 1536.921459
_symmetry_space_group_name_H-M "C 2/M"
_symmetry_group_IT_number 12
_symmetry_cell_setting 'monoclinic'
loop_
_space_group_symop_operation_xyz
x,y,z
-x,y,-z
-x,-y,-z
x,-y,z
1/2+x,1/2+y,z
1/2-x,1/2+y,-z
1/2-x,1/2-y,-z
1/2+x,1/2-y,z
loop_
_atom_site_type_symbol
_atom_site_label
_atom_site_fract_x
_atom_site_fract_y
_atom_site_fract_z
Si Si1 0.000000 0.185258 0.500000
Si Si2 0.117027 0.754145 0.053755
Si Si3 0.795086 0.579894 0.656278
Si Si4 0.240789 0.361229 0.491891
Si Si5 0.761566 0.074797 0.653123
O O1 0.059665 0.135570 0.517408
O O2 0.213434 0.236454 0.225826
O O3 0.901382 0.698512 0.295510
O O4 0.012217 0.830083 0.158210
O O5 0.250000 0.750000 0.000000
O O6 0.815519 0.500000 0.627322
O O7 0.890448 0.611736 0.452131
O O8 0.000000 0.606151 0.500000
O O9 0.500000 0.600175 0.000000
O O10 0.249571 0.421921 0.555844
O O11 0.868084 0.000000 0.557042
O O12 0.500000 0.085299 0.000000
#
# Coordination Sequence:
#
# PCOD8113455 Si02
#       5
#     4   8   8   8   8
#     4  12  23  44  68 102 141 184 234 300 348 442
#     4  11  25  42  66  98 138 180 237 289 353 427
#     4  10  24  46  72 106 144 186 244 305 365 436
#     4  11  24  45  67 101 137 186 235 293 365 434
#     4  11  23  42  69 102 140 180 229 293 362 428
#
# _framework density 23.423448
#
# number of rings (size 3 to 8) (size 9 to 14) (size 15 to 20)
#    0.000    1.111    4.444    1.000    3.111    1.778 
#    0.000    0.000    0.000    0.000    0.000    0.000 
#    0.000    0.000    0.000    0.000    0.000    0.000 
#
# Total GULP energy -223086.207866 kJ/mol
# GULP energy per Si atom -12393.678215 kJ/mol
# Density = 2.337014 g / cm^3
# Si number density = 23.423448 Si / 1000 Ang^3
#
#
#
# Elastic Constant Matrix: (Units=GPa)
#
#
# Indices 1 2 3 4 5 6 
#
# 1 169.1361 34.7301 45.0324 0.0798 7.4189 -0.1525
# 2 34.7301 65.4940 46.8714 -0.0276 12.1868 -0.0801
# 3 45.0324 46.8714 117.9595 -0.9544 7.4655 0.3025
# 4 0.0798 -0.0276 -0.9544 7.9005 0.1344 8.0888
# 5 7.4189 12.1868 7.4655 0.1344 40.3399 -0.0042
# 6 -0.1525 -0.0801 0.3025 8.0888 -0.0042 40.5269
#
#
#
# Elastic Compliance Matrix: (Units=1/GPa)
#
#
# Indices 1 2 3 4 5 6 
#
# 1 0.006857 -0.002416 -0.001647 -0.000386 -0.000225 0.000110
# 2 -0.002416 0.023214 -0.007990 -0.001095 -0.005086 0.000314
# 3 -0.001647 -0.007990 0.012271 0.001986 0.000439 -0.000510
# 4 -0.000386 -0.001095 0.001986 0.159420 -0.000500 -0.031837
# 5 -0.000225 -0.005086 0.000439 -0.000500 0.026288 0.000088
# 6 0.000110 0.000314 -0.000510 -0.031837 0.000088 0.031034
#
#
# Mechanical properties :
#
#
# Convention : Reuss Voigt Hill
#
# Bulk Modulus (GPa) = 54.83395 67.31747 61.07571
# Shear Modulus (GPa) = 17.28509 32.81716 25.05113
#
# Velocity S-wave (km/s) = 2.71945 3.74711 3.27385
# Velocity P-wave (km/s) = 5.77245 6.89368 6.35783
#
# Compressibility (1/GPa) = 0.01823688
#
# Stress axis : x y z
#
# Youngs Moduli (GPa) = 145.83427 43.07802 81.49594
#
# Poissons Ratio (x) = 0.10406 0.13423
# Poissons Ratio (y) = 0.35227 0.65112
# Poissons Ratio (z) = 0.24021 0.34418
#
# Static dielectric constant tensor:
#      x y z
#    x 4.197060 -0.009150 -0.128350 
#    y -0.009150 4.389640 0.017460 
#    z -0.128350 0.017460 4.426910 
# 
# 
# High freq. dielectric constant tensor:
#      x y z
#    x 1.930880 -0.000080 0.007590 
#    y -0.000080 1.933690 0.000150 
#    z 0.007590 0.000150 1.919990 
# 
# From -- ./inp_files/227350.got.cif
#   From: 2010.06.25/outbox.cif.g09.slc.cpg/sg12_114_cif.got.tgz:227350.got - 2010.06.28 00:19:55.
