data_PCOD8113872
_publ_section_title
;
Structure prediction by ZEFSAII (Michael W. Deem and Ramdas Pophale) SiO2 
 PCOD8113872
Probable space group: C 2/M
;
_chemical_formula_sum "Si O2"
_cell_formula_units_Z 40
_cell_length_a 23.673578
_cell_length_b 9.960061
_cell_length_c 11.076977
_cell_angle_alpha 90.000000
_cell_angle_beta 53.683453
_cell_angle_gamma 90.000000
_cell_volume 2104.511918
_symmetry_space_group_name_H-M "C 2/M"
_symmetry_group_IT_number 12
_symmetry_cell_setting 'monoclinic'
loop_
_space_group_symop_operation_xyz
x,y,z
-x,y,-z
-x,-y,-z
x,-y,z
1/2+x,1/2+y,z
1/2-x,1/2+y,-z
1/2-x,1/2-y,-z
1/2+x,1/2-y,z
loop_
_atom_site_type_symbol
_atom_site_label
_atom_site_fract_x
_atom_site_fract_y
_atom_site_fract_z
Si Si1 0.670784 0.500000 0.172147
Si Si2 0.345534 0.344867 0.456129
Si Si3 0.117995 0.500000 0.255468
Si Si4 0.921758 0.776274 0.591819
Si Si5 0.195531 0.264698 0.733750
Si Si6 0.328001 0.000000 0.071592
Si Si7 0.773981 0.000000 0.155644
O O1 0.631356 0.367265 0.264904
O O2 0.747419 0.500000 0.132445
O O3 0.673310 0.500000 0.024235
O O4 0.367811 0.500000 0.418786
O O5 0.396849 0.270557 0.484591
O O6 0.265281 0.337655 0.599380
O O7 0.354416 0.271790 0.315910
O O8 0.076273 0.629199 0.353525
O O9 0.195222 0.500000 0.210885
O O10 0.120298 0.500000 0.107556
O O11 0.000000 0.836527 0.500000
O O12 0.154848 0.367231 0.872362
O O13 0.214282 0.130101 0.779752
#
# Coordination Sequence:
#
# PCOD8113872 Si02
#       7
#     4   8   4   8   8   4   4
#     4  11  21  37  57  88 112 153 196 227 289 332
#     4  11  21  35  56  86 118 147 195 228 283 340
#     4  11  23  37  57  90 116 149 190 231 293 336
#     4  12  23  39  59  82 120 153 192 232 273 340
#     4  11  20  34  57  87 118 147 181 241 291 334
#     4  11  20  38  60  85 123 142 182 247 286 344
#     4  11  20  34  60  85 119 146 184 245 288 336
#
# _framework density 19.006782999999999
#
# number of rings (size 3 to 8) (size 9 to 14) (size 15 to 20)
#    0.000    0.800    7.000    1.800    0.000    4.000 
#    0.000    0.000    0.000    7.200    0.000    0.000 
#    0.000    0.000    0.000    0.000    0.000    0.000 
#
# Total GULP energy -248095.525667 kJ/mol
# GULP energy per Si atom -12404.776283 kJ/mol
# Density = 1.896352 g / cm^3
# Si number density = 19.006783 Si / 1000 Ang^3
#
#
#
# Elastic Constant Matrix: (Units=GPa)
#
#
# Indices 1 2 3 4 5 6 
#
# 1 71.3351 9.1387 48.6650 0.0000 18.5596 0.0000
# 2 9.1387 115.6099 31.2856 0.0000 16.6791 0.0000
# 3 48.6650 31.2856 78.3753 0.0000 25.8597 0.0000
# 4 0.0000 0.0000 0.0000 22.1600 0.0000 14.0355
# 5 18.5596 16.6791 25.8597 0.0000 33.5137 0.0000
# 6 0.0000 0.0000 0.0000 14.0355 0.0000 19.7607
#
#
#
# Elastic Compliance Matrix: (Units=1/GPa)
#
#
# Indices 1 2 3 4 5 6 
#
# 1 0.025194 0.002711 -0.015666 0.000000 -0.003214 0.000000
# 2 0.002711 0.010144 -0.004791 0.000000 -0.002853 0.000000
# 3 -0.015666 -0.004791 0.027837 0.000000 -0.010419 0.000000
# 4 0.000000 0.000000 0.000000 0.082027 0.000000 -0.058261
# 5 -0.003214 -0.002853 -0.010419 0.000000 0.041078 0.000000
# 6 0.000000 0.000000 0.000000 -0.058261 0.000000 0.091987
#
#
# Mechanical properties :
#
#
# Convention : Reuss Voigt Hill
#
# Bulk Modulus (GPa) = 36.12279 49.27765 42.70022
# Shear Modulus (GPa) = 15.48057 26.83562 21.15810
#
# Velocity S-wave (km/s) = 2.85700 3.76160 3.34006
# Velocity P-wave (km/s) = 5.47081 6.69692 6.11468
#
# Compressibility (1/GPa) = 0.02768335
#
# Stress axis : x y z
#
# Youngs Moduli (GPa) = 39.69144 98.58385 35.92380
#
# Poissons Ratio (x) = -0.26731 0.56277
# Poissons Ratio (y) = -0.10762 0.17213
# Poissons Ratio (z) = 0.62179 0.47236
#
# Static dielectric constant tensor:
#      x y z
#    x 3.418840 0.000000 0.409120 
#    y 0.000000 3.653000 0.000000 
#    z 0.409120 0.000000 3.542090 
# 
# 
# High freq. dielectric constant tensor:
#      x y z
#    x 1.719530 0.000000 0.031880 
#    y 0.000000 1.756300 0.000000 
#    z 0.031880 0.000000 1.729040 
# 
# From -- ./inp_files/171609.got.cif
#   From: 2010.06.25/outbox.cif.g09.slc.cpg/sg12_86_cif.got.tgz:171609.got - 2010.06.28 00:19:55.
