data_PCOD8113108
_publ_section_title
;
Structure prediction by ZEFSAII (Michael W. Deem and Ramdas Pophale) SiO2 
 PCOD8113108
Probable space group: C 2/M
;
_chemical_formula_sum "Si O2"
_cell_formula_units_Z 48
_cell_length_a 12.474008
_cell_length_b 14.470276
_cell_length_c 22.627256
_cell_angle_alpha 90.000000
_cell_angle_beta 143.398536
_cell_angle_gamma 90.000000
_cell_volume 2435.228716
_symmetry_space_group_name_H-M "C 2/M"
_symmetry_group_IT_number 12
_symmetry_cell_setting 'monoclinic'
loop_
_space_group_symop_operation_xyz
x,y,z
-x,y,-z
-x,-y,-z
x,-y,z
1/2+x,1/2+y,z
1/2-x,1/2+y,-z
1/2-x,1/2-y,-z
1/2+x,1/2-y,z
loop_
_atom_site_type_symbol
_atom_site_label
_atom_site_fract_x
_atom_site_fract_y
_atom_site_fract_z
Si Si1 0.252452 0.754585 0.748394
Si Si2 0.612136 0.836851 0.385715
Si Si3 0.681934 0.155048 0.544438
Si Si4 0.051226 0.102946 0.239746
Si Si5 0.338933 0.106088 0.884655
Si Si6 0.673195 0.400815 0.616678
O O1 0.383647 0.677480 0.779290
O O2 0.359757 0.821871 0.839951
O O3 0.169247 0.815885 0.659639
O O4 0.087844 0.704147 0.708083
O O5 0.646540 0.889021 0.463627
O O6 0.766425 0.760333 0.444023
O O7 0.647566 0.903452 0.345689
O O8 0.500000 0.146571 0.500000
O O9 0.839390 0.104475 0.650104
O O10 0.845301 0.125027 0.162468
O O11 0.071052 0.000000 0.221320
O O12 0.347704 0.000000 0.865387
O O13 0.500000 0.127677 0.000000
O O14 0.500000 0.391154 0.500000
O O15 0.670637 0.500000 0.649362
#
# Coordination Sequence:
#
# PCOD8113108 Si02
#       6
#     8   8   8   8   8   8
#     4  12  21  40  63  84 122 158 193 248 302 351
#     4  11  20  33  56  80 119 163 198 236 284 350
#     4  11  19  34  54  82 119 164 202 230 283 338
#     4  11  24  39  59  90 121 156 205 249 291 353
#     4  10  23  44  68  91 114 150 202 254 305 358
#     4  11  23  35  52  84 119 158 201 241 289 350
#
# _framework density 19.710674000000001
#
# number of rings (size 3 to 8) (size 9 to 14) (size 15 to 20)
#    0.000    1.000    5.000    3.000    0.000    2.333 
#    0.000    0.000    0.000    0.500    0.000    0.000 
#    0.000    0.000    0.000    0.000    0.000    0.000 
#
# Total GULP energy -297514.403334 kJ/mol
# GULP energy per Si atom -12396.433472 kJ/mol
# Density = 1.966581 g / cm^3
# Si number density = 19.710674 Si / 1000 Ang^3
#
#
#
# Elastic Constant Matrix: (Units=GPa)
#
#
# Indices 1 2 3 4 5 6 
#
# 1 79.2108 40.8391 40.8199 0.0002 6.7280 -0.0002
# 2 40.8391 117.6873 39.5544 -0.0001 -2.1172 0.0001
# 3 40.8199 39.5544 112.1163 -0.0001 9.8181 0.0008
# 4 0.0002 -0.0001 -0.0001 37.0748 0.0001 -20.7227
# 5 6.7280 -2.1172 9.8181 0.0001 26.6024 0.0000
# 6 -0.0002 0.0001 0.0008 -20.7227 0.0000 32.8428
#
#
#
# Elastic Compliance Matrix: (Units=1/GPa)
#
#
# Indices 1 2 3 4 5 6 
#
# 1 0.017609 -0.004658 -0.004491 0.000000 -0.003167 0.000000
# 2 -0.004658 0.010986 -0.002438 0.000000 0.002952 0.000000
# 3 -0.004491 -0.002438 0.011711 0.000000 -0.003380 0.000000
# 4 0.000000 0.000000 0.000000 0.041668 0.000000 0.026291
# 5 -0.003167 0.002952 -0.003380 0.000000 0.039874 0.000000
# 6 0.000000 0.000000 0.000000 0.026291 0.000000 0.047037
#
#
# Mechanical properties :
#
#
# Convention : Reuss Voigt Hill
#
# Bulk Modulus (GPa) = 58.37194 61.27124 59.82159
# Shear Modulus (GPa) = 25.28189 31.82406 28.55297
#
# Velocity S-wave (km/s) = 3.58530 4.02252 3.81018
# Velocity P-wave (km/s) = 6.84235 7.26134 7.05496
#
# Compressibility (1/GPa) = 0.01713152
#
# Stress axis : x y z
#
# Youngs Moduli (GPa) = 56.78775 91.02249 85.39314
#
# Poissons Ratio (x) = 0.42402 0.38346
# Poissons Ratio (y) = 0.26454 0.20822
# Poissons Ratio (z) = 0.25501 0.22195
#
# Static dielectric constant tensor:
#      x y z
#    x 3.840620 0.000000 -0.031580 
#    y 0.000000 3.693260 0.000000 
#    z -0.031580 0.000000 3.448930 
# 
# 
# High freq. dielectric constant tensor:
#      x y z
#    x 1.778280 0.000000 0.006770 
#    y 0.000000 1.770440 0.000000 
#    z 0.006770 0.000000 1.734230 
# 
# From -- ./inp_files/305694.got.cif
#   From: 2010.06.25/outbox.cif.g09.slc.cpg/sg12_153_cif.got.tgz:305694.got - 2010.06.28 00:19:55.
