data_PCOD8113663
_publ_section_title
;
Structure prediction by ZEFSAII (Michael W. Deem and Ramdas Pophale) SiO2 
 PCOD8113663
Probable space group: C 2/M
;
_chemical_formula_sum "Si O2"
_cell_formula_units_Z 52
_cell_length_a 14.958338
_cell_length_b 23.606767
_cell_length_c 8.801538
_cell_angle_alpha 90.000000
_cell_angle_beta 80.670727
_cell_angle_gamma 90.000000
_cell_volume 3066.872293
_symmetry_space_group_name_H-M "C 2/M"
_symmetry_group_IT_number 12
_symmetry_cell_setting 'monoclinic'
loop_
_space_group_symop_operation_xyz
x,y,z
-x,y,-z
-x,-y,-z
x,-y,z
1/2+x,1/2+y,z
1/2-x,1/2+y,-z
1/2-x,1/2-y,-z
1/2+x,1/2-y,z
loop_
_atom_site_type_symbol
_atom_site_label
_atom_site_fract_x
_atom_site_fract_y
_atom_site_fract_z
Si Si1 0.000000 0.269170 0.000000
Si Si2 0.166295 0.880796 0.978894
Si Si3 0.456776 0.500000 0.353592
Si Si4 0.879929 0.878526 0.348781
Si Si5 0.198717 0.696533 0.934034
Si Si6 0.045999 0.810414 0.243612
Si Si7 0.710254 0.701750 0.402541
Si Si8 0.406978 0.500000 0.935467
O O1 0.908379 0.304964 0.010693
O O2 0.990719 0.234953 0.160164
O O3 0.150797 0.861098 0.811084
O O4 0.266824 0.861122 0.996593
O O5 0.096463 0.849471 0.107818
O O6 0.155930 0.947395 0.005081
O O7 0.500000 0.500000 0.500000
O O8 0.391863 0.446142 0.347123
O O9 0.554176 0.500000 0.242988
O O10 0.807541 0.855520 0.493061
O O11 0.975841 0.848557 0.357410
O O12 0.216110 0.692066 0.748805
O O13 0.250000 0.750000 0.000000
O O14 0.115879 0.781380 0.343391
O O15 0.750000 0.750000 0.500000
O O16 0.500000 0.500000 0.000000
#
# Coordination Sequence:
#
# PCOD8113663 Si02
#       8
#     4   8   4   8   8   8   8   4
#     4  12  20  36  64  78 108 152 202 242 280 336
#     4  11  20  35  56  81 115 150 195 232 273 342
#     4  12  24  32  52  86 119 152 190 227 288 352
#     4  12  21  35  53  83 120 153 184 229 283 348
#     4  11  22  38  57  82 109 150 197 239 284 343
#     4  11  19  33  56  80 108 155 191 226 277 343
#     4  11  23  34  50  78 119 151 183 234 290 341
#     4  12  20  36  58  83 113 158 197 223 279 357
#
# _framework density 16.955386000000001
#
# number of rings (size 3 to 8) (size 9 to 14) (size 15 to 20)
#    0.000    0.615    7.692    3.231    2.154    0.000 
#    0.000    0.000    0.000    0.462    0.000    0.000 
#    0.000    2.462    0.000    0.000    0.000    0.000 
#
# Total GULP energy -322207.828005 kJ/mol
# GULP energy per Si atom -12392.608769 kJ/mol
# Density = 1.691679 g / cm^3
# Si number density = 16.955386 Si / 1000 Ang^3
#
#
#
# Elastic Constant Matrix: (Units=GPa)
#
#
# Indices 1 2 3 4 5 6 
#
# 1 111.6717 59.3249 36.3780 0.0000 0.8681 0.0000
# 2 59.3249 99.9995 35.1216 0.0000 1.5419 0.0000
# 3 36.3780 35.1216 107.5862 0.0000 5.8687 0.0000
# 4 0.0000 0.0000 0.0000 25.0125 0.0000 -2.4569
# 5 0.8681 1.5419 5.8687 0.0000 33.4341 0.0000
# 6 0.0000 0.0000 0.0000 -2.4569 0.0000 26.7098
#
#
#
# Elastic Compliance Matrix: (Units=1/GPa)
#
#
# Indices 1 2 3 4 5 6 
#
# 1 0.013529 -0.007249 -0.002228 0.000000 0.000374 0.000000
# 2 -0.007249 0.015180 -0.002500 0.000000 -0.000073 0.000000
# 3 -0.002228 -0.002500 0.010960 0.000000 -0.001751 0.000000
# 4 0.000000 0.000000 0.000000 0.040345 0.000000 0.003711
# 5 0.000374 -0.000073 -0.001751 0.000000 0.030211 0.000000
# 6 0.000000 0.000000 0.000000 0.003711 0.000000 0.037781
#
#
# Mechanical properties :
#
#
# Convention : Reuss Voigt Hill
#
# Bulk Modulus (GPa) = 63.64145 64.54515 64.09330
# Shear Modulus (GPa) = 28.21694 29.59346 28.90520
#
# Velocity S-wave (km/s) = 4.08387 4.18230 4.13338
# Velocity P-wave (km/s) = 7.73650 7.84044 7.78864
#
# Compressibility (1/GPa) = 0.01571303
#
# Stress axis : x y z
#
# Youngs Moduli (GPa) = 73.91570 65.87637 91.23992
#
# Poissons Ratio (x) = 0.47755 0.20332
# Poissons Ratio (y) = 0.53583 0.22813
# Poissons Ratio (z) = 0.16472 0.16472
#
# Static dielectric constant tensor:
#      x y z
#    x 3.209590 0.000000 0.032930 
#    y 0.000000 3.092980 0.000000 
#    z 0.032930 0.000000 4.172970 
# 
# 
# High freq. dielectric constant tensor:
#      x y z
#    x 1.632530 0.000000 0.014450 
#    y 0.000000 1.629740 0.000000 
#    z 0.014450 0.000000 1.680750 
# 
# From -- ./inp_files/64769.got.cif
#   From: 2010.06.25/outbox.cif.g09.slc.cpg/sg12_33_cif.got.tgz:64769.got - 2010.06.28 00:19:55.
