data_PCOD8113438
_publ_section_title
;
Structure prediction by ZEFSAII (Michael W. Deem and Ramdas Pophale) SiO2 
 PCOD8113438
Probable space group: C 2/M
;
_chemical_formula_sum "Si O2"
_cell_formula_units_Z 56
_cell_length_a 18.149778
_cell_length_b 19.870058
_cell_length_c 14.403717
_cell_angle_alpha 90.000000
_cell_angle_beta 31.595459
_cell_angle_gamma 90.000000
_cell_volume 2721.502161
_symmetry_space_group_name_H-M "C 2/M"
_symmetry_group_IT_number 12
_symmetry_cell_setting 'monoclinic'
loop_
_space_group_symop_operation_xyz
x,y,z
-x,y,-z
-x,-y,-z
x,-y,z
1/2+x,1/2+y,z
1/2-x,1/2+y,-z
1/2-x,1/2-y,-z
1/2+x,1/2-y,z
loop_
_atom_site_type_symbol
_atom_site_label
_atom_site_fract_x
_atom_site_fract_y
_atom_site_fract_z
Si Si1 0.596736 0.500000 0.307904
Si Si2 0.960453 0.377409 0.252491
Si Si3 0.769526 0.206381 0.569927
Si Si4 0.110046 0.579073 0.464806
Si Si5 0.078877 0.500000 0.013226
Si Si6 0.661997 0.313335 0.830717
Si Si7 0.306665 0.774401 0.034109
Si Si8 0.043647 0.142075 0.348400
O O1 0.500000 0.500000 0.500000
O O2 0.562509 0.567052 0.283559
O O3 0.754872 0.500000 0.178324
O O4 0.037302 0.436458 0.118152
O O5 0.809778 0.364436 0.364726
O O6 0.950910 0.393403 0.372461
O O7 0.042806 0.308192 0.144741
O O8 0.750000 0.250000 0.500000
O O9 0.703788 0.248111 0.725265
O O10 0.933285 0.188234 0.410733
O O11 0.147077 0.500000 0.433649
O O12 0.249826 0.620719 0.290793
O O13 0.000000 0.591922 0.500000
O O14 0.000000 0.500000 0.000000
O O15 0.685761 0.291776 0.910919
O O16 0.500000 0.333727 0.000000
O O17 0.196928 0.826828 0.192935
O O18 0.250000 0.750000 0.000000
O O19 0.000000 0.132369 0.500000
#
# Coordination Sequence:
#
# PCOD8113438 Si02
#       8
#     4   8   8   8   4   8   8   8
#     4  10  24  46  64  97 137 183 227 265 342 422
#     4  12  25  45  70 103 139 181 232 285 352 418
#     4  12  25  43  68 101 137 175 230 283 347 419
#     4  11  26  50  74  98 134 187 242 288 341 412
#     4  12  28  42  71 105 144 185 227 286 349 429
#     4  12  26  44  69 101 139 179 222 294 349 410
#     4  12  25  40  68 102 133 174 228 285 346 407
#     4  11  24  41  67  96 134 179 221 274 337 409
#
# _framework density 20.576872000000002
#
# number of rings (size 3 to 8) (size 9 to 14) (size 15 to 20)
#    0.000    0.429    6.429    1.714    8.000    0.286 
#    0.000    0.000    0.000    0.000    0.000    0.000 
#    0.000    0.000    0.000    0.000    0.000    0.000 
#
# Total GULP energy -347120.548043 kJ/mol
# GULP energy per Si atom -12397.162430 kJ/mol
# Density = 2.053004 g / cm^3
# Si number density = 20.576872 Si / 1000 Ang^3
#
#
#
# Elastic Constant Matrix: (Units=GPa)
#
#
# Indices 1 2 3 4 5 6 
#
# 1 112.3321 35.4300 49.8939 -0.0001 1.1020 0.0000
# 2 35.4300 109.0092 54.1988 -0.0003 -5.0294 0.0000
# 3 49.8939 54.1988 122.6506 0.0011 -7.7894 0.0013
# 4 -0.0001 -0.0003 0.0011 32.0863 -0.0006 -6.1430
# 5 1.1020 -5.0294 -7.7894 -0.0006 37.1179 -0.0006
# 6 0.0000 0.0000 0.0013 -6.1430 -0.0006 33.9249
#
#
#
# Elastic Compliance Matrix: (Units=1/GPa)
#
#
# Indices 1 2 3 4 5 6 
#
# 1 0.011189 -0.001786 -0.003850 0.000000 -0.001382 0.000000
# 2 -0.001786 0.012051 -0.004552 0.000000 0.000731 0.000000
# 3 -0.003850 -0.004552 0.011857 -0.000001 0.001986 -0.000001
# 4 0.000000 0.000000 -0.000001 0.032285 0.000001 0.005846
# 5 -0.001382 0.000731 0.001986 0.000001 0.027498 0.000000
# 6 0.000000 0.000000 -0.000001 0.005846 0.000000 0.030535
#
#
# Mechanical properties :
#
#
# Convention : Reuss Voigt Hill
#
# Bulk Modulus (GPa) = 67.93390 69.22637 68.58013
# Shear Modulus (GPa) = 33.17838 34.25710 33.71774
#
# Velocity S-wave (km/s) = 4.01984 4.08467 4.05238
# Velocity P-wave (km/s) = 7.39134 7.48076 7.43618
#
# Compressibility (1/GPa) = 0.01472019
#
# Stress axis : x y z
#
# Youngs Moduli (GPa) = 89.37169 82.97935 84.33639
#
# Poissons Ratio (x) = 0.14822 0.32471
# Poissons Ratio (y) = 0.15963 0.38393
# Poissons Ratio (z) = 0.34410 0.37775
#
# Static dielectric constant tensor:
#      x y z
#    x 5.221230 -0.000070 -0.989380 
#    y -0.000070 3.527220 0.000060 
#    z -0.989380 0.000060 4.781650 
# 
# 
# High freq. dielectric constant tensor:
#      x y z
#    x 1.805510 0.000000 -0.002960 
#    y 0.000000 1.814300 0.000000 
#    z -0.002960 0.000000 1.819910 
# 
# From -- ./inp_files/227615.got.cif
#   From: 2010.06.25/outbox.cif.g09.slc.cpg/sg12_114_cif.got.tgz:227615.got - 2010.06.28 00:19:55.
