data_PCOD8113504
_publ_section_title
;
Structure prediction by ZEFSAII (Michael W. Deem and Ramdas Pophale) SiO2 
 PCOD8113504
Probable space group: C 2/M
;
_chemical_formula_sum "Si O2"
_cell_formula_units_Z 64
_cell_length_a 15.907861
_cell_length_b 21.410741
_cell_length_c 11.607204
_cell_angle_alpha 90.000000
_cell_angle_beta 49.347825
_cell_angle_gamma 90.000000
_cell_volume 2999.361494
_symmetry_space_group_name_H-M "C 2/M"
_symmetry_group_IT_number 12
_symmetry_cell_setting 'monoclinic'
loop_
_space_group_symop_operation_xyz
x,y,z
-x,y,-z
-x,-y,-z
x,-y,z
1/2+x,1/2+y,z
1/2-x,1/2+y,-z
1/2-x,1/2-y,-z
1/2+x,1/2-y,z
loop_
_atom_site_type_symbol
_atom_site_label
_atom_site_fract_x
_atom_site_fract_y
_atom_site_fract_z
Si Si1 0.400794 0.252751 0.521823
Si Si2 0.497599 0.615904 0.373054
Si Si3 0.074374 0.376633 0.045651
Si Si4 0.628587 0.623683 0.892036
Si Si5 0.703842 0.571742 0.064189
Si Si6 0.677986 0.766554 0.830886
Si Si7 0.697188 0.570905 0.592137
Si Si8 0.125118 0.660711 0.652817
O O1 0.500000 0.218951 0.500000
O O2 0.446962 0.314258 0.416481
O O3 0.310476 0.269711 0.699453
O O4 0.351998 0.203136 0.477844
O O5 0.500000 0.588935 0.500000
O O6 0.621878 0.614726 0.213035
O O7 0.423196 0.572275 0.358726
O O8 0.995206 0.371659 0.229036
O O9 0.171817 0.424095 0.994305
O O10 0.134600 0.310097 0.972339
O O11 0.000000 0.398187 0.000000
O O12 0.632738 0.698124 0.896935
O O13 0.693761 0.600907 0.721358
O O14 0.500000 0.602029 0.000000
O O15 0.693959 0.594075 0.941059
O O16 0.666949 0.500000 0.105369
O O17 0.629095 0.793251 0.756832
O O18 0.738238 0.500000 0.565955
O O19 0.781326 0.607639 0.432938
#
# Coordination Sequence:
#
# PCOD8113504 Si02
#       8
#     8   8   8   8   8   8   8   8
#     4  11  22  37  66  97 133 164 217 282 348 396
#     4  11  24  43  67 103 136 173 224 291 345 400
#     4  10  25  44  68  97 132 176 228 285 341 401
#     4  12  25  43  70 102 140 182 226 282 345 407
#     4  12  28  46  68 101 141 185 230 276 334 414
#     4  11  22  44  67 100 134 170 224 287 349 403
#     4  12  25  43  68  98 136 188 229 271 337 406
#     4  11  23  42  66  98 132 176 227 281 332 404
#
# _framework density 21.337875
#
# number of rings (size 3 to 8) (size 9 to 14) (size 15 to 20)
#    0.000    0.750    3.750    4.500    5.250    2.750 
#    0.000    0.000    0.000    1.875    0.000    0.000 
#    0.000    0.000    0.000    0.000    0.000    0.000 
#
# Total GULP energy -396785.266600 kJ/mol
# GULP energy per Si atom -12399.539581 kJ/mol
# Density = 2.128931 g / cm^3
# Si number density = 21.337875 Si / 1000 Ang^3
#
#
#
# Elastic Constant Matrix: (Units=GPa)
#
#
# Indices 1 2 3 4 5 6 
#
# 1 105.5333 26.1037 43.6690 0.0000 -10.1785 0.0000
# 2 26.1037 92.1614 14.5443 0.0000 2.0196 0.0000
# 3 43.6690 14.5443 108.2998 0.0000 -11.5803 0.0000
# 4 0.0000 0.0000 0.0000 24.6553 0.0000 -2.2330
# 5 -10.1785 2.0196 -11.5803 0.0000 44.0129 0.0000
# 6 0.0000 0.0000 0.0000 -2.2330 0.0000 24.6976
#
#
#
# Elastic Compliance Matrix: (Units=1/GPa)
#
#
# Indices 1 2 3 4 5 6 
#
# 1 0.012129 -0.002792 -0.004324 0.000000 0.001795 0.000000
# 2 -0.002792 0.011765 -0.000598 0.000000 -0.001343 0.000000
# 3 -0.004324 -0.000598 0.011270 0.000000 0.001993 0.000000
# 4 0.000000 0.000000 0.000000 0.040894 0.000000 0.003697
# 5 0.001795 -0.001343 0.001993 0.000000 0.023722 0.000000
# 6 0.000000 0.000000 0.000000 0.003697 0.000000 0.040824
#
#
# Mechanical properties :
#
#
# Convention : Reuss Voigt Hill
#
# Bulk Modulus (GPa) = 50.66626 52.73650 51.70138
# Shear Modulus (GPa) = 30.74838 33.45166 32.10002
#
# Velocity S-wave (km/s) = 3.80020 3.96373 3.88283
# Velocity P-wave (km/s) = 6.56138 6.76142 6.66215
#
# Compressibility (1/GPa) = 0.01973700
#
# Stress axis : x y z
#
# Youngs Moduli (GPa) = 82.44987 84.99663 88.72845
#
# Poissons Ratio (x) = 0.23734 0.38362
# Poissons Ratio (y) = 0.23023 0.05303
# Poissons Ratio (z) = 0.35648 0.05080
#
# Static dielectric constant tensor:
#      x y z
#    x 3.944290 0.000000 -0.132380 
#    y 0.000000 3.643090 0.000000 
#    z -0.132380 0.000000 4.116020 
# 
# 
# High freq. dielectric constant tensor:
#      x y z
#    x 1.837590 0.000000 -0.010520 
#    y 0.000000 1.824490 0.000000 
#    z -0.010520 0.000000 1.847610 
# 
# From -- ./inp_files/159521.got.cif
#   From: 2010.06.25/outbox.cif.g09.slc.cpg/sg12_80_cif.got.tgz:159521.got - 2010.06.28 00:19:55.
