data_PCOD8113689
_publ_section_title
;
Structure prediction by ZEFSAII (Michael W. Deem and Ramdas Pophale) SiO2 
 PCOD8113689
Probable space group: C 2/M
;
_chemical_formula_sum "Si O2"
_cell_formula_units_Z 40
_cell_length_a 16.754023
_cell_length_b 13.539588
_cell_length_c 7.420770
_cell_angle_alpha 90.000000
_cell_angle_beta 95.957970
_cell_angle_gamma 90.000000
_cell_volume 1674.253606
_symmetry_space_group_name_H-M "C 2/M"
_symmetry_group_IT_number 12
_symmetry_cell_setting 'monoclinic'
loop_
_space_group_symop_operation_xyz
x,y,z
-x,y,-z
-x,-y,-z
x,-y,z
1/2+x,1/2+y,z
1/2-x,1/2+y,-z
1/2-x,1/2-y,-z
1/2+x,1/2-y,z
loop_
_atom_site_type_symbol
_atom_site_label
_atom_site_fract_x
_atom_site_fract_y
_atom_site_fract_z
Si Si1 0.145013 0.722166 0.075029
Si Si2 0.579139 0.266358 0.677400
Si Si3 0.771253 0.888383 0.291341
Si Si4 0.393101 0.889369 0.604703
Si Si5 0.946172 0.890384 0.810612
O O1 0.236900 0.679852 0.115467
O O2 0.087661 0.653174 0.190408
O O3 0.135943 0.833758 0.153729
O O4 0.109628 0.716444 0.868288
O O5 0.645774 0.343093 0.617721
O O6 0.566124 0.175922 0.539446
O O7 0.495462 0.326501 0.674289
O O8 0.705099 0.887060 0.435983
O O9 0.786223 0.000000 0.224612
O O10 0.426621 0.000000 0.594376
O O11 0.925393 0.000000 0.731459
O O12 0.000000 0.899447 0.000000
#
# Coordination Sequence:
#
# PCOD8113689 Si02
#       5
#     8   8   8   8   8
#     4   9  20  37  54  80 115 144 177 225 272 328
#     4  11  19  35  62  82 108 147 184 224 277 327
#     4   9  19  37  57  81 113 144 181 230 272 319
#     4   9  21  37  55  81 113 144 184 230 269 321
#     4   9  19  36  58  85 113 143 181 227 277 326
#
# _framework density 23.891242999999999
#
# number of rings (size 3 to 8) (size 9 to 14) (size 15 to 20)
#    1.200    1.400    0.000    1.800    0.000    3.200 
#    0.000    7.000    0.000    9.000    0.000    0.000 
#    0.000    0.000    0.000    0.000    0.000    0.000 
#
# Total GULP energy -247811.865795 kJ/mol
# GULP energy per Si atom -12390.593290 kJ/mol
# Density = 2.383687 g / cm^3
# Si number density = 23.891243 Si / 1000 Ang^3
#
#
#
# Elastic Constant Matrix: (Units=GPa)
#
#
# Indices 1 2 3 4 5 6 
#
# 1 81.5730 43.2042 2.1702 0.0000 7.9409 0.0000
# 2 43.2042 179.2081 18.1392 0.0000 -2.4178 0.0000
# 3 2.1702 18.1392 49.0110 0.0000 -20.5273 0.0000
# 4 0.0000 0.0000 0.0000 28.3254 0.0000 -0.9964
# 5 7.9409 -2.4178 -20.5273 0.0000 23.4367 0.0000
# 6 0.0000 0.0000 0.0000 -0.9964 0.0000 28.2971
#
#
#
# Elastic Compliance Matrix: (Units=1/GPa)
#
#
# Indices 1 2 3 4 5 6 
#
# 1 0.014893 -0.003430 -0.002609 0.000000 -0.007685 0.000000
# 2 -0.003430 0.006649 -0.002424 0.000000 -0.000275 0.000000
# 3 -0.002609 -0.002424 0.034244 0.000000 0.030626 0.000000
# 4 0.000000 0.000000 0.000000 0.035348 0.000000 0.001245
# 5 -0.007685 -0.000275 0.030626 0.000000 0.072068 0.000000
# 6 0.000000 0.000000 0.000000 0.001245 0.000000 0.035383
#
#
# Mechanical properties :
#
#
# Convention : Reuss Voigt Hill
#
# Bulk Modulus (GPa) = 25.73344 48.53549 37.13446
# Shear Modulus (GPa) = 21.88537 32.43040 27.15789
#
# Velocity S-wave (km/s) = 3.02990 3.68831 3.37520
# Velocity P-wave (km/s) = 4.79946 6.20463 5.54673
#
# Compressibility (1/GPa) = 0.03885995
#
# Stress axis : x y z
#
# Youngs Moduli (GPa) = 67.14481 150.40523 29.20259
#
# Poissons Ratio (x) = 0.51591 0.07618
# Poissons Ratio (y) = 0.23032 0.07079
# Poissons Ratio (z) = 0.17515 0.36458
#
# Static dielectric constant tensor:
#      x y z
#    x 4.246920 0.000000 -0.181680 
#    y 0.000000 4.507040 0.000000 
#    z -0.181680 0.000000 3.959980 
# 
# 
# High freq. dielectric constant tensor:
#      x y z
#    x 1.946580 0.000000 -0.016070 
#    y 0.000000 1.953750 0.000000 
#    z -0.016070 0.000000 1.922130 
# 
# From -- ./inp_files/83647.got.cif
#   From: 2010.06.25/outbox.cif.g09.slc.cpg/sg12_42_cif.got.tgz:83647.got - 2010.06.28 00:19:55.
