data_PCOD8113054
_publ_section_title
;
Structure prediction by ZEFSAII (Michael W. Deem and Ramdas Pophale) SiO2 
 PCOD8113054
Probable space group: C 2/M
;
_chemical_formula_sum "Si O2"
_cell_formula_units_Z 48
_cell_length_a 24.685550
_cell_length_b 20.593064
_cell_length_c 11.503644
_cell_angle_alpha 90.000000
_cell_angle_beta 23.228910
_cell_angle_gamma 90.000000
_cell_volume 2306.440833
_symmetry_space_group_name_H-M "C 2/M"
_symmetry_group_IT_number 12
_symmetry_cell_setting 'monoclinic'
loop_
_space_group_symop_operation_xyz
x,y,z
-x,y,-z
-x,-y,-z
x,-y,z
1/2+x,1/2+y,z
1/2-x,1/2+y,-z
1/2-x,1/2-y,-z
1/2+x,1/2-y,z
loop_
_atom_site_type_symbol
_atom_site_label
_atom_site_fract_x
_atom_site_fract_y
_atom_site_fract_z
Si Si1 0.850357 0.190304 0.784961
Si Si2 0.307922 0.426805 0.047699
Si Si3 0.498727 0.926031 0.373225
Si Si4 0.380389 0.754353 0.161101
Si Si5 0.264067 0.145161 0.222912
Si Si6 0.999668 0.113789 0.872745
O O1 0.833864 0.164547 0.688566
O O2 0.000000 0.221566 0.500000
O O3 0.750000 0.250000 0.000000
O O4 0.842437 0.128928 0.887164
O O5 0.324687 0.500000 0.960776
O O6 0.148802 0.416099 0.397185
O O7 0.403551 0.424658 0.972753
O O8 0.500000 0.892290 0.500000
O O9 0.537213 0.000000 0.317196
O O10 0.615193 0.900892 0.057953
O O11 0.250000 0.750000 0.500000
O O12 0.341110 0.792920 0.123590
O O13 0.500000 0.789982 0.000000
O O14 0.439399 0.686090 0.001115
O O15 0.160132 0.112033 0.519019
O O16 0.000000 0.080689 0.000000
#
# Coordination Sequence:
#
# PCOD8113054 Si02
#       6
#     8   8   8   8   8   8
#     4  12  27  43  67 107 142 181 229 289 354 419
#     4  11  25  47  71  98 141 185 229 292 354 418
#     4  10  23  43  67  98 133 178 229 284 354 421
#     4  11  23  42  66  97 138 183 231 289 348 414
#     4  12  24  40  69  99 134 183 227 284 350 417
#     4  11  24  45  66 100 135 180 238 284 347 412
#
# _framework density 20.811285999999999
#
# number of rings (size 3 to 8) (size 9 to 14) (size 15 to 20)
#    0.000    0.833    6.667    1.000    4.667    1.333 
#    0.000    0.000    0.000    2.500    0.000    0.000 
#    0.000    0.000    0.000    0.000    0.000    0.000 
#
# Total GULP energy -297493.608321 kJ/mol
# GULP energy per Si atom -12395.567013 kJ/mol
# Density = 2.076392 g / cm^3
# Si number density = 20.811286 Si / 1000 Ang^3
#
#
#
# Elastic Constant Matrix: (Units=GPa)
#
#
# Indices 1 2 3 4 5 6 
#
# 1 133.3716 41.3649 45.7632 0.0015 -8.7693 -0.0001
# 2 41.3649 87.0456 52.0599 0.0001 -2.3218 0.0008
# 3 45.7632 52.0599 173.4132 0.0023 -5.5429 0.0008
# 4 0.0015 0.0001 0.0023 28.5775 -0.0007 -6.4769
# 5 -8.7693 -2.3218 -5.5429 -0.0007 42.6435 -0.0003
# 6 -0.0001 0.0008 0.0008 -6.4769 -0.0003 14.1757
#
#
#
# Elastic Compliance Matrix: (Units=1/GPa)
#
#
# Indices 1 2 3 4 5 6 
#
# 1 0.009138 -0.003521 -0.001306 0.000000 0.001518 0.000000
# 2 -0.003521 0.015361 -0.003694 0.000000 -0.000368 -0.000001
# 3 -0.001306 -0.003694 0.007235 -0.000001 0.000471 0.000000
# 4 0.000000 0.000000 -0.000001 0.039035 0.000001 0.017835
# 5 0.001518 -0.000368 0.000471 0.000001 0.023804 0.000001
# 6 0.000000 -0.000001 0.000000 0.017835 0.000001 0.078692
#
#
# Mechanical properties :
#
#
# Convention : Reuss Voigt Hill
#
# Bulk Modulus (GPa) = 68.06327 74.68959 71.37643
# Shear Modulus (GPa) = 25.61439 34.05551 29.83495
#
# Velocity S-wave (km/s) = 3.51207 4.04963 3.79039
# Velocity P-wave (km/s) = 7.01585 7.60479 7.31625
#
# Compressibility (1/GPa) = 0.01469221
#
# Stress axis : x y z
#
# Youngs Moduli (GPa) = 109.43672 65.10048 138.21242
#
# Poissons Ratio (x) = 0.22921 0.18050
# Poissons Ratio (y) = 0.38530 0.51057
# Poissons Ratio (z) = 0.14292 0.24049
#
# Static dielectric constant tensor:
#      x y z
#    x 4.320130 0.000000 -0.168350 
#    y 0.000000 3.692640 0.000000 
#    z -0.168350 0.000000 3.929410 
# 
# 
# High freq. dielectric constant tensor:
#      x y z
#    x 1.828630 0.000000 -0.013550 
#    y 0.000000 1.798090 0.000000 
#    z -0.013550 0.000000 1.829980 
# 
# From -- ./inp_files/184779.got.cif
#   From: 2010.06.25/outbox.cif.g09.slc.cpg/sg12_93_cif.got.tgz:184779.got - 2010.06.28 00:19:55.
