data_PCOD8113512
_publ_section_title
;
Structure prediction by ZEFSAII (Michael W. Deem and Ramdas Pophale) SiO2 
 PCOD8113512
Probable space group: C 2/M
;
_chemical_formula_sum "Si O2"
_cell_formula_units_Z 44
_cell_length_a 7.560208
_cell_length_b 28.353395
_cell_length_c 8.866147
_cell_angle_alpha 90.000000
_cell_angle_beta 85.878017
_cell_angle_gamma 90.000000
_cell_volume 1895.609538
_symmetry_space_group_name_H-M "C 2/M"
_symmetry_group_IT_number 12
_symmetry_cell_setting 'monoclinic'
loop_
_space_group_symop_operation_xyz
x,y,z
-x,y,-z
-x,-y,-z
x,-y,z
1/2+x,1/2+y,z
1/2-x,1/2+y,-z
1/2-x,1/2-y,-z
1/2+x,1/2-y,z
loop_
_atom_site_type_symbol
_atom_site_label
_atom_site_fract_x
_atom_site_fract_y
_atom_site_fract_z
Si Si1 0.817196 0.412571 0.554895
Si Si2 0.000000 0.366754 0.000000
Si Si3 0.274783 0.408364 0.768944
Si Si4 0.688848 0.701709 0.928751
Si Si5 0.390492 0.000000 0.764572
Si Si6 0.733278 0.500000 0.091068
Si Si7 0.049472 0.835839 0.661801
O O1 0.734027 0.428357 0.400364
O O2 0.860407 0.455759 0.659461
O O3 0.686650 0.378300 0.648171
O O4 0.000000 0.385635 0.500000
O O5 0.082591 0.398885 0.861302
O O6 0.842614 0.336057 0.939711
O O7 0.368368 0.451371 0.856053
O O8 0.379635 0.358350 0.759611
O O9 0.643407 0.706222 0.751726
O O10 0.500000 0.683584 0.000000
O O11 0.750000 0.750000 0.000000
O O12 0.585142 0.000000 0.823686
O O13 0.251004 0.000000 0.910029
O O14 0.000000 0.815599 0.500000
#
# Coordination Sequence:
#
# PCOD8113512 Si02
#       7
#     8   4   8   8   4   4   8
#     4  11  21  39  64  91 132 191 238 288 351 406
#     4  12  24  43  78 104 142 186 236 295 360 420
#     4  11  23  41  66  99 142 187 238 293 341 413
#     4  12  25  47  77 108 141 179 233 294 367 440
#     4  11  22  36  59  93 138 185 252 298 340 413
#     4  11  23  37  58 100 144 184 245 299 344 396
#     4  10  25  45  70 105 144 185 238 292 358 434
#
# _framework density 23.21153
#
# number of rings (size 3 to 8) (size 9 to 14) (size 15 to 20)
#    0.000    0.909    4.545    3.000    2.545    0.727 
#    0.000    4.545    0.000    0.000    0.000    0.000 
#    0.000    0.000    0.000    0.000    0.000    0.000 
#
# Total GULP energy -272568.206489 kJ/mol
# GULP energy per Si atom -12389.463931 kJ/mol
# Density = 2.315870 g / cm^3
# Si number density = 23.211530 Si / 1000 Ang^3
#
#
#
# Elastic Constant Matrix: (Units=GPa)
#
#
# Indices 1 2 3 4 5 6 
#
# 1 96.4767 23.4339 47.6850 0.0000 5.9128 0.0000
# 2 23.4339 84.7337 62.2309 0.0000 18.3282 0.0000
# 3 47.6850 62.2309 166.4285 0.0000 20.2158 0.0000
# 4 0.0000 0.0000 0.0000 26.9505 0.0000 3.3234
# 5 5.9128 18.3282 20.2158 0.0000 47.1841 0.0000
# 6 0.0000 0.0000 0.0000 3.3234 0.0000 18.0763
#
#
#
# Elastic Compliance Matrix: (Units=1/GPa)
#
#
# Indices 1 2 3 4 5 6 
#
# 1 0.012153 -0.001151 -0.003081 0.000000 0.000244 0.000000
# 2 -0.001151 0.017095 -0.005563 0.000000 -0.004113 0.000000
# 3 -0.003081 -0.005563 0.009138 0.000000 -0.001368 0.000000
# 4 0.000000 0.000000 0.000000 0.037966 0.000000 -0.006980
# 5 0.000244 -0.004113 -0.001368 0.000000 0.023347 0.000000
# 6 0.000000 0.000000 0.000000 -0.006980 0.000000 0.056604
#
#
# Mechanical properties :
#
#
# Convention : Reuss Voigt Hill
#
# Bulk Modulus (GPa) = 53.20418 68.25983 60.73201
# Shear Modulus (GPa) = 27.44875 32.72812 30.08843
#
# Velocity S-wave (km/s) = 3.44255 3.75906 3.60428
# Velocity P-wave (km/s) = 6.22678 6.95071 6.59868
#
# Compressibility (1/GPa) = 0.01879552
#
# Stress axis : x y z
#
# Youngs Moduli (GPa) = 82.28581 58.49622 109.43641
#
# Poissons Ratio (x) = 0.06731 0.33722
# Poissons Ratio (y) = 0.09469 0.60879
# Poissons Ratio (z) = 0.25356 0.32541
#
# Static dielectric constant tensor:
#      x y z
#    x 4.476500 0.000000 0.028200 
#    y 0.000000 3.952010 0.000000 
#    z 0.028200 0.000000 4.691330 
# 
# 
# High freq. dielectric constant tensor:
#      x y z
#    x 1.919580 0.000000 0.004150 
#    y 0.000000 1.886560 0.000000 
#    z 0.004150 0.000000 1.944460 
# 
# From -- ./inp_files/41640.got.cif
#   From: 2010.06.25/outbox.cif.g09.slc.cpg/sg12_21_cif.got.tgz:41640.got - 2010.06.28 00:19:55.
