data_PCOD8113955
_publ_section_title
;
Structure prediction by ZEFSAII (Michael W. Deem and Ramdas Pophale) SiO2 
 PCOD8113955
Probable space group: C 2/M
;
_chemical_formula_sum "Si O2"
_cell_formula_units_Z 48
_cell_length_a 21.307341
_cell_length_b 14.464875
_cell_length_c 11.147981
_cell_angle_alpha 90.000000
_cell_angle_beta 43.963039
_cell_angle_gamma 90.000000
_cell_volume 2385.179859
_symmetry_space_group_name_H-M "C 2/M"
_symmetry_group_IT_number 12
_symmetry_cell_setting 'monoclinic'
loop_
_space_group_symop_operation_xyz
x,y,z
-x,y,-z
-x,-y,-z
x,-y,z
1/2+x,1/2+y,z
1/2-x,1/2+y,-z
1/2-x,1/2-y,-z
1/2+x,1/2-y,z
loop_
_atom_site_type_symbol
_atom_site_label
_atom_site_fract_x
_atom_site_fract_y
_atom_site_fract_z
Si Si1 0.845928 0.891736 0.675158
Si Si2 0.071196 0.836860 0.674697
Si Si3 0.880646 0.102112 0.898716
Si Si4 0.583894 0.171403 0.815769
Si Si5 0.288071 0.264145 0.193623
Si Si6 0.245069 0.397735 0.452185
O O1 0.915465 0.846150 0.486289
O O2 0.890076 0.879367 0.744378
O O3 0.754337 0.832020 0.791886
O O4 0.825948 0.000000 0.674036
O O5 0.055002 0.731046 0.738728
O O6 0.158421 0.881787 0.618056
O O7 0.977982 0.890536 0.829881
O O8 0.842228 0.000000 0.975556
O O9 0.807409 0.172476 0.052642
O O10 0.618226 0.243109 0.868859
O O11 0.665487 0.104789 0.661986
O O12 0.500000 0.119700 0.000000
O O13 0.226246 0.320603 0.375662
O O14 0.245093 0.500000 0.394792
#
# Coordination Sequence:
#
# PCOD8113955 Si02
#       6
#     8   8   8   8   8   8
#     4  11  22  38  60  84 115 159 196 232 282 338
#     4  11  20  38  58  86 120 146 189 239 291 342
#     4  11  23  36  58  90 119 152 192 233 284 344
#     4  11  21  38  60  83 115 150 192 237 290 343
#     4  11  21  39  58  85 122 151 189 237 284 343
#     4  11  22  37  62  87 114 153 188 237 296 340
#
# _framework density 20.124268000000001
#
# number of rings (size 3 to 8) (size 9 to 14) (size 15 to 20)
#    0.000    1.000    5.000    4.000    0.000    1.667 
#    0.000    2.500    0.000    0.000    0.000    1.167 
#    0.000    0.000    0.000    0.000    0.000    0.000 
#
# Total GULP energy -297413.702215 kJ/mol
# GULP energy per Si atom -12392.237592 kJ/mol
# Density = 2.007846 g / cm^3
# Si number density = 20.124268 Si / 1000 Ang^3
#
#
#
# Elastic Constant Matrix: (Units=GPa)
#
#
# Indices 1 2 3 4 5 6 
#
# 1 68.7340 38.5483 29.1446 0.0000 1.4488 0.0000
# 2 38.5483 83.5257 34.6932 0.0000 0.1140 0.0000
# 3 29.1446 34.6932 107.6208 0.0000 -8.7967 0.0000
# 4 0.0000 0.0000 0.0000 16.1528 0.0000 9.2290
# 5 1.4488 0.1140 -8.7967 0.0000 23.7847 0.0000
# 6 0.0000 0.0000 0.0000 9.2290 0.0000 23.2457
#
#
#
# Elastic Compliance Matrix: (Units=1/GPa)
#
#
# Indices 1 2 3 4 5 6 
#
# 1 0.020497 -0.008164 -0.003112 0.000000 -0.002360 0.000000
# 2 -0.008164 0.017147 -0.003385 0.000000 -0.000837 0.000000
# 3 -0.003112 -0.003385 0.011593 0.000000 0.004494 0.000000
# 4 0.000000 0.000000 0.000000 0.080073 0.000000 -0.031790
# 5 -0.002360 -0.000837 0.004494 0.000000 0.043854 0.000000
# 6 0.000000 0.000000 0.000000 -0.031790 0.000000 0.055640
#
#
# Mechanical properties :
#
#
# Convention : Reuss Voigt Hill
#
# Bulk Modulus (GPa) = 50.21263 51.62808 50.92036
# Shear Modulus (GPa) = 18.88479 23.13626 21.01053
#
# Velocity S-wave (km/s) = 3.06667 3.39436 3.23466
# Velocity P-wave (km/s) = 6.12738 6.40879 6.26966
#
# Compressibility (1/GPa) = 0.01991531
#
# Stress axis : x y z
#
# Youngs Moduli (GPa) = 48.78875 58.31834 86.25747
#
# Poissons Ratio (x) = 0.47609 0.26842
# Poissons Ratio (y) = 0.39829 0.29201
# Poissons Ratio (z) = 0.15182 0.19743
#
# Static dielectric constant tensor:
#      x y z
#    x 3.538360 0.000000 0.160860 
#    y 0.000000 3.545450 0.000000 
#    z 0.160860 0.000000 3.707740 
# 
# 
# High freq. dielectric constant tensor:
#      x y z
#    x 1.767190 0.000000 0.008940 
#    y 0.000000 1.774150 0.000000 
#    z 0.008940 0.000000 1.793270 
# 
# From -- ./inp_files/143160.got.cif
#   From: 2010.06.25/outbox.cif.g09.slc.cpg/sg12_72_cif.got.tgz:143160.got - 2010.06.28 00:19:55.
