data_PCOD8113514
_publ_section_title
;
Structure prediction by ZEFSAII (Michael W. Deem and Ramdas Pophale) SiO2 
 PCOD8113514
Probable space group: C 2/M
;
_chemical_formula_sum "Si O2"
_cell_formula_units_Z 64
_cell_length_a 11.542484
_cell_length_b 29.945739
_cell_length_c 14.807030
_cell_angle_alpha 90.000000
_cell_angle_beta 139.470330
_cell_angle_gamma 90.000000
_cell_volume 3325.905218
_symmetry_space_group_name_H-M "C 2/M"
_symmetry_group_IT_number 12
_symmetry_cell_setting 'monoclinic'
loop_
_space_group_symop_operation_xyz
x,y,z
-x,y,-z
-x,-y,-z
x,-y,z
1/2+x,1/2+y,z
1/2-x,1/2+y,-z
1/2-x,1/2-y,-z
1/2+x,1/2-y,z
loop_
_atom_site_type_symbol
_atom_site_label
_atom_site_fract_x
_atom_site_fract_y
_atom_site_fract_z
Si Si1 0.475348 0.173581 0.337204
Si Si2 0.947568 0.263067 0.152973
Si Si3 0.931822 0.882064 0.243679
Si Si4 0.792392 0.181617 0.658249
Si Si5 0.870840 0.338547 0.846142
Si Si6 0.893670 0.951961 0.527087
Si Si7 0.646959 0.949119 0.008846
Si Si8 0.052527 0.405952 0.263468
O O1 0.423764 0.207460 0.227693
O O2 0.669545 0.185070 0.495320
O O3 0.326311 0.178463 0.324072
O O4 0.464776 0.123198 0.291859
O O5 0.069474 0.221872 0.252545
O O6 0.057454 0.289966 0.140790
O O7 0.750000 0.250000 0.000000
O O8 0.826722 0.839586 0.226592
O O9 0.089256 0.863132 0.275089
O O10 0.013625 0.911677 0.369290
O O11 0.805922 0.914100 0.112106
O O12 0.860028 0.371200 0.754607
O O13 0.000000 0.358412 0.000000
O O14 0.691336 0.939275 0.389589
O O15 0.000000 0.959622 0.500000
O O16 0.896121 0.000000 0.580905
O O17 0.578336 0.938698 0.867767
O O18 0.717609 0.000000 0.054323
O O19 0.500000 0.942280 0.000000
#
# Coordination Sequence:
#
# PCOD8113514 Si02
#       8
#     8   8   8   8   8   8   8   8
#     4  10  25  46  62  89 122 167 218 250 313 379
#     4  11  26  42  67  93 123 156 208 272 312 375
#     4  12  21  38  62  91 127 166 201 255 317 370
#     4  11  25  44  66  86 123 171 211 262 308 375
#     4  11  21  37  59  90 126 160 199 247 314 383
#     4  11  21  34  58  97 131 157 204 259 311 370
#     4  11  21  36  61  95 132 164 201 251 316 381
#     4  11  19  39  60  86 125 167 203 246 310 369
#
# _framework density 19.242881000000001
#
# number of rings (size 3 to 8) (size 9 to 14) (size 15 to 20)
#    0.000    1.000    5.000    1.875    5.250    2.000 
#    0.000    0.000    0.000    4.500    0.000    0.000 
#    0.000    0.000    0.000    0.000    0.000    0.000 
#
# Total GULP energy -396608.359189 kJ/mol
# GULP energy per Si atom -12394.011225 kJ/mol
# Density = 1.919908 g / cm^3
# Si number density = 19.242881 Si / 1000 Ang^3
#
#
#
# Elastic Constant Matrix: (Units=GPa)
#
#
# Indices 1 2 3 4 5 6 
#
# 1 75.6909 51.8913 48.2192 0.0000 5.6935 0.0000
# 2 51.8913 127.4799 57.0041 0.0000 11.2724 0.0000
# 3 48.2192 57.0041 131.1074 0.0000 9.0958 0.0000
# 4 0.0000 0.0000 0.0000 38.6630 0.0000 6.3702
# 5 5.6935 11.2724 9.0958 0.0000 27.6569 0.0000
# 6 0.0000 0.0000 0.0000 6.3702 0.0000 25.0550
#
#
#
# Elastic Compliance Matrix: (Units=1/GPa)
#
#
# Indices 1 2 3 4 5 6 
#
# 1 0.020558 -0.006183 -0.004865 0.000000 -0.000112 0.000000
# 2 -0.006183 0.011789 -0.002667 0.000000 -0.002655 0.000000
# 3 -0.004865 -0.002667 0.010675 0.000000 -0.001422 0.000000
# 4 0.000000 0.000000 0.000000 0.026995 0.000000 -0.006864
# 5 -0.000112 -0.002655 -0.001422 0.000000 0.037730 0.000000
# 6 0.000000 0.000000 0.000000 -0.006864 0.000000 0.041657
#
#
# Mechanical properties :
#
#
# Convention : Reuss Voigt Hill
#
# Bulk Modulus (GPa) = 64.13856 72.05640 68.09748
# Shear Modulus (GPa) = 27.46764 30.08585 28.77674
#
# Velocity S-wave (km/s) = 3.78222 3.95838 3.87130
# Velocity P-wave (km/s) = 7.24410 7.64321 7.44633
#
# Compressibility (1/GPa) = 0.01559124
#
# Stress axis : x y z
#
# Youngs Moduli (GPa) = 48.64255 84.82690 93.67689
#
# Poissons Ratio (x) = 0.52448 0.45573
# Poissons Ratio (y) = 0.30076 0.24988
# Poissons Ratio (z) = 0.23664 0.22627
#
# Static dielectric constant tensor:
#      x y z
#    x 3.488520 0.000000 0.088750 
#    y 0.000000 3.921910 0.000000 
#    z 0.088750 0.000000 3.900400 
# 
# 
# High freq. dielectric constant tensor:
#      x y z
#    x 1.721750 0.000000 0.000530 
#    y 0.000000 1.760510 0.000000 
#    z 0.000530 0.000000 1.764110 
# 
# From -- ./inp_files/209865.got.cif
#   From: 2010.06.25/outbox.cif.g09.slc.cpg/sg12_105_cif.got.tgz:209865.got - 2010.06.28 00:19:55.
