data_PCOD8113827
_publ_section_title
;
Structure prediction by ZEFSAII (Michael W. Deem and Ramdas Pophale) SiO2 
 PCOD8113827
Probable space group: C 2/M
;
_chemical_formula_sum "Si O2"
_cell_formula_units_Z 56
_cell_length_a 18.202982
_cell_length_b 7.952593
_cell_length_c 20.282230
_cell_angle_alpha 90.000000
_cell_angle_beta 102.176663
_cell_angle_gamma 90.000000
_cell_volume 2870.017892
_symmetry_space_group_name_H-M "C 2/M"
_symmetry_group_IT_number 12
_symmetry_cell_setting 'monoclinic'
loop_
_space_group_symop_operation_xyz
x,y,z
-x,y,-z
-x,-y,-z
x,-y,z
1/2+x,1/2+y,z
1/2-x,1/2+y,-z
1/2-x,1/2-y,-z
1/2+x,1/2-y,z
loop_
_atom_site_type_symbol
_atom_site_label
_atom_site_fract_x
_atom_site_fract_y
_atom_site_fract_z
Si Si1 0.348124 0.302770 0.689718
Si Si2 0.937414 0.192338 0.438844
Si Si3 0.272867 0.191102 0.432770
Si Si4 0.372777 0.686816 0.839297
Si Si5 0.431614 0.000000 0.077474
Si Si6 0.453114 0.686786 0.163731
Si Si7 0.489238 0.192747 0.309798
Si Si8 0.106487 0.500000 0.075272
O O1 0.364586 0.500000 0.681684
O O2 0.279124 0.225927 0.634002
O O3 0.328920 0.271276 0.763143
O O4 0.421465 0.201180 0.681682
O O5 0.860103 0.288157 0.435050
O O6 0.964553 0.206446 0.369416
O O7 0.000000 0.269754 0.500000
O O8 0.922954 0.000000 0.455000
O O9 0.250000 0.250000 0.500000
O O10 0.251011 0.000000 0.424448
O O11 0.350103 0.500000 0.861754
O O12 0.460441 0.688208 0.839894
O O13 0.353620 0.831351 0.888922
O O14 0.409989 0.168786 0.114041
O O15 0.519750 0.000000 0.079028
O O16 0.383577 0.000000 0.001436
O O17 0.419121 0.500000 0.143051
O O18 0.445780 0.726442 0.239729
O O19 0.464498 0.000000 0.312207
#
# Coordination Sequence:
#
# PCOD8113827 Si02
#       8
#     8   8   8   8   4   8   8   4
#     4   9  19  34  52  74 103 139 176 220 271 323
#     4  11  24  40  55  75 106 141 177 223 273 323
#     4  11  23  39  56  78 107 138 176 223 269 323
#     4   8  15  27  42  64  95 134 173 212 263 312
#     4   9  16  26  38  66  99 136 176 210 262 315
#     4   9  16  28  44  65  98 136 175 217 263 314
#     4  11  20  32  54  79 102 136 183 226 266 325
#     4   9  16  24  40  64 100 134 173 218 251 317
#
# _framework density 19.512073999999998
#
# number of rings (size 3 to 8) (size 9 to 14) (size 15 to 20)
#    0.000    2.286    0.714    3.857    3.000    6.286 
#    0.000    2.857    0.000    0.000    0.000    0.000 
#    0.000    1.143    0.571    0.000    0.000    0.000 
#
# Total GULP energy -347109.571141 kJ/mol
# GULP energy per Si atom -12396.770398 kJ/mol
# Density = 1.946766 g / cm^3
# Si number density = 19.512074 Si / 1000 Ang^3
#
#
#
# Elastic Constant Matrix: (Units=GPa)
#
#
# Indices 1 2 3 4 5 6 
#
# 1 43.1050 11.8614 36.7308 0.0000 4.4599 0.0000
# 2 11.8614 112.6030 65.8983 0.0000 7.1449 0.0000
# 3 36.7308 65.8983 174.5601 0.0000 8.6799 0.0000
# 4 0.0000 0.0000 0.0000 30.3487 0.0000 -0.8741
# 5 4.4599 7.1449 8.6799 0.0000 17.4025 0.0000
# 6 0.0000 0.0000 0.0000 -0.8741 0.0000 15.6043
#
#
#
# Elastic Compliance Matrix: (Units=1/GPa)
#
#
# Indices 1 2 3 4 5 6 
#
# 1 0.028662 0.000860 -0.006125 0.000000 -0.004644 0.000000
# 2 0.000860 0.011541 -0.004400 0.000000 -0.002764 0.000000
# 3 -0.006125 -0.004400 0.008727 0.000000 -0.000977 0.000000
# 4 0.000000 0.000000 0.000000 0.033004 0.000000 0.001849
# 5 -0.004644 -0.002764 -0.000977 0.000000 0.060275 0.000000
# 6 0.000000 0.000000 0.000000 0.001849 0.000000 0.064188
#
#
# Mechanical properties :
#
#
# Convention : Reuss Voigt Hill
#
# Bulk Modulus (GPa) = 33.78429 62.13879 47.96154
# Shear Modulus (GPa) = 21.22301 27.05629 24.13965
#
# Velocity S-wave (km/s) = 3.30159 3.72781 3.52115
# Velocity P-wave (km/s) = 5.64678 7.10241 6.41601
#
# Compressibility (1/GPa) = 0.02959955
#
# Stress axis : x y z
#
# Youngs Moduli (GPa) = 34.88939 86.64996 114.58526
#
# Poissons Ratio (x) = -0.07450 0.70180
# Poissons Ratio (y) = -0.03000 0.50420
# Poissons Ratio (z) = 0.21369 0.38128
#
# Static dielectric constant tensor:
#      x y z
#    x 2.999790 0.000000 0.074730 
#    y 0.000000 3.762320 0.000000 
#    z 0.074730 0.000000 3.787050 
# 
# 
# High freq. dielectric constant tensor:
#      x y z
#    x 1.697950 0.000000 0.006480 
#    y 0.000000 1.772350 0.000000 
#    z 0.006480 0.000000 1.767330 
# 
# From -- ./inp_files/280459.got.cif
#   From: 2010.06.25/outbox.cif.g09.slc.cpg/sg12_141_cif.got.tgz:280459.got - 2010.06.28 00:19:55.
