data_PCOD8113452
_publ_section_title
;
Structure prediction by ZEFSAII (Michael W. Deem and Ramdas Pophale) SiO2 
 PCOD8113452
Probable space group: C 2/M
;
_chemical_formula_sum "Si O2"
_cell_formula_units_Z 56
_cell_length_a 17.317227
_cell_length_b 25.781768
_cell_length_c 6.504758
_cell_angle_alpha 90.000000
_cell_angle_beta 114.413966
_cell_angle_gamma 90.000000
_cell_volume 2644.488596
_symmetry_space_group_name_H-M "C 2/M"
_symmetry_group_IT_number 12
_symmetry_cell_setting 'monoclinic'
loop_
_space_group_symop_operation_xyz
x,y,z
-x,y,-z
-x,-y,-z
x,-y,z
1/2+x,1/2+y,z
1/2-x,1/2+y,-z
1/2-x,1/2-y,-z
1/2+x,1/2-y,z
loop_
_atom_site_type_symbol
_atom_site_label
_atom_site_fract_x
_atom_site_fract_y
_atom_site_fract_z
Si Si1 0.090575 0.060480 0.194116
Si Si2 0.261380 0.440884 0.965155
Si Si3 0.821535 0.127769 0.395421
Si Si4 0.919592 0.307163 0.047206
Si Si5 0.829024 0.237453 0.230570
Si Si6 0.590277 0.893983 0.647995
Si Si7 0.319778 0.180209 0.549705
O O1 0.103284 0.094169 0.417086
O O2 0.092519 0.000000 0.258508
O O3 0.163799 0.073342 0.110198
O O4 0.000000 0.076001 0.000000
O O5 0.268452 0.500000 0.041724
O O6 0.268376 0.407359 0.179024
O O7 0.169166 0.432859 0.757794
O O8 0.852728 0.177703 0.299550
O O9 0.765625 0.146267 0.529731
O O10 0.910903 0.262402 0.209198
O O11 0.923151 0.363337 0.154664
O O12 0.838963 0.307020 0.807921
O O13 0.000000 0.293772 0.000000
O O14 0.807987 0.265483 0.421830
O O15 0.750000 0.250000 0.000000
O O16 0.500000 0.922575 0.500000
O O17 0.607774 0.853444 0.482629
#
# Coordination Sequence:
#
# PCOD8113452 Si02
#       7
#     8   8   8   8   8   8   8
#     4  10  24  46  71  93 123 170 222 284 349 393
#     4  11  24  42  67 100 129 166 223 276 326 394
#     4  12  22  41  70  92 130 172 217 270 332 392
#     4  11  22  39  62  92 132 176 212 256 312 382
#     4  11  24  37  63  96 126 172 221 259 314 389
#     4  11  21  37  66  99 132 174 222 256 318 393
#     4  11  21  38  65  91 126 175 215 256 310 390
#
# _framework density 21.176117000000001
#
# number of rings (size 3 to 8) (size 9 to 14) (size 15 to 20)
#    0.000    1.000    5.714    1.714    0.000    0.857 
#    0.000    6.429    0.000    1.286    0.000    0.000 
#    0.000    0.000    0.000    0.000    0.000    0.000 
#
# Total GULP energy -347126.425555 kJ/mol
# GULP energy per Si atom -12397.372341 kJ/mol
# Density = 2.112792 g / cm^3
# Si number density = 21.176117 Si / 1000 Ang^3
#
#
#
# Elastic Constant Matrix: (Units=GPa)
#
#
# Indices 1 2 3 4 5 6 
#
# 1 110.8241 35.8862 36.4043 0.0000 4.6699 0.0000
# 2 35.8862 113.6394 52.5872 0.0000 -0.3548 0.0000
# 3 36.4043 52.5872 118.8445 0.0000 9.1623 0.0000
# 4 0.0000 0.0000 0.0000 36.8699 0.0000 -2.9558
# 5 4.6699 -0.3548 9.1623 0.0000 40.0238 0.0000
# 6 0.0000 0.0000 0.0000 -2.9558 0.0000 22.7717
#
#
#
# Elastic Compliance Matrix: (Units=1/GPa)
#
#
# Indices 1 2 3 4 5 6 
#
# 1 0.010511 -0.002337 -0.002127 0.000000 -0.000760 0.000000
# 2 -0.002337 0.011646 -0.004547 0.000000 0.001417 0.000000
# 3 -0.002127 -0.004547 0.011260 0.000000 -0.002370 0.000000
# 4 0.000000 0.000000 0.000000 0.027408 0.000000 0.003558
# 5 -0.000760 0.001417 -0.002370 0.000000 0.025629 0.000000
# 6 0.000000 0.000000 0.000000 0.003558 0.000000 0.044376
#
#
# Mechanical properties :
#
#
# Convention : Reuss Voigt Hill
#
# Bulk Modulus (GPa) = 64.95222 65.89593 65.42407
# Shear Modulus (GPa) = 32.47102 34.49509 33.48305
#
# Velocity S-wave (km/s) = 3.92009 4.04042 3.98071
# Velocity P-wave (km/s) = 7.15740 7.27683 7.21736
#
# Compressibility (1/GPa) = 0.01539593
#
# Stress axis : x y z
#
# Youngs Moduli (GPa) = 95.13983 85.86443 88.80734
#
# Poissons Ratio (x) = 0.20070 0.18887
# Poissons Ratio (y) = 0.22238 0.40377
# Poissons Ratio (z) = 0.20234 0.39039
#
# Static dielectric constant tensor:
#      x y z
#    x 3.866810 0.000000 0.006130 
#    y 0.000000 3.712530 0.000000 
#    z 0.006130 0.000000 3.941310 
# 
# 
# High freq. dielectric constant tensor:
#      x y z
#    x 1.832490 0.000000 -0.006360 
#    y 0.000000 1.816900 0.000000 
#    z -0.006360 0.000000 1.838960 
# 
# From -- ./inp_files/18384.got.cif
#   From: 2010.06.25/outbox.cif.g09.slc.cpg/sg12_10_cif.got.tgz:18384.got - 2010.06.28 00:19:55.
