data_PCOD8113756
_publ_section_title
;
Structure prediction by ZEFSAII (Michael W. Deem and Ramdas Pophale) SiO2 
 PCOD8113756
Probable space group: C 2/M
;
_chemical_formula_sum "Si O2"
_cell_formula_units_Z 64
_cell_length_a 28.007979
_cell_length_b 9.149065
_cell_length_c 22.752284
_cell_angle_alpha 90.000000
_cell_angle_beta 45.931964
_cell_angle_gamma 90.000000
_cell_volume 4189.083080
_symmetry_space_group_name_H-M "C 2/M"
_symmetry_group_IT_number 12
_symmetry_cell_setting 'monoclinic'
loop_
_space_group_symop_operation_xyz
x,y,z
-x,y,-z
-x,-y,-z
x,-y,z
1/2+x,1/2+y,z
1/2-x,1/2+y,-z
1/2-x,1/2-y,-z
1/2+x,1/2-y,z
loop_
_atom_site_type_symbol
_atom_site_label
_atom_site_fract_x
_atom_site_fract_y
_atom_site_fract_z
Si Si1 0.903825 0.834470 0.041110
Si Si2 0.996038 0.838596 0.573312
Si Si3 0.876086 0.674028 0.525945
Si Si4 0.711266 0.831244 0.815732
Si Si5 0.355308 0.670686 0.665618
Si Si6 0.343289 0.829900 0.262691
Si Si7 0.038159 0.166036 0.878657
Si Si8 0.736101 0.674564 0.450557
O O1 0.834502 0.747170 0.096086
O O2 0.930566 0.821658 0.083932
O O3 0.887988 0.000000 0.037702
O O4 0.961796 0.774260 0.947613
O O5 0.047694 0.720221 0.554361
O O6 0.000000 0.843206 0.500000
O O7 0.918985 0.796199 0.653039
O O8 0.012906 0.000000 0.584372
O O9 0.868968 0.500000 0.527502
O O10 0.855982 0.727880 0.607735
O O11 0.830451 0.753797 0.517617
O O12 0.788970 0.795168 0.759953
O O13 0.694277 0.778430 0.764212
O O14 0.695567 0.000000 0.836345
O O15 0.355270 0.500000 0.645010
O O16 0.416107 0.755968 0.205772
O O17 0.298079 0.784068 0.356076
O O18 0.356651 0.000000 0.250309
O O19 0.037281 0.000000 0.857521
O O20 0.727262 0.500000 0.463861
O O21 0.750000 0.750000 0.500000
#
# Coordination Sequence:
#
# PCOD8113756 Si02
#       8
#     8   8   8   8   8   8   8   8
#     4   8  14  23  33  51  76 103 130 162 196 230
#     4   8  15  27  43  58  77 107 136 166 205 245
#     4  11  20  29  43  61  80 104 135 172 211 248
#     4   9  15  24  38  56  78 106 136 167 199 236
#     4   9  16  28  42  58  82 111 140 169 205 244
#     4   9  17  28  42  56  74  99 131 171 207 239
#     4   8  14  24  37  51  73 100 131 163 195 237
#     4  11  22  36  48  61  81 104 137 177 216 254
#
# _framework density 15.277806
#
# number of rings (size 3 to 8) (size 9 to 14) (size 15 to 20)
#    0.000    2.875    1.250    3.000    0.000    4.250 
#    0.000    2.500    0.000    0.000    0.000    0.000 
#    0.000    0.000    0.000    1.125    0.000   14.250 
#
# Total GULP energy -396501.082286 kJ/mol
# GULP energy per Si atom -12390.658821 kJ/mol
# Density = 1.524303 g / cm^3
# Si number density = 15.277806 Si / 1000 Ang^3
#
#
#
# Elastic Constant Matrix: (Units=GPa)
#
#
# Indices 1 2 3 4 5 6 
#
# 1 68.4672 42.2255 52.5214 -0.0105 -26.4919 0.0038
# 2 42.2255 72.1748 44.0089 -0.0080 -17.0667 0.0112
# 3 52.5214 44.0089 93.2684 -0.0116 -38.5405 0.0071
# 4 -0.0105 -0.0080 -0.0116 23.1950 0.0113 -5.0876
# 5 -26.4919 -17.0667 -38.5405 0.0113 30.7262 -0.0023
# 6 0.0038 0.0112 0.0071 -5.0876 -0.0023 18.2587
#
#
#
# Elastic Compliance Matrix: (Units=1/GPa)
#
#
# Indices 1 2 3 4 5 6 
#
# 1 0.032087 -0.011132 -0.008179 0.000002 0.011224 0.000005
# 2 -0.011132 0.023346 -0.006965 0.000000 -0.005366 -0.000010
# 3 -0.008179 -0.006965 0.029275 -0.000005 0.025800 -0.000003
# 4 0.000002 0.000000 -0.000005 0.045919 -0.000020 0.012795
# 5 0.011224 -0.005366 0.025800 -0.000020 0.071603 -0.000005
# 6 0.000005 -0.000010 -0.000003 0.012795 -0.000005 0.058334
#
#
# Mechanical properties :
#
#
# Convention : Reuss Voigt Hill
#
# Bulk Modulus (GPa) = 31.09686 56.82465 43.96076
# Shear Modulus (GPa) = 15.44009 20.77961 18.10985
#
# Velocity S-wave (km/s) = 3.18248 3.69198 3.44665
# Velocity P-wave (km/s) = 5.82260 7.44643 6.68401
#
# Compressibility (1/GPa) = 0.03215758
#
# Stress axis : x y z
#
# Youngs Moduli (GPa) = 31.16489 42.83480 34.15931
#
# Poissons Ratio (x) = 0.47682 0.27938
# Poissons Ratio (y) = 0.34691 0.23791
# Poissons Ratio (z) = 0.25489 0.29833
#
# Static dielectric constant tensor:
#      x y z
#    x 2.880160 -0.000070 -0.596350 
#    y -0.000070 2.956780 0.000110 
#    z -0.596350 0.000110 3.122820 
# 
# 
# High freq. dielectric constant tensor:
#      x y z
#    x 1.543430 0.000000 -0.051370 
#    y 0.000000 1.585600 0.000000 
#    z -0.051370 0.000000 1.566390 
# 
# From -- ./inp_files/326851.got.cif
#   From: 2010.06.25/outbox.cif.g09.slc.cpg/sg12_164_cif.got.tgz:326851.got - 2010.06.28 00:19:55.
