data_PCOD8113801
_publ_section_title
;
Structure prediction by ZEFSAII (Michael W. Deem and Ramdas Pophale) SiO2 
 PCOD8113801
Probable space group: C 2/M
;
_chemical_formula_sum "Si O2"
_cell_formula_units_Z 48
_cell_length_a 20.617856
_cell_length_b 9.037712
_cell_length_c 23.339224
_cell_angle_alpha 90.000000
_cell_angle_beta 39.151715
_cell_angle_gamma 90.000000
_cell_volume 2745.847962
_symmetry_space_group_name_H-M "C 2/M"
_symmetry_group_IT_number 12
_symmetry_cell_setting 'monoclinic'
loop_
_space_group_symop_operation_xyz
x,y,z
-x,y,-z
-x,-y,-z
x,-y,z
1/2+x,1/2+y,z
1/2-x,1/2+y,-z
1/2-x,1/2-y,-z
1/2+x,1/2-y,z
loop_
_atom_site_type_symbol
_atom_site_label
_atom_site_fract_x
_atom_site_fract_y
_atom_site_fract_z
Si Si1 0.357889 0.673069 0.934807
Si Si2 0.643479 0.825012 0.556899
Si Si3 0.817602 0.825195 0.269775
Si Si4 0.396244 0.176023 0.544697
Si Si5 0.536712 0.327934 0.727739
Si Si6 0.490962 0.676742 0.070387
O O1 0.338489 0.500000 0.953293
O O2 0.427936 0.709344 0.831627
O O3 0.414365 0.729889 0.954279
O O4 0.250000 0.750000 0.000000
O O5 0.750000 0.750000 0.500000
O O6 0.612341 0.773727 0.514868
O O7 0.551398 0.770337 0.661068
O O8 0.656415 0.000000 0.552531
O O9 0.701386 0.762516 0.351787
O O10 0.872236 0.782864 0.291644
O O11 0.883639 0.762477 0.170935
O O12 0.815996 0.000000 0.265092
O O13 0.500000 0.244765 0.500000
O O14 0.397996 0.000000 0.547604
O O15 0.543624 0.500000 0.706531
O O16 0.490116 0.500000 0.069986
O O17 0.500000 0.741999 0.000000
#
# Coordination Sequence:
#
# PCOD8113801 Si02
#       6
#     8   8   8   8   8   8
#     4   9  18  32  51  73 101 130 157 197 249 294
#     4  11  20  31  51  76  98 125 164 205 239 286
#     4   8  13  25  45  64  89 124 158 193 236 282
#     4   9  17  29  44  67  97 125 155 196 245 283
#     4   9  17  32  51  71  96 132 167 195 237 289
#     4   8  14  26  45  69  91 120 163 202 236 278
#
# _framework density 17.480937999999998
#
# number of rings (size 3 to 8) (size 9 to 14) (size 15 to 20)
#    0.000    3.000    1.667    2.500    0.000    0.667 
#    3.000    0.000    0.000    2.500    0.000    0.000 
#    0.000    0.000    0.000    0.000    0.000    0.000 
#
# Total GULP energy -297430.732243 kJ/mol
# GULP energy per Si atom -12392.947177 kJ/mol
# Density = 1.744115 g / cm^3
# Si number density = 17.480938 Si / 1000 Ang^3
#
#
#
# Elastic Constant Matrix: (Units=GPa)
#
#
# Indices 1 2 3 4 5 6 
#
# 1 130.5257 25.4294 98.8411 0.0000 -3.0753 0.0000
# 2 25.4294 26.3505 29.7254 0.0001 3.7410 0.0001
# 3 98.8411 29.7254 166.8534 0.0000 -1.3677 0.0000
# 4 0.0000 0.0001 0.0000 25.7332 0.0000 -1.4589
# 5 -3.0753 3.7410 -1.3677 0.0000 35.6464 0.0000
# 6 0.0000 0.0001 0.0000 -1.4589 0.0000 18.5308
#
#
#
# Elastic Compliance Matrix: (Units=1/GPa)
#
#
# Indices 1 2 3 4 5 6 
#
# 1 0.014563 -0.005705 -0.007598 0.000000 0.001564 0.000000
# 2 -0.005705 0.050757 -0.005712 0.000000 -0.006038 0.000000
# 3 -0.007598 -0.005712 0.011515 0.000000 0.000386 0.000000
# 4 0.000000 0.000000 0.000000 0.039035 0.000000 0.003073
# 5 0.001564 -0.006038 0.000386 0.000000 0.028837 0.000000
# 6 0.000000 0.000000 0.000000 0.003073 0.000000 0.054206
#
#
# Mechanical properties :
#
#
# Convention : Reuss Voigt Hill
#
# Bulk Modulus (GPa) = 25.77024 70.19127 47.98075
# Shear Modulus (GPa) = 20.00980 27.29766 23.65373
#
# Velocity S-wave (km/s) = 3.38696 3.95595 3.68246
# Velocity P-wave (km/s) = 5.48354 7.81705 6.75187
#
# Compressibility (1/GPa) = 0.03880446
#
# Stress axis : x y z
#
# Youngs Moduli (GPa) = 68.66691 19.70172 86.84431
#
# Poissons Ratio (x) = 0.11240 0.65982
# Poissons Ratio (y) = 0.39176 0.49608
# Poissons Ratio (z) = 0.52171 0.11254
#
# Static dielectric constant tensor:
#      x y z
#    x 3.359590 0.000000 -0.027550 
#    y 0.000000 2.769740 0.000000 
#    z -0.027550 0.000000 4.044380 
# 
# 
# High freq. dielectric constant tensor:
#      x y z
#    x 1.662640 0.000000 0.001070 
#    y 0.000000 1.622830 0.000000 
#    z 0.001070 0.000000 1.694060 
# 
# From -- ./inp_files/345388.got.cif
#   From: 2010.06.25/outbox.cif.g09.slc.cpg/sg12_173_cif.got.tgz:345388.got - 2010.06.28 00:19:55.
