data_PCOD8113873
_publ_section_title
;
Structure prediction by ZEFSAII (Michael W. Deem and Ramdas Pophale) SiO2 
 PCOD8113873
Probable space group: C 2/M
;
_chemical_formula_sum "Si O2"
_cell_formula_units_Z 40
_cell_length_a 22.069903
_cell_length_b 10.115069
_cell_length_c 30.502186
_cell_angle_alpha 90.000000
_cell_angle_beta 161.382090
_cell_angle_gamma 90.000000
_cell_volume 2173.895692
_symmetry_space_group_name_H-M "C 2/M"
_symmetry_group_IT_number 12
_symmetry_cell_setting 'monoclinic'
loop_
_space_group_symop_operation_xyz
x,y,z
-x,y,-z
-x,-y,-z
x,-y,z
1/2+x,1/2+y,z
1/2-x,1/2+y,-z
1/2-x,1/2-y,-z
1/2+x,1/2-y,z
loop_
_atom_site_type_symbol
_atom_site_label
_atom_site_fract_x
_atom_site_fract_y
_atom_site_fract_z
Si Si1 0.185265 0.500000 0.298943
Si Si2 0.487563 0.745562 0.615666
Si Si3 0.068643 0.157019 0.329593
Si Si4 0.203070 0.000000 0.306095
Si Si5 0.457449 0.737490 0.161487
Si Si6 0.073409 0.000000 0.617015
Si Si7 0.536934 0.000000 0.599902
O O1 0.384484 0.500000 0.459392
O O2 0.235867 0.500000 0.281891
O O3 0.064666 0.374840 0.230722
O O4 0.262109 0.761314 0.455197
O O5 0.536757 0.717324 0.700148
O O6 0.575913 0.628414 0.648457
O O7 0.585322 0.876953 0.664088
O O8 0.936843 0.188040 0.197564
O O9 0.106014 0.000000 0.361878
O O10 0.318833 0.000000 0.431918
O O11 0.336686 0.000000 0.356217
O O12 0.074779 0.870514 0.214828
O O13 0.250000 0.750000 0.000000
#
# Coordination Sequence:
#
# PCOD8113873 Si02
#       7
#     4   8   8   4   8   4   4
#     4  11  23  35  55  90 114 149 190 239 289 326
#     4  11  20  34  58  88 117 148 183 241 292 340
#     4  11  21  36  57  84 120 152 192 228 293 345
#     4  11  21  39  59  88 118 155 192 227 301 338
#     4  12  23  39  59  82 119 154 196 233 273 346
#     4  11  20  36  56  85 125 140 182 245 294 340
#     4  11  20  36  64  87 119 148 186 247 286 350
#
# _framework density 18.400145999999999
#
# number of rings (size 3 to 8) (size 9 to 14) (size 15 to 20)
#    0.000    0.800    7.000    1.800    0.000    4.000 
#    0.000    0.000    0.000    7.200    0.000    0.000 
#    0.000    0.000    0.000    0.000    0.000    0.000 
#
# Total GULP energy -247999.411259 kJ/mol
# GULP energy per Si atom -12399.970563 kJ/mol
# Density = 1.835827 g / cm^3
# Si number density = 18.400146 Si / 1000 Ang^3
#
#
#
# Elastic Constant Matrix: (Units=GPa)
#
#
# Indices 1 2 3 4 5 6 
#
# 1 126.2414 48.8373 20.6358 0.0061 -6.2526 0.0269
# 2 48.8373 149.6272 18.8314 0.0403 6.2557 0.0164
# 3 20.6358 18.8314 64.7403 0.0169 -6.0314 -0.0193
# 4 0.0061 0.0403 0.0169 18.0380 -0.0299 -8.7442
# 5 -6.2526 6.2557 -6.0314 -0.0299 19.9025 -0.0195
# 6 0.0269 0.0164 -0.0193 -8.7442 -0.0195 41.7268
#
#
#
# Elastic Compliance Matrix: (Units=1/GPa)
#
#
# Indices 1 2 3 4 5 6 
#
# 1 0.009565 -0.003031 -0.001851 0.000010 0.003397 -0.000002
# 2 -0.003031 0.008061 -0.001753 -0.000027 -0.004017 -0.000009
# 3 -0.001851 -0.001753 0.017024 0.000003 0.005129 0.000013
# 4 0.000010 -0.000027 0.000003 0.061707 0.000118 0.012931
# 5 0.003397 -0.004017 0.005129 0.000118 0.054129 0.000052
# 6 -0.000002 -0.000009 0.000013 0.012931 0.000052 0.026675
#
#
# Mechanical properties :
#
#
# Convention : Reuss Voigt Hill
#
# Bulk Modulus (GPa) = 46.77123 57.46863 52.11993
# Shear Modulus (GPa) = 25.30908 32.75375 29.03141
#
# Velocity S-wave (km/s) = 3.71277 4.22368 3.97644
# Velocity P-wave (km/s) = 6.62221 7.42202 7.03350
#
# Compressibility (1/GPa) = 0.02138066
#
# Stress axis : x y z
#
# Youngs Moduli (GPa) = 104.55211 124.05206 58.74091
#
# Poissons Ratio (x) = 0.37599 0.10871
# Poissons Ratio (y) = 0.31689 0.10297
# Poissons Ratio (z) = 0.19349 0.21746
#
# Static dielectric constant tensor:
#      x y z
#    x 3.739700 -0.000400 0.010750 
#    y -0.000400 3.325890 -0.004360 
#    z 0.010750 -0.004360 3.146880 
# 
# 
# High freq. dielectric constant tensor:
#      x y z
#    x 1.734330 0.000000 0.002060 
#    y 0.000000 1.735940 -0.000020 
#    z 0.002060 -0.000020 1.662290 
# 
# From -- ./inp_files/380915.got.cif
#   From: 2010.06.25/outbox.cif.g09.slc.cpg/sg12_191_cif.got.tgz:380915.got - 2010.06.28 00:19:55.
