data_PCOD8113628
_publ_section_title
;
Structure prediction by ZEFSAII (Michael W. Deem and Ramdas Pophale) SiO2 
 PCOD8113628
Probable space group: C 2/M
;
_chemical_formula_sum "Si O2"
_cell_formula_units_Z 64
_cell_length_a 18.353422
_cell_length_b 24.176928
_cell_length_c 14.365066
_cell_angle_alpha 90.000000
_cell_angle_beta 147.803581
_cell_angle_gamma 90.000000
_cell_volume 3396.323677
_symmetry_space_group_name_H-M "C 2/M"
_symmetry_group_IT_number 12
_symmetry_cell_setting 'monoclinic'
loop_
_space_group_symop_operation_xyz
x,y,z
-x,y,-z
-x,-y,-z
x,-y,z
1/2+x,1/2+y,z
1/2-x,1/2+y,-z
1/2-x,1/2-y,-z
1/2+x,1/2-y,z
loop_
_atom_site_type_symbol
_atom_site_label
_atom_site_fract_x
_atom_site_fract_y
_atom_site_fract_z
Si Si1 0.901963 0.754570 0.982429
Si Si2 0.242104 0.065077 0.110587
Si Si3 0.864702 0.281075 0.405670
Si Si4 0.799867 0.798314 0.484413
Si Si5 0.987887 0.863808 0.812494
Si Si6 0.974528 0.353789 0.866955
Si Si7 0.742613 0.895303 0.661437
Si Si8 0.492479 0.063181 0.718272
O O1 0.744809 0.763911 0.789757
O O2 0.000000 0.753543 0.000000
O O3 0.950436 0.804239 0.098598
O O4 0.917886 0.694366 0.047616
O O5 0.260370 0.083207 0.236887
O O6 0.379267 0.083073 0.205195
O O7 0.216653 0.000000 0.077824
O O8 0.112352 0.095152 0.922093
O O9 0.893323 0.230977 0.507322
O O10 0.811480 0.332996 0.407205
O O11 0.000000 0.299270 0.500000
O O12 0.750000 0.750000 0.500000
O O13 0.884048 0.850143 0.616650
O O14 0.673589 0.825902 0.295626
O O15 0.900687 0.893952 0.799557
O O16 0.987392 0.403371 0.808450
O O17 0.000000 0.375643 0.000000
O O18 0.647107 0.932287 0.492129
O O19 0.511591 0.000000 0.768251
#
# Coordination Sequence:
#
# PCOD8113628 Si02
#       8
#     8   8   8   8   8   8   8   8
#     4  11  18  37  59  86 121 160 196 238 299 366
#     4  11  25  42  60  89 129 164 202 255 310 363
#     4  12  23  35  58  93 127 160 200 247 304 366
#     4  12  20  38  60  90 128 163 196 251 306 357
#     4  12  22  37  62  89 128 165 205 241 298 365
#     4  11  21  40  69  88 115 160 210 254 305 364
#     4  12  21  38  64  91 124 166 205 245 299 372
#     4  11  25  43  62  89 123 160 207 264 312 354
#
# _framework density 18.843904999999999
#
# number of rings (size 3 to 8) (size 9 to 14) (size 15 to 20)
#    0.000    0.500    8.750    1.875    0.000    3.750 
#    0.000    1.250    0.000    0.000    0.000    1.750 
#    0.000    0.000    0.000    0.000    0.000    0.000 
#
# Total GULP energy -396765.463724 kJ/mol
# GULP energy per Si atom -12398.920741 kJ/mol
# Density = 1.880102 g / cm^3
# Si number density = 18.843905 Si / 1000 Ang^3
#
#
#
# Elastic Constant Matrix: (Units=GPa)
#
#
# Indices 1 2 3 4 5 6 
#
# 1 54.5788 24.7485 23.9236 0.0000 0.1177 0.0000
# 2 24.7485 80.5492 23.5476 0.0000 -0.7516 0.0000
# 3 23.9236 23.5476 99.3487 0.0000 -1.6116 0.0000
# 4 0.0000 0.0000 0.0000 24.2773 0.0000 0.6645
# 5 0.1177 -0.7516 -1.6116 0.0000 31.9757 0.0000
# 6 0.0000 0.0000 0.0000 0.6645 0.0000 27.8712
#
#
#
# Elastic Compliance Matrix: (Units=1/GPa)
#
#
# Indices 1 2 3 4 5 6 
#
# 1 0.022752 -0.005792 -0.004113 0.000000 -0.000427 0.000000
# 2 -0.005792 0.014814 -0.002112 0.000000 0.000263 0.000000
# 3 -0.004113 -0.002112 0.011566 0.000000 0.000548 0.000000
# 4 0.000000 0.000000 0.000000 0.041218 0.000000 -0.000983
# 5 -0.000427 0.000263 0.000548 0.000000 0.031309 0.000000
# 6 0.000000 0.000000 0.000000 -0.000983 0.000000 0.035903
#
#
# Mechanical properties :
#
#
# Convention : Reuss Voigt Hill
#
# Bulk Modulus (GPa) = 39.84468 42.10179 40.97323
# Shear Modulus (GPa) = 26.32101 27.64197 26.98149
#
# Velocity S-wave (km/s) = 3.74142 3.83416 3.78807
# Velocity P-wave (km/s) = 6.31307 6.48012 6.39714
#
# Compressibility (1/GPa) = 0.02509745
#
# Stress axis : x y z
#
# Youngs Moduli (GPa) = 43.95151 67.50206 86.46399
#
# Poissons Ratio (x) = 0.39099 0.35562
# Poissons Ratio (y) = 0.25458 0.18263
# Poissons Ratio (z) = 0.18077 0.14258
#
# Static dielectric constant tensor:
#      x y z
#    x 3.309870 0.000000 -0.009680 
#    y 0.000000 3.639400 0.000000 
#    z -0.009680 0.000000 3.807580 
# 
# 
# High freq. dielectric constant tensor:
#      x y z
#    x 1.708410 0.000000 0.002500 
#    y 0.000000 1.729700 0.000000 
#    z 0.002500 0.000000 1.745930 
# 
# From -- ./inp_files/228159.got.cif
#   From: 2010.06.25/outbox.cif.g09.slc.cpg/sg12_115_cif.got.tgz:228159.got - 2010.06.28 00:19:55.
