data_PCOD8113044
_publ_section_title
;
Structure prediction by ZEFSAII (Michael W. Deem and Ramdas Pophale) SiO2 
 PCOD8113044
Probable space group: C 2/M
;
_chemical_formula_sum "Si O2"
_cell_formula_units_Z 56
_cell_length_a 11.945482
_cell_length_b 16.496337
_cell_length_c 12.507877
_cell_angle_alpha 90.000000
_cell_angle_beta 80.926656
_cell_angle_gamma 90.000000
_cell_volume 2433.920062
_symmetry_space_group_name_H-M "C 2/M"
_symmetry_group_IT_number 12
_symmetry_cell_setting 'monoclinic'
loop_
_space_group_symop_operation_xyz
x,y,z
-x,y,-z
-x,-y,-z
x,-y,z
1/2+x,1/2+y,z
1/2-x,1/2+y,-z
1/2-x,1/2-y,-z
1/2+x,1/2-y,z
loop_
_atom_site_type_symbol
_atom_site_label
_atom_site_fract_x
_atom_site_fract_y
_atom_site_fract_z
Si Si1 0.780520 0.093115 0.537324
Si Si2 0.271356 0.595864 0.777374
Si Si3 0.567182 0.806134 0.585166
Si Si4 0.971266 0.406215 0.117195
Si Si5 0.641082 0.652368 0.684753
Si Si6 0.472058 0.594785 0.887388
Si Si7 0.622476 0.906592 0.285585
O O1 0.818550 0.119046 0.651560
O O2 0.677842 0.151697 0.518334
O O3 0.873005 0.107503 0.429331
O O4 0.741252 0.000000 0.543983
O O5 0.271830 0.500000 0.788161
O O6 0.143741 0.631495 0.812503
O O7 0.356592 0.632666 0.854045
O O8 0.500000 0.759511 0.500000
O O9 0.598839 0.744445 0.675689
O O10 0.489190 0.879994 0.634671
O O11 0.942873 0.500000 0.103185
O O12 0.085754 0.395733 0.168035
O O13 0.000000 0.363601 0.000000
O O14 0.571397 0.608564 0.787558
O O15 0.770916 0.650241 0.705219
O O16 0.455386 0.500000 0.906836
O O17 0.500000 0.634069 0.000000
O O18 0.652297 0.000000 0.308830
#
# Coordination Sequence:
#
# PCOD8113044 Si02
#       7
#     8   8   8   8   8   8   8
#     4  11  22  41  70 101 134 175 235 293 341 410
#     4   9  19  35  60  95 131 170 216 282 348 397
#     4  12  26  42  65  98 143 189 220 279 365 425
#     4   9  18  34  63 100 131 167 225 294 347 392
#     4  12  27  41  65 103 141 180 227 288 353 423
#     4  10  23  43  67  95 136 189 240 289 346 417
#     4  11  23  43  72 102 134 179 242 295 341 414
#
# _framework density 23.008153
#
# number of rings (size 3 to 8) (size 9 to 14) (size 15 to 20)
#    0.000    1.429    2.857    2.143    4.000    0.571 
#    0.000    2.857    0.000    2.571    0.000    0.000 
#    0.000    0.000    0.000    0.000    0.000    0.000 
#
# Total GULP energy -346991.939713 kJ/mol
# GULP energy per Si atom -12392.569275 kJ/mol
# Density = 2.295579 g / cm^3
# Si number density = 23.008153 Si / 1000 Ang^3
#
#
#
# Elastic Constant Matrix: (Units=GPa)
#
#
# Indices 1 2 3 4 5 6 
#
# 1 110.3755 27.7933 59.1710 0.0000 23.5603 0.0000
# 2 27.7933 45.5571 14.0922 0.0000 15.6752 0.0000
# 3 59.1710 14.0922 181.4069 0.0000 15.0280 0.0000
# 4 0.0000 0.0000 0.0000 17.2816 0.0000 4.9633
# 5 23.5603 15.6752 15.0280 0.0000 38.0380 0.0000
# 6 0.0000 0.0000 0.0000 4.9633 0.0000 22.7171
#
#
#
# Elastic Compliance Matrix: (Units=1/GPa)
#
#
# Indices 1 2 3 4 5 6 
#
# 1 0.013309 -0.005441 -0.003537 0.000000 -0.004604 0.000000
# 2 -0.005441 0.028037 0.000284 0.000000 -0.008296 0.000000
# 3 -0.003537 0.000284 0.006691 0.000000 -0.000570 0.000000
# 4 0.000000 0.000000 0.000000 0.061739 0.000000 -0.013489
# 5 -0.004604 -0.008296 -0.000570 0.000000 0.032785 0.000000
# 6 0.000000 0.000000 0.000000 -0.013489 0.000000 0.046967
#
#
# Mechanical properties :
#
#
# Convention : Reuss Voigt Hill
#
# Bulk Modulus (GPa) = 32.62817 59.93917 46.28367
# Shear Modulus (GPa) = 23.02747 31.35954 27.19351
#
# Velocity S-wave (km/s) = 3.16704 3.69585 3.44162
# Velocity P-wave (km/s) = 5.25218 6.65735 5.99607
#
# Compressibility (1/GPa) = 0.03064836
#
# Stress axis : x y z
#
# Youngs Moduli (GPa) = 75.13708 35.66762 149.44750
#
# Poissons Ratio (x) = 0.19408 0.52860
# Poissons Ratio (y) = 0.40885 -0.04246
# Poissons Ratio (z) = 0.26576 -0.01013
#
# Static dielectric constant tensor:
#      x y z
#    x 4.346220 0.000000 0.285420 
#    y 0.000000 3.706950 0.000000 
#    z 0.285420 0.000000 4.478690 
# 
# 
# High freq. dielectric constant tensor:
#      x y z
#    x 1.907960 0.000000 0.014460 
#    y 0.000000 1.869130 0.000000 
#    z 0.014460 0.000000 1.922230 
# 
# From -- ./inp_files/133131.got.cif
#   From: 2010.06.25/outbox.cif.g09.slc.cpg/sg12_67_cif.got.tgz:133131.got - 2010.06.28 00:19:55.
