data_PCOD8113049
_publ_section_title
;
Structure prediction by ZEFSAII (Michael W. Deem and Ramdas Pophale) SiO2 
 PCOD8113049
Probable space group: C 2/M
;
_chemical_formula_sum "Si O2"
_cell_formula_units_Z 56
_cell_length_a 9.192510
_cell_length_b 17.224624
_cell_length_c 26.055494
_cell_angle_alpha 90.000000
_cell_angle_beta 139.370674
_cell_angle_gamma 90.000000
_cell_volume 2686.412652
_symmetry_space_group_name_H-M "C 2/M"
_symmetry_group_IT_number 12
_symmetry_cell_setting 'monoclinic'
loop_
_space_group_symop_operation_xyz
x,y,z
-x,y,-z
-x,-y,-z
x,-y,z
1/2+x,1/2+y,z
1/2-x,1/2+y,-z
1/2-x,1/2-y,-z
1/2+x,1/2-y,z
loop_
_atom_site_type_symbol
_atom_site_label
_atom_site_fract_x
_atom_site_fract_y
_atom_site_fract_z
Si Si1 0.125564 0.854808 0.196773
Si Si2 0.261863 0.587034 0.568673
Si Si3 0.826548 0.181153 0.679138
Si Si4 0.942848 0.589817 0.739232
Si Si5 0.421084 0.331436 0.420801
Si Si6 0.332770 0.812306 0.810418
Si Si7 0.353739 0.911535 0.913856
O O1 0.250617 0.845535 0.285176
O O2 0.298162 0.895065 0.204253
O O3 0.038566 0.769846 0.155233
O O4 0.908231 0.908386 0.142991
O O5 0.337955 0.500000 0.574428
O O6 0.344449 0.605468 0.648139
O O7 0.364520 0.648519 0.556563
O O8 0.000000 0.596258 0.500000
O O9 0.652537 0.243072 0.609607
O O10 0.076273 0.215491 0.749089
O O11 0.910393 0.500000 0.744835
O O12 0.783299 0.611191 0.648386
O O13 0.866886 0.642290 0.766574
O O14 0.500000 0.342848 0.500000
O O15 0.417844 0.863209 0.880522
O O16 0.420297 0.000000 0.920280
O O17 0.500000 0.878581 0.000000
#
# Coordination Sequence:
#
# PCOD8113049 Si02
#       7
#     8   8   8   8   8   8   8
#     4  11  22  41  66  96 125 162 212 260 304 369
#     4  11  26  43  60  86 122 163 212 266 324 380
#     4  11  22  42  66  88 118 168 216 259 309 382
#     4  12  24  40  63  94 125 163 211 265 317 366
#     4  12  26  42  63  89 124 168 213 268 323 371
#     4  11  21  42  68  92 125 166 210 252 309 377
#     4  10  23  43  67  97 132 167 203 248 309 379
#
# _framework density 20.845644
#
# number of rings (size 3 to 8) (size 9 to 14) (size 15 to 20)
#    0.000    0.857    4.286    2.571    2.000    5.714 
#    0.000    0.714    0.000    2.571    0.000    0.000 
#    0.000    0.000    0.000    0.000    0.000    0.000 
#
# Total GULP energy -347267.437096 kJ/mol
# GULP energy per Si atom -12402.408468 kJ/mol
# Density = 2.079820 g / cm^3
# Si number density = 20.845644 Si / 1000 Ang^3
#
#
#
# Elastic Constant Matrix: (Units=GPa)
#
#
# Indices 1 2 3 4 5 6 
#
# 1 104.2905 27.0831 32.9119 0.0000 -11.9214 0.0000
# 2 27.0831 78.5448 31.2256 0.0000 -8.9541 0.0000
# 3 32.9119 31.2256 90.1075 0.0002 -24.4456 0.0001
# 4 0.0000 0.0000 0.0002 28.3941 0.0000 -0.1609
# 5 -11.9214 -8.9541 -24.4456 0.0000 29.3175 0.0000
# 6 0.0000 0.0000 0.0001 -0.1609 0.0000 38.1858
#
#
#
# Elastic Compliance Matrix: (Units=1/GPa)
#
#
# Indices 1 2 3 4 5 6 
#
# 1 0.011328 -0.002612 -0.002842 0.000000 0.001439 0.000000
# 2 -0.002612 0.015370 -0.004377 0.000000 -0.000017 0.000000
# 3 -0.002842 -0.004377 0.016770 0.000000 0.011491 0.000000
# 4 0.000000 0.000000 0.000000 0.035219 0.000000 0.000148
# 5 0.001439 -0.000017 0.011491 0.000000 0.044270 0.000000
# 6 0.000000 0.000000 0.000000 0.000148 0.000000 0.026188
#
#
# Mechanical properties :
#
#
# Convention : Reuss Voigt Hill
#
# Bulk Modulus (GPa) = 42.00601 50.59823 46.30212
# Shear Modulus (GPa) = 28.28933 31.29431 29.79182
#
# Velocity S-wave (km/s) = 3.68786 3.87879 3.78453
# Velocity P-wave (km/s) = 6.19100 6.66224 6.43094
#
# Compressibility (1/GPa) = 0.02380611
#
# Stress axis : x y z
#
# Youngs Moduli (GPa) = 88.27408 65.06004 59.62989
#
# Poissons Ratio (x) = 0.16995 0.16948
# Poissons Ratio (y) = 0.23059 0.26100
# Poissons Ratio (z) = 0.25089 0.28477
#
# Static dielectric constant tensor:
#      x y z
#    x 3.878700 0.000000 -0.007590 
#    y 0.000000 3.827230 0.000000 
#    z -0.007590 0.000000 3.661900 
# 
# 
# High freq. dielectric constant tensor:
#      x y z
#    x 1.825220 0.000000 0.000030 
#    y 0.000000 1.823950 0.000000 
#    z 0.000030 0.000000 1.797490 
# 
# From -- ./inp_files/356760.got.cif
#   From: 2010.06.25/outbox.cif.g09.slc.cpg/sg12_179_cif.got.tgz:356760.got - 2010.06.28 00:19:55.
