data_PCOD8113840
_publ_section_title
;
Structure prediction by ZEFSAII (Michael W. Deem and Ramdas Pophale) SiO2 
 PCOD8113840
Probable space group: C 2/M
;
_chemical_formula_sum "Si O2"
_cell_formula_units_Z 36
_cell_length_a 15.942431
_cell_length_b 23.111817
_cell_length_c 16.321863
_cell_angle_alpha 90.000000
_cell_angle_beta 162.469538
_cell_angle_gamma 90.000000
_cell_volume 1811.472749
_symmetry_space_group_name_H-M "C 2/M"
_symmetry_group_IT_number 12
_symmetry_cell_setting 'monoclinic'
loop_
_space_group_symop_operation_xyz
x,y,z
-x,y,-z
-x,-y,-z
x,-y,z
1/2+x,1/2+y,z
1/2-x,1/2+y,-z
1/2-x,1/2-y,-z
1/2+x,1/2-y,z
loop_
_atom_site_type_symbol
_atom_site_label
_atom_site_fract_x
_atom_site_fract_y
_atom_site_fract_z
Si Si1 0.205688 0.500000 0.768795
Si Si2 0.797246 0.618791 0.146126
Si Si3 0.751001 0.689611 0.949914
Si Si4 0.773768 0.332896 0.349864
Si Si5 0.174364 0.799905 0.587837
O O1 0.164048 0.552267 0.794104
O O2 0.000000 0.500000 0.500000
O O3 0.500000 0.500000 0.000000
O O4 0.090675 0.651998 0.435583
O O5 0.722035 0.633629 0.982001
O O6 0.535071 0.643366 0.954290
O O7 0.482980 0.692857 0.643663
O O8 0.750000 0.750000 0.000000
O O9 0.016198 0.676225 0.139134
O O10 0.768813 0.265247 0.331316
O O11 0.000000 0.363638 0.500000
O O12 0.000000 0.830110 0.500000
#
# Coordination Sequence:
#
# PCOD8113840 Si02
#       5
#     4   8   8   8   8
#     4  12  26  44  58  84 121 162 209 240 278 344
#     4  12  23  36  58  79 113 157 197 243 285 328
#     4  12  21  37  56  87 116 151 196 242 297 353
#     4  11  20  33  53  81 113 153 191 229 286 347
#     4  11  22  36  55  84 120 152 186 234 298 368
#
# _framework density 19.873332000000001
#
# number of rings (size 3 to 8) (size 9 to 14) (size 15 to 20)
#    0.000    0.444    4.444    6.667    0.000    3.556 
#    0.000    0.000    0.000    0.000    0.000    4.667 
#    0.000    0.000    0.000    0.000    0.000    0.000 
#
# Total GULP energy -223038.736596 kJ/mol
# GULP energy per Si atom -12391.040922 kJ/mol
# Density = 1.982810 g / cm^3
# Si number density = 19.873332 Si / 1000 Ang^3
#
#
#
# Elastic Constant Matrix: (Units=GPa)
#
#
# Indices 1 2 3 4 5 6 
#
# 1 90.4547 34.7102 -4.5151 -0.0020 12.0416 0.0007
# 2 34.7102 79.5222 16.8488 -0.0022 -6.9866 0.0006
# 3 -4.5151 16.8488 73.1961 -0.0034 7.0274 0.0022
# 4 -0.0020 -0.0022 -0.0034 19.7446 -0.0001 -6.8545
# 5 12.0416 -6.9866 7.0274 -0.0001 42.1122 0.0006
# 6 0.0007 0.0006 0.0022 -6.8545 0.0006 28.8292
#
#
#
# Elastic Compliance Matrix: (Units=1/GPa)
#
#
# Indices 1 2 3 4 5 6 
#
# 1 0.015034 -0.007804 0.003314 0.000001 -0.006146 0.000000
# 2 -0.007804 0.017591 -0.005107 0.000000 0.006002 0.000000
# 3 0.003314 -0.005107 0.015462 0.000002 -0.004375 -0.000001
# 4 0.000001 0.000000 0.000002 0.055203 -0.000001 0.013125
# 5 -0.006146 0.006002 -0.004375 -0.000001 0.027229 0.000000
# 6 0.000000 0.000000 -0.000001 0.013125 0.000000 0.037808
#
#
# Mechanical properties :
#
#
# Convention : Reuss Voigt Hill
#
# Bulk Modulus (GPa) = 34.61141 37.47342 36.04242
# Shear Modulus (GPa) = 25.36121 31.21248 28.28685
#
# Velocity S-wave (km/s) = 3.57619 3.96734 3.77683
# Velocity P-wave (km/s) = 5.87418 6.31534 6.09875
#
# Compressibility (1/GPa) = 0.02889221
#
# Stress axis : x y z
#
# Youngs Moduli (GPa) = 66.51786 56.84793 64.67512
#
# Poissons Ratio (x) = 0.44364 -0.21432
# Poissons Ratio (y) = 0.51911 0.33028
# Poissons Ratio (z) = -0.22043 0.29031
#
# Static dielectric constant tensor:
#      x y z
#    x 4.966760 0.000130 0.526620 
#    y 0.000130 3.256100 0.000040 
#    z 0.526620 0.000040 4.102540 
# 
# 
# High freq. dielectric constant tensor:
#      x y z
#    x 1.776820 0.000000 0.005900 
#    y 0.000000 1.711120 0.000000 
#    z 0.005900 0.000000 1.807850 
# 
# From -- ./inp_files/16782.got.cif
#   From: 2010.06.25/outbox.cif.g09.slc.cpg/sg12_9_cif.got.tgz:16782.got - 2010.06.28 00:19:55.
