data_PCOD8113144
_publ_section_title
;
Structure prediction by ZEFSAII (Michael W. Deem and Ramdas Pophale) SiO2 
 PCOD8113144
Probable space group: C 2/M
;
_chemical_formula_sum "Si O2"
_cell_formula_units_Z 64
_cell_length_a 12.542518
_cell_length_b 14.269879
_cell_length_c 30.662057
_cell_angle_alpha 90.000000
_cell_angle_beta 34.518598
_cell_angle_gamma 90.000000
_cell_volume 3109.849550
_symmetry_space_group_name_H-M "C 2/M"
_symmetry_group_IT_number 12
_symmetry_cell_setting 'monoclinic'
loop_
_space_group_symop_operation_xyz
x,y,z
-x,y,-z
-x,-y,-z
x,-y,z
1/2+x,1/2+y,z
1/2-x,1/2+y,-z
1/2-x,1/2-y,-z
1/2+x,1/2-y,z
loop_
_atom_site_type_symbol
_atom_site_label
_atom_site_fract_x
_atom_site_fract_y
_atom_site_fract_z
Si Si1 0.664628 0.642657 0.347859
Si Si2 0.509379 0.843780 0.399608
Si Si3 0.795437 0.101196 0.435155
Si Si4 0.691525 0.249570 0.201795
Si Si5 0.931887 0.606041 0.332917
Si Si6 0.887988 0.104487 0.308167
Si Si7 0.417857 0.895174 0.181948
Si Si8 0.691794 0.606803 0.910324
O O1 0.590630 0.744181 0.360193
O O2 0.479219 0.580830 0.402999
O O3 0.742530 0.635885 0.370822
O O4 0.833105 0.614054 0.259036
O O5 0.360311 0.833756 0.489437
O O6 0.397441 0.887639 0.396406
O O7 0.689368 0.906547 0.350983
O O8 0.857312 0.144308 0.367750
O O9 0.699174 0.000000 0.459793
O O10 0.606132 0.173188 0.263329
O O11 0.526559 0.319221 0.238904
O O12 0.841385 0.316065 0.175268
O O13 0.792104 0.189866 0.130399
O O14 0.983404 0.500000 0.302319
O O15 0.979572 0.000000 0.278466
O O16 0.640906 0.881973 0.111106
O O17 0.371326 0.000000 0.179803
O O18 0.696088 0.500000 0.889116
O O19 0.500000 0.625091 0.000000
#
# Coordination Sequence:
#
# PCOD8113144 Si02
#       8
#     8   8   8   8   8   8   8   8
#     4  12  23  40  62  88 123 166 225 268 325 387
#     4  12  24  41  58  88 128 170 218 280 336 383
#     4  11  23  40  61  86 120 169 223 276 331 388
#     4  12  22  38  66  98 125 160 213 261 306 366
#     4  12  24  40  62  91 127 166 211 272 334 382
#     4  11  22  40  64  90 125 172 223 268 321 386
#     4  11  21  40  68  94 125 167 212 257 308 380
#     4  10  23  44  70 100 134 169 202 245 310 384
#
# _framework density 20.579772999999999
#
# number of rings (size 3 to 8) (size 9 to 14) (size 15 to 20)
#    0.000    0.625    5.000    3.750    0.000    2.000 
#    2.250    1.250    0.000    1.500    0.000    0.000 
#    0.000    0.000    0.000    0.000    0.000    0.000 
#
# Total GULP energy -396672.089198 kJ/mol
# GULP energy per Si atom -12396.002787 kJ/mol
# Density = 2.053293 g / cm^3
# Si number density = 20.579773 Si / 1000 Ang^3
#
#
#
# Elastic Constant Matrix: (Units=GPa)
#
#
# Indices 1 2 3 4 5 6 
#
# 1 132.5375 38.8861 35.3916 -0.0010 -2.5640 0.0006
# 2 38.8861 137.6145 48.0050 -0.0017 3.6374 0.0005
# 3 35.3916 48.0050 97.1916 -0.0033 -12.3092 0.0002
# 4 -0.0010 -0.0017 -0.0033 22.9435 0.0010 -0.0829
# 5 -2.5640 3.6374 -12.3092 0.0010 29.1673 -0.0001
# 6 0.0006 0.0005 0.0002 -0.0829 -0.0001 32.4469
#
#
#
# Elastic Compliance Matrix: (Units=1/GPa)
#
#
# Indices 1 2 3 4 5 6 
#
# 1 0.008649 -0.001623 -0.002352 0.000000 -0.000030 0.000000
# 2 -0.001623 0.009356 -0.004433 0.000000 -0.003180 0.000000
# 3 -0.002352 -0.004433 0.014134 0.000001 0.006311 0.000000
# 4 0.000000 0.000000 0.000001 0.043586 -0.000001 0.000111
# 5 -0.000030 -0.003180 0.006311 -0.000001 0.037342 0.000000
# 6 0.000000 0.000000 0.000000 0.000111 0.000000 0.030820
#
#
# Mechanical properties :
#
#
# Convention : Reuss Voigt Hill
#
# Bulk Modulus (GPa) = 65.25739 67.98988 66.62363
# Shear Modulus (GPa) = 30.15536 33.24894 31.70215
#
# Velocity S-wave (km/s) = 3.83206 4.02383 3.92912
# Velocity P-wave (km/s) = 7.16645 7.39576 7.28200
#
# Compressibility (1/GPa) = 0.01532394
#
# Stress axis : x y z
#
# Youngs Moduli (GPa) = 115.62697 106.88804 70.75151
#
# Poissons Ratio (x) = 0.17345 0.16638
# Poissons Ratio (y) = 0.18763 0.31363
# Poissons Ratio (z) = 0.27190 0.47381
#
# Static dielectric constant tensor:
#      x y z
#    x 3.906170 0.000000 -0.129500 
#    y 0.000000 4.003030 0.000000 
#    z -0.129500 0.000000 3.404440 
# 
# 
# High freq. dielectric constant tensor:
#      x y z
#    x 1.808450 0.000000 -0.015050 
#    y 0.000000 1.831100 0.000000 
#    z -0.015050 0.000000 1.764350 
# 
# From -- ./inp_files/358403.got.cif
#   From: 2010.06.25/outbox.cif.g09.slc.cpg/sg12_180_cif.got.tgz:358403.got - 2010.06.28 00:19:55.
