data_PCOD8113810
_publ_section_title
;
Structure prediction by ZEFSAII (Michael W. Deem and Ramdas Pophale) SiO2 
 PCOD8113810
Probable space group: C 2/M
;
_chemical_formula_sum "Si O2"
_cell_formula_units_Z 64
_cell_length_a 17.458333
_cell_length_b 31.379184
_cell_length_c 9.707607
_cell_angle_alpha 90.000000
_cell_angle_beta 137.055440
_cell_angle_gamma 90.000000
_cell_volume 3623.171225
_symmetry_space_group_name_H-M "C 2/M"
_symmetry_group_IT_number 12
_symmetry_cell_setting 'monoclinic'
loop_
_space_group_symop_operation_xyz
x,y,z
-x,y,-z
-x,-y,-z
x,-y,z
1/2+x,1/2+y,z
1/2-x,1/2+y,-z
1/2-x,1/2-y,-z
1/2+x,1/2-y,z
loop_
_atom_site_type_symbol
_atom_site_label
_atom_site_fract_x
_atom_site_fract_y
_atom_site_fract_z
Si Si1 0.573104 0.771551 0.727942
Si Si2 0.632524 0.633397 0.646253
Si Si3 0.700362 0.315737 0.477538
Si Si4 0.891348 0.045845 0.952382
Si Si5 0.575559 0.232110 0.231165
Si Si6 0.612611 0.546005 0.732337
Si Si7 0.369149 0.364210 0.866146
Si Si8 0.800052 0.188357 0.027101
O O1 0.500000 0.757942 0.500000
O O2 0.494708 0.792471 0.742846
O O3 0.629854 0.731586 0.878074
O O4 0.671036 0.803942 0.810943
O O5 0.500000 0.635440 0.500000
O O6 0.657188 0.646988 0.522103
O O7 0.679090 0.586137 0.750873
O O8 0.699871 0.668259 0.821740
O O9 0.615494 0.276034 0.355619
O O10 0.822107 0.297962 0.681598
O O11 0.708405 0.337766 0.339396
O O12 0.821561 0.087051 0.809096
O O13 0.826662 0.000000 0.853099
O O14 0.920268 0.054371 0.151314
O O15 0.000000 0.042878 0.000000
O O16 0.500000 0.243127 0.000000
O O17 0.500000 0.541397 0.500000
O O18 0.677982 0.500000 0.805426
O O19 0.500000 0.363808 0.000000
O O20 0.360186 0.343826 0.003951
#
# Coordination Sequence:
#
# PCOD8113810 Si02
#       8
#     8   8   8   8   8   8   8   8
#     4  11  22  35  52  71 100 130 167 213 261 296
#     4  11  20  32  50  75 103 137 169 212 243 296
#     4  11  23  34  53  75 101 132 180 209 251 307
#     4   9  18  31  48  72 105 142 170 199 249 306
#     4  11  22  39  53  71 100 139 169 217 260 300
#     4   9  18  31  47  71 105 142 171 200 248 305
#     4  11  20  32  50  75 105 138 167 207 245 297
#     4  11  21  34  51  74  97 131 173 209 248 303
#
# _framework density 17.664083999999999
#
# number of rings (size 3 to 8) (size 9 to 14) (size 15 to 20)
#    0.000    1.500    1.250    6.000    5.250    4.000 
#    0.000    0.000    0.000    0.000    0.000    0.000 
#    0.000   20.000    0.000    0.000    0.000    0.000 
#
# Total GULP energy -396547.983998 kJ/mol
# GULP energy per Si atom -12392.124500 kJ/mol
# Density = 1.762388 g / cm^3
# Si number density = 17.664084 Si / 1000 Ang^3
#
#
#
# Elastic Constant Matrix: (Units=GPa)
#
#
# Indices 1 2 3 4 5 6 
#
# 1 77.4279 28.9001 27.3721 0.0000 -4.2514 0.0000
# 2 28.9001 106.6466 18.8298 0.0000 5.2741 0.0000
# 3 27.3721 18.8298 71.1548 0.0000 1.8873 0.0000
# 4 0.0000 0.0000 0.0000 11.9844 0.0000 -6.7604
# 5 -4.2514 5.2741 1.8873 0.0000 25.1327 0.0000
# 6 0.0000 0.0000 0.0000 -6.7604 0.0000 20.2345
#
#
#
# Elastic Compliance Matrix: (Units=1/GPa)
#
#
# Indices 1 2 3 4 5 6 
#
# 1 0.016437 -0.003688 -0.005452 0.000000 0.003964 0.000000
# 2 -0.003688 0.010752 -0.001353 0.000000 -0.002779 0.000000
# 3 -0.005452 -0.001353 0.016559 0.000000 -0.001882 0.000000
# 4 0.000000 0.000000 0.000000 0.102820 0.000000 0.034352
# 5 0.003964 -0.002779 -0.001882 0.000000 0.041184 0.000000
# 6 0.000000 0.000000 0.000000 0.034352 0.000000 0.060898
#
#
# Mechanical properties :
#
#
# Convention : Reuss Voigt Hill
#
# Bulk Modulus (GPa) = 43.93200 45.04814 44.49007
# Shear Modulus (GPa) = 18.03605 23.47883 20.75744
#
# Velocity S-wave (km/s) = 3.19887 3.64975 3.43172
# Velocity P-wave (km/s) = 6.21035 6.58172 6.39873
#
# Compressibility (1/GPa) = 0.02276245
#
# Stress axis : x y z
#
# Youngs Moduli (GPa) = 60.83940 93.00270 60.38918
#
# Poissons Ratio (x) = 0.34295 0.32926
# Poissons Ratio (y) = 0.22435 0.08172
# Poissons Ratio (z) = 0.33171 0.12585
#
# Static dielectric constant tensor:
#      x y z
#    x 3.240530 0.000000 -0.233850 
#    y 0.000000 3.901900 0.000000 
#    z -0.233850 0.000000 3.202240 
# 
# 
# High freq. dielectric constant tensor:
#      x y z
#    x 1.668680 0.000000 -0.037290 
#    y 0.000000 1.685780 0.000000 
#    z -0.037290 0.000000 1.667290 
# 
# From -- ./inp_files/80791.got.cif
#   From: 2010.06.25/outbox.cif.g09.slc.cpg/sg12_41_cif.got.tgz:80791.got - 2010.06.28 00:19:55.
