data_PCOD8113277
_publ_section_title
;
Structure prediction by ZEFSAII (Michael W. Deem and Ramdas Pophale) SiO2 
 PCOD8113277
Probable space group: C 2/M
;
_chemical_formula_sum "Si O2"
_cell_formula_units_Z 56
_cell_length_a 8.889300
_cell_length_b 18.271790
_cell_length_c 20.750665
_cell_angle_alpha 90.000000
_cell_angle_beta 122.911440
_cell_angle_gamma 90.000000
_cell_volume 2829.484197
_symmetry_space_group_name_H-M "C 2/M"
_symmetry_group_IT_number 12
_symmetry_cell_setting 'monoclinic'
loop_
_space_group_symop_operation_xyz
x,y,z
-x,y,-z
-x,-y,-z
x,-y,z
1/2+x,1/2+y,z
1/2-x,1/2+y,-z
1/2-x,1/2-y,-z
1/2+x,1/2-y,z
loop_
_atom_site_type_symbol
_atom_site_label
_atom_site_fract_x
_atom_site_fract_y
_atom_site_fract_z
Si Si1 0.012762 0.686132 0.074995
Si Si2 0.794976 0.712620 0.444512
Si Si3 0.850119 0.167642 0.227351
Si Si4 0.158597 0.843826 0.078712
Si Si5 0.123432 0.708978 0.289012
Si Si6 0.349161 0.914615 0.240736
Si Si7 0.332648 0.417225 0.666041
O O1 0.181827 0.643970 0.144890
O O2 0.065230 0.771278 0.085306
O O3 0.831792 0.673806 0.074066
O O4 0.000000 0.654058 0.000000
O O5 0.750000 0.750000 0.500000
O O6 0.727927 0.771443 0.377743
O O7 0.709876 0.634312 0.405074
O O8 0.000000 0.696013 0.500000
O O9 0.782860 0.206106 0.275982
O O10 0.982033 0.230529 0.229483
O O11 0.958900 0.093526 0.267047
O O12 0.209154 0.893843 0.151471
O O13 0.000000 0.883047 0.000000
O O14 0.031422 0.630112 0.274010
O O15 0.277487 0.895543 0.295398
O O16 0.393239 0.000000 0.244840
O O17 0.296683 0.500000 0.636314
#
# Coordination Sequence:
#
# PCOD8113277 Si02
#       7
#     8   8   8   8   8   8   8
#     4  11  21  34  58  93 120 158 202 264 318 351
#     4  11  22  39  65  95 121 152 195 247 309 369
#     4  11  20  36  63  88 119 161 207 254 306 357
#     4  11  23  36  58  89 125 160 207 265 315 362
#     4  11  21  38  61  90 121 153 202 257 297 367
#     4  11  23  40  61  86 122 172 214 251 304 364
#     4  10  24  41  63  91 124 165 205 248 302 368
#
# _framework density 19.791592999999999
#
# number of rings (size 3 to 8) (size 9 to 14) (size 15 to 20)
#    0.000    1.143    2.857    6.000    4.000    1.143 
#    0.000    0.714    0.000    2.571    0.000    0.000 
#    0.000    0.000    0.000    0.000    0.000    0.000 
#
# Total GULP energy -346978.200616 kJ/mol
# GULP energy per Si atom -12392.078593 kJ/mol
# Density = 1.974655 g / cm^3
# Si number density = 19.791593 Si / 1000 Ang^3
#
#
#
# Elastic Constant Matrix: (Units=GPa)
#
#
# Indices 1 2 3 4 5 6 
#
# 1 72.7640 31.6579 15.0693 0.0000 1.3726 0.0000
# 2 31.6579 94.2047 47.2976 0.0000 -1.5450 0.0000
# 3 15.0693 47.2976 132.3769 0.0000 4.9298 0.0000
# 4 0.0000 0.0000 0.0000 25.1154 0.0000 2.0266
# 5 1.3726 -1.5450 4.9298 0.0000 42.1676 0.0000
# 6 0.0000 0.0000 0.0000 2.0266 0.0000 23.1101
#
#
#
# Elastic Compliance Matrix: (Units=1/GPa)
#
#
# Indices 1 2 3 4 5 6 
#
# 1 0.016121 -0.005511 0.000162 0.000000 -0.000746 0.000000
# 2 -0.005511 0.014863 -0.004731 0.000000 0.001277 0.000000
# 3 0.000162 -0.004731 0.009273 0.000000 -0.001263 0.000000
# 4 0.000000 0.000000 0.000000 0.040100 0.000000 -0.003516
# 5 -0.000746 0.001277 -0.001263 0.000000 0.023934 0.000000
# 6 0.000000 0.000000 0.000000 -0.003516 0.000000 0.043579
#
#
# Mechanical properties :
#
#
# Convention : Reuss Voigt Hill
#
# Bulk Modulus (GPa) = 49.75764 54.15501 51.95632
# Shear Modulus (GPa) = 28.61553 31.76669 30.19111
#
# Velocity S-wave (km/s) = 3.80655 4.01067 3.90994
# Velocity P-wave (km/s) = 6.67197 6.99066 6.83317
#
# Compressibility (1/GPa) = 0.02009742
#
# Stress axis : x y z
#
# Youngs Moduli (GPa) = 62.02943 67.27962 107.83881
#
# Poissons Ratio (x) = 0.37078 -0.01743
# Poissons Ratio (y) = 0.34185 0.51016
# Poissons Ratio (z) = -0.01003 0.31829
#
# Static dielectric constant tensor:
#      x y z
#    x 3.793870 0.000000 0.055540 
#    y 0.000000 3.317530 0.000000 
#    z 0.055540 0.000000 4.048700 
# 
# 
# High freq. dielectric constant tensor:
#      x y z
#    x 1.783520 0.000000 0.004100 
#    y 0.000000 1.740280 0.000000 
#    z 0.004100 0.000000 1.788520 
# 
# From -- ./inp_files/300678.got.cif
#   From: 2010.06.25/outbox.cif.g09.slc.cpg/sg12_151_cif.got.tgz:300678.got - 2010.06.28 00:19:55.
