data_PCOD8113308
_publ_section_title
;
Structure prediction by ZEFSAII (Michael W. Deem and Ramdas Pophale) SiO2 
 PCOD8113308
Probable space group: C 2/M
;
_chemical_formula_sum "Si O2"
_cell_formula_units_Z 40
_cell_length_a 10.665116
_cell_length_b 17.426022
_cell_length_c 15.028362
_cell_angle_alpha 90.000000
_cell_angle_beta 43.539214
_cell_angle_gamma 90.000000
_cell_volume 1923.980653
_symmetry_space_group_name_H-M "C 2/M"
_symmetry_group_IT_number 12
_symmetry_cell_setting 'monoclinic'
loop_
_space_group_symop_operation_xyz
x,y,z
-x,y,-z
-x,-y,-z
x,-y,z
1/2+x,1/2+y,z
1/2-x,1/2+y,-z
1/2-x,1/2-y,-z
1/2+x,1/2-y,z
loop_
_atom_site_type_symbol
_atom_site_label
_atom_site_fract_x
_atom_site_fract_y
_atom_site_fract_z
Si Si1 0.842924 0.589772 0.653062
Si Si2 0.855136 0.917735 0.501412
Si Si3 0.002350 0.844888 0.253900
Si Si4 0.640076 0.181800 0.007794
Si Si5 0.486168 0.165776 0.269139
O O1 0.796586 0.500000 0.673223
O O2 0.662007 0.639663 0.729414
O O3 0.897003 0.614093 0.724172
O O4 0.000000 0.610748 0.500000
O O5 0.723114 0.851186 0.602163
O O6 0.000000 0.934543 0.500000
O O7 0.965619 0.894193 0.358657
O O8 0.753120 0.000000 0.534079
O O9 0.018012 0.755268 0.270333
O O10 0.199302 0.872095 0.114135
O O11 0.528723 0.141002 0.144981
O O12 0.500000 0.206516 0.000000
O O13 0.750000 0.250000 0.000000
#
# Coordination Sequence:
#
# PCOD8113308 Si02
#       5
#     8   8   8   8   8
#     4  11  24  43  67 101 141 179 224 284 343 402
#     4  11  23  39  61  91 131 173 219 277 344 402
#     4  11  24  39  69  95 134 171 232 278 337 396
#     4  10  24  42  66  99 141 177 225 287 343 399
#     4  11  24  39  69  95 134 171 232 278 337 396
#
# _framework density 20.790230000000001
#
# number of rings (size 3 to 8) (size 9 to 14) (size 15 to 20)
#    0.000    1.200    2.000    3.000   14.000    0.000 
#    0.000    5.000    0.000    7.200    0.000    0.000 
#    0.000    0.000    0.000    0.000    0.000    0.000 
#
# Total GULP energy -247858.715665 kJ/mol
# GULP energy per Si atom -12392.935783 kJ/mol
# Density = 2.074291 g / cm^3
# Si number density = 20.790230 Si / 1000 Ang^3
#
#
#
# Elastic Constant Matrix: (Units=GPa)
#
#
# Indices 1 2 3 4 5 6 
#
# 1 136.0910 21.0011 64.9473 -0.0019 9.3358 0.0021
# 2 21.0011 58.5423 18.1027 -0.0016 4.9264 0.0018
# 3 64.9473 18.1027 124.0070 -0.0023 17.3771 0.0029
# 4 -0.0019 -0.0016 -0.0023 14.7511 0.0019 6.3604
# 5 9.3358 4.9264 17.3771 0.0019 40.4933 -0.0022
# 6 0.0021 0.0018 0.0029 6.3604 -0.0022 28.0133
#
#
#
# Elastic Compliance Matrix: (Units=1/GPa)
#
#
# Indices 1 2 3 4 5 6 
#
# 1 0.010030 -0.002070 -0.004961 0.000000 0.000068 0.000000
# 2 -0.002070 0.018365 -0.001437 0.000002 -0.001140 -0.000001
# 3 -0.004961 -0.001437 0.011371 0.000002 -0.003561 -0.000001
# 4 0.000000 0.000002 0.000002 0.075148 -0.000006 -0.017062
# 5 0.000068 -0.001140 -0.003561 -0.000006 0.026347 0.000004
# 6 0.000000 -0.000001 -0.000001 -0.017062 0.000004 0.039571
#
#
# Mechanical properties :
#
#
# Convention : Reuss Voigt Hill
#
# Bulk Modulus (GPa) = 43.80079 58.52693 51.16386
# Shear Modulus (GPa) = 24.34547 30.95748 27.65147
#
# Velocity S-wave (km/s) = 3.42571 3.86299 3.65090
# Velocity P-wave (km/s) = 6.06309 6.93608 6.51422
#
# Compressibility (1/GPa) = 0.02283064
#
# Stress axis : x y z
#
# Youngs Moduli (GPa) = 99.69972 54.45274 87.94389
#
# Poissons Ratio (x) = 0.11271 0.43625
# Poissons Ratio (y) = 0.20637 0.12637
# Poissons Ratio (z) = 0.49456 0.07825
#
# Static dielectric constant tensor:
#      x y z
#    x 3.765950 0.000000 0.039260 
#    y 0.000000 3.630660 0.000000 
#    z 0.039260 0.000000 4.483430 
# 
# 
# High freq. dielectric constant tensor:
#      x y z
#    x 1.829240 0.000000 0.003470 
#    y 0.000000 1.793710 0.000000 
#    z 0.003470 0.000000 1.828000 
# 
# From -- ./inp_files/205926.got.cif
#   From: 2010.06.25/outbox.cif.g09.slc.cpg/sg12_103_cif.got.tgz:205926.got - 2010.06.28 00:19:55.
