data_PCOD8113817
_publ_section_title
;
Structure prediction by ZEFSAII (Michael W. Deem and Ramdas Pophale) SiO2 
 PCOD8113817
Probable space group: C 2/M
;
_chemical_formula_sum "Si O2"
_cell_formula_units_Z 56
_cell_length_a 19.070923
_cell_length_b 9.455327
_cell_length_c 24.083292
_cell_angle_alpha 90.000000
_cell_angle_beta 47.292422
_cell_angle_gamma 90.000000
_cell_volume 3191.155579
_symmetry_space_group_name_H-M "C 2/M"
_symmetry_group_IT_number 12
_symmetry_cell_setting 'monoclinic'
loop_
_space_group_symop_operation_xyz
x,y,z
-x,y,-z
-x,-y,-z
x,-y,z
1/2+x,1/2+y,z
1/2-x,1/2+y,-z
1/2-x,1/2-y,-z
1/2+x,1/2-y,z
loop_
_atom_site_type_symbol
_atom_site_label
_atom_site_fract_x
_atom_site_fract_y
_atom_site_fract_z
Si Si1 0.799010 0.666430 0.805493
Si Si2 0.990134 0.663730 0.320982
Si Si3 0.049581 0.162307 0.557990
Si Si4 0.526694 0.161183 0.796327
Si Si5 0.804072 0.663947 0.924592
Si Si6 0.807414 0.832344 0.246540
Si Si7 0.648122 0.663669 0.393303
O O1 0.814598 0.500000 0.802340
O O2 0.902490 0.727842 0.733301
O O3 0.767692 0.719261 0.883605
O O4 0.721429 0.708046 0.801086
O O5 0.987648 0.500000 0.338575
O O6 0.949360 0.688033 0.281242
O O7 0.926335 0.746307 0.400328
O O8 0.129973 0.190104 0.468377
O O9 0.946456 0.205792 0.589434
O O10 0.049463 0.000000 0.575879
O O11 0.416733 0.191412 0.868573
O O12 0.588014 0.268645 0.800348
O O13 0.552875 0.000000 0.797876
O O14 0.779768 0.500000 0.946211
O O15 0.750000 0.750000 0.000000
O O16 0.734186 0.763838 0.329096
O O17 0.808441 0.000000 0.254977
O O18 0.675246 0.500000 0.368111
#
# Coordination Sequence:
#
# PCOD8113817 Si02
#       7
#     8   8   8   8   8   8   8
#     4   8  16  31  51  75 101 130 163 203 250 293
#     4   9  16  31  52  71  95 131 173 212 250 297
#     4   9  17  29  47  72 100 131 169 213 257 298
#     4   9  20  36  53  73 104 140 163 197 258 307
#     4   9  18  36  59  79 102 131 164 201 243 296
#     4  11  20  32  52  77 102 131 172 214 247 293
#     4   9  18  31  46  69 104 138 164 204 263 307
#
# _framework density 17.548501999999999
#
# number of rings (size 3 to 8) (size 9 to 14) (size 15 to 20)
#    0.000    2.857    1.429    3.000    0.000    1.714 
#    0.000    6.429    0.000    4.286    0.000    0.000 
#    0.000    0.000    0.000    0.000    0.000    0.000 
#
# Total GULP energy -347112.130688 kJ/mol
# GULP energy per Si atom -12396.861810 kJ/mol
# Density = 1.750856 g / cm^3
# Si number density = 17.548502 Si / 1000 Ang^3
#
#
#
# Elastic Constant Matrix: (Units=GPa)
#
#
# Indices 1 2 3 4 5 6 
#
# 1 94.7137 52.3874 48.1030 0.0000 9.3751 0.0001
# 2 52.3874 74.7389 54.7965 0.0000 7.1638 0.0003
# 3 48.1030 54.7965 109.8037 0.0000 19.3424 0.0000
# 4 0.0000 0.0000 0.0000 34.2934 0.0000 0.9011
# 5 9.3751 7.1638 19.3424 0.0000 21.6936 0.0000
# 6 0.0001 0.0003 0.0000 0.9011 0.0000 29.1972
#
#
#
# Elastic Compliance Matrix: (Units=1/GPa)
#
#
# Indices 1 2 3 4 5 6 
#
# 1 0.017753 -0.010754 -0.001998 0.000000 -0.002339 0.000000
# 2 -0.010754 0.027767 -0.009905 0.000000 0.004309 0.000000
# 3 -0.001998 -0.009905 0.016842 0.000000 -0.010883 0.000000
# 4 0.000000 0.000000 0.000000 0.029184 0.000000 -0.000901
# 5 -0.002339 0.004309 -0.010883 0.000000 0.055387 0.000000
# 6 0.000000 0.000000 0.000000 -0.000901 0.000000 0.034278
#
#
# Mechanical properties :
#
#
# Convention : Reuss Voigt Hill
#
# Bulk Modulus (GPa) = 58.65955 65.53669 62.09812
# Shear Modulus (GPa) = 21.53241 25.30146 23.41693
#
# Velocity S-wave (km/s) = 3.50669 3.80123 3.65692
# Velocity P-wave (km/s) = 7.06367 7.52947 7.30029
#
# Compressibility (1/GPa) = 0.01704752
#
# Stress axis : x y z
#
# Youngs Moduli (GPa) = 56.32863 36.01426 59.37395
#
# Poissons Ratio (x) = 0.38731 0.11865
# Poissons Ratio (y) = 0.60578 0.58807
# Poissons Ratio (z) = 0.11256 0.35671
#
# Static dielectric constant tensor:
#      x y z
#    x 3.189160 0.000000 0.171670 
#    y 0.000000 3.077190 0.000000 
#    z 0.171670 0.000000 3.153760 
# 
# 
# High freq. dielectric constant tensor:
#      x y z
#    x 1.667520 0.000000 0.013600 
#    y 0.000000 1.664670 0.000000 
#    z 0.013600 0.000000 1.669310 
# 
# From -- ./inp_files/280177.got.cif
#   From: 2010.06.25/outbox.cif.g09.slc.cpg/sg12_141_cif.got.tgz:280177.got - 2010.06.28 00:19:55.
