data_PCOD8113792
_publ_section_title
;
Structure prediction by ZEFSAII (Michael W. Deem and Ramdas Pophale) SiO2 
 PCOD8113792
Probable space group: C 2/M
;
_chemical_formula_sum "Si O2"
_cell_formula_units_Z 56
_cell_length_a 8.820385
_cell_length_b 27.052820
_cell_length_c 13.133006
_cell_angle_alpha 90.000000
_cell_angle_beta 66.599308
_cell_angle_gamma 90.000000
_cell_volume 2875.997736
_symmetry_space_group_name_H-M "C 2/M"
_symmetry_group_IT_number 12
_symmetry_cell_setting 'monoclinic'
loop_
_space_group_symop_operation_xyz
x,y,z
-x,y,-z
-x,-y,-z
x,-y,z
1/2+x,1/2+y,z
1/2-x,1/2+y,-z
1/2-x,1/2-y,-z
1/2+x,1/2-y,z
loop_
_atom_site_type_symbol
_atom_site_label
_atom_site_fract_x
_atom_site_fract_y
_atom_site_fract_z
Si Si1 0.289261 0.394629 0.780753
Si Si2 0.927926 0.763461 0.918465
Si Si3 0.616192 0.789570 0.376240
Si Si4 0.182309 0.896748 0.985238
Si Si5 0.679312 0.000000 0.062188
Si Si6 0.999062 0.807512 0.305623
Si Si7 0.969289 0.336010 0.812439
Si Si8 0.690871 0.000000 0.816866
O O1 0.439061 0.363657 0.686355
O O2 0.291348 0.452372 0.747773
O O3 0.116171 0.374254 0.785349
O O4 0.295174 0.393259 0.900474
O O5 0.932879 0.802806 0.827325
O O6 0.024594 0.714321 0.855210
O O7 0.750000 0.750000 0.000000
O O8 0.000000 0.788367 0.000000
O O9 0.500000 0.804602 0.500000
O O10 0.591085 0.731647 0.354800
O O11 0.568089 0.824292 0.295330
O O12 0.803184 0.799652 0.363178
O O13 0.224219 0.950863 0.928482
O O14 0.302425 0.856334 0.905084
O O15 0.000000 0.882680 0.000000
O O16 0.501150 0.000000 0.166072
O O17 0.673927 0.000000 0.942386
#
# Coordination Sequence:
#
# PCOD8113792 Si02
#       8
#     8   8   8   8   4   8   8   4
#     4  11  21  36  57  86 119 158 196 236 283 354
#     4  11  20  31  47  75 115 151 179 220 272 340
#     4  11  24  42  61  86 115 149 198 253 298 349
#     4  11  20  31  51  84 123 161 194 236 281 342
#     4   9  17  32  50  78 117 160 203 232 276 332
#     4  11  22  37  58  85 115 153 195 237 292 356
#     4  11  21  34  54  80 113 156 201 236 288 349
#     4   9  18  34  56  80 117 161 199 236 279 339
#
# _framework density 19.471502999999998
#
# number of rings (size 3 to 8) (size 9 to 14) (size 15 to 20)
#    0.000    1.286    1.429    7.929    0.000    1.143 
#    0.000    0.000    0.000    0.000    0.000    8.000 
#    0.000    0.000    0.000    0.000    0.000    0.000 
#
# Total GULP energy -347061.825722 kJ/mol
# GULP energy per Si atom -12395.065204 kJ/mol
# Density = 1.942719 g / cm^3
# Si number density = 19.471503 Si / 1000 Ang^3
#
#
#
# Elastic Constant Matrix: (Units=GPa)
#
#
# Indices 1 2 3 4 5 6 
#
# 1 120.5601 46.0509 23.8481 0.0000 -22.9101 0.0000
# 2 46.0509 140.7248 14.9719 0.0000 -9.4244 0.0000
# 3 23.8481 14.9719 43.5746 0.0000 -15.7064 0.0000
# 4 0.0000 0.0000 0.0000 37.4620 0.0000 -23.2827
# 5 -22.9101 -9.4244 -15.7064 0.0000 26.7712 0.0000
# 6 0.0000 0.0000 0.0000 -23.2827 0.0000 36.7550
#
#
#
# Elastic Compliance Matrix: (Units=1/GPa)
#
#
# Indices 1 2 3 4 5 6 
#
# 1 0.011280 -0.002939 -0.002609 0.000000 0.007088 0.000000
# 2 -0.002939 0.008184 -0.001359 0.000000 -0.000432 0.000000
# 3 -0.002609 -0.001359 0.030267 0.000000 0.015047 0.000000
# 4 0.000000 0.000000 0.000000 0.044027 0.000000 0.027889
# 5 0.007088 -0.000432 0.015047 0.000000 0.052095 0.000000
# 6 0.000000 0.000000 0.000000 0.027889 0.000000 0.044874
#
#
# Mechanical properties :
#
#
# Convention : Reuss Voigt Hill
#
# Bulk Modulus (GPa) = 27.84145 52.73349 40.28747
# Shear Modulus (GPa) = 23.09331 34.86354 28.97842
#
# Velocity S-wave (km/s) = 3.44758 4.23601 3.86197
# Velocity P-wave (km/s) = 5.49339 7.14606 6.37352
#
# Compressibility (1/GPa) = 0.03591767
#
# Stress axis : x y z
#
# Youngs Moduli (GPa) = 88.65000 122.19657 33.03887
#
# Poissons Ratio (x) = 0.35915 0.08619
# Poissons Ratio (y) = 0.26055 0.04489
# Poissons Ratio (z) = 0.23128 0.16604
#
# Static dielectric constant tensor:
#      x y z
#    x 3.116060 0.000000 -0.680480 
#    y 0.000000 4.197920 0.000000 
#    z -0.680480 0.000000 2.338780 
# 
# 
# High freq. dielectric constant tensor:
#      x y z
#    x 1.770200 0.000000 -0.007130 
#    y 0.000000 1.765340 0.000000 
#    z -0.007130 0.000000 1.714050 
# 
# From -- ./inp_files/125662.got.cif
#   From: 2010.06.25/outbox.cif.g09.slc.cpg/sg12_63_cif.got.tgz:125662.got - 2010.06.28 00:19:55.
