data_PCOD8113491
_publ_section_title
;
Structure prediction by ZEFSAII (Michael W. Deem and Ramdas Pophale) SiO2 
 PCOD8113491
Probable space group: C 2/M
;
_chemical_formula_sum "Si O2"
_cell_formula_units_Z 36
_cell_length_a 9.981544
_cell_length_b 15.658904
_cell_length_c 10.687006
_cell_angle_alpha 90.000000
_cell_angle_beta 78.663084
_cell_angle_gamma 90.000000
_cell_volume 1637.787357
_symmetry_space_group_name_H-M "C 2/M"
_symmetry_group_IT_number 12
_symmetry_cell_setting 'monoclinic'
loop_
_space_group_symop_operation_xyz
x,y,z
-x,y,-z
-x,-y,-z
x,-y,z
1/2+x,1/2+y,z
1/2-x,1/2+y,-z
1/2-x,1/2-y,-z
1/2+x,1/2-y,z
loop_
_atom_site_type_symbol
_atom_site_label
_atom_site_fract_x
_atom_site_fract_y
_atom_site_fract_z
Si Si1 0.634511 0.402515 0.059707
Si Si2 0.000000 0.298370 0.500000
Si Si3 0.911542 0.643498 0.907141
Si Si4 0.201759 0.404098 0.319955
Si Si5 0.528040 0.300760 0.749153
O O1 0.685722 0.500000 0.052273
O O2 0.590929 0.372078 0.207991
O O3 0.500000 0.391546 0.000000
O O4 0.757492 0.343870 0.986524
O O5 0.129346 0.359910 0.452021
O O6 0.025717 0.236730 0.611419
O O7 0.902468 0.590431 0.778843
O O8 0.993791 0.730596 0.861580
O O9 0.000000 0.596652 0.000000
O O10 0.248530 0.500000 0.347660
O O11 0.326846 0.345204 0.254013
#
# Coordination Sequence:
#
# PCOD8113491 Si02
#       5
#     8   4   8   8   8
#     4  11  22  40  66  98 134 173 214 264 331 395
#     4  10  25  42  67  94 126 168 234 276 319 374
#     4  11  25  39  67 101 137 168 215 265 327 394
#     4  11  23  44  68  94 131 175 218 271 332 388
#     4  11  23  41  68  94 128 178 219 269 316 396
#
# _framework density 21.980875000000001
#
# number of rings (size 3 to 8) (size 9 to 14) (size 15 to 20)
#    0.000    1.111    2.222    3.667    6.222    1.778 
#    0.000    2.222    0.000    0.000    0.000    0.000 
#    0.000    0.000    0.000    0.000    0.000    0.000 
#
# Total GULP energy -223049.686844 kJ/mol
# GULP energy per Si atom -12391.649269 kJ/mol
# Density = 2.193085 g / cm^3
# Si number density = 21.980875 Si / 1000 Ang^3
#
#
#
# Elastic Constant Matrix: (Units=GPa)
#
#
# Indices 1 2 3 4 5 6 
#
# 1 100.9355 54.1920 57.5533 0.0000 -18.1593 0.0000
# 2 54.1920 133.9401 59.5232 0.0000 -11.9050 0.0000
# 3 57.5533 59.5232 158.2130 0.0000 -16.9221 0.0000
# 4 0.0000 0.0000 0.0000 20.9633 0.0000 -6.8736
# 5 -18.1593 -11.9050 -16.9221 0.0000 43.9694 0.0000
# 6 0.0000 0.0000 0.0000 -6.8736 0.0000 23.3592
#
#
#
# Elastic Compliance Matrix: (Units=1/GPa)
#
#
# Indices 1 2 3 4 5 6 
#
# 1 0.014721 -0.004113 -0.003417 0.000000 0.003651 0.000000
# 2 -0.004113 0.010173 -0.002313 0.000000 0.000165 0.000000
# 3 -0.003417 -0.002313 0.008569 0.000000 0.001260 0.000000
# 4 0.000000 0.000000 0.000000 0.052796 0.000000 0.015536
# 5 0.003651 0.000165 0.001260 0.000000 0.024781 0.000000
# 6 0.000000 0.000000 0.000000 0.015536 0.000000 0.047381
#
#
# Mechanical properties :
#
#
# Convention : Reuss Voigt Hill
#
# Bulk Modulus (GPa) = 72.59236 81.73617 77.16427
# Shear Modulus (GPa) = 27.36731 32.44637 29.90684
#
# Velocity S-wave (km/s) = 3.53236 3.84620 3.69261
# Velocity P-wave (km/s) = 7.05221 7.54918 7.30492
#
# Compressibility (1/GPa) = 0.01377555
#
# Stress axis : x y z
#
# Youngs Moduli (GPa) = 67.93092 98.30044 116.70272
#
# Poissons Ratio (x) = 0.40430 0.39879
# Poissons Ratio (y) = 0.27940 0.26998
# Poissons Ratio (z) = 0.23213 0.22741
#
# Static dielectric constant tensor:
#      x y z
#    x 3.795580 0.000000 -0.265840 
#    y 0.000000 4.029410 0.000000 
#    z -0.265840 0.000000 4.166540 
# 
# 
# High freq. dielectric constant tensor:
#      x y z
#    x 1.848620 0.000000 -0.024810 
#    y 0.000000 1.863610 0.000000 
#    z -0.024810 0.000000 1.874710 
# 
# From -- ./inp_files/118747.got.cif
#   From: 2010.06.25/outbox.cif.g09.slc.cpg/sg12_60_cif.got.tgz:118747.got - 2010.06.28 00:19:55.
