data_PCOD8113178
_publ_section_title
;
Structure prediction by ZEFSAII (Michael W. Deem and Ramdas Pophale) SiO2 
 PCOD8113178
Probable space group: C 2/M
;
_chemical_formula_sum "Si O2"
_cell_formula_units_Z 32
_cell_length_a 10.390132
_cell_length_b 18.224942
_cell_length_c 12.236364
_cell_angle_alpha 90.000000
_cell_angle_beta 36.558417
_cell_angle_gamma 90.000000
_cell_volume 1380.145800
_symmetry_space_group_name_H-M "C 2/M"
_symmetry_group_IT_number 12
_symmetry_cell_setting 'monoclinic'
loop_
_space_group_symop_operation_xyz
x,y,z
-x,y,-z
-x,-y,-z
x,-y,z
1/2+x,1/2+y,z
1/2-x,1/2+y,-z
1/2-x,1/2-y,-z
1/2+x,1/2-y,z
loop_
_atom_site_type_symbol
_atom_site_label
_atom_site_fract_x
_atom_site_fract_y
_atom_site_fract_z
Si Si1 0.312920 0.804860 0.052956
Si Si2 0.762849 0.580379 0.706964
Si Si3 0.981347 0.585729 0.774104
Si Si4 0.648443 0.670796 0.586996
O O1 0.409058 0.879454 0.936981
O O2 0.500000 0.769278 0.000000
O O3 0.250000 0.750000 0.000000
O O4 0.104844 0.823479 0.270907
O O5 0.643909 0.500000 0.781402
O O6 0.646407 0.643454 0.715615
O O7 0.000000 0.568443 0.500000
O O8 0.794765 0.605588 0.811350
O O9 0.003791 0.500000 0.775201
O O10 0.219574 0.614050 0.576993
O O11 0.750000 0.750000 0.500000
#
# Coordination Sequence:
#
# PCOD8113178 Si02
#       4
#     8   8   8   8
#     4  12  29  46  69 103 141 184 234 287 351 415
#     4   8  17  36  67 101 133 173 226 281 336 402
#     4  10  23  45  71 103 141 181 229 289 350 409
#     4  11  22  40  70 102 138 181 229 283 343 406
#
# _framework density 23.185956000000001
#
# number of rings (size 3 to 8) (size 9 to 14) (size 15 to 20)
#    0.000    1.750    2.500    2.250    3.500    5.500 
#    0.000    3.750    0.000    0.000    0.000    0.000 
#    0.000    0.000    0.000    0.000    0.000    0.000 
#
# Total GULP energy -198328.659353 kJ/mol
# GULP energy per Si atom -12395.541210 kJ/mol
# Density = 2.313318 g / cm^3
# Si number density = 23.185956 Si / 1000 Ang^3
#
#
#
# Elastic Constant Matrix: (Units=GPa)
#
#
# Indices 1 2 3 4 5 6 
#
# 1 109.0532 51.5691 38.5832 0.0022 -19.9137 -0.0006
# 2 51.5691 121.0539 50.5835 -0.0055 -8.2643 0.0002
# 3 38.5832 50.5835 130.4789 -0.0146 -18.5609 0.0017
# 4 0.0022 -0.0055 -0.0146 29.0577 0.0005 3.8610
# 5 -19.9137 -8.2643 -18.5609 0.0005 35.4427 -0.0002
# 6 -0.0006 0.0002 0.0017 3.8610 -0.0002 31.0254
#
#
#
# Elastic Compliance Matrix: (Units=1/GPa)
#
#
# Indices 1 2 3 4 5 6 
#
# 1 0.012752 -0.004545 -0.001232 -0.000003 0.005460 0.000001
# 2 -0.004545 0.011481 -0.003338 0.000001 -0.001625 0.000000
# 3 -0.001232 -0.003338 0.009847 0.000004 0.003686 -0.000001
# 4 -0.000003 0.000001 0.000004 0.034993 0.000001 -0.004355
# 5 0.005460 -0.001625 0.003686 0.000001 0.032834 0.000000
# 6 0.000001 0.000000 -0.000001 -0.004355 0.000000 0.032774
#
#
# Mechanical properties :
#
#
# Convention : Reuss Voigt Hill
#
# Bulk Modulus (GPa) = 63.09324 71.33972 67.21648
# Shear Modulus (GPa) = 31.60704 33.76186 32.68445
#
# Velocity S-wave (km/s) = 3.69616 3.82007 3.75862
# Velocity P-wave (km/s) = 6.74436 7.09173 6.92022
#
# Compressibility (1/GPa) = 0.01584956
#
# Stress axis : x y z
#
# Youngs Moduli (GPa) = 78.41989 87.10251 101.55513
#
# Poissons Ratio (x) = 0.39585 0.12514
# Poissons Ratio (y) = 0.35639 0.33899
# Poissons Ratio (z) = 0.09664 0.29075
#
# Static dielectric constant tensor:
#      x y z
#    x 4.447540 -0.000080 0.001130 
#    y -0.000080 4.287990 0.000050 
#    z 0.001130 0.000050 4.796530 
# 
# 
# High freq. dielectric constant tensor:
#      x y z
#    x 1.890960 0.000000 0.002600 
#    y 0.000000 1.922480 0.000000 
#    z 0.002600 0.000000 1.921600 
# 
# From -- ./inp_files/206444.got.cif
#   From: 2010.06.25/outbox.cif.g09.slc.cpg/sg12_104_cif.got.tgz:206444.got - 2010.06.28 00:19:55.
