data_PCOD8113949
_publ_section_title
;
Structure prediction by ZEFSAII (Michael W. Deem and Ramdas Pophale) SiO2 
 PCOD8113949
Probable space group: C 2/M
;
_chemical_formula_sum "Si O2"
_cell_formula_units_Z 64
_cell_length_a 15.114771
_cell_length_b 18.851164
_cell_length_c 14.459371
_cell_angle_alpha 90.000000
_cell_angle_beta 132.274514
_cell_angle_gamma 90.000000
_cell_volume 3048.456539
_symmetry_space_group_name_H-M "C 2/M"
_symmetry_group_IT_number 12
_symmetry_cell_setting 'monoclinic'
loop_
_space_group_symop_operation_xyz
x,y,z
-x,y,-z
-x,-y,-z
x,-y,z
1/2+x,1/2+y,z
1/2-x,1/2+y,-z
1/2-x,1/2-y,-z
1/2+x,1/2-y,z
loop_
_atom_site_type_symbol
_atom_site_label
_atom_site_fract_x
_atom_site_fract_y
_atom_site_fract_z
Si Si1 0.270906 0.123890 0.381528
Si Si2 0.836407 0.330594 0.724262
Si Si3 0.954136 0.799199 0.736062
Si Si4 0.551780 0.922236 0.347576
Si Si5 0.898544 0.767512 0.496125
Si Si6 0.782723 0.167455 0.027530
Si Si7 0.711863 0.080821 0.806589
Si Si8 0.641349 0.083699 0.083641
O O1 0.143162 0.138505 0.339020
O O2 0.347033 0.074101 0.502562
O O3 0.350810 0.193780 0.422309
O O4 0.237829 0.087569 0.261378
O O5 0.911035 0.256138 0.786434
O O6 0.921362 0.379442 0.724819
O O7 0.713430 0.320823 0.581426
O O8 0.800740 0.368961 0.794467
O O9 0.950880 0.757070 0.635925
O O10 0.081604 0.835850 0.840915
O O11 0.426176 0.895347 0.299704
O O12 0.533480 0.000000 0.294663
O O13 0.000000 0.797958 0.500000
O O14 0.690632 0.120846 0.024865
O O15 0.750000 0.250000 0.000000
O O16 0.780532 0.133838 0.923841
O O17 0.729387 0.000000 0.853301
O O18 0.678181 0.000000 0.111775
O O19 0.500000 0.091915 0.000000
#
# Coordination Sequence:
#
# PCOD8113949 Si02
#       8
#     8   8   8   8   8   8   8   8
#     4  11  22  39  65  94 130 167 210 266 334 389
#     4  11  21  39  64  95 130 164 214 269 331 389
#     4  11  23  42  63  97 132 172 212 270 333 387
#     4  11  20  37  64  95 127 163 213 267 323 393
#     4  11  21  37  66  93 131 164 209 269 333 382
#     4  12  27  43  68  96 131 171 227 272 321 390
#     4  11  25  43  64  94 130 174 220 272 326 383
#     4  11  24  44  67  94 129 175 221 273 329 383
#
# _framework density 20.994230999999999
#
# number of rings (size 3 to 8) (size 9 to 14) (size 15 to 20)
#    0.000    0.875    2.500    6.000    5.250    3.500 
#    0.000    3.125    0.000    1.500    0.000    0.000 
#    0.000    0.000    0.000    0.000    0.000    0.000 
#
# Total GULP energy -396718.630464 kJ/mol
# GULP energy per Si atom -12397.457202 kJ/mol
# Density = 2.094645 g / cm^3
# Si number density = 20.994231 Si / 1000 Ang^3
#
#
#
# Elastic Constant Matrix: (Units=GPa)
#
#
# Indices 1 2 3 4 5 6 
#
# 1 85.9156 21.6342 18.5949 0.0000 13.5600 0.0000
# 2 21.6342 86.0539 29.0344 0.0000 5.5188 0.0000
# 3 18.5949 29.0344 97.4734 0.0000 9.1575 0.0000
# 4 0.0000 0.0000 0.0000 23.0726 0.0000 -3.9406
# 5 13.5600 5.5188 9.1575 0.0000 40.9667 0.0000
# 6 0.0000 0.0000 0.0000 -3.9406 0.0000 32.4037
#
#
#
# Elastic Compliance Matrix: (Units=1/GPa)
#
#
# Indices 1 2 3 4 5 6 
#
# 1 0.013181 -0.002607 -0.001390 0.000000 -0.003701 0.000000
# 2 -0.002607 0.013467 -0.003498 0.000000 -0.000169 0.000000
# 3 -0.001390 -0.003498 0.011725 0.000000 -0.001690 0.000000
# 4 0.000000 0.000000 0.000000 0.044261 0.000000 0.005383
# 5 -0.003701 -0.000169 -0.001690 0.000000 0.026036 0.000000
# 6 0.000000 0.000000 0.000000 0.005383 0.000000 0.031515
#
#
# Mechanical properties :
#
#
# Convention : Reuss Voigt Hill
#
# Bulk Modulus (GPa) = 42.76811 45.32998 44.04904
# Shear Modulus (GPa) = 30.68046 32.63388 31.65717
#
# Velocity S-wave (km/s) = 3.82694 3.94689 3.88738
# Velocity P-wave (km/s) = 6.32004 6.51223 6.41685
#
# Compressibility (1/GPa) = 0.02338191
#
# Stress axis : x y z
#
# Youngs Moduli (GPa) = 75.86758 74.25427 85.28673
#
# Poissons Ratio (x) = 0.19360 0.11856
# Poissons Ratio (y) = 0.19781 0.29835
# Poissons Ratio (z) = 0.10547 0.25976
#
# Static dielectric constant tensor:
#      x y z
#    x 3.794820 0.000000 0.027270 
#    y 0.000000 3.864830 0.000000 
#    z 0.027270 0.000000 3.873990 
# 
# 
# High freq. dielectric constant tensor:
#      x y z
#    x 1.824070 0.000000 -0.002470 
#    y 0.000000 1.818750 0.000000 
#    z -0.002470 0.000000 1.818860 
# 
# From -- ./inp_files/216848.got.cif
#   From: 2010.06.25/outbox.cif.g09.slc.cpg/sg12_109_cif.got.tgz:216848.got - 2010.06.28 00:19:55.
