data_PCOD8113087
_publ_section_title
;
Structure prediction by ZEFSAII (Michael W. Deem and Ramdas Pophale) SiO2 
 PCOD8113087
Probable space group: C 2/M
;
_chemical_formula_sum "Si O2"
_cell_formula_units_Z 44
_cell_length_a 26.849163
_cell_length_b 11.812845
_cell_length_c 16.701183
_cell_angle_alpha 90.000000
_cell_angle_beta 156.187441
_cell_angle_gamma 90.000000
_cell_volume 2138.654129
_symmetry_space_group_name_H-M "C 2/M"
_symmetry_group_IT_number 12
_symmetry_cell_setting 'monoclinic'
loop_
_space_group_symop_operation_xyz
x,y,z
-x,y,-z
-x,-y,-z
x,-y,z
1/2+x,1/2+y,z
1/2-x,1/2+y,-z
1/2-x,1/2-y,-z
1/2+x,1/2-y,z
loop_
_atom_site_type_symbol
_atom_site_label
_atom_site_fract_x
_atom_site_fract_y
_atom_site_fract_z
Si Si1 0.826492 0.374815 0.426426
Si Si2 0.909133 0.500000 0.982693
Si Si3 0.685713 0.000000 0.436987
Si Si4 0.823180 0.737854 0.916787
Si Si5 0.128215 0.125943 0.732200
Si Si6 0.195952 0.000000 0.551034
Si Si7 0.501221 0.315222 0.701356
O O1 0.840483 0.500000 0.407438
O O2 0.799546 0.389828 0.482719
O O3 0.718453 0.304506 0.224002
O O4 0.955695 0.309013 0.606827
O O5 0.869421 0.612402 0.969297
O O6 0.836157 0.500000 0.790735
O O7 0.057585 0.500000 0.198553
O O8 0.794753 0.000000 0.531812
O O9 0.715837 0.723218 0.825282
O O10 0.933221 0.811974 0.116104
O O11 0.000000 0.139438 0.500000
O O12 0.103605 0.141316 0.790131
O O13 0.183299 0.000000 0.798614
O O14 0.121296 0.108218 0.473560
#
# Coordination Sequence:
#
# PCOD8113087 Si02
#       7
#     8   4   4   8   8   4   8
#     4  10  23  44  63  91 138 170 217 268 336 391
#     4  12  21  43  70 100 125 169 225 274 322 396
#     4  10  25  47  66  97 135 174 223 271 342 389
#     4  12  23  42  68  97 136 175 216 275 331 398
#     4  11  21  38  67 101 131 172 225 272 328 390
#     4  12  25  44  72 100 128 174 230 280 324 384
#     4  12  24  43  66  98 137 172 221 281 327 392
#
# _framework density 20.573685999999999
#
# number of rings (size 3 to 8) (size 9 to 14) (size 15 to 20)
#    0.545    0.182    7.273    0.818    1.273    0.727 
#    0.000    3.636    0.000    0.000    0.000    0.000 
#    0.000    0.000    0.000    0.000    0.000    0.000 
#
# Total GULP energy -272655.130906 kJ/mol
# GULP energy per Si atom -12393.415041 kJ/mol
# Density = 2.052686 g / cm^3
# Si number density = 20.573686 Si / 1000 Ang^3
#
#
#
# Elastic Constant Matrix: (Units=GPa)
#
#
# Indices 1 2 3 4 5 6 
#
# 1 96.0538 28.6619 26.8766 0.0000 -3.7097 0.0000
# 2 28.6619 97.0529 36.4626 0.0000 1.0569 0.0000
# 3 26.8766 36.4626 89.1108 0.0000 -21.3644 0.0000
# 4 0.0000 0.0000 0.0000 26.8338 0.0000 -13.2124
# 5 -3.7097 1.0569 -21.3644 0.0000 27.7813 0.0000
# 6 0.0000 0.0000 0.0000 -13.2124 0.0000 21.0543
#
#
#
# Elastic Compliance Matrix: (Units=1/GPa)
#
#
# Indices 1 2 3 4 5 6 
#
# 1 0.011886 -0.002515 -0.002639 0.000000 -0.000347 0.000000
# 2 -0.002515 0.013370 -0.006026 0.000000 -0.005478 0.000000
# 3 -0.002639 -0.006026 0.017721 0.000000 0.013505 0.000000
# 4 0.000000 0.000000 0.000000 0.053930 0.000000 0.033843
# 5 -0.000347 -0.005478 0.013505 0.000000 0.046543 0.000000
# 6 0.000000 0.000000 0.000000 0.033843 0.000000 0.068734
#
#
# Mechanical properties :
#
#
# Convention : Reuss Voigt Hill
#
# Bulk Modulus (GPa) = 48.50072 51.80219 50.15145
# Shear Modulus (GPa) = 20.71105 27.81496 24.26301
#
# Velocity S-wave (km/s) = 3.17626 3.68090 3.43785
# Velocity P-wave (km/s) = 6.08907 6.58019 6.33939
#
# Compressibility (1/GPa) = 0.02061825
#
# Stress axis : x y z
#
# Youngs Moduli (GPa) = 84.13014 74.79504 56.42928
#
# Poissons Ratio (x) = 0.18811 0.14892
# Poissons Ratio (y) = 0.21159 0.34002
# Poissons Ratio (z) = 0.22202 0.45068
#
# Static dielectric constant tensor:
#      x y z
#    x 3.681670 0.000000 -0.142080 
#    y 0.000000 3.794520 0.000000 
#    z -0.142080 0.000000 3.763860 
# 
# 
# High freq. dielectric constant tensor:
#      x y z
#    x 1.785920 0.000000 -0.015010 
#    y 0.000000 1.805180 0.000000 
#    z -0.015010 0.000000 1.807760 
# 
# From -- ./inp_files/296572.got.cif
#   From: 2010.06.25/outbox.cif.g09.slc.cpg/sg12_149_cif.got.tgz:296572.got - 2010.06.28 00:19:55.
