data_PCOD8113173
_publ_section_title
;
Structure prediction by ZEFSAII (Michael W. Deem and Ramdas Pophale) SiO2 
 PCOD8113173
Probable space group: C 2/M
;
_chemical_formula_sum "Si O2"
_cell_formula_units_Z 56
_cell_length_a 10.401061
_cell_length_b 17.962764
_cell_length_c 16.485501
_cell_angle_alpha 90.000000
_cell_angle_beta 121.340799
_cell_angle_gamma 90.000000
_cell_volume 2630.606696
_symmetry_space_group_name_H-M "C 2/M"
_symmetry_group_IT_number 12
_symmetry_cell_setting 'monoclinic'
loop_
_space_group_symop_operation_xyz
x,y,z
-x,y,-z
-x,-y,-z
x,-y,z
1/2+x,1/2+y,z
1/2-x,1/2+y,-z
1/2-x,1/2-y,-z
1/2+x,1/2-y,z
loop_
_atom_site_type_symbol
_atom_site_label
_atom_site_fract_x
_atom_site_fract_y
_atom_site_fract_z
Si Si1 0.773924 0.170208 0.236815
Si Si2 0.459971 0.912320 0.575795
Si Si3 0.725875 0.413916 0.044913
Si Si4 0.949808 0.849607 0.143915
Si Si5 0.216997 0.659618 0.764478
Si Si6 0.328494 0.414188 0.418614
Si Si7 0.955216 0.303893 0.072832
O O1 0.856777 0.124216 0.192251
O O2 0.834340 0.254875 0.253529
O O3 0.809510 0.135450 0.334148
O O4 0.596029 0.165032 0.168847
O O5 0.500000 0.877637 0.500000
O O6 0.585852 0.887872 0.681248
O O7 0.292365 0.888476 0.551672
O O8 0.468789 0.000000 0.572121
O O9 0.760801 0.500000 0.072273
O O10 0.745903 0.367389 0.132992
O O11 0.844266 0.373648 0.023441
O O12 0.570653 0.404590 0.941945
O O13 0.123751 0.849654 0.229280
O O14 0.888599 0.767482 0.098358
O O15 0.500000 0.401529 0.500000
O O16 0.297441 0.500000 0.386631
O O17 0.000000 0.272553 0.000000
#
# Coordination Sequence:
#
# PCOD8113173 Si02
#       7
#     8   8   8   8   8   8   8
#     4  11  23  40  66  94 126 168 217 262 323 382
#     4  10  23  45  70  95 129 171 213 261 326 392
#     4  12  24  40  62  91 130 171 219 267 320 381
#     4  11  23  40  62  92 128 174 213 263 323 383
#     4  11  24  40  64  94 128 168 214 268 321 383
#     4  10  24  46  71  98 130 167 211 270 327 381
#     4  11  21  40  64  87 127 172 219 266 317 379
#
# _framework density 21.287865
#
# number of rings (size 3 to 8) (size 9 to 14) (size 15 to 20)
#    0.000    1.143    2.857    3.857    4.000    4.857 
#    0.000    1.429    0.000    0.000    0.000    0.000 
#    0.000    0.000    0.000    0.000    0.000    0.000 
#
# Total GULP energy -347115.980700 kJ/mol
# GULP energy per Si atom -12396.999311 kJ/mol
# Density = 2.123941 g / cm^3
# Si number density = 21.287865 Si / 1000 Ang^3
#
#
#
# Elastic Constant Matrix: (Units=GPa)
#
#
# Indices 1 2 3 4 5 6 
#
# 1 85.3658 37.3610 63.0737 0.0000 -9.0286 0.0000
# 2 37.3610 76.8778 38.8341 0.0000 -5.5289 0.0000
# 3 63.0737 38.8341 118.8781 0.0000 -13.8281 0.0000
# 4 0.0000 0.0000 0.0000 35.5236 0.0000 0.1532
# 5 -9.0286 -5.5289 -13.8281 0.0000 38.2354 0.0000
# 6 0.0000 0.0000 0.0000 0.1532 0.0000 25.9463
#
#
#
# Elastic Compliance Matrix: (Units=1/GPa)
#
#
# Indices 1 2 3 4 5 6 
#
# 1 0.021066 -0.005486 -0.009289 0.000000 0.000821 0.000000
# 2 -0.005486 0.017014 -0.002622 0.000000 0.000217 0.000000
# 3 -0.009289 -0.002622 0.014508 0.000000 0.002674 0.000000
# 4 0.000000 0.000000 0.000000 0.028151 0.000000 -0.000166
# 5 0.000821 0.000217 0.002674 0.000000 0.027346 0.000000
# 6 0.000000 0.000000 0.000000 -0.000166 0.000000 0.038542
#
#
# Mechanical properties :
#
#
# Convention : Reuss Voigt Hill
#
# Bulk Modulus (GPa) = 56.20127 62.18436 59.19282
# Shear Modulus (GPa) = 26.68766 29.39792 28.04279
#
# Velocity S-wave (km/s) = 3.54454 3.72017 3.63342
# Velocity P-wave (km/s) = 6.57340 6.90851 6.74304
#
# Compressibility (1/GPa) = 0.01779319
#
# Stress axis : x y z
#
# Youngs Moduli (GPa) = 47.47073 58.77585 68.92655
#
# Poissons Ratio (x) = 0.32245 0.64027
# Poissons Ratio (y) = 0.26043 0.18072
# Poissons Ratio (z) = 0.44096 0.15411
#
# Static dielectric constant tensor:
#      x y z
#    x 4.408140 0.000000 0.183470 
#    y 0.000000 3.631910 0.000000 
#    z 0.183470 0.000000 3.936970 
# 
# 
# High freq. dielectric constant tensor:
#      x y z
#    x 1.852200 0.000000 0.001110 
#    y 0.000000 1.814120 0.000000 
#    z 0.001110 0.000000 1.833960 
# 
# From -- ./inp_files/206761.got.cif
#   From: 2010.06.25/outbox.cif.g09.slc.cpg/sg12_104_cif.got.tgz:206761.got - 2010.06.28 00:19:55.
