data_PCOD8113968
_publ_section_title
;
Structure prediction by ZEFSAII (Michael W. Deem and Ramdas Pophale) SiO2 
 PCOD8113968
Probable space group: C 2/M
;
_chemical_formula_sum "Si O2"
_cell_formula_units_Z 40
_cell_length_a 19.328946
_cell_length_b 11.225238
_cell_length_c 9.702774
_cell_angle_alpha 90.000000
_cell_angle_beta 108.340525
_cell_angle_gamma 90.000000
_cell_volume 1998.291400
_symmetry_space_group_name_H-M "C 2/M"
_symmetry_group_IT_number 12
_symmetry_cell_setting 'monoclinic'
loop_
_space_group_symop_operation_xyz
x,y,z
-x,y,-z
-x,-y,-z
x,-y,z
1/2+x,1/2+y,z
1/2-x,1/2+y,-z
1/2-x,1/2-y,-z
1/2+x,1/2-y,z
loop_
_atom_site_type_symbol
_atom_site_label
_atom_site_fract_x
_atom_site_fract_y
_atom_site_fract_z
Si Si1 0.021528 0.138630 0.665001
Si Si2 0.023382 0.500000 0.293126
Si Si3 0.448868 0.234307 0.844932
Si Si4 0.333786 0.781718 0.208476
Si Si5 0.807637 0.361534 0.887110
Si Si6 0.117890 0.500000 0.607026
O O1 0.091810 0.209251 0.760481
O O2 0.000000 0.184536 0.500000
O O3 0.954378 0.167601 0.726195
O O4 0.039390 0.000000 0.675485
O O5 0.018409 0.611812 0.190627
O O6 0.096655 0.500000 0.432275
O O7 0.953511 0.500000 0.344726
O O8 0.366146 0.218088 0.841671
O O9 0.500000 0.279701 0.000000
O O10 0.270855 0.687938 0.206814
O O11 0.336431 0.880685 0.330934
O O12 0.318055 0.849881 0.056714
O O13 0.814667 0.500000 0.849184
#
# Coordination Sequence:
#
# PCOD8113968 Si02
#       6
#     8   4   8   8   8   4
#     4  11  24  43  64  90 126 168 207 249 311 379
#     4  11  21  34  68  94 124 155 205 266 303 360
#     4  12  22  39  65  96 122 157 209 265 310 363
#     4  11  22  40  63  90 125 167 206 254 309 373
#     4  11  23  40  62  93 127 161 206 259 317 363
#     4  11  20  38  62  96 123 163 212 247 306 374
#
# _framework density 20.017099999999999
#
# number of rings (size 3 to 8) (size 9 to 14) (size 15 to 20)
#    0.000    0.800    6.000    2.100    0.000    0.400 
#    1.800    4.000    0.000    0.000    0.000    0.000 
#    0.000    0.000    0.000    0.000    0.000    0.000 
#
# Total GULP energy -248091.426339 kJ/mol
# GULP energy per Si atom -12404.571317 kJ/mol
# Density = 1.997154 g / cm^3
# Si number density = 20.017100 Si / 1000 Ang^3
#
#
#
# Elastic Constant Matrix: (Units=GPa)
#
#
# Indices 1 2 3 4 5 6 
#
# 1 101.1476 24.7341 24.0855 0.0000 3.5945 0.0000
# 2 24.7341 72.6766 26.8595 0.0000 9.4390 0.0000
# 3 24.0855 26.8595 93.7674 0.0000 -1.2796 0.0000
# 4 0.0000 0.0000 0.0000 38.1535 0.0000 -15.6783
# 5 3.5945 9.4390 -1.2796 0.0000 29.3395 0.0000
# 6 0.0000 0.0000 0.0000 -15.6783 0.0000 42.1060
#
#
#
# Elastic Compliance Matrix: (Units=1/GPa)
#
#
# Indices 1 2 3 4 5 6 
#
# 1 0.011110 -0.002975 -0.002008 0.000000 -0.000492 0.000000
# 2 -0.002975 0.017003 -0.004179 0.000000 -0.005288 0.000000
# 3 -0.002008 -0.004179 0.012407 0.000000 0.002131 0.000000
# 4 0.000000 0.000000 0.000000 0.030945 0.000000 0.011522
# 5 -0.000492 -0.005288 0.002131 0.000000 0.035938 0.000000
# 6 0.000000 0.000000 0.000000 0.011522 0.000000 0.028040
#
#
# Mechanical properties :
#
#
# Convention : Reuss Voigt Hill
#
# Bulk Modulus (GPa) = 45.05321 46.55000 45.80160
# Shear Modulus (GPa) = 31.02424 34.71397 32.86910
#
# Velocity S-wave (km/s) = 3.94113 4.16891 4.05662
# Velocity P-wave (km/s) = 6.57771 6.81753 6.69869
#
# Compressibility (1/GPa) = 0.02219598
#
# Stress axis : x y z
#
# Youngs Moduli (GPa) = 90.01155 58.81273 80.60263
#
# Poissons Ratio (x) = 0.17496 0.16187
# Poissons Ratio (y) = 0.26778 0.33680
# Poissons Ratio (z) = 0.18076 0.24575
#
# Static dielectric constant tensor:
#      x y z
#    x 3.621720 0.000000 0.005990 
#    y 0.000000 3.660790 0.000000 
#    z 0.005990 0.000000 3.837380 
# 
# 
# High freq. dielectric constant tensor:
#      x y z
#    x 1.769750 0.000000 0.001080 
#    y 0.000000 1.784020 0.000000 
#    z 0.001080 0.000000 1.784100 
# 
# From -- ./inp_files/83769.got.cif
#   From: 2010.06.25/outbox.cif.g09.slc.cpg/sg12_42_cif.got.tgz:83769.got - 2010.06.28 00:19:55.
