data_PCOD8113475
_publ_section_title
;
Structure prediction by ZEFSAII (Michael W. Deem and Ramdas Pophale) SiO2 
 PCOD8113475
Probable space group: C 2/M
;
_chemical_formula_sum "Si O2"
_cell_formula_units_Z 48
_cell_length_a 13.819318
_cell_length_b 11.787373
_cell_length_c 25.143355
_cell_angle_alpha 90.000000
_cell_angle_beta 148.392519
_cell_angle_gamma 90.000000
_cell_volume 2146.538237
_symmetry_space_group_name_H-M "C 2/M"
_symmetry_group_IT_number 12
_symmetry_cell_setting 'monoclinic'
loop_
_space_group_symop_operation_xyz
x,y,z
-x,y,-z
-x,-y,-z
x,-y,z
1/2+x,1/2+y,z
1/2-x,1/2+y,-z
1/2-x,1/2-y,-z
1/2+x,1/2-y,z
loop_
_atom_site_type_symbol
_atom_site_label
_atom_site_fract_x
_atom_site_fract_y
_atom_site_fract_z
Si Si1 0.434411 0.744430 0.698620
Si Si2 0.494431 0.239491 0.157634
Si Si3 0.537316 0.000000 0.431934
Si Si4 0.604936 0.374560 0.495121
Si Si5 0.885455 0.716629 0.316544
Si Si6 0.800122 0.000000 0.645700
Si Si7 0.887649 0.367742 0.000610
O O1 0.462659 0.821618 0.765148
O O2 0.265152 0.783949 0.582460
O O3 0.614746 0.752041 0.746016
O O4 0.417962 0.613793 0.710223
O O5 0.675401 0.317850 0.232471
O O6 0.490335 0.155440 0.105060
O O7 0.309140 0.308585 0.082993
O O8 0.522522 0.111145 0.388894
O O9 0.733143 0.000000 0.553102
O O10 0.374808 0.000000 0.398527
O O11 0.500000 0.395133 0.500000
O O12 0.676708 0.500000 0.508841
O O13 0.461323 0.323087 0.385678
O O14 0.853735 0.500000 0.978190
O O15 0.000000 0.324171 0.000000
#
# Coordination Sequence:
#
# PCOD8113475 Si02
#       7
#     8   8   4   8   8   4   8
#     4  12  25  40  65  98 135 181 230 267 327 383
#     4  11  24  45  69  99 134 162 210 276 333 391
#     4  11  22  40  64  91 135 183 232 278 312 371
#     4  11  23  41  60  89 140 188 225 270 324 381
#     4  12  25  40  63  99 134 181 228 269 323 384
#     4  11  22  40  66  91 133 185 238 274 310 369
#     4  10  24  48  77 101 125 163 212 270 341 414
#
# _framework density 22.361585999999999
#
# number of rings (size 3 to 8) (size 9 to 14) (size 15 to 20)
#    0.000    0.833    5.000    1.500    4.667    1.333 
#    0.000    0.000    0.000    3.000    0.000    0.000 
#    0.000    0.000    0.000    0.000    0.000    0.000 
#
# Total GULP energy -297332.860423 kJ/mol
# GULP energy per Si atom -12388.869184 kJ/mol
# Density = 2.231069 g / cm^3
# Si number density = 22.361586 Si / 1000 Ang^3
#
#
#
# Elastic Constant Matrix: (Units=GPa)
#
#
# Indices 1 2 3 4 5 6 
#
# 1 160.7706 28.0766 50.6702 0.0000 -24.1541 0.0000
# 2 28.0766 97.8918 6.6172 0.0000 3.8604 0.0000
# 3 50.6702 6.6172 78.1975 0.0001 -2.6719 0.0000
# 4 0.0000 0.0000 0.0001 16.8144 0.0000 2.4513
# 5 -24.1541 3.8604 -2.6719 0.0000 28.3546 0.0000
# 6 0.0000 0.0000 0.0000 2.4513 0.0000 22.1925
#
#
#
# Elastic Compliance Matrix: (Units=1/GPa)
#
#
# Indices 1 2 3 4 5 6 
#
# 1 0.009747 -0.002723 -0.005808 0.000000 0.008127 0.000000
# 2 -0.002723 0.011098 0.000697 0.000000 -0.003765 0.000000
# 3 -0.005808 0.000697 0.016373 0.000000 -0.003499 0.000000
# 4 0.000000 0.000000 0.000000 0.060446 0.000000 -0.006677
# 5 0.008127 -0.003765 -0.003499 0.000000 0.042373 0.000000
# 6 0.000000 0.000000 0.000000 -0.006677 0.000000 0.045798
#
#
# Mechanical properties :
#
#
# Convention : Reuss Voigt Hill
#
# Bulk Modulus (GPa) = 46.40518 56.39865 51.40191
# Shear Modulus (GPa) = 23.95939 30.23870 27.09904
#
# Velocity S-wave (km/s) = 3.27686 3.68130 3.48495
# Velocity P-wave (km/s) = 5.92573 6.58371 6.26337
#
# Compressibility (1/GPa) = 0.02154932
#
# Stress axis : x y z
#
# Youngs Moduli (GPa) = 102.59556 90.10756 61.07678
#
# Poissons Ratio (x) = 0.24540 0.35472
# Poissons Ratio (y) = 0.27941 -0.04257
# Poissons Ratio (z) = 0.59584 -0.06280
#
# Static dielectric constant tensor:
#      x y z
#    x 4.591450 0.000000 -0.207310 
#    y 0.000000 3.886150 0.000000 
#    z -0.207310 0.000000 4.185300 
# 
# 
# High freq. dielectric constant tensor:
#      x y z
#    x 1.922230 0.000000 -0.004800 
#    y 0.000000 1.850230 0.000000 
#    z -0.004800 0.000000 1.874350 
# 
# From -- ./inp_files/361093.got.cif
#   From: 2010.06.25/outbox.cif.g09.slc.cpg/sg12_181_cif.got.tgz:361093.got - 2010.06.28 00:19:55.
