data_PCOD8113111
_publ_section_title
;
Structure prediction by ZEFSAII (Michael W. Deem and Ramdas Pophale) SiO2 
 PCOD8113111
Probable space group: C 2/M
;
_chemical_formula_sum "Si O2"
_cell_formula_units_Z 56
_cell_length_a 18.060648
_cell_length_b 13.863596
_cell_length_c 11.469180
_cell_angle_alpha 90.000000
_cell_angle_beta 68.240495
_cell_angle_gamma 90.000000
_cell_volume 2667.101318
_symmetry_space_group_name_H-M "C 2/M"
_symmetry_group_IT_number 12
_symmetry_cell_setting 'monoclinic'
loop_
_space_group_symop_operation_xyz
x,y,z
-x,y,-z
-x,-y,-z
x,-y,z
1/2+x,1/2+y,z
1/2-x,1/2+y,-z
1/2-x,1/2-y,-z
1/2+x,1/2-y,z
loop_
_atom_site_type_symbol
_atom_site_label
_atom_site_fract_x
_atom_site_fract_y
_atom_site_fract_z
Si Si1 0.461167 0.604590 0.897702
Si Si2 0.991129 0.693355 0.143187
Si Si3 0.188212 0.110557 0.327725
Si Si4 0.594143 0.785901 0.441663
Si Si5 0.360776 0.112084 0.817801
Si Si6 0.716702 0.611416 0.051720
Si Si7 0.648487 0.889270 0.639688
O O1 0.473320 0.500000 0.825269
O O2 0.500238 0.696786 0.809410
O O3 0.367107 0.626602 0.965542
O O4 0.500000 0.594776 0.000000
O O5 0.057869 0.625209 0.158863
O O6 0.905549 0.651202 0.224142
O O7 0.000000 0.696255 0.000000
O O8 0.114565 0.172602 0.420332
O O9 0.211899 0.151660 0.186267
O O10 0.260940 0.122113 0.374020
O O11 0.159347 0.000000 0.336143
O O12 0.500000 0.802402 0.500000
O O13 0.634339 0.839547 0.310344
O O14 0.634216 0.828181 0.533008
O O15 0.344967 0.000000 0.805346
O O16 0.287787 0.160757 0.934522
O O17 0.740337 0.500000 0.047759
O O18 0.626310 0.000000 0.628099
#
# Coordination Sequence:
#
# PCOD8113111 Si02
#       7
#     8   8   8   8   8   8   8
#     4   9  19  36  56  85 127 165 202 254 315 374
#     4  11  22  35  60  93 122 162 208 256 319 377
#     4  10  23  44  68  93 126 165 211 269 317 367
#     4  12  25  41  64  93 127 173 214 253 313 380
#     4  11  23  39  62  93 127 164 211 259 316 378
#     4   9  19  37  63  92 122 161 205 259 321 370
#     4  11  24  43  64  90 128 166 210 264 315 370
#
# _framework density 20.996578
#
# number of rings (size 3 to 8) (size 9 to 14) (size 15 to 20)
#    0.000    1.571    1.429    3.000    0.000    7.714 
#    0.000    0.714    0.000    0.857    0.000    0.000 
#    0.000    0.000    0.000    0.000    0.000    0.000 
#
# Total GULP energy -347174.082254 kJ/mol
# GULP energy per Si atom -12399.074366 kJ/mol
# Density = 2.094879 g / cm^3
# Si number density = 20.996578 Si / 1000 Ang^3
#
#
#
# Elastic Constant Matrix: (Units=GPa)
#
#
# Indices 1 2 3 4 5 6 
#
# 1 86.1263 21.2492 27.3466 0.0000 15.7297 0.0000
# 2 21.2492 97.6491 46.3134 0.0000 -3.5126 0.0000
# 3 27.3466 46.3134 107.2066 0.0000 13.0830 0.0000
# 4 0.0000 0.0000 0.0000 30.0329 0.0000 -4.1785
# 5 15.7297 -3.5126 13.0830 0.0000 27.6513 0.0000
# 6 0.0000 0.0000 0.0000 -4.1785 0.0000 25.3887
#
#
#
# Elastic Compliance Matrix: (Units=1/GPa)
#
#
# Indices 1 2 3 4 5 6 
#
# 1 0.014144 -0.002622 -0.001542 0.000000 -0.007650 0.000000
# 2 -0.002622 0.013924 -0.006096 0.000000 0.006145 0.000000
# 3 -0.001542 -0.006096 0.013098 0.000000 -0.006095 0.000000
# 4 0.000000 0.000000 0.000000 0.034077 0.000000 0.005608
# 5 -0.007650 0.006145 -0.006095 0.000000 0.044181 0.000000
# 6 0.000000 0.000000 0.000000 0.005608 0.000000 0.040311
#
#
# Mechanical properties :
#
#
# Convention : Reuss Voigt Hill
#
# Bulk Modulus (GPa) = 48.43349 53.42226 50.92788
# Shear Modulus (GPa) = 26.71849 29.68611 28.20230
#
# Velocity S-wave (km/s) = 3.57110 3.76421 3.66893
# Velocity P-wave (km/s) = 6.33412 6.66265 6.50046
#
# Compressibility (1/GPa) = 0.02064687
#
# Stress axis : x y z
#
# Youngs Moduli (GPa) = 70.69941 71.82055 76.34544
#
# Poissons Ratio (x) = 0.18830 0.11771
# Poissons Ratio (y) = 0.18536 0.46541
# Poissons Ratio (z) = 0.10901 0.43782
#
# Static dielectric constant tensor:
#      x y z
#    x 3.718590 0.000000 0.135470 
#    y 0.000000 4.259080 0.000000 
#    z 0.135470 0.000000 3.347950 
# 
# 
# High freq. dielectric constant tensor:
#      x y z
#    x 1.830620 0.000000 0.007090 
#    y 0.000000 1.841270 0.000000 
#    z 0.007090 0.000000 1.803750 
# 
# From -- ./inp_files/156547.got.cif
#   From: 2010.06.25/outbox.cif.g09.slc.cpg/sg12_79_cif.got.tgz:156547.got - 2010.06.28 00:19:55.
