data_PCOD8113186
_publ_section_title
;
Structure prediction by ZEFSAII (Michael W. Deem and Ramdas Pophale) SiO2 
 PCOD8113186
Probable space group: C 2/M
;
_chemical_formula_sum "Si O2"
_cell_formula_units_Z 44
_cell_length_a 11.397338
_cell_length_b 22.614525
_cell_length_c 13.872995
_cell_angle_alpha 90.000000
_cell_angle_beta 145.069618
_cell_angle_gamma 90.000000
_cell_volume 2047.377030
_symmetry_space_group_name_H-M "C 2/M"
_symmetry_group_IT_number 12
_symmetry_cell_setting 'monoclinic'
loop_
_space_group_symop_operation_xyz
x,y,z
-x,y,-z
-x,-y,-z
x,-y,z
1/2+x,1/2+y,z
1/2-x,1/2+y,-z
1/2-x,1/2-y,-z
1/2+x,1/2-y,z
loop_
_atom_site_type_symbol
_atom_site_label
_atom_site_fract_x
_atom_site_fract_y
_atom_site_fract_z
Si Si1 0.579152 0.293505 0.152924
Si Si2 0.780036 0.000000 0.803946
Si Si3 0.948800 0.000000 0.176978
Si Si4 0.525896 0.905599 0.329571
Si Si5 0.000000 0.339605 0.500000
Si Si6 0.242996 0.126058 0.976756
Si Si7 0.500000 0.820372 0.000000
Si Si8 0.645410 0.500000 0.505566
O O1 0.818655 0.301402 0.332519
O O2 0.438266 0.325465 0.137353
O O3 0.555796 0.222206 0.128952
O O4 0.500000 0.323735 0.000000
O O5 0.659457 0.057485 0.751310
O O6 0.823684 0.000000 0.718065
O O7 0.000000 0.000000 0.000000
O O8 0.826484 0.941949 0.060319
O O9 0.977054 0.000000 0.309136
O O10 0.605425 0.873015 0.479808
O O11 0.710391 0.942190 0.404705
O O12 0.424842 0.864366 0.178484
O O13 0.323967 0.136787 0.922444
O O14 0.500000 0.500000 0.500000
#
# Coordination Sequence:
#
# PCOD8113186 Si02
#       8
#     8   4   4   8   4   8   4   4
#     4  10  23  45  71  99 133 175 231 291 342 395
#     4  11  19  36  61  99 136 170 226 283 339 405
#     4  12  25  38  67 102 137 183 221 280 354 405
#     4  11  22  38  64  99 131 183 225 278 348 406
#     4  12  22  41  76 102 128 165 234 304 356 388
#     4  12  23  44  72 101 136 182 231 283 347 416
#     4  10  26  45  70  93 142 186 232 288 336 418
#     4  11  26  42  54  88 154 185 225 275 320 429
#
# _framework density 21.490911000000001
#
# number of rings (size 3 to 8) (size 9 to 14) (size 15 to 20)
#    0.545    0.364    3.636    4.364    2.545    1.818 
#    0.000    5.455    0.000    0.000    0.000    0.000 
#    0.000    0.000    0.000    0.000    0.000    0.000 
#
# Total GULP energy -272589.966411 kJ/mol
# GULP energy per Si atom -12390.453019 kJ/mol
# Density = 2.144200 g / cm^3
# Si number density = 21.490911 Si / 1000 Ang^3
#
#
#
# Elastic Constant Matrix: (Units=GPa)
#
#
# Indices 1 2 3 4 5 6 
#
# 1 160.9184 39.7046 29.6380 0.0000 16.0334 0.0000
# 2 39.7046 83.3483 14.2556 0.0000 8.1532 0.0000
# 3 29.6380 14.2556 110.1203 -0.0001 -0.3692 0.0000
# 4 0.0000 0.0000 -0.0001 0.1072 0.0000 7.5099
# 5 16.0334 8.1532 -0.3692 0.0000 33.3288 0.0000
# 6 0.0000 0.0000 0.0000 7.5099 0.0000 15.8014
#
#
#
# Elastic Compliance Matrix: (Units=1/GPa)
#
#
# Indices 1 2 3 4 5 6 
#
# 1 0.007557 -0.003033 -0.001651 0.000000 -0.002912 0.000000
# 2 -0.003033 0.013798 -0.000976 0.000000 -0.001927 0.000000
# 3 -0.001651 -0.000976 0.009656 0.000000 0.001140 0.000000
# 4 0.000000 0.000000 0.000000 -0.288850 0.000000 0.137281
# 5 -0.002912 -0.001927 0.001140 0.000000 0.031889 0.000000
# 6 0.000000 0.000000 0.000000 0.137281 0.000000 -0.001959
#
#
# Mechanical properties :
#
#
# Convention : Reuss Voigt Hill
#
# Bulk Modulus (GPa) = 50.78679 57.95371 54.37025
# Shear Modulus (GPa) = -23.80657 27.90006 2.04675
#
# Velocity S-wave (km/s) = -3.33190 3.60700 0.97696
# Velocity P-wave (km/s) = 2.98010 6.66126 5.16011
#
# Compressibility (1/GPa) = 0.01969016
#
# Stress axis : x y z
#
# Youngs Moduli (GPa) = 132.33125 72.47411 103.56712
#
# Poissons Ratio (x) = 0.21979 0.17099
# Poissons Ratio (y) = 0.40131 0.10113
# Poissons Ratio (z) = 0.21848 0.07077
#
# Static dielectric constant tensor:
#      x y z
#    x 4.151440 0.000000 -0.092820 
#    y 0.000000 3.516530 0.000000 
#    z -0.092820 0.000000 3.848360 
# 
# 
# High freq. dielectric constant tensor:
#      x y z
#    x 1.849560 0.000000 -0.001160 
#    y 0.000000 1.829060 0.000000 
#    z -0.001160 0.000000 1.837420 
# 
# From -- ./inp_files/209255.got.cif
#   From: 2010.06.25/outbox.cif.g09.slc.cpg/sg12_105_cif.got.tgz:209255.got - 2010.06.28 00:19:55.
