data_PCOD8113329
_publ_section_title
;
Structure prediction by ZEFSAII (Michael W. Deem and Ramdas Pophale) SiO2 
 PCOD8113329
Probable space group: C 2/M
;
_chemical_formula_sum "Si O2"
_cell_formula_units_Z 48
_cell_length_a 9.156172
_cell_length_b 18.099059
_cell_length_c 15.868864
_cell_angle_alpha 90.000000
_cell_angle_beta 66.831221
_cell_angle_gamma 90.000000
_cell_volume 2417.667615
_symmetry_space_group_name_H-M "C 2/M"
_symmetry_group_IT_number 12
_symmetry_cell_setting 'monoclinic'
loop_
_space_group_symop_operation_xyz
x,y,z
-x,y,-z
-x,-y,-z
x,-y,z
1/2+x,1/2+y,z
1/2-x,1/2+y,-z
1/2-x,1/2-y,-z
1/2+x,1/2-y,z
loop_
_atom_site_type_symbol
_atom_site_label
_atom_site_fract_x
_atom_site_fract_y
_atom_site_fract_z
Si Si1 0.824688 0.289362 0.562457
Si Si2 0.777256 0.704071 0.260337
Si Si3 0.210358 0.083815 0.697137
Si Si4 0.649195 0.584598 0.176433
Si Si5 0.828317 0.328608 0.996408
Si Si6 0.867039 0.330559 0.801190
O O1 0.750000 0.250000 0.500000
O O2 0.831586 0.230535 0.637304
O O3 0.725700 0.362054 0.613135
O O4 0.000000 0.316290 0.500000
O O5 0.724897 0.623498 0.241131
O O6 0.755405 0.762514 0.188257
O O7 0.958019 0.703476 0.249871
O O8 0.339824 0.105026 0.738895
O O9 0.039569 0.093779 0.778985
O O10 0.238892 0.000000 0.660407
O O11 0.702711 0.500000 0.168524
O O12 0.712745 0.619022 0.075414
O O13 0.847021 0.364143 0.899082
O O14 0.750000 0.250000 0.000000
O O15 0.000000 0.321685 0.000000
#
# Coordination Sequence:
#
# PCOD8113329 Si02
#       6
#     8   8   8   8   8   8
#     4  11  22  39  66  94 118 152 204 259 311 373
#     4  11  21  40  62  89 123 160 203 256 308 371
#     4  10  24  43  63  89 127 166 205 252 312 372
#     4  11  24  41  60  88 127 168 205 252 306 360
#     4  12  24  38  62  93 123 162 212 260 296 353
#     4  11  21  38  63  89 122 166 209 250 302 358
#
# _framework density 19.853845
#
# number of rings (size 3 to 8) (size 9 to 14) (size 15 to 20)
#    0.000    1.000    3.333    5.000    2.333    2.000 
#    0.000    2.500    0.000    3.000    0.000    0.000 
#    0.000    0.000    0.000    0.000    0.000    0.000 
#
# Total GULP energy -297659.301089 kJ/mol
# GULP energy per Si atom -12402.470879 kJ/mol
# Density = 1.980866 g / cm^3
# Si number density = 19.853845 Si / 1000 Ang^3
#
#
#
# Elastic Constant Matrix: (Units=GPa)
#
#
# Indices 1 2 3 4 5 6 
#
# 1 110.8487 50.4313 40.9282 0.0000 3.9851 0.0000
# 2 50.4313 155.8597 68.8360 0.0000 6.5898 0.0000
# 3 40.9282 68.8360 130.4476 0.0000 6.6560 0.0000
# 4 0.0000 0.0000 0.0000 31.9944 0.0000 -2.2651
# 5 3.9851 6.5898 6.6560 0.0000 40.9077 0.0000
# 6 0.0000 0.0000 0.0000 -2.2651 0.0000 25.9710
#
#
#
# Elastic Compliance Matrix: (Units=1/GPa)
#
#
# Indices 1 2 3 4 5 6 
#
# 1 0.010987 -0.002642 -0.002037 0.000000 -0.000313 0.000000
# 2 -0.002642 0.009017 -0.003901 0.000000 -0.000561 0.000000
# 3 -0.002037 -0.003901 0.010408 0.000000 -0.000867 0.000000
# 4 0.000000 0.000000 0.000000 0.031450 0.000000 0.002743
# 5 -0.000313 -0.000561 -0.000867 0.000000 0.024707 0.000000
# 6 0.000000 0.000000 0.000000 0.002743 0.000000 0.038744
#
#
# Mechanical properties :
#
#
# Convention : Reuss Voigt Hill
#
# Bulk Modulus (GPa) = 75.45985 79.72743 77.59364
# Shear Modulus (GPa) = 34.03925 35.57200 34.80563
#
# Velocity S-wave (km/s) = 4.14513 4.23743 4.19154
# Velocity P-wave (km/s) = 7.81023 8.01158 7.91155
#
# Compressibility (1/GPa) = 0.01325208
#
# Stress axis : x y z
#
# Youngs Moduli (GPa) = 91.01929 110.89607 96.08307
#
# Poissons Ratio (x) = 0.29300 0.19571
# Poissons Ratio (y) = 0.24048 0.37481
# Poissons Ratio (z) = 0.18540 0.43259
#
# Static dielectric constant tensor:
#      x y z
#    x 3.729550 0.000000 0.167640 
#    y 0.000000 3.593980 0.000000 
#    z 0.167640 0.000000 3.708460 
# 
# 
# High freq. dielectric constant tensor:
#      x y z
#    x 1.783080 0.000000 -0.001640 
#    y 0.000000 1.761000 0.000000 
#    z -0.001640 0.000000 1.781230 
# 
# From -- ./inp_files/256451.got.cif
#   From: 2010.06.25/outbox.cif.g09.slc.cpg/sg12_129_cif.got.tgz:256451.got - 2010.06.28 00:19:55.
