data_PCOD8113265
_publ_section_title
;
Structure prediction by ZEFSAII (Michael W. Deem and Ramdas Pophale) SiO2 
 PCOD8113265
Probable space group: C 2/M
;
_chemical_formula_sum "Si O2"
_cell_formula_units_Z 44
_cell_length_a 9.343280
_cell_length_b 9.905413
_cell_length_c 23.213345
_cell_angle_alpha 90.000000
_cell_angle_beta 71.321972
_cell_angle_gamma 90.000000
_cell_volume 2035.224942
_symmetry_space_group_name_H-M "C 2/M"
_symmetry_group_IT_number 12
_symmetry_cell_setting 'monoclinic'
loop_
_space_group_symop_operation_xyz
x,y,z
-x,y,-z
-x,-y,-z
x,-y,z
1/2+x,1/2+y,z
1/2-x,1/2+y,-z
1/2-x,1/2-y,-z
1/2+x,1/2-y,z
loop_
_atom_site_type_symbol
_atom_site_label
_atom_site_fract_x
_atom_site_fract_y
_atom_site_fract_z
Si Si1 0.203401 0.500000 0.634193
Si Si2 0.932380 0.153476 0.068447
Si Si3 0.189279 0.790194 0.581327
Si Si4 0.990288 0.000000 0.332000
Si Si5 0.883254 0.728489 0.857457
Si Si6 0.972881 0.500000 0.231102
Si Si7 0.170231 0.000000 0.199306
Si Si8 0.000000 0.264401 0.500000
O O1 0.193939 0.630815 0.594629
O O2 0.359664 0.500000 0.648825
O O3 0.060354 0.500000 0.696332
O O4 0.751635 0.158791 0.089751
O O5 0.983148 0.249083 0.114256
O O6 0.987984 0.000000 0.071327
O O7 0.000000 0.209341 0.000000
O O8 0.113176 0.868826 0.643656
O O9 0.087348 0.822296 0.537820
O O10 0.361425 0.846045 0.548455
O O11 0.024834 0.000000 0.259898
O O12 0.829508 0.870227 0.840318
O O13 0.934077 0.633478 0.798145
O O14 0.817159 0.500000 0.218406
#
# Coordination Sequence:
#
# PCOD8113265 Si02
#       8
#     4   8   8   4   8   4   4   4
#     4  11  24  44  64  95 131 167 205 270 315 374
#     4  11  24  41  64  95 133 167 209 264 318 371
#     4  11  23  44  67  95 128 167 211 256 324 370
#     4  11  24  44  64  95 131 167 205 270 315 374
#     4  12  22  44  65  97 124 170 214 262 312 384
#     4  11  24  41  67  93 129 167 213 260 321 372
#     4  11  24  41  67  93 129 167 213 260 321 372
#     4  10  24  40  68  98 124 170 210 260 308 390
#
# _framework density 21.619232
#
# number of rings (size 3 to 8) (size 9 to 14) (size 15 to 20)
#    0.000    0.909    5.455    1.636    0.000    5.091 
#    0.000    2.727    0.000    0.000    0.000    0.000 
#    0.000    0.000    0.000    0.000    0.000    0.000 
#
# Total GULP energy -272751.263264 kJ/mol
# GULP energy per Si atom -12397.784694 kJ/mol
# Density = 2.157003 g / cm^3
# Si number density = 21.619232 Si / 1000 Ang^3
#
#
#
# Elastic Constant Matrix: (Units=GPa)
#
#
# Indices 1 2 3 4 5 6 
#
# 1 93.0412 12.7647 27.4636 0.0000 -15.8232 0.0000
# 2 12.7647 109.2140 33.5296 0.0000 -2.9547 0.0000
# 3 27.4636 33.5296 128.4683 0.0000 -25.1192 0.0000
# 4 0.0000 0.0000 0.0000 10.4917 0.0000 -12.6846
# 5 -15.8232 -2.9547 -25.1192 0.0000 41.3312 0.0000
# 6 0.0000 0.0000 0.0000 -12.6846 0.0000 17.6974
#
#
#
# Elastic Compliance Matrix: (Units=1/GPa)
#
#
# Indices 1 2 3 4 5 6 
#
# 1 0.011943 -0.000791 -0.001661 0.000000 0.003506 0.000000
# 2 -0.000791 0.010042 -0.002690 0.000000 -0.001220 0.000000
# 3 -0.001661 -0.002690 0.009850 0.000000 0.005158 0.000000
# 4 0.000000 0.000000 0.000000 0.714268 0.000000 0.511951
# 5 0.003506 -0.001220 0.005158 0.000000 0.028585 0.000000
# 6 0.000000 0.000000 0.000000 0.511951 0.000000 0.423446
#
#
# Mechanical properties :
#
#
# Convention : Reuss Voigt Hill
#
# Bulk Modulus (GPa) = 46.40442 53.13772 49.77107
# Shear Modulus (GPa) = 4.11319 31.03511 17.57415
#
# Velocity S-wave (km/s) = 1.38083 3.79295 2.85422
# Velocity P-wave (km/s) = 4.90441 6.61923 5.82527
#
# Compressibility (1/GPa) = 0.02154967
#
# Stress axis : x y z
#
# Youngs Moduli (GPa) = 83.73062 99.58446 101.52469
#
# Poissons Ratio (x) = 0.07878 0.16865
# Poissons Ratio (y) = 0.06623 0.27313
# Poissons Ratio (z) = 0.13909 0.26791
#
# Static dielectric constant tensor:
#      x y z
#    x 3.882940 0.000000 -0.247310 
#    y 0.000000 3.633110 0.000000 
#    z -0.247310 0.000000 4.158350 
# 
# 
# High freq. dielectric constant tensor:
#      x y z
#    x 1.847720 0.000000 -0.017330 
#    y 0.000000 1.836740 0.000000 
#    z -0.017330 0.000000 1.863590 
# 
# From -- ./inp_files/299384.got.cif
#   From: 2010.06.25/outbox.cif.g09.slc.cpg/sg12_150_cif.got.tgz:299384.got - 2010.06.28 00:19:55.
