data_PCOD8113552
_publ_section_title
;
Structure prediction by ZEFSAII (Michael W. Deem and Ramdas Pophale) SiO2 
 PCOD8113552
Probable space group: C 2/M
;
_chemical_formula_sum "Si O2"
_cell_formula_units_Z 52
_cell_length_a 11.006977
_cell_length_b 21.338057
_cell_length_c 10.979419
_cell_angle_alpha 90.000000
_cell_angle_beta 111.196314
_cell_angle_gamma 90.000000
_cell_volume 2404.251504
_symmetry_space_group_name_H-M "C 2/M"
_symmetry_group_IT_number 12
_symmetry_cell_setting 'monoclinic'
loop_
_space_group_symop_operation_xyz
x,y,z
-x,y,-z
-x,-y,-z
x,-y,z
1/2+x,1/2+y,z
1/2-x,1/2+y,-z
1/2-x,1/2-y,-z
1/2+x,1/2-y,z
loop_
_atom_site_type_symbol
_atom_site_label
_atom_site_fract_x
_atom_site_fract_y
_atom_site_fract_z
Si Si1 0.737713 0.625219 0.828692
Si Si2 0.509134 0.690826 0.146219
Si Si3 0.870803 0.000000 0.602041
Si Si4 0.170742 0.000000 0.673528
Si Si5 0.562335 0.820608 0.259754
Si Si6 0.259763 0.391864 0.712607
Si Si7 0.378719 0.926539 0.108175
Si Si8 0.500000 0.844964 0.500000
O O1 0.601043 0.650144 0.828174
O O2 0.723502 0.560032 0.758359
O O3 0.794557 0.675439 0.750738
O O4 0.839752 0.611203 0.973242
O O5 0.484626 0.763457 0.169524
O O6 0.654471 0.671515 0.244309
O O7 0.500000 0.679814 0.000000
O O8 0.847739 0.061676 0.669712
O O9 0.780227 0.000000 0.448705
O O10 0.017604 0.000000 0.616337
O O11 0.499825 0.888524 0.208602
O O12 0.559068 0.806774 0.405059
O O13 0.239065 0.422114 0.838127
O O14 0.121551 0.384363 0.595086
O O15 0.413869 0.000000 0.097001
#
# Coordination Sequence:
#
# PCOD8113552 Si02
#       8
#     8   8   4   4   8   8   8   4
#     4  12  24  43  71 104 138 180 223 291 349 400
#     4  12  26  45  73 104 140 180 228 285 347 412
#     4  11  22  42  63 101 140 183 236 275 340 410
#     4  11  24  39  64 103 141 177 231 289 340 399
#     4  11  28  46  68 101 138 185 231 281 340 412
#     4  11  23  44  70  99 140 184 230 279 339 414
#     4  11  23  42  72 103 139 177 227 284 349 409
#     4  10  26  51  64  96 136 189 234 274 336 406
#
# _framework density 21.628354000000002
#
# number of rings (size 3 to 8) (size 9 to 14) (size 15 to 20)
#    0.000    0.769    4.615    2.308    5.385    2.769 
#    4.154    2.308    0.000    0.000    0.000    0.000 
#    0.000    0.000    0.000    0.000    0.000    0.000 
#
# Total GULP energy -322269.700457 kJ/mol
# GULP energy per Si atom -12394.988479 kJ/mol
# Density = 2.157913 g / cm^3
# Si number density = 21.628354 Si / 1000 Ang^3
#
#
#
# Elastic Constant Matrix: (Units=GPa)
#
#
# Indices 1 2 3 4 5 6 
#
# 1 85.3627 25.9009 55.2691 0.0000 -16.9638 0.0000
# 2 25.9009 104.8844 31.0961 0.0000 -1.8011 0.0000
# 3 55.2691 31.0961 124.5772 0.0000 -20.3998 0.0000
# 4 0.0000 0.0000 0.0000 34.7497 0.0000 6.4501
# 5 -16.9638 -1.8011 -20.3998 0.0000 46.3783 0.0000
# 6 0.0000 0.0000 0.0000 6.4501 0.0000 40.9462
#
#
#
# Elastic Compliance Matrix: (Units=1/GPa)
#
#
# Indices 1 2 3 4 5 6 
#
# 1 0.017325 -0.002273 -0.006569 0.000000 0.003359 0.000000
# 2 -0.002273 0.010621 -0.001844 0.000000 -0.001230 0.000000
# 3 -0.006569 -0.001844 0.011850 0.000000 0.002738 0.000000
# 4 0.000000 0.000000 0.000000 0.029644 0.000000 -0.004670
# 5 0.003359 -0.001230 0.002738 0.000000 0.023947 0.000000
# 6 0.000000 0.000000 0.000000 -0.004670 0.000000 0.025158
#
#
# Mechanical properties :
#
#
# Convention : Reuss Voigt Hill
#
# Bulk Modulus (GPa) = 54.27638 59.92851 57.10245
# Shear Modulus (GPa) = 34.23266 37.91871 36.07568
#
# Velocity S-wave (km/s) = 3.98272 4.19166 4.08852
# Velocity P-wave (km/s) = 6.80433 7.15508 6.98191
#
# Compressibility (1/GPa) = 0.01842422
#
# Stress axis : x y z
#
# Youngs Moduli (GPa) = 57.71966 94.15049 84.38725
#
# Poissons Ratio (x) = 0.21402 0.55433
# Poissons Ratio (y) = 0.13121 0.15562
# Poissons Ratio (z) = 0.37915 0.17363
#
# Static dielectric constant tensor:
#      x y z
#    x 4.116420 0.000000 -0.372670 
#    y 0.000000 3.630030 0.000000 
#    z -0.372670 0.000000 4.334360 
# 
# 
# High freq. dielectric constant tensor:
#      x y z
#    x 1.863790 0.000000 -0.021070 
#    y 0.000000 1.841070 0.000000 
#    z -0.021070 0.000000 1.859210 
# 
# From -- ./inp_files/133383.got.cif
#   From: 2010.06.25/outbox.cif.g09.slc.cpg/sg12_67_cif.got.tgz:133383.got - 2010.06.28 00:19:55.
