data_PCOD8113060
_publ_section_title
;
Structure prediction by ZEFSAII (Michael W. Deem and Ramdas Pophale) SiO2 
 PCOD8113060
Probable space group: C 2/M
;
_chemical_formula_sum "Si O2"
_cell_formula_units_Z 44
_cell_length_a 21.202433
_cell_length_b 17.207892
_cell_length_c 7.539205
_cell_angle_alpha 90.000000
_cell_angle_beta 134.412735
_cell_angle_gamma 90.000000
_cell_volume 1964.852711
_symmetry_space_group_name_H-M "C 2/M"
_symmetry_group_IT_number 12
_symmetry_cell_setting 'monoclinic'
loop_
_space_group_symop_operation_xyz
x,y,z
-x,y,-z
-x,-y,-z
x,-y,z
1/2+x,1/2+y,z
1/2-x,1/2+y,-z
1/2-x,1/2-y,-z
1/2+x,1/2-y,z
loop_
_atom_site_type_symbol
_atom_site_label
_atom_site_fract_x
_atom_site_fract_y
_atom_site_fract_z
Si Si1 0.278547 0.312941 0.416470
Si Si2 0.435568 0.408727 0.725786
Si Si3 0.579247 0.910975 0.408259
Si Si4 0.382035 0.910667 0.922824
Si Si5 0.000000 0.829467 0.500000
Si Si6 0.348556 0.227763 0.249303
O O1 0.250000 0.250000 0.500000
O O2 0.336091 0.385996 0.595649
O O3 0.191000 0.349375 0.142627
O O4 0.352536 0.269500 0.447310
O O5 0.439288 0.500000 0.734064
O O6 0.465994 0.383224 0.590506
O O7 0.500000 0.372548 0.000000
O O8 0.621269 0.899037 0.296524
O O9 0.627985 0.862350 0.660262
O O10 0.588978 0.000000 0.487187
O O11 0.475813 0.888147 0.192007
O O12 0.358865 0.000000 0.923022
O O13 0.921814 0.771594 0.274457
O O14 0.250000 0.250000 0.000000
#
# Coordination Sequence:
#
# PCOD8113060 Si02
#       6
#     8   8   8   8   4   8
#     4  11  22  36  61  95 128 163 217 276 323 397
#     4  10  23  43  68  95 127 178 225 270 338 400
#     4   9  19  38  62  91 126 167 211 263 333 397
#     4   9  18  35  63  94 124 159 210 278 331 386
#     4  10  25  44  65  92 138 166 222 288 317 396
#     4  11  25  41  60  95 130 173 215 263 337 396
#
# _framework density 22.393536000000001
#
# number of rings (size 3 to 8) (size 9 to 14) (size 15 to 20)
#    0.000    2.000    1.818    1.909    5.091    1.455 
#    0.000    5.909    0.000    0.000    0.000    0.000 
#    0.000    0.000    0.000    0.000    0.000    0.000 
#
# Total GULP energy -272549.576120 kJ/mol
# GULP energy per Si atom -12388.617096 kJ/mol
# Density = 2.234257 g / cm^3
# Si number density = 22.393536 Si / 1000 Ang^3
#
#
#
# Elastic Constant Matrix: (Units=GPa)
#
#
# Indices 1 2 3 4 5 6 
#
# 1 70.7085 35.8409 11.9739 0.0000 20.9090 0.0000
# 2 35.8409 115.8911 48.7491 0.0000 15.9742 0.0000
# 3 11.9739 48.7491 118.3197 0.0000 27.1040 0.0000
# 4 0.0000 0.0000 0.0000 38.1995 0.0000 9.7583
# 5 20.9090 15.9742 27.1040 0.0000 38.0736 0.0000
# 6 0.0000 0.0000 0.0000 9.7583 0.0000 36.2546
#
#
#
# Elastic Compliance Matrix: (Units=1/GPa)
#
#
# Indices 1 2 3 4 5 6 
#
# 1 0.019687 -0.005832 0.002780 0.000000 -0.010344 0.000000
# 2 -0.005832 0.012245 -0.004793 0.000000 0.001478 0.000000
# 3 0.002780 -0.004793 0.011989 0.000000 -0.008051 0.000000
# 4 0.000000 0.000000 0.000000 0.028111 0.000000 -0.007566
# 5 -0.010344 0.001478 -0.008051 0.000000 0.037057 0.000000
# 6 0.000000 0.000000 0.000000 -0.007566 0.000000 0.029619
#
#
# Mechanical properties :
#
#
# Convention : Reuss Voigt Hill
#
# Bulk Modulus (GPa) = 35.42284 55.33856 45.38070
# Shear Modulus (GPa) = 30.52334 36.39591 33.45962
#
# Velocity S-wave (km/s) = 3.69595 4.03586 3.86964
# Velocity P-wave (km/s) = 5.83661 6.81785 6.34622
#
# Compressibility (1/GPa) = 0.02823038
#
# Stress axis : x y z
#
# Youngs Moduli (GPa) = 50.79603 81.66555 83.40640
#
# Poissons Ratio (x) = 0.47627 -0.23187
# Poissons Ratio (y) = 0.29624 0.39980
# Poissons Ratio (z) = -0.14121 0.39145
#
# Static dielectric constant tensor:
#      x y z
#    x 4.041830 0.000000 0.872080 
#    y 0.000000 4.513370 0.000000 
#    z 0.872080 0.000000 3.168660 
# 
# 
# High freq. dielectric constant tensor:
#      x y z
#    x 1.886910 0.000000 0.013010 
#    y 0.000000 1.896220 0.000000 
#    z 0.013010 0.000000 1.874300 
# 
# From -- ./inp_files/98237.got.cif
#   From: 2010.06.25/outbox.cif.g09.slc.cpg/sg12_50_cif.got.tgz:98237.got - 2010.06.28 00:19:55.
