data_PCOD8113219
_publ_section_title
;
Structure prediction by ZEFSAII (Michael W. Deem and Ramdas Pophale) SiO2 
 PCOD8113219
Probable space group: C 2/M
;
_chemical_formula_sum "Si O2"
_cell_formula_units_Z 36
_cell_length_a 21.537376
_cell_length_b 8.975956
_cell_length_c 12.264114
_cell_angle_alpha 90.000000
_cell_angle_beta 41.328284
_cell_angle_gamma 90.000000
_cell_volume 1565.664229
_symmetry_space_group_name_H-M "C 2/M"
_symmetry_group_IT_number 12
_symmetry_cell_setting 'monoclinic'
loop_
_space_group_symop_operation_xyz
x,y,z
-x,y,-z
-x,-y,-z
x,-y,z
1/2+x,1/2+y,z
1/2-x,1/2+y,-z
1/2-x,1/2-y,-z
1/2+x,1/2-y,z
loop_
_atom_site_type_symbol
_atom_site_label
_atom_site_fract_x
_atom_site_fract_y
_atom_site_fract_z
Si Si1 0.251977 0.500000 0.581066
Si Si2 0.560006 0.000000 0.085654
Si Si3 0.269820 0.247199 0.719513
Si Si4 0.875379 0.500000 0.463114
Si Si5 0.153853 0.000000 0.982838
Si Si6 0.771743 0.000000 0.872813
Si Si7 0.059750 0.000000 0.783609
Si Si8 0.500000 0.755503 0.000000
O O1 0.225375 0.353199 0.684654
O O2 0.193102 0.500000 0.549592
O O3 0.363096 0.500000 0.412106
O O4 0.482200 0.000000 0.283195
O O5 0.553052 0.855050 0.019045
O O6 0.658628 0.000000 0.016822
O O7 0.311456 0.352160 0.760551
O O8 0.355266 0.147165 0.561026
O O9 0.186041 0.145716 0.875352
O O10 0.197842 0.000000 0.043737
O O11 0.041799 0.000000 0.139869
O O12 0.073802 0.853583 0.840576
#
# Coordination Sequence:
#
# PCOD8113219 Si02
#       8
#     4   4   8   4   4   4   4   4
#     4  11  24  39  61  93 135 165 202 254 325 385
#     4  11  24  39  65  90 130 160 218 248 323 364
#     4  10  24  41  62  94 126 165 215 253 316 374
#     4  11  24  39  61  93 135 165 202 254 325 385
#     4  11  24  44  67  91 124 169 221 262 300 367
#     4  11  24  44  67  91 124 169 221 262 300 367
#     4  11  24  39  65  90 130 160 218 248 323 364
#     4  10  24  36  64  96 120 164 208 264 304 378
#
# _framework density 22.993435000000002
#
# number of rings (size 3 to 8) (size 9 to 14) (size 15 to 20)
#    0.000    1.333    0.000    4.000   18.667    0.000 
#    0.000    6.667    0.000    0.000    0.000    0.000 
#    0.000    0.000    0.000    0.000    0.000    0.000 
#
# Total GULP energy -223261.683535 kJ/mol
# GULP energy per Si atom -12403.426863 kJ/mol
# Density = 2.294110 g / cm^3
# Si number density = 22.993435 Si / 1000 Ang^3
#
#
#
# Elastic Constant Matrix: (Units=GPa)
#
#
# Indices 1 2 3 4 5 6 
#
# 1 129.6438 56.6786 80.4125 0.0008 9.8169 0.0003
# 2 56.6786 189.5502 69.1934 -0.0108 18.5290 -0.0044
# 3 80.4125 69.1934 153.6304 -0.0029 12.9464 -0.0012
# 4 0.0008 -0.0108 -0.0029 758.3802 0.0002 315.4866
# 5 9.8169 18.5290 12.9464 0.0002 21.4171 0.0001
# 6 0.0003 -0.0044 -0.0012 315.4866 0.0001 152.1584
#
#
#
# Elastic Compliance Matrix: (Units=1/GPa)
#
#
# Indices 1 2 3 4 5 6 
#
# 1 0.011791 -0.001455 -0.005444 0.000000 -0.000855 0.000000
# 2 -0.001455 0.006826 -0.001972 0.000000 -0.004047 0.000000
# 3 -0.005444 -0.001972 0.010424 0.000000 -0.002100 0.000000
# 4 0.000000 0.000000 0.000000 0.009593 0.000000 -0.019889
# 5 -0.000855 -0.004047 -0.002100 0.000000 0.051854 0.000000
# 6 0.000000 0.000000 0.000000 -0.019889 0.000000 0.047811
#
#
# Mechanical properties :
#
#
# Convention : Reuss Voigt Hill
#
# Bulk Modulus (GPa) = 88.50411 98.37704 93.44058
# Shear Modulus (GPa) = 31.28783 204.16048 117.72415
#
# Velocity S-wave (km/s) = 3.69281 9.43311 7.16311
# Velocity P-wave (km/s) = 7.53373 12.70915 10.44700
#
# Compressibility (1/GPa) = 0.01129891
#
# Stress axis : x y z
#
# Youngs Moduli (GPa) = 84.80970 146.49776 95.93354
#
# Poissons Ratio (x) = 0.21311 0.52230
# Poissons Ratio (y) = 0.12337 0.18917
# Poissons Ratio (z) = 0.46174 0.28888
#
# Static dielectric constant tensor:
#      x y z
#    x 3.691630 0.000000 0.284970 
#    y 0.000000 4.721670 0.000000 
#    z 0.284970 0.000000 4.594070 
# 
# 
# High freq. dielectric constant tensor:
#      x y z
#    x 1.877440 0.000000 0.014670 
#    y 0.000000 1.941180 0.000000 
#    z 0.014670 0.000000 1.914130 
# 
# From -- ./inp_files/244586.got.cif
#   From: 2010.06.25/outbox.cif.g09.slc.cpg/sg12_123_cif.got.tgz:244586.got - 2010.06.28 00:19:55.
