data_PCOD8113143
_publ_section_title
;
Structure prediction by ZEFSAII (Michael W. Deem and Ramdas Pophale) SiO2 
 PCOD8113143
Probable space group: C 2/M
;
_chemical_formula_sum "Si O2"
_cell_formula_units_Z 48
_cell_length_a 27.229565
_cell_length_b 8.459204
_cell_length_c 16.885378
_cell_angle_alpha 90.000000
_cell_angle_beta 143.864436
_cell_angle_gamma 90.000000
_cell_volume 2293.561949
_symmetry_space_group_name_H-M "C 2/M"
_symmetry_group_IT_number 12
_symmetry_cell_setting 'monoclinic'
loop_
_space_group_symop_operation_xyz
x,y,z
-x,y,-z
-x,-y,-z
x,-y,z
1/2+x,1/2+y,z
1/2-x,1/2+y,-z
1/2-x,1/2-y,-z
1/2+x,1/2-y,z
loop_
_atom_site_type_symbol
_atom_site_label
_atom_site_fract_x
_atom_site_fract_y
_atom_site_fract_z
Si Si1 0.353057 0.817329 0.492118
Si Si2 0.095515 0.685492 0.616229
Si Si3 0.759751 0.184675 0.100046
Si Si4 0.824266 0.318907 0.731703
Si Si5 0.877112 0.183248 0.962367
Si Si6 0.061037 0.181844 0.249826
O O1 0.371323 0.764079 0.426572
O O2 0.256448 0.789569 0.385451
O O3 0.411704 0.714450 0.625021
O O4 0.375020 0.000000 0.533720
O O5 0.107836 0.500000 0.647694
O O6 0.146742 0.782003 0.748532
O O7 0.000000 0.735947 0.500000
O O8 0.696554 0.275774 0.074299
O O9 0.739980 0.000000 0.076044
O O10 0.750000 0.250000 0.000000
O O11 0.795295 0.500000 0.693293
O O12 0.870987 0.282363 0.874137
O O13 0.886868 0.290790 0.741306
O O14 0.870617 0.000000 0.931032
O O15 0.964065 0.225300 0.117074
O O16 0.076943 0.000000 0.248231
#
# Coordination Sequence:
#
# PCOD8113143 Si02
#       6
#     8   8   8   8   8   8
#     4  11  23  41  66  94 132 171 212 266 321 380
#     4  10  23  44  69  98 130 168 212 263 320 380
#     4  12  26  44  69  98 131 170 213 263 318 380
#     4  12  24  41  66  95 129 170 218 265 319 383
#     4  11  24  44  67  95 131 170 213 265 323 379
#     4  11  25  42  64  94 131 171 216 267 319 379
#
# _framework density 20.928145000000001
#
# number of rings (size 3 to 8) (size 9 to 14) (size 15 to 20)
#    0.000    0.833    1.667    5.500    2.333    5.667 
#    0.000    0.000    0.000    0.000    0.000    0.000 
#    0.000    0.000    0.000    0.000    0.000    0.000 
#
# Total GULP energy -297825.954553 kJ/mol
# GULP energy per Si atom -12409.414773 kJ/mol
# Density = 2.088051 g / cm^3
# Si number density = 20.928145 Si / 1000 Ang^3
#
#
#
# Elastic Constant Matrix: (Units=GPa)
#
#
# Indices 1 2 3 4 5 6 
#
# 1 88.5284 19.7100 40.0632 0.0000 2.7291 0.0000
# 2 19.7100 58.5744 23.7904 0.0000 -0.4839 0.0000
# 3 40.0632 23.7904 147.3430 0.0000 0.7047 0.0000
# 4 0.0000 0.0000 0.0000 36.1180 0.0000 -6.0257
# 5 2.7291 -0.4839 0.7047 0.0000 41.7670 0.0000
# 6 0.0000 0.0000 0.0000 -6.0257 0.0000 26.7152
#
#
#
# Elastic Compliance Matrix: (Units=1/GPa)
#
#
# Indices 1 2 3 4 5 6 
#
# 1 0.013466 -0.003267 -0.003130 0.000000 -0.000865 0.000000
# 2 -0.003267 0.019066 -0.002192 0.000000 0.000471 0.000000
# 3 -0.003130 -0.002192 0.007992 0.000000 0.000044 0.000000
# 4 0.000000 0.000000 0.000000 0.028770 0.000000 0.006489
# 5 -0.000865 0.000471 0.000044 0.000000 0.024004 0.000000
# 6 0.000000 0.000000 0.000000 0.006489 0.000000 0.038896
#
#
# Mechanical properties :
#
#
# Convention : Reuss Voigt Hill
#
# Bulk Modulus (GPa) = 42.83555 51.28589 47.06072
# Shear Modulus (GPa) = 31.81604 34.97884 33.39744
#
# Velocity S-wave (km/s) = 3.90327 4.09268 3.99910
# Velocity P-wave (km/s) = 6.38955 6.84780 6.62264
#
# Compressibility (1/GPa) = 0.02334510
#
# Stress axis : x y z
#
# Youngs Moduli (GPa) = 74.25940 52.44924 125.13014
#
# Poissons Ratio (x) = 0.17137 0.39164
# Poissons Ratio (y) = 0.24263 0.27433
# Poissons Ratio (z) = 0.23242 0.11499
#
# Static dielectric constant tensor:
#      x y z
#    x 3.794360 0.000000 -0.021500 
#    y 0.000000 3.744190 0.000000 
#    z -0.021500 0.000000 3.994250 
# 
# 
# High freq. dielectric constant tensor:
#      x y z
#    x 1.824390 0.000000 -0.000060 
#    y 0.000000 1.823990 0.000000 
#    z -0.000060 0.000000 1.836460 
# 
# From -- ./inp_files/244831.got.cif
#   From: 2010.06.25/outbox.cif.g09.slc.cpg/sg12_123_cif.got.tgz:244831.got - 2010.06.28 00:19:55.
