data_PCOD8113576
_publ_section_title
;
Structure prediction by ZEFSAII (Michael W. Deem and Ramdas Pophale) SiO2 
 PCOD8113576
Probable space group: C 2/M
;
_chemical_formula_sum "Si O2"
_cell_formula_units_Z 56
_cell_length_a 17.742542
_cell_length_b 21.940005
_cell_length_c 11.263683
_cell_angle_alpha 90.000000
_cell_angle_beta 44.107620
_cell_angle_gamma 90.000000
_cell_volume 3051.739088
_symmetry_space_group_name_H-M "C 2/M"
_symmetry_group_IT_number 12
_symmetry_cell_setting 'monoclinic'
loop_
_space_group_symop_operation_xyz
x,y,z
-x,y,-z
-x,-y,-z
x,-y,z
1/2+x,1/2+y,z
1/2-x,1/2+y,-z
1/2-x,1/2-y,-z
1/2+x,1/2-y,z
loop_
_atom_site_type_symbol
_atom_site_label
_atom_site_fract_x
_atom_site_fract_y
_atom_site_fract_z
Si Si1 0.872439 0.569072 0.627798
Si Si2 0.718943 0.797119 0.692607
Si Si3 0.654467 0.174934 0.512311
Si Si4 0.567178 0.228214 0.246947
Si Si5 0.755236 0.862459 0.046600
Si Si6 0.086204 0.213692 0.990970
Si Si7 0.114802 0.845412 0.327028
O O1 0.848233 0.500000 0.616733
O O2 0.818476 0.612613 0.588359
O O3 0.812967 0.581457 0.822329
O O4 0.000000 0.579745 0.500000
O O5 0.667230 0.833216 0.639663
O O6 0.770448 0.731600 0.604492
O O7 0.625845 0.777957 0.889976
O O8 0.802718 0.845284 0.655588
O O9 0.532136 0.185851 0.605715
O O10 0.673545 0.189761 0.093294
O O11 0.596390 0.274147 0.319427
O O12 0.527213 0.268193 0.180110
O O13 0.821911 0.835300 0.082371
O O14 0.832889 0.880405 0.846839
O O15 0.000000 0.182122 0.000000
O O16 0.000000 0.875146 0.500000
#
# Coordination Sequence:
#
# PCOD8113576 Si02
#       7
#     8   8   8   8   8   8   8
#     4  11  23  39  61  83 107 150 198 234 275 329
#     4  11  20  31  49  80 117 155 173 222 296 343
#     4  11  21  31  51  81 118 148 178 226 279 342
#     4  11  18  28  49  77 118 149 170 215 275 341
#     4  11  21  34  53  76 111 150 185 232 275 325
#     4  11  19  29  45  79 113 149 183 210 279 353
#     4  11  20  32  51  80 113 150 187 217 283 353
#
# _framework density 18.350193000000001
#
# number of rings (size 3 to 8) (size 9 to 14) (size 15 to 20)
#    0.000    1.000    8.571    0.857    0.000    0.000 
#    0.000    0.000    0.000    1.714    0.000    3.000 
#    0.000    0.000    0.000    0.000    0.000    0.000 
#
# Total GULP energy -346990.686050 kJ/mol
# GULP energy per Si atom -12392.524502 kJ/mol
# Density = 1.830843 g / cm^3
# Si number density = 18.350193 Si / 1000 Ang^3
#
#
#
# Elastic Constant Matrix: (Units=GPa)
#
#
# Indices 1 2 3 4 5 6 
#
# 1 94.8582 27.4574 9.5892 0.0000 3.8821 0.0000
# 2 27.4574 61.8710 31.4818 0.0000 5.1462 0.0000
# 3 9.5892 31.4818 87.2393 0.0000 0.5509 0.0000
# 4 0.0000 0.0000 0.0000 13.2250 0.0000 -1.2673
# 5 3.8821 5.1462 0.5509 0.0000 28.2449 0.0000
# 6 0.0000 0.0000 0.0000 -1.2673 0.0000 14.5048
#
#
#
# Elastic Compliance Matrix: (Units=1/GPa)
#
#
# Indices 1 2 3 4 5 6 
#
# 1 0.012147 -0.005708 0.000729 0.000000 -0.000644 0.000000
# 2 -0.005708 0.022826 -0.007589 0.000000 -0.003226 0.000000
# 3 0.000729 -0.007589 0.014115 0.000000 0.001007 0.000000
# 4 0.000000 0.000000 0.000000 0.076253 0.000000 0.006662
# 5 -0.000644 -0.003226 0.001007 0.000000 0.036061 0.000000
# 6 0.000000 0.000000 0.000000 0.006662 0.000000 0.069525
#
#
# Mechanical properties :
#
#
# Convention : Reuss Voigt Hill
#
# Bulk Modulus (GPa) = 41.75243 42.33617 42.04430
# Shear Modulus (GPa) = 18.93602 22.89094 20.91348
#
# Velocity S-wave (km/s) = 3.21584 3.53576 3.37959
# Velocity P-wave (km/s) = 6.04908 6.30794 6.17987
#
# Compressibility (1/GPa) = 0.02395070
#
# Stress axis : x y z
#
# Youngs Moduli (GPa) = 82.32542 43.81026 70.84660
#
# Poissons Ratio (x) = 0.25006 -0.05162
# Poissons Ratio (y) = 0.46990 0.53768
# Poissons Ratio (z) = -0.05999 0.33249
#
# Static dielectric constant tensor:
#      x y z
#    x 3.507300 0.000000 0.024780 
#    y 0.000000 2.777780 0.000000 
#    z 0.024780 0.000000 3.590050 
# 
# 
# High freq. dielectric constant tensor:
#      x y z
#    x 1.721670 0.000000 0.003180 
#    y 0.000000 1.630240 0.000000 
#    z 0.003180 0.000000 1.731110 
# 
# From -- ./inp_files/160246.got.cif
#   From: 2010.06.25/outbox.cif.g09.slc.cpg/sg12_81_cif.got.tgz:160246.got - 2010.06.28 00:19:55.
