data_PCOD8113095
_publ_section_title
;
Structure prediction by ZEFSAII (Michael W. Deem and Ramdas Pophale) SiO2 
 PCOD8113095
Probable space group: C 2/M
;
_chemical_formula_sum "Si O2"
_cell_formula_units_Z 56
_cell_length_a 8.943345
_cell_length_b 24.801412
_cell_length_c 16.338327
_cell_angle_alpha 90.000000
_cell_angle_beta 132.788355
_cell_angle_gamma 90.000000
_cell_volume 2659.511616
_symmetry_space_group_name_H-M "C 2/M"
_symmetry_group_IT_number 12
_symmetry_cell_setting 'monoclinic'
loop_
_space_group_symop_operation_xyz
x,y,z
-x,y,-z
-x,-y,-z
x,-y,z
1/2+x,1/2+y,z
1/2-x,1/2+y,-z
1/2-x,1/2-y,-z
1/2+x,1/2-y,z
loop_
_atom_site_type_symbol
_atom_site_label
_atom_site_fract_x
_atom_site_fract_y
_atom_site_fract_z
Si Si1 0.186046 0.646456 0.629385
Si Si2 0.122998 0.857243 0.754498
Si Si3 0.163464 0.886800 0.951382
Si Si4 0.316785 0.248365 0.775085
Si Si5 0.029416 0.560389 0.154065
Si Si6 0.743317 0.785756 0.918210
Si Si7 0.230080 0.561343 0.779545
O O1 0.385988 0.628174 0.652060
O O2 0.223406 0.703136 0.688775
O O3 0.135438 0.599539 0.674917
O O4 0.000000 0.654317 0.500000
O O5 0.155269 0.852219 0.864738
O O6 0.153911 0.799158 0.725332
O O7 0.271275 0.902092 0.772577
O O8 0.959083 0.920973 0.889001
O O9 0.362499 0.925274 0.021996
O O10 0.203846 0.847403 0.042913
O O11 0.508884 0.221213 0.800742
O O12 0.383803 0.269752 0.892043
O O13 0.107857 0.500000 0.167791
O O14 0.918488 0.565811 0.199331
O O15 0.750000 0.750000 0.000000
O O16 0.239771 0.500000 0.750691
#
# Coordination Sequence:
#
# PCOD8113095 Si02
#       7
#     8   8   8   8   8   8   8
#     4  11  26  47  70  91 119 167 221 277 334 378
#     4  11  24  41  59  94 131 166 216 261 314 382
#     4  11  21  37  61  97 135 176 212 244 305 389
#     4  12  23  42  60  94 130 169 216 263 311 385
#     4  11  23  39  64  96 134 171 206 259 320 380
#     4  12  22  35  61  91 135 177 206 245 305 387
#     4  10  23  44  66  93 127 166 218 268 315 383
#
# _framework density 21.056495999999999
#
# number of rings (size 3 to 8) (size 9 to 14) (size 15 to 20)
#    0.000    0.857    4.286    3.429    0.000    7.714 
#    0.000    0.714    0.000    1.714    0.000    0.000 
#    0.000    0.000    0.000    0.000    0.000    0.000 
#
# Total GULP energy -347195.338385 kJ/mol
# GULP energy per Si atom -12399.833514 kJ/mol
# Density = 2.100857 g / cm^3
# Si number density = 21.056496 Si / 1000 Ang^3
#
#
#
# Elastic Constant Matrix: (Units=GPa)
#
#
# Indices 1 2 3 4 5 6 
#
# 1 102.6928 44.1180 49.7732 0.0000 25.9992 0.0000
# 2 44.1180 148.8660 66.8852 0.0000 10.1635 0.0000
# 3 49.7732 66.8852 116.3578 0.0000 10.4496 0.0000
# 4 0.0000 0.0000 0.0000 19.9817 0.0000 2.1127
# 5 25.9992 10.1635 10.4496 0.0000 20.0844 0.0000
# 6 0.0000 0.0000 0.0000 2.1127 0.0000 38.1576
#
#
#
# Elastic Compliance Matrix: (Units=1/GPa)
#
#
# Indices 1 2 3 4 5 6 
#
# 1 0.017819 -0.001763 -0.004844 0.000000 -0.019654 0.000000
# 2 -0.001763 0.009305 -0.004592 0.000000 -0.000038 0.000000
# 3 -0.004844 -0.004592 0.013148 0.000000 0.001753 0.000000
# 4 0.000000 0.000000 0.000000 0.050341 0.000000 -0.002787
# 5 -0.019654 -0.000038 0.001753 0.000000 0.074339 0.000000
# 6 0.000000 0.000000 0.000000 -0.002787 0.000000 0.026361
#
#
# Mechanical properties :
#
#
# Convention : Reuss Voigt Hill
#
# Bulk Modulus (GPa) = 55.94059 76.60769 66.27414
# Shear Modulus (GPa) = 22.76162 29.45409 26.10786
#
# Velocity S-wave (km/s) = 3.29139 3.74413 3.52504
# Velocity P-wave (km/s) = 6.40850 7.42646 6.93618
#
# Compressibility (1/GPa) = 0.01787611
#
# Stress axis : x y z
#
# Youngs Moduli (GPa) = 56.12096 107.46448 76.05656
#
# Poissons Ratio (x) = 0.18941 0.36841
# Poissons Ratio (y) = 0.09892 0.34922
# Poissons Ratio (z) = 0.27185 0.49343
#
# Static dielectric constant tensor:
#      x y z
#    x 4.269420 0.000000 0.319940 
#    y 0.000000 4.069780 0.000000 
#    z 0.319940 0.000000 3.480180 
# 
# 
# High freq. dielectric constant tensor:
#      x y z
#    x 1.845820 0.000000 0.020850 
#    y 0.000000 1.839380 0.000000 
#    z 0.020850 0.000000 1.777520 
# 
# From -- ./inp_files/259873.got.cif
#   From: 2010.06.25/outbox.cif.g09.slc.cpg/sg12_130_cif.got.tgz:259873.got - 2010.06.28 00:19:55.
