data_PCOD8113318
_publ_section_title
;
Structure prediction by ZEFSAII (Michael W. Deem and Ramdas Pophale) SiO2 
 PCOD8113318
Probable space group: C 2/M
;
_chemical_formula_sum "Si O2"
_cell_formula_units_Z 48
_cell_length_a 30.526696
_cell_length_b 16.602045
_cell_length_c 9.176399
_cell_angle_alpha 90.000000
_cell_angle_beta 27.985520
_cell_angle_gamma 90.000000
_cell_volume 2182.310205
_symmetry_space_group_name_H-M "C 2/M"
_symmetry_group_IT_number 12
_symmetry_cell_setting 'monoclinic'
loop_
_space_group_symop_operation_xyz
x,y,z
-x,y,-z
-x,-y,-z
x,-y,z
1/2+x,1/2+y,z
1/2-x,1/2+y,-z
1/2-x,1/2-y,-z
1/2+x,1/2-y,z
loop_
_atom_site_type_symbol
_atom_site_label
_atom_site_fract_x
_atom_site_fract_y
_atom_site_fract_z
Si Si1 0.124050 0.406296 0.397813
Si Si2 0.401859 0.500000 0.707254
Si Si3 0.976443 0.000000 0.902789
Si Si4 0.216676 0.675476 0.871311
Si Si5 0.730565 0.644530 0.819687
Si Si6 0.958470 0.298114 0.774654
Si Si7 0.141165 0.155854 0.788172
O O1 0.100067 0.500000 0.457483
O O2 0.166507 0.384906 0.432335
O O3 0.029788 0.357320 0.646152
O O4 0.205723 0.383240 0.042085
O O5 0.500000 0.500000 0.500000
O O6 0.345779 0.580453 0.906790
O O7 0.424083 0.500000 0.470312
O O8 0.915578 0.074882 0.032238
O O9 0.000000 0.000000 0.000000
O O10 0.207334 0.767730 0.955859
O O11 0.316065 0.664160 0.499347
O O12 0.134850 0.653280 0.996335
O O13 0.725613 0.655410 0.658739
O O14 0.000000 0.263319 0.500000
O O15 0.932301 0.226953 0.962569
#
# Coordination Sequence:
#
# PCOD8113318 Si02
#       7
#     8   4   4   8   8   8   8
#     4  11  24  41  68 101 133 171 224 277 327 392
#     4  12  24  42  70  99 132 175 221 278 329 406
#     4  12  30  40  64 101 136 169 219 280 345 392
#     4  10  24  42  70  93 134 176 219 275 335 395
#     4  11  22  42  69  97 129 174 222 270 331 395
#     4   9  21  41  68  96 126 176 226 267 321 398
#     4  11  24  45  67  96 134 174 218 275 341 394
#
# _framework density 21.995041000000001
#
# number of rings (size 3 to 8) (size 9 to 14) (size 15 to 20)
#    0.000    1.333    2.500    2.500   10.500    4.333 
#    0.000    2.500    1.833    4.000    0.000    0.000 
#    0.000    0.000    0.000    0.000    0.000    0.000 
#
# Total GULP energy -297558.361285 kJ/mol
# GULP energy per Si atom -12398.265054 kJ/mol
# Density = 2.194498 g / cm^3
# Si number density = 21.995041 Si / 1000 Ang^3
#
#
#
# Elastic Constant Matrix: (Units=GPa)
#
#
# Indices 1 2 3 4 5 6 
#
# 1 92.5263 47.5234 15.1312 0.0000 -14.3144 0.0000
# 2 47.5234 143.8782 42.7362 0.0000 -11.6697 0.0000
# 3 15.1312 42.7362 97.9071 0.0000 2.3153 0.0000
# 4 0.0000 0.0000 0.0000 72.0772 0.0000 -12.2480
# 5 -14.3144 -11.6697 2.3153 0.0000 36.3078 0.0000
# 6 0.0000 0.0000 0.0000 -12.2480 0.0000 24.5814
#
#
#
# Elastic Compliance Matrix: (Units=1/GPa)
#
#
# Indices 1 2 3 4 5 6 
#
# 1 0.013578 -0.004023 -0.000439 0.000000 0.004088 0.000000
# 2 -0.004023 0.009471 -0.003552 0.000000 0.001685 0.000000
# 3 -0.000439 -0.003552 0.011881 0.000000 -0.002072 0.000000
# 4 0.000000 0.000000 0.000000 0.015157 0.000000 0.007552
# 5 0.004088 0.001685 -0.002072 0.000000 0.029828 0.000000
# 6 0.000000 0.000000 0.000000 0.007552 0.000000 0.044444
#
#
# Mechanical properties :
#
#
# Convention : Reuss Voigt Hill
#
# Bulk Modulus (GPa) = 52.90481 60.56591 56.73536
# Shear Modulus (GPa) = 34.08587 41.85467 37.97027
#
# Velocity S-wave (km/s) = 3.94090 4.36697 4.15940
# Velocity P-wave (km/s) = 6.69424 7.28170 6.99414
#
# Compressibility (1/GPa) = 0.01890187
#
# Stress axis : x y z
#
# Youngs Moduli (GPa) = 73.64708 105.58763 84.16716
#
# Poissons Ratio (x) = 0.42477 0.03696
# Poissons Ratio (y) = 0.29628 0.29897
# Poissons Ratio (z) = 0.03234 0.37506
#
# Static dielectric constant tensor:
#      x y z
#    x 4.112240 0.000000 -0.070840 
#    y 0.000000 3.842380 0.000000 
#    z -0.070840 0.000000 4.035790 
# 
# 
# High freq. dielectric constant tensor:
#      x y z
#    x 1.868070 0.000000 -0.004740 
#    y 0.000000 1.866700 0.000000 
#    z -0.004740 0.000000 1.855550 
# 
# From -- ./inp_files/112764.got.cif
#   From: 2010.06.25/outbox.cif.g09.slc.cpg/sg12_57_cif.got.tgz:112764.got - 2010.06.28 00:19:55.
