data_PCOD8113495
_publ_section_title
;
Structure prediction by ZEFSAII (Michael W. Deem and Ramdas Pophale) SiO2 
 PCOD8113495
Probable space group: C 2/M
;
_chemical_formula_sum "Si O2"
_cell_formula_units_Z 40
_cell_length_a 13.411838
_cell_length_b 31.228600
_cell_length_c 5.038310
_cell_angle_alpha 90.000000
_cell_angle_beta 125.498734
_cell_angle_gamma 90.000000
_cell_volume 1717.981874
_symmetry_space_group_name_H-M "C 2/M"
_symmetry_group_IT_number 12
_symmetry_cell_setting 'monoclinic'
loop_
_space_group_symop_operation_xyz
x,y,z
-x,y,-z
-x,-y,-z
x,-y,z
1/2+x,1/2+y,z
1/2-x,1/2+y,-z
1/2-x,1/2-y,-z
1/2+x,1/2-y,z
loop_
_atom_site_type_symbol
_atom_site_label
_atom_site_fract_x
_atom_site_fract_y
_atom_site_fract_z
Si Si1 0.917499 0.322717 0.130364
Si Si2 0.420445 0.649938 0.130037
Si Si3 0.356481 0.737021 0.869017
Si Si4 0.871237 0.549759 0.668705
Si Si5 0.220358 0.593718 0.994420
O O1 0.824905 0.361613 0.948543
O O2 0.000000 0.335903 0.500000
O O3 0.852758 0.276061 0.077889
O O4 0.000000 0.317581 0.000000
O O5 0.500000 0.665593 0.500000
O O6 0.500000 0.638444 0.000000
O O7 0.324848 0.689369 0.929334
O O8 0.354149 0.604954 0.091907
O O9 0.250000 0.750000 0.500000
O O10 0.500000 0.732269 0.000000
O O11 0.863573 0.500000 0.586407
O O12 0.858288 0.574914 0.372041
O O13 0.771736 0.561231 0.743158
O O14 0.000000 0.563134 0.000000
#
# Coordination Sequence:
#
# PCOD8113495 Si02
#       5
#     8   8   8   8   8
#     4  11  24  40  63  98 135 176 231 282 328 399
#     4  11  26  46  66  95 135 185 237 286 335 398
#     4  10  25  43  66  96 142 191 237 289 347 401
#     4  11  24  44  69 105 140 169 207 271 356 436
#     4  12  24  40  73  95 134 178 225 274 340 408
#
# _framework density 23.283134
#
# number of rings (size 3 to 8) (size 9 to 14) (size 15 to 20)
#    0.000    1.000    0.000    6.000   14.000    2.400 
#    0.000    0.000    0.000   12.000    0.000    0.000 
#    0.000    0.000    0.000    0.000    0.000    0.000 
#
# Total GULP energy -247879.704751 kJ/mol
# GULP energy per Si atom -12393.985238 kJ/mol
# Density = 2.323014 g / cm^3
# Si number density = 23.283134 Si / 1000 Ang^3
#
#
#
# Elastic Constant Matrix: (Units=GPa)
#
#
# Indices 1 2 3 4 5 6 
#
# 1 72.2852 27.5306 10.2090 0.0000 -13.2546 0.0000
# 2 27.5306 108.4413 14.5359 0.0000 -0.4349 0.0000
# 3 10.2090 14.5359 86.8418 0.0000 -3.9782 0.0000
# 4 0.0000 0.0000 0.0000 36.2301 0.0000 0.6792
# 5 -13.2546 -0.4349 -3.9782 0.0000 41.9961 0.0000
# 6 0.0000 0.0000 0.0000 0.6792 0.0000 36.8733
#
#
#
# Elastic Compliance Matrix: (Units=1/GPa)
#
#
# Indices 1 2 3 4 5 6 
#
# 1 0.016434 -0.004014 -0.001029 0.000000 0.005048 0.000000
# 2 -0.004014 0.010414 -0.001330 0.000000 -0.001285 0.000000
# 3 -0.001029 -0.001330 0.011895 0.000000 0.000788 0.000000
# 4 0.000000 0.000000 0.000000 0.027611 0.000000 -0.000509
# 5 0.005048 -0.001285 0.000788 0.000000 0.025466 0.000000
# 6 0.000000 0.000000 0.000000 -0.000509 0.000000 0.027129
#
#
# Mechanical properties :
#
#
# Convention : Reuss Voigt Hill
#
# Bulk Modulus (GPa) = 38.46653 41.34659 39.90656
# Shear Modulus (GPa) = 35.62269 37.37278 36.49773
#
# Velocity S-wave (km/s) = 3.91574 4.01077 3.96354
# Velocity P-wave (km/s) = 6.08285 6.26459 6.17439
#
# Compressibility (1/GPa) = 0.02599663
#
# Stress axis : x y z
#
# Youngs Moduli (GPa) = 60.85040 96.02675 84.06979
#
# Poissons Ratio (x) = 0.38545 0.08649
# Poissons Ratio (y) = 0.24425 0.11182
# Poissons Ratio (z) = 0.06260 0.12772
#
# Static dielectric constant tensor:
#      x y z
#    x 4.359820 0.000000 -0.021520 
#    y 0.000000 4.381980 0.000000 
#    z -0.021520 0.000000 3.991390 
# 
# 
# High freq. dielectric constant tensor:
#      x y z
#    x 1.929030 0.000000 -0.012900 
#    y 0.000000 1.925690 0.000000 
#    z -0.012900 0.000000 1.910550 
# 
# From -- ./inp_files/13004.got.cif
#   From: 2010.06.25/outbox.cif.g09.slc.cpg/sg12_7_cif.got.tgz:13004.got - 2010.06.28 00:19:55.
