data_PCOD8113183
_publ_section_title
;
Structure prediction by ZEFSAII (Michael W. Deem and Ramdas Pophale) SiO2 
 PCOD8113183
Probable space group: C 2/M
;
_chemical_formula_sum "Si O2"
_cell_formula_units_Z 64
_cell_length_a 29.410813
_cell_length_b 21.303068
_cell_length_c 9.335616
_cell_angle_alpha 90.000000
_cell_angle_beta 30.194758
_cell_angle_gamma 90.000000
_cell_volume 2941.772565
_symmetry_space_group_name_H-M "C 2/M"
_symmetry_group_IT_number 12
_symmetry_cell_setting 'monoclinic'
loop_
_space_group_symop_operation_xyz
x,y,z
-x,y,-z
-x,-y,-z
x,-y,z
1/2+x,1/2+y,z
1/2-x,1/2+y,-z
1/2-x,1/2-y,-z
1/2+x,1/2-y,z
loop_
_atom_site_type_symbol
_atom_site_label
_atom_site_fract_x
_atom_site_fract_y
_atom_site_fract_z
Si Si1 0.750940 0.927449 0.612915
Si Si2 0.447795 0.772698 0.277340
Si Si3 0.574921 0.248775 0.192740
Si Si4 0.688712 0.368173 0.824690
Si Si5 0.102780 0.611245 0.215851
Si Si6 0.208919 0.642180 0.178483
Si Si7 0.004533 0.931178 0.319199
Si Si8 0.141064 0.852863 0.447760
O O1 0.744828 0.881680 0.490225
O O2 0.823484 0.899802 0.527347
O O3 0.773801 0.000000 0.512770
O O4 0.651869 0.925176 0.954288
O O5 0.522880 0.773479 0.194671
O O6 0.358173 0.809602 0.563585
O O7 0.411796 0.703821 0.332987
O O8 0.500000 0.802476 0.000000
O O9 0.500000 0.282696 0.500000
O O10 0.612868 0.186906 0.168458
O O11 0.657998 0.295407 0.930289
O O12 0.736580 0.392122 0.840865
O O13 0.603605 0.408674 0.006737
O O14 0.149330 0.594447 0.242830
O O15 0.000000 0.588494 0.500000
O O16 0.280374 0.673167 0.872147
O O17 0.928875 0.887024 0.463638
O O18 0.000000 0.931311 0.500000
O O19 0.989625 0.000000 0.294713
#
# Coordination Sequence:
#
# PCOD8113183 Si02
#       8
#     8   8   8   8   8   8   8   8
#     4  11  27  46  65  95 135 175 229 283 321 382
#     4  12  24  38  62  99 136 169 210 265 336 402
#     4  11  21  40  66  95 134 171 213 262 323 407
#     4  12  24  39  63  98 137 173 210 271 338 386
#     4  10  23  45  71  98 127 172 224 270 335 402
#     4  11  24  39  66  98 134 169 214 274 329 397
#     4  11  22  39  64  93 129 175 223 266 315 387
#     4  11  23  43  65  95 129 179 226 260 321 399
#
# _framework density 21.755590999999999
#
# number of rings (size 3 to 8) (size 9 to 14) (size 15 to 20)
#    0.000    0.875    5.000    3.000    5.250    0.750 
#    0.000    1.875    0.000    0.750    0.000    0.000 
#    0.000    0.000    0.000    0.000    0.000    0.000 
#
# Total GULP energy -396671.632305 kJ/mol
# GULP energy per Si atom -12395.988510 kJ/mol
# Density = 2.170607 g / cm^3
# Si number density = 21.755591 Si / 1000 Ang^3
#
#
#
# Elastic Constant Matrix: (Units=GPa)
#
#
# Indices 1 2 3 4 5 6 
#
# 1 130.6104 6.9036 57.5769 0.0000 3.3117 0.0000
# 2 6.9036 54.1754 16.0088 0.0000 7.1076 0.0000
# 3 57.5769 16.0088 85.3662 0.0000 1.8581 0.0000
# 4 0.0000 0.0000 0.0000 27.4427 0.0000 0.9538
# 5 3.3117 7.1076 1.8581 0.0000 36.5209 0.0000
# 6 0.0000 0.0000 0.0000 0.9538 0.0000 17.5110
#
#
#
# Elastic Compliance Matrix: (Units=1/GPa)
#
#
# Indices 1 2 3 4 5 6 
#
# 1 0.010954 0.000938 -0.007547 0.000000 -0.000792 0.000000
# 2 0.000938 0.020112 -0.004322 0.000000 -0.003779 0.000000
# 3 -0.007547 -0.004322 0.017601 0.000000 0.000630 0.000000
# 4 0.000000 0.000000 0.000000 0.036509 0.000000 -0.001989
# 5 -0.000792 -0.003779 0.000630 0.000000 0.028157 0.000000
# 6 0.000000 0.000000 0.000000 -0.001989 0.000000 0.057215
#
#
# Mechanical properties :
#
#
# Convention : Reuss Voigt Hill
#
# Bulk Modulus (GPa) = 37.30574 47.90338 42.60456
# Shear Modulus (GPa) = 24.83314 28.93909 26.88611
#
# Velocity S-wave (km/s) = 3.38222 3.65113 3.51924
# Velocity P-wave (km/s) = 5.69538 6.31198 6.01159
#
# Compressibility (1/GPa) = 0.02680553
#
# Stress axis : x y z
#
# Youngs Moduli (GPa) = 91.29420 49.72145 56.81504
#
# Poissons Ratio (x) = -0.04664 0.42876
# Poissons Ratio (y) = -0.08564 0.24556
# Poissons Ratio (z) = 0.68896 0.21490
#
# Static dielectric constant tensor:
#      x y z
#    x 4.116090 0.000000 -0.053060 
#    y 0.000000 3.683060 0.000000 
#    z -0.053060 0.000000 4.183510 
# 
# 
# High freq. dielectric constant tensor:
#      x y z
#    x 1.868500 0.000000 -0.002640 
#    y 0.000000 1.819270 0.000000 
#    z -0.002640 0.000000 1.866340 
# 
# From -- ./inp_files/113599.got.cif
#   From: 2010.06.25/outbox.cif.g09.slc.cpg/sg12_57_cif.got.tgz:113599.got - 2010.06.28 00:19:55.
