data_PCOD8113900
_publ_section_title
;
Structure prediction by ZEFSAII (Michael W. Deem and Ramdas Pophale) SiO2 
 PCOD8113900
Probable space group: C 2/M
;
_chemical_formula_sum "Si O2"
_cell_formula_units_Z 64
_cell_length_a 25.323629
_cell_length_b 21.314652
_cell_length_c 11.785318
_cell_angle_alpha 90.000000
_cell_angle_beta 150.170667
_cell_angle_gamma 90.000000
_cell_volume 3164.223316
_symmetry_space_group_name_H-M "C 2/M"
_symmetry_group_IT_number 12
_symmetry_cell_setting 'monoclinic'
loop_
_space_group_symop_operation_xyz
x,y,z
-x,y,-z
-x,-y,-z
x,-y,z
1/2+x,1/2+y,z
1/2-x,1/2+y,-z
1/2-x,1/2-y,-z
1/2+x,1/2-y,z
loop_
_atom_site_type_symbol
_atom_site_label
_atom_site_fract_x
_atom_site_fract_y
_atom_site_fract_z
Si Si1 0.687513 0.269470 0.267909
Si Si2 0.251309 0.349551 0.065190
Si Si3 0.880406 0.427571 0.769894
Si Si4 0.614133 0.070913 0.656840
Si Si5 0.412308 0.737510 0.246402
Si Si6 0.024782 0.772315 0.222152
Si Si7 0.725618 0.650737 0.640688
Si Si8 0.853394 0.355654 0.507274
O O1 0.750000 0.250000 0.500000
O O2 0.702696 0.212476 0.208616
O O3 0.732956 0.330922 0.290572
O O4 0.560182 0.277982 0.041077
O O5 0.350157 0.322443 0.180034
O O6 0.290634 0.374741 0.262065
O O7 0.204324 0.410301 0.914681
O O8 0.162049 0.296876 0.911575
O O9 0.878400 0.500000 0.797863
O O10 0.791972 0.396423 0.685611
O O11 0.853780 0.415678 0.589639
O O12 0.000000 0.400065 0.000000
O O13 0.500000 0.074502 0.500000
O O14 0.614897 0.121454 0.557227
O O15 0.637333 0.000000 0.657752
O O16 0.500000 0.759395 0.500000
O O17 0.466049 0.714735 0.230780
O O18 0.114775 0.826651 0.374517
O O19 0.073846 0.702339 0.315049
#
# Coordination Sequence:
#
# PCOD8113900 Si02
#       8
#     8   8   8   8   8   8   8   8
#     4  11  22  39  61  97 127 165 202 255 327 389
#     4  11  22  36  63  90 132 166 207 259 315 383
#     4  11  25  43  65  87 119 167 219 272 321 381
#     4  11  25  41  60  90 123 167 215 261 316 375
#     4  11  20  35  59  97 127 165 206 250 325 386
#     4  11  22  36  64  95 134 164 203 266 324 392
#     4  11  23  39  60  98 125 165 210 266 325 385
#     4  11  23  40  63  89 129 163 210 260 321 381
#
# _framework density 20.226132
#
# number of rings (size 3 to 8) (size 9 to 14) (size 15 to 20)
#    0.000    1.000    3.750    3.750    5.250    2.000 
#    0.000    0.000    0.000    4.875    0.000    0.000 
#    0.000    0.000    0.000    0.000    0.000    0.000 
#
# Total GULP energy -396545.380630 kJ/mol
# GULP energy per Si atom -12392.043145 kJ/mol
# Density = 2.018010 g / cm^3
# Si number density = 20.226132 Si / 1000 Ang^3
#
#
#
# Elastic Constant Matrix: (Units=GPa)
#
#
# Indices 1 2 3 4 5 6 
#
# 1 110.3064 36.1964 38.3426 0.0000 13.9779 0.0000
# 2 36.1964 79.3096 41.5771 0.0000 5.0597 0.0000
# 3 38.3426 41.5771 131.2551 0.0000 7.7496 0.0000
# 4 0.0000 0.0000 0.0000 -50.1166 0.0000 59.4745
# 5 13.9779 5.0597 7.7496 0.0000 33.0731 0.0000
# 6 0.0000 0.0000 0.0000 59.4745 0.0000 -16.9674
#
#
#
# Elastic Compliance Matrix: (Units=1/GPa)
#
#
# Indices 1 2 3 4 5 6 
#
# 1 0.011521 -0.004039 -0.001861 0.000000 -0.003815 0.000000
# 2 -0.004039 0.016583 -0.004081 0.000000 0.000126 0.000000
# 3 -0.001861 -0.004081 0.009503 0.000000 -0.000816 0.000000
# 4 0.000000 0.000000 0.000000 0.006315 0.000000 0.022135
# 5 -0.003815 0.000126 -0.000816 0.000000 0.032020 0.000000
# 6 0.000000 0.000000 0.000000 0.022135 0.000000 0.018652
#
#
# Mechanical properties :
#
#
# Convention : Reuss Voigt Hill
#
# Bulk Modulus (GPa) = 56.66853 61.45591 59.06222
# Shear Modulus (GPa) = 41.51461 6.84816 24.18139
#
# Velocity S-wave (km/s) = 4.53539 1.84205 3.46143
# Velocity P-wave (km/s) = 7.45015 5.91393 6.72604
#
# Compressibility (1/GPa) = 0.01764648
#
# Stress axis : x y z
#
# Youngs Moduli (GPa) = 86.79444 60.30102 105.22868
#
# Poissons Ratio (x) = 0.24358 0.19582
# Poissons Ratio (y) = 0.35059 0.42939
# Poissons Ratio (z) = 0.16151 0.24606
#
# Static dielectric constant tensor:
#      x y z
#    x 3.896050 0.000000 0.067180 
#    y 0.000000 3.474290 0.000000 
#    z 0.067180 0.000000 3.746710 
# 
# 
# High freq. dielectric constant tensor:
#      x y z
#    x 1.814150 0.000000 -0.001720 
#    y 0.000000 1.752890 0.000000 
#    z -0.001720 0.000000 1.794860 
# 
# From -- ./inp_files/184717.got.cif
#   From: 2010.06.25/outbox.cif.g09.slc.cpg/sg12_93_cif.got.tgz:184717.got - 2010.06.28 00:19:55.
