data_PCOD8113818
_publ_section_title
;
Structure prediction by ZEFSAII (Michael W. Deem and Ramdas Pophale) SiO2 
 PCOD8113818
Probable space group: C 2/M
;
_chemical_formula_sum "Si O2"
_cell_formula_units_Z 48
_cell_length_a 31.483064
_cell_length_b 8.933908
_cell_length_c 20.100163
_cell_angle_alpha 90.000000
_cell_angle_beta 151.858234
_cell_angle_gamma 90.000000
_cell_volume 2666.504330
_symmetry_space_group_name_H-M "C 2/M"
_symmetry_group_IT_number 12
_symmetry_cell_setting 'monoclinic'
loop_
_space_group_symop_operation_xyz
x,y,z
-x,y,-z
-x,-y,-z
x,-y,z
1/2+x,1/2+y,z
1/2-x,1/2+y,-z
1/2-x,1/2-y,-z
1/2+x,1/2-y,z
loop_
_atom_site_type_symbol
_atom_site_label
_atom_site_fract_x
_atom_site_fract_y
_atom_site_fract_z
Si Si1 0.323153 0.826348 0.055696
Si Si2 0.701715 0.822682 0.370443
Si Si3 0.791739 0.323225 0.368378
Si Si4 0.979431 0.322576 0.678460
Si Si5 0.682829 0.825741 0.107570
Si Si6 0.484226 0.176096 0.831850
O O1 0.423259 0.763875 0.212847
O O2 0.317724 0.000000 0.063700
O O3 0.250000 0.750000 0.000000
O O4 0.302975 0.794052 0.950618
O O5 0.750000 0.750000 0.500000
O O6 0.736231 0.757085 0.349450
O O7 0.595051 0.781726 0.226526
O O8 0.717130 0.000000 0.394085
O O9 0.781163 0.500000 0.362864
O O10 0.896866 0.273715 0.517204
O O11 0.755937 0.271671 0.247654
O O12 0.985322 0.500000 0.691095
O O13 0.960655 0.256708 0.726427
O O14 0.696979 0.000000 0.144221
O O15 0.582912 0.769195 0.992144
O O16 0.492168 0.000000 0.833808
#
# Coordination Sequence:
#
# PCOD8113818 Si02
#       6
#     8   8   8   8   8   8
#     4   9  18  35  60  81 100 129 170 213 254 312
#     4  11  20  32  52  77 104 138 182 222 256 300
#     4  11  21  34  52  76 108 140 173 217 261 303
#     4   8  15  31  53  74  98 136 176 205 247 312
#     4   9  19  36  55  75 102 138 175 210 256 311
#     4   8  15  31  53  71  95 138 183 212 243 303
#
# _framework density 18.001094999999999
#
# number of rings (size 3 to 8) (size 9 to 14) (size 15 to 20)
#    0.000    2.667    1.667    3.000    0.000    1.333 
#    0.000    7.500    0.000    5.000    0.000    0.000 
#    0.000    0.000    0.000    0.000    0.000    0.000 
#
# Total GULP energy -297428.431880 kJ/mol
# GULP energy per Si atom -12392.851328 kJ/mol
# Density = 1.796012 g / cm^3
# Si number density = 18.001095 Si / 1000 Ang^3
#
#
#
# Elastic Constant Matrix: (Units=GPa)
#
#
# Indices 1 2 3 4 5 6 
#
# 1 113.1335 43.1413 69.1849 0.0000 25.0443 0.0000
# 2 43.1413 56.1383 43.3391 0.0000 5.1304 0.0000
# 3 69.1849 43.3391 152.2321 0.0000 17.1284 0.0000
# 4 0.0000 0.0000 0.0000 28.5915 0.0000 -2.5783
# 5 25.0443 5.1304 17.1284 0.0000 25.7882 0.0000
# 6 0.0000 0.0000 0.0000 -2.5783 0.0000 30.1398
#
#
#
# Elastic Compliance Matrix: (Units=1/GPa)
#
#
# Indices 1 2 3 4 5 6 
#
# 1 0.017590 -0.009342 -0.003914 0.000000 -0.012624 0.000000
# 2 -0.009342 0.027794 -0.004394 0.000000 0.006462 0.000000
# 3 -0.003914 -0.004394 0.009805 0.000000 -0.001837 0.000000
# 4 0.000000 0.000000 0.000000 0.035247 0.000000 0.003015
# 5 -0.012624 0.006462 -0.001837 0.000000 0.050972 0.000000
# 6 0.000000 0.000000 0.000000 0.003015 0.000000 0.033437
#
#
# Mechanical properties :
#
#
# Convention : Reuss Voigt Hill
#
# Bulk Modulus (GPa) = 50.27917 70.31496 60.29706
# Shear Modulus (GPa) = 23.06539 27.95982 25.51261
#
# Velocity S-wave (km/s) = 3.58345 3.94538 3.76876
# Velocity P-wave (km/s) = 6.71665 7.73957 7.24618
#
# Compressibility (1/GPa) = 0.01988895
#
# Stress axis : x y z
#
# Youngs Moduli (GPa) = 56.85170 35.97894 101.98471
#
# Poissons Ratio (x) = 0.33612 0.39917
# Poissons Ratio (y) = 0.53111 0.44813
# Poissons Ratio (z) = 0.22252 0.15809
#
# Static dielectric constant tensor:
#      x y z
#    x 3.305350 0.000000 0.272390 
#    y 0.000000 3.054940 0.000000 
#    z 0.272390 0.000000 3.709130 
# 
# 
# High freq. dielectric constant tensor:
#      x y z
#    x 1.684130 0.000000 0.013810 
#    y 0.000000 1.668130 0.000000 
#    z 0.013810 0.000000 1.706760 
# 
# From -- ./inp_files/273690.got.cif
#   From: 2010.06.25/outbox.cif.g09.slc.cpg/sg12_137_cif.got.tgz:273690.got - 2010.06.28 00:19:55.
