data_PCOD8113264
_publ_section_title
;
Structure prediction by ZEFSAII (Michael W. Deem and Ramdas Pophale) SiO2 
 PCOD8113264
Probable space group: C 2/M
;
_chemical_formula_sum "Si O2"
_cell_formula_units_Z 44
_cell_length_a 8.684074
_cell_length_b 15.078037
_cell_length_c 16.125955
_cell_angle_alpha 90.000000
_cell_angle_beta 80.766823
_cell_angle_gamma 90.000000
_cell_volume 2084.155246
_symmetry_space_group_name_H-M "C 2/M"
_symmetry_group_IT_number 12
_symmetry_cell_setting 'monoclinic'
loop_
_space_group_symop_operation_xyz
x,y,z
-x,y,-z
-x,-y,-z
x,-y,z
1/2+x,1/2+y,z
1/2-x,1/2+y,-z
1/2-x,1/2-y,-z
1/2+x,1/2-y,z
loop_
_atom_site_type_symbol
_atom_site_label
_atom_site_fract_x
_atom_site_fract_y
_atom_site_fract_z
Si Si1 0.401702 0.000000 0.753869
Si Si2 0.608430 0.681441 0.294457
Si Si3 0.257436 0.671035 0.890953
Si Si4 0.932903 0.500000 0.097362
Si Si5 0.316667 0.000000 0.527100
Si Si6 0.754973 0.500000 0.346357
Si Si7 0.500000 0.709849 0.000000
Si Si8 0.750613 0.353841 0.664290
O O1 0.307803 0.911859 0.737556
O O2 0.422571 0.000000 0.851269
O O3 0.563231 0.000000 0.690084
O O4 0.672597 0.711644 0.198998
O O5 0.676781 0.587885 0.317166
O O6 0.424945 0.673833 0.304371
O O7 0.651169 0.762483 0.352549
O O8 0.178851 0.580206 0.873039
O O9 0.397027 0.652405 0.944863
O O10 0.121635 0.731840 0.938383
O O11 0.000000 0.500000 0.000000
O O12 0.500000 0.000000 0.500000
O O13 0.229216 0.000000 0.447163
O O14 0.266069 0.088997 0.579367
#
# Coordination Sequence:
#
# PCOD8113264 Si02
#       8
#     4   8   8   4   4   4   4   8
#     4  11  23  45  68  96 139 184 222 291 339 408
#     4  12  25  43  72 104 136 186 234 281 341 424
#     4  11  23  43  64  98 135 179 231 280 341 402
#     4  12  25  39  67  97 135 177 229 275 346 400
#     4  11  25  49  72 100 144 174 225 286 351 418
#     4  12  23  45  74  97 141 180 219 292 345 403
#     4  10  24  40  68  94 138 178 222 296 334 388
#     4  11  26  44  71 103 136 183 231 278 351 413
#
# _framework density 21.11167
#
# number of rings (size 3 to 8) (size 9 to 14) (size 15 to 20)
#    0.000    0.727    4.545    3.273    2.545    4.000 
#    0.000    0.000    0.000    0.000    0.000    0.000 
#    0.000    0.000    0.000    0.000    0.000    0.000 
#
# Total GULP energy -272835.251204 kJ/mol
# GULP energy per Si atom -12401.602327 kJ/mol
# Density = 2.106362 g / cm^3
# Si number density = 21.111670 Si / 1000 Ang^3
#
#
#
# Elastic Constant Matrix: (Units=GPa)
#
#
# Indices 1 2 3 4 5 6 
#
# 1 154.8398 55.9118 47.7009 0.0000 2.1584 0.0000
# 2 55.9118 137.7004 32.3610 0.0000 8.5683 0.0000
# 3 47.7009 32.3610 136.6726 0.0000 12.0214 0.0000
# 4 0.0000 0.0000 0.0000 24.6600 0.0000 3.1171
# 5 2.1584 8.5683 12.0214 0.0000 37.4323 0.0000
# 6 0.0000 0.0000 0.0000 3.1171 0.0000 38.5624
#
#
#
# Elastic Compliance Matrix: (Units=1/GPa)
#
#
# Indices 1 2 3 4 5 6 
#
# 1 0.008167 -0.002842 -0.002257 0.000000 0.000904 0.000000
# 2 -0.002842 0.008733 -0.000941 0.000000 -0.001533 0.000000
# 3 -0.002257 -0.000941 0.008538 0.000000 -0.002396 0.000000
# 4 0.000000 0.000000 0.000000 0.040970 0.000000 -0.003312
# 5 0.000904 -0.001533 -0.002396 0.000000 0.027783 0.000000
# 6 0.000000 0.000000 0.000000 -0.003312 0.000000 0.026200
#
#
# Mechanical properties :
#
#
# Convention : Reuss Voigt Hill
#
# Bulk Modulus (GPa) = 74.86286 77.90669 76.38478
# Shear Modulus (GPa) = 36.51666 39.68023 38.09844
#
# Velocity S-wave (km/s) = 4.16347 4.34007 4.25269
# Velocity P-wave (km/s) = 7.65833 7.88018 7.77005
#
# Compressibility (1/GPa) = 0.01335776
#
# Stress axis : x y z
#
# Youngs Moduli (GPa) = 122.43978 114.51280 117.12192
#
# Poissons Ratio (x) = 0.32545 0.26436
# Poissons Ratio (y) = 0.34798 0.11021
# Poissons Ratio (z) = 0.27636 0.10775
#
# Static dielectric constant tensor:
#      x y z
#    x 4.155270 0.000000 0.220400 
#    y 0.000000 3.750800 0.000000 
#    z 0.220400 0.000000 4.169210 
# 
# 
# High freq. dielectric constant tensor:
#      x y z
#    x 1.844970 0.000000 0.003870 
#    y 0.000000 1.830420 0.000000 
#    z 0.003870 0.000000 1.832540 
# 
# From -- ./inp_files/255400.got.cif
#   From: 2010.06.25/outbox.cif.g09.slc.cpg/sg12_128_cif.got.tgz:255400.got - 2010.06.28 00:19:55.
