data_PCOD8113223
_publ_section_title
;
Structure prediction by ZEFSAII (Michael W. Deem and Ramdas Pophale) SiO2 
 PCOD8113223
Probable space group: C 2/M
;
_chemical_formula_sum "Si O2"
_cell_formula_units_Z 44
_cell_length_a 9.931125
_cell_length_b 21.366883
_cell_length_c 10.987385
_cell_angle_alpha 90.000000
_cell_angle_beta 113.752016
_cell_angle_gamma 90.000000
_cell_volume 2134.008513
_symmetry_space_group_name_H-M "C 2/M"
_symmetry_group_IT_number 12
_symmetry_cell_setting 'monoclinic'
loop_
_space_group_symop_operation_xyz
x,y,z
-x,y,-z
-x,-y,-z
x,-y,z
1/2+x,1/2+y,z
1/2-x,1/2+y,-z
1/2-x,1/2-y,-z
1/2+x,1/2-y,z
loop_
_atom_site_type_symbol
_atom_site_label
_atom_site_fract_x
_atom_site_fract_y
_atom_site_fract_z
Si Si1 0.846960 0.000000 0.602761
Si Si2 0.802198 0.629261 0.819650
Si Si3 0.880466 0.664659 0.118672
Si Si4 0.730388 0.629900 0.304149
Si Si5 0.192209 0.000000 0.689574
Si Si6 0.542513 0.285897 0.736982
Si Si7 0.000000 0.701361 0.500000
O O1 0.797851 0.060114 0.660887
O O2 0.772820 0.000000 0.442050
O O3 0.020238 0.000000 0.650629
O O4 0.765744 0.557821 0.783456
O O5 0.669706 0.672086 0.721384
O O6 0.950570 0.644260 0.802289
O O7 0.816026 0.643183 0.967616
O O8 0.784352 0.629309 0.184813
O O9 0.881862 0.740414 0.134332
O O10 0.581658 0.670497 0.250438
O O11 0.854740 0.659344 0.435265
O O12 0.471605 0.243641 0.607019
#
# Coordination Sequence:
#
# PCOD8113223 Si02
#       7
#     4   8   8   8   4   8   4
#     4  11  26  45  68  96 130 169 222 270 321 385
#     4  11  24  44  68  91 136 178 216 260 322 394
#     4  10  24  42  65 102 130 166 219 268 332 371
#     4  11  24  42  66  99 130 168 219 274 322 375
#     4  11  26  45  69  94 127 179 222 257 322 398
#     4  11  22  41  68  96 134 174 214 265 324 395
#     4  10  24  37  64  99 134 168 214 268 340 376
#
# _framework density 20.618473999999999
#
# number of rings (size 3 to 8) (size 9 to 14) (size 15 to 20)
#    0.000    1.273    1.818    3.273    7.636    5.455 
#    0.000    0.909    0.000    0.000    0.000    0.000 
#    0.000    0.000    0.000    0.000    0.000    0.000 
#
# Total GULP energy -272857.775659 kJ/mol
# GULP energy per Si atom -12402.626166 kJ/mol
# Density = 2.057155 g / cm^3
# Si number density = 20.618474 Si / 1000 Ang^3
#
#
#
# Elastic Constant Matrix: (Units=GPa)
#
#
# Indices 1 2 3 4 5 6 
#
# 1 125.5440 57.0787 28.5186 0.0000 -14.2875 0.0000
# 2 57.0787 170.6687 43.9708 0.0000 -14.4000 0.0000
# 3 28.5186 43.9708 63.3325 0.0000 -15.1921 0.0000
# 4 0.0000 0.0000 0.0000 13.5493 0.0000 0.4933
# 5 -14.2875 -14.4000 -15.1921 0.0000 33.2145 0.0000
# 6 0.0000 0.0000 0.0000 0.4933 0.0000 18.3554
#
#
#
# Elastic Compliance Matrix: (Units=1/GPa)
#
#
# Indices 1 2 3 4 5 6 
#
# 1 0.009863 -0.002565 -0.002145 0.000000 0.002150 0.000000
# 2 -0.002565 0.007828 -0.004190 0.000000 0.000374 0.000000
# 3 -0.002145 -0.004190 0.021350 0.000000 0.007026 0.000000
# 4 0.000000 0.000000 0.000000 0.073877 0.000000 -0.001986
# 5 0.002150 0.000374 0.007026 0.000000 0.034408 0.000000
# 6 0.000000 0.000000 0.000000 -0.001986 0.000000 0.054533
#
#
# Mechanical properties :
#
#
# Convention : Reuss Voigt Hill
#
# Bulk Modulus (GPa) = 47.07790 68.74238 57.91014
# Shear Modulus (GPa) = 22.05164 28.35567 25.20365
#
# Velocity S-wave (km/s) = 3.27388 3.71247 3.50005
# Velocity P-wave (km/s) = 6.09701 7.19647 6.66943
#
# Compressibility (1/GPa) = 0.02124139
#
# Stress axis : x y z
#
# Youngs Moduli (GPa) = 101.38598 127.74339 46.83756
#
# Poissons Ratio (x) = 0.32762 0.10048
# Poissons Ratio (y) = 0.26002 0.19627
# Poissons Ratio (z) = 0.21749 0.53530
#
# Static dielectric constant tensor:
#      x y z
#    x 3.896350 0.000000 0.074740 
#    y 0.000000 3.863610 0.000000 
#    z 0.074740 0.000000 3.712700 
# 
# 
# High freq. dielectric constant tensor:
#      x y z
#    x 1.822380 0.000000 0.003670 
#    y 0.000000 1.812660 0.000000 
#    z 0.003670 0.000000 1.806730 
# 
# From -- ./inp_files/122153.got.cif
#   From: 2010.06.25/outbox.cif.g09.slc.cpg/sg12_62_cif.got.tgz:122153.got - 2010.06.28 00:19:55.
