data_PCOD8113074
_publ_section_title
;
Structure prediction by ZEFSAII (Michael W. Deem and Ramdas Pophale) SiO2 
 PCOD8113074
Probable space group: C 2/M
;
_chemical_formula_sum "Si O2"
_cell_formula_units_Z 60
_cell_length_a 14.601376
_cell_length_b 27.062230
_cell_length_c 14.788075
_cell_angle_alpha 90.000000
_cell_angle_beta 27.714024
_cell_angle_gamma 90.000000
_cell_volume 2717.545507
_symmetry_space_group_name_H-M "C 2/M"
_symmetry_group_IT_number 12
_symmetry_cell_setting 'monoclinic'
loop_
_space_group_symop_operation_xyz
x,y,z
-x,y,-z
-x,-y,-z
x,-y,z
1/2+x,1/2+y,z
1/2-x,1/2+y,-z
1/2-x,1/2-y,-z
1/2+x,1/2-y,z
loop_
_atom_site_type_symbol
_atom_site_label
_atom_site_fract_x
_atom_site_fract_y
_atom_site_fract_z
Si Si1 0.618820 0.942368 0.053229
Si Si2 0.603839 0.794835 0.636679
Si Si3 0.253371 0.604201 0.523069
Si Si4 0.154859 0.699969 0.299023
Si Si5 0.378606 0.608364 0.682552
Si Si6 0.000000 0.126388 0.000000
Si Si7 0.172065 0.702840 0.781522
Si Si8 0.996808 0.055677 0.167605
O O1 0.414958 0.916408 0.261478
O O2 0.578515 0.000000 0.073041
O O3 0.697927 0.920280 0.888335
O O4 0.786064 0.933371 0.982286
O O5 0.750000 0.750000 0.500000
O O6 0.680326 0.847674 0.531754
O O7 0.415943 0.782064 0.738912
O O8 0.568236 0.803886 0.774461
O O9 0.453135 0.624396 0.394540
O O10 0.322427 0.561437 0.394047
O O11 0.322840 0.661662 0.129050
O O12 0.206198 0.746689 0.318135
O O13 0.000000 0.672063 0.500000
O O14 0.500000 0.576025 0.500000
O O15 0.300989 0.655861 0.696020
O O16 0.949284 0.092447 0.128833
O O17 0.000000 0.710588 0.000000
O O18 0.987580 0.000000 0.139238
#
# Coordination Sequence:
#
# PCOD8113074 Si02
#       8
#     8   8   8   8   8   4   8   8
#     4  10  23  44  69 102 138 177 232 289 347 422
#     4  12  24  41  72  98 136 188 229 284 349 411
#     4  11  22  42  69  99 137 182 226 283 351 411
#     4  12  25  45  68 102 143 182 233 294 347 414
#     4  11  23  41  68  98 136 180 223 278 339 411
#     4  12  25  44  68 104 138 180 233 296 348 416
#     4  12  25  45  67 100 143 182 235 283 341 421
#     4  10  23  43  69  99 137 182 232 290 354 416
#
# _framework density 22.078745999999999
#
# number of rings (size 3 to 8) (size 9 to 14) (size 15 to 20)
#    0.000    0.800    3.333    4.200    0.000    2.400 
#    0.000    0.667    0.000    4.000    0.000    0.000 
#    0.000    0.000    0.000    0.000    0.000    0.000 
#
# Total GULP energy -371788.491619 kJ/mol
# GULP energy per Si atom -12392.949721 kJ/mol
# Density = 2.202849 g / cm^3
# Si number density = 22.078746 Si / 1000 Ang^3
#
#
#
# Elastic Constant Matrix: (Units=GPa)
#
#
# Indices 1 2 3 4 5 6 
#
# 1 128.0311 38.1559 36.0584 0.1394 8.8299 -0.0582
# 2 38.1559 120.0467 42.0785 -0.0283 2.4487 -0.0116
# 3 36.0584 42.0785 137.9278 0.4995 4.9989 -0.2459
# 4 0.1394 -0.0283 0.4995 -12.4492 -0.2198 14.7299
# 5 8.8299 2.4487 4.9989 -0.2198 28.8815 0.0945
# 6 -0.0582 -0.0116 -0.2459 14.7299 0.0945 20.6432
#
#
#
# Elastic Compliance Matrix: (Units=1/GPa)
#
#
# Indices 1 2 3 4 5 6 
#
# 1 0.009101 -0.002285 -0.001599 0.000056 -0.002312 -0.000024
# 2 -0.002285 0.009904 -0.002434 -0.000102 0.000279 0.000041
# 3 -0.001599 -0.002434 0.008437 0.000247 -0.000763 -0.000078
# 4 0.000056 -0.000102 0.000247 -0.043541 -0.000484 0.031074
# 5 -0.002312 0.000279 -0.000763 -0.000484 0.035435 0.000168
# 6 -0.000024 0.000041 -0.000078 0.031074 0.000168 0.026268
#
#
# Mechanical properties :
#
#
# Convention : Reuss Voigt Hill
#
# Bulk Modulus (GPa) = 67.53509 68.73236 68.13372
# Shear Modulus (GPa) = 79.14504 25.39596 52.27050
#
# Velocity S-wave (km/s) = 5.99371 3.39520 4.87093
# Velocity P-wave (km/s) = 8.86307 6.82408 7.90955
#
# Compressibility (1/GPa) = 0.01480712
#
# Stress axis : x y z
#
# Youngs Moduli (GPa) = 109.87523 100.97172 118.52313
#
# Poissons Ratio (x) = 0.23075 0.18947
# Poissons Ratio (y) = 0.25109 0.28844
# Poissons Ratio (z) = 0.17565 0.24573
#
# Static dielectric constant tensor:
#      x y z
#    x 3.619950 0.003060 1.419080 
#    y 0.003060 4.050960 -0.006520 
#    z 1.419080 -0.006520 1.058030 
# 
# 
# High freq. dielectric constant tensor:
#      x y z
#    x 1.874760 0.000000 0.002250 
#    y 0.000000 1.867330 0.000010 
#    z 0.002250 0.000010 1.877170 
# 
# From -- ./inp_files/219213.got.cif
#   From: 2010.06.25/outbox.cif.g09.slc.cpg/sg12_110_cif.got.tgz:219213.got - 2010.06.28 00:19:55.
