data_PCOD8113085
_publ_section_title
;
Structure prediction by ZEFSAII (Michael W. Deem and Ramdas Pophale) SiO2 
 PCOD8113085
Probable space group: C 2/M
;
_chemical_formula_sum "Si O2"
_cell_formula_units_Z 56
_cell_length_a 23.205396
_cell_length_b 13.840432
_cell_length_c 9.636788
_cell_angle_alpha 90.000000
_cell_angle_beta 65.123508
_cell_angle_gamma 90.000000
_cell_volume 2807.902116
_symmetry_space_group_name_H-M "C 2/M"
_symmetry_group_IT_number 12
_symmetry_cell_setting 'monoclinic'
loop_
_space_group_symop_operation_xyz
x,y,z
-x,y,-z
-x,-y,-z
x,-y,z
1/2+x,1/2+y,z
1/2-x,1/2+y,-z
1/2-x,1/2-y,-z
1/2+x,1/2-y,z
loop_
_atom_site_type_symbol
_atom_site_label
_atom_site_fract_x
_atom_site_fract_y
_atom_site_fract_z
Si Si1 0.307364 0.890645 0.290403
Si Si2 0.276082 0.722848 0.123529
Si Si3 0.682114 0.112649 0.403071
Si Si4 0.464431 0.389848 0.248798
Si Si5 0.953896 0.389720 0.160096
Si Si6 0.054201 0.717699 0.555076
Si Si7 0.596871 0.611836 0.978927
O O1 0.270889 0.817185 0.226887
O O2 0.292962 0.866047 0.466191
O O3 0.381759 0.878854 0.184695
O O4 0.285009 0.000000 0.279107
O O5 0.235324 0.638364 0.236890
O O6 0.346865 0.682521 0.032249
O O7 0.250000 0.750000 0.000000
O O8 0.620677 0.177478 0.430818
O O9 0.663476 0.000000 0.409382
O O10 0.450143 0.500000 0.300063
O O11 0.440377 0.330058 0.406504
O O12 0.424468 0.358209 0.154189
O O13 0.539166 0.373860 0.144800
O O14 0.972928 0.500000 0.164125
O O15 0.968942 0.337813 0.286620
O O16 0.000000 0.341309 0.000000
O O17 0.000000 0.700795 0.500000
O O18 0.618763 0.500000 0.958162
#
# Coordination Sequence:
#
# PCOD8113085 Si02
#       7
#     8   8   8   8   8   8   8
#     4   9  20  39  59  82 118 160 207 250 292 357
#     4  12  25  37  62  92 127 160 201 252 319 369
#     4  10  23  44  62  84 120 165 208 248 294 368
#     4   9  20  38  63  90 119 155 209 259 300 357
#     4   9  19  35  58  87 115 155 205 250 293 348
#     4  11  23  35  61  89 127 158 196 242 319 364
#     4   9  19  38  63  89 116 160 209 257 303 356
#
# _framework density 19.943714
#
# number of rings (size 3 to 8) (size 9 to 14) (size 15 to 20)
#    0.000    2.143    0.000    4.714    6.000    2.571 
#    0.000    3.571    0.000    0.000    0.000    0.000 
#    0.000    0.000    0.000    0.000    0.000    0.000 
#
# Total GULP energy -347241.725165 kJ/mol
# GULP energy per Si atom -12401.490184 kJ/mol
# Density = 1.989832 g / cm^3
# Si number density = 19.943714 Si / 1000 Ang^3
#
#
#
# Elastic Constant Matrix: (Units=GPa)
#
#
# Indices 1 2 3 4 5 6 
#
# 1 101.0749 51.9243 40.7418 0.0000 13.1396 0.0000
# 2 51.9243 90.9048 30.7572 0.0000 4.1561 0.0000
# 3 40.7418 30.7572 76.6576 0.0000 -0.4655 0.0000
# 4 0.0000 0.0000 0.0000 26.4313 0.0000 -9.8259
# 5 13.1396 4.1561 -0.4655 0.0000 28.4851 0.0000
# 6 0.0000 0.0000 0.0000 -9.8259 0.0000 35.3115
#
#
#
# Elastic Compliance Matrix: (Units=1/GPa)
#
#
# Indices 1 2 3 4 5 6 
#
# 1 0.017038 -0.007335 -0.006154 0.000000 -0.006890 0.000000
# 2 -0.007335 0.015994 -0.002513 0.000000 0.001009 0.000000
# 3 -0.006154 -0.002513 0.017345 0.000000 0.003489 0.000000
# 4 0.000000 0.000000 0.000000 0.042199 0.000000 0.011743
# 5 -0.006890 0.001009 0.003489 0.000000 0.038194 0.000000
# 6 0.000000 0.000000 0.000000 0.011743 0.000000 0.031587
#
#
# Mechanical properties :
#
#
# Convention : Reuss Voigt Hill
#
# Bulk Modulus (GPa) = 54.42577 57.27597 55.85087
# Shear Modulus (GPa) = 24.93940 27.72653 26.33296
#
# Velocity S-wave (km/s) = 3.54006 3.73264 3.63762
# Velocity P-wave (km/s) = 6.63764 6.88171 6.76078
#
# Compressibility (1/GPa) = 0.01837365
#
# Stress axis : x y z
#
# Youngs Moduli (GPa) = 58.69234 62.52255 57.65247
#
# Poissons Ratio (x) = 0.45859 0.35481
# Poissons Ratio (y) = 0.43049 0.14488
# Poissons Ratio (z) = 0.36121 0.15712
#
# Static dielectric constant tensor:
#      x y z
#    x 3.414480 0.000000 -0.094800 
#    y 0.000000 3.818460 0.000000 
#    z -0.094800 0.000000 3.536510 
# 
# 
# High freq. dielectric constant tensor:
#      x y z
#    x 1.761140 0.000000 -0.008290 
#    y 0.000000 1.795910 0.000000 
#    z -0.008290 0.000000 1.766760 
# 
# From -- ./inp_files/96236.got.cif
#   From: 2010.06.25/outbox.cif.g09.slc.cpg/sg12_49_cif.got.tgz:96236.got - 2010.06.28 00:19:55.
