data_PCOD8113200
_publ_section_title
;
Structure prediction by ZEFSAII (Michael W. Deem and Ramdas Pophale) SiO2 
 PCOD8113200
Probable space group: C 2/M
;
_chemical_formula_sum "Si O2"
_cell_formula_units_Z 28
_cell_length_a 13.756927
_cell_length_b 16.998245
_cell_length_c 7.708851
_cell_angle_alpha 90.000000
_cell_angle_beta 38.817606
_cell_angle_gamma 90.000000
_cell_volume 1129.988773
_symmetry_space_group_name_H-M "C 2/M"
_symmetry_group_IT_number 12
_symmetry_cell_setting 'monoclinic'
loop_
_space_group_symop_operation_xyz
x,y,z
-x,y,-z
-x,-y,-z
x,-y,z
1/2+x,1/2+y,z
1/2-x,1/2+y,-z
1/2-x,1/2-y,-z
1/2+x,1/2-y,z
loop_
_atom_site_type_symbol
_atom_site_label
_atom_site_fract_x
_atom_site_fract_y
_atom_site_fract_z
Si Si1 0.258798 0.412003 0.044658
Si Si2 0.458027 0.678498 0.248555
Si Si3 0.822465 0.409979 0.238644
Si Si4 0.500000 0.797013 0.500000
O O1 0.211791 0.500000 0.165529
O O2 0.151123 0.351307 0.296279
O O3 0.435871 0.396774 0.852443
O O4 0.243426 0.400643 0.861560
O O5 0.279684 0.648502 0.499771
O O6 0.496940 0.746347 0.330537
O O7 0.500000 0.711302 0.000000
O O8 0.809847 0.500000 0.322962
O O9 0.000000 0.381642 0.000000
#
# Coordination Sequence:
#
# PCOD8113200 Si02
#       4
#     8   8   8   4
#     4  11  25  49  78 107 149 199 249 306 368 439
#     4  12  27  47  80 110 152 197 247 301 377 442
#     4  10  23  46  76 113 152 195 250 308 368 441
#     4  12  27  50  73 112 154 194 244 314 365 442
#
# _framework density 24.779007
#
# number of rings (size 3 to 8) (size 9 to 14) (size 15 to 20)
#    0.000    0.857    2.857    2.143    4.000    6.857 
#    0.000    0.000    0.000    0.857    0.000    0.000 
#    0.000    0.000    0.000    0.000    0.000    0.000 
#
# Total GULP energy -173713.286104 kJ/mol
# GULP energy per Si atom -12408.091865 kJ/mol
# Density = 2.472261 g / cm^3
# Si number density = 24.779007 Si / 1000 Ang^3
#
#
#
# Elastic Constant Matrix: (Units=GPa)
#
#
# Indices 1 2 3 4 5 6 
#
# 1 119.3133 44.5047 65.0105 -0.0004 7.1840 0.0029
# 2 44.5047 134.3621 73.7257 -0.0003 9.6284 0.0020
# 3 65.0105 73.7257 162.6373 -0.0003 -7.9455 0.0024
# 4 -0.0004 -0.0003 -0.0003 46.5325 0.0003 -16.1043
# 5 7.1840 9.6284 -7.9455 0.0003 54.4955 -0.0024
# 6 0.0029 0.0020 0.0024 -16.1043 -0.0024 26.6737
#
#
#
# Elastic Compliance Matrix: (Units=1/GPa)
#
#
# Indices 1 2 3 4 5 6 
#
# 1 0.011143 -0.001426 -0.003895 0.000000 -0.001785 -0.000001
# 2 -0.001426 0.010417 -0.004263 0.000000 -0.002274 -0.000001
# 3 -0.003895 -0.004263 0.009770 0.000000 0.002691 0.000000
# 4 0.000000 0.000000 0.000000 0.027167 0.000001 0.016402
# 5 -0.001785 -0.002274 0.002691 0.000001 0.019380 0.000002
# 6 -0.000001 -0.000001 0.000000 0.016402 0.000002 0.047393
#
#
# Mechanical properties :
#
#
# Convention : Reuss Voigt Hill
#
# Bulk Modulus (GPa) = 82.22713 86.97716 84.60215
# Shear Modulus (GPa) = 33.67200 41.07845 37.37522
#
# Velocity S-wave (km/s) = 3.69031 4.07602 3.88795
# Velocity P-wave (km/s) = 7.17036 7.57161 7.37372
#
# Compressibility (1/GPa) = 0.01216144
#
# Stress axis : x y z
#
# Youngs Moduli (GPa) = 89.74367 95.99523 102.35676
#
# Poissons Ratio (x) = 0.13686 0.39868
# Poissons Ratio (y) = 0.12795 0.43639
# Poissons Ratio (z) = 0.34955 0.40927
#
# Static dielectric constant tensor:
#      x y z
#    x 4.516510 0.000000 -0.151360 
#    y 0.000000 4.485010 0.000000 
#    z -0.151360 0.000000 4.575350 
# 
# 
# High freq. dielectric constant tensor:
#      x y z
#    x 1.993660 0.000000 -0.006560 
#    y 0.000000 1.993730 0.000000 
#    z -0.006560 0.000000 1.990320 
# 
# From -- ./inp_files/58876.got.cif
#   From: 2010.06.25/outbox.cif.g09.slc.cpg/sg12_30_cif.got.tgz:58876.got - 2010.06.28 00:19:55.
