data_PCOD8113158
_publ_section_title
;
Structure prediction by ZEFSAII (Michael W. Deem and Ramdas Pophale) SiO2 
 PCOD8113158
Probable space group: C 2/M
;
_chemical_formula_sum "Si O2"
_cell_formula_units_Z 40
_cell_length_a 13.616777
_cell_length_b 28.961627
_cell_length_c 9.780189
_cell_angle_alpha 90.000000
_cell_angle_beta 147.598143
_cell_angle_gamma 90.000000
_cell_volume 2066.765176
_symmetry_space_group_name_H-M "C 2/M"
_symmetry_group_IT_number 12
_symmetry_cell_setting 'monoclinic'
loop_
_space_group_symop_operation_xyz
x,y,z
-x,y,-z
-x,-y,-z
x,-y,z
1/2+x,1/2+y,z
1/2-x,1/2+y,-z
1/2-x,1/2-y,-z
1/2+x,1/2-y,z
loop_
_atom_site_type_symbol
_atom_site_label
_atom_site_fract_x
_atom_site_fract_y
_atom_site_fract_z
Si Si1 0.604974 0.948161 0.410373
Si Si2 0.000000 0.839992 0.500000
Si Si3 0.091418 0.882986 0.324935
Si Si4 0.236888 0.051010 0.102794
Si Si5 0.805456 0.752581 0.222319
Si Si6 0.000000 0.807642 0.000000
O O1 0.713897 0.909764 0.450874
O O2 0.679096 0.949510 0.649493
O O3 0.390040 0.933683 0.170394
O O4 0.623080 0.000000 0.367342
O O5 0.955394 0.872018 0.574852
O O6 0.819635 0.807559 0.268906
O O7 0.932579 0.915554 0.084818
O O8 0.087834 0.837636 0.225638
O O9 0.165770 0.000000 0.980091
O O10 0.655899 0.726490 0.133586
O O11 0.000000 0.729879 0.500000
O O12 0.750000 0.750000 0.000000
#
# Coordination Sequence:
#
# PCOD8113158 Si02
#       6
#     8   4   8   8   8   4
#     4   9  18  34  59  91 123 156 198 249 303 359
#     4  10  26  44  57  86 130 156 205 258 320 364
#     4  12  21  37  59  93 117 156 206 253 294 373
#     4   9  18  34  58  90 124 155 195 251 303 354
#     4  10  23  45  64  89 124 161 204 266 318 373
#     4  12  22  38  71  88 114 166 213 246 316 376
#
# _framework density 19.353915000000001
#
# number of rings (size 3 to 8) (size 9 to 14) (size 15 to 20)
#    0.600    1.200    4.000    1.800    0.000    6.400 
#    3.600    2.000    0.000    2.400    0.000    0.000 
#    0.000    0.000    0.000    0.000    0.000    0.000 
#
# Total GULP energy -247800.461451 kJ/mol
# GULP energy per Si atom -12390.023073 kJ/mol
# Density = 1.930986 g / cm^3
# Si number density = 19.353915 Si / 1000 Ang^3
#
#
#
# Elastic Constant Matrix: (Units=GPa)
#
#
# Indices 1 2 3 4 5 6 
#
# 1 127.5756 54.5797 27.5557 0.0000 10.0097 0.0000
# 2 54.5797 79.3303 10.2933 0.0000 15.0447 0.0000
# 3 27.5557 10.2933 56.8931 0.0000 4.3273 0.0000
# 4 0.0000 0.0000 0.0000 5.4717 0.0000 15.2164
# 5 10.0097 15.0447 4.3273 0.0000 37.7912 0.0000
# 6 0.0000 0.0000 0.0000 15.2164 0.0000 49.4749
#
#
#
# Elastic Compliance Matrix: (Units=1/GPa)
#
#
# Indices 1 2 3 4 5 6 
#
# 1 0.012130 -0.007844 -0.004488 0.000000 0.000424 0.000000
# 2 -0.007844 0.018953 0.000793 0.000000 -0.005559 0.000000
# 3 -0.004488 0.000793 0.019713 0.000000 -0.001384 0.000000
# 4 0.000000 0.000000 0.000000 1.262952 0.000000 -0.388432
# 5 0.000424 -0.005559 -0.001384 0.000000 0.028720 0.000000
# 6 0.000000 0.000000 0.000000 -0.388432 0.000000 0.139678
#
#
# Mechanical properties :
#
#
# Convention : Reuss Voigt Hill
#
# Bulk Modulus (GPa) = 36.07817 49.85070 42.96444
# Shear Modulus (GPa) = 3.30150 29.97226 16.63688
#
# Velocity S-wave (km/s) = 1.30750 3.93955 2.93510
# Velocity P-wave (km/s) = 4.57834 6.81958 5.80809
#
# Compressibility (1/GPa) = 0.02771759
#
# Stress axis : x y z
#
# Youngs Moduli (GPa) = 82.43696 52.76097 50.72905
#
# Poissons Ratio (x) = 0.41385 0.22769
# Poissons Ratio (y) = 0.64662 -0.04022
# Poissons Ratio (z) = 0.37001 -0.04183
#
# Static dielectric constant tensor:
#      x y z
#    x 4.175380 0.000000 0.050110 
#    y 0.000000 3.967840 0.000000 
#    z 0.050110 0.000000 3.887680 
# 
# 
# High freq. dielectric constant tensor:
#      x y z
#    x 1.755440 0.000000 0.014960 
#    y 0.000000 1.756210 0.000000 
#    z 0.014960 0.000000 1.730960 
# 
# From -- ./inp_files/54481.got.cif
#   From: 2010.06.25/outbox.cif.g09.slc.cpg/sg12_28_cif.got.tgz:54481.got - 2010.06.28 00:19:55.
