data_PCOD8113082
_publ_section_title
;
Structure prediction by ZEFSAII (Michael W. Deem and Ramdas Pophale) SiO2 
 PCOD8113082
Probable space group: C 2/M
;
_chemical_formula_sum "Si O2"
_cell_formula_units_Z 48
_cell_length_a 18.173088
_cell_length_b 28.303069
_cell_length_c 9.614354
_cell_angle_alpha 90.000000
_cell_angle_beta 151.712708
_cell_angle_gamma 90.000000
_cell_volume 2343.487170
_symmetry_space_group_name_H-M "C 2/M"
_symmetry_group_IT_number 12
_symmetry_cell_setting 'monoclinic'
loop_
_space_group_symop_operation_xyz
x,y,z
-x,y,-z
-x,-y,-z
x,-y,z
1/2+x,1/2+y,z
1/2-x,1/2+y,-z
1/2-x,1/2-y,-z
1/2+x,1/2-y,z
loop_
_atom_site_type_symbol
_atom_site_label
_atom_site_fract_x
_atom_site_fract_y
_atom_site_fract_z
Si Si1 0.828311 0.613351 0.711715
Si Si2 0.500000 0.618503 0.500000
Si Si3 0.787214 0.445625 0.912055
Si Si4 0.712585 0.138809 0.639842
Si Si5 0.092409 0.728925 0.289551
Si Si6 0.000000 0.408563 0.500000
Si Si7 0.473934 0.671813 0.731217
O O1 0.822576 0.570611 0.812268
O O2 0.800997 0.598254 0.504124
O O3 0.701663 0.654552 0.528487
O O4 0.000000 0.635927 0.000000
O O5 0.353074 0.584759 0.264076
O O6 0.522208 0.654144 0.661729
O O7 0.739318 0.500000 0.824933
O O8 0.930021 0.439588 0.257147
O O9 0.614713 0.184752 0.429285
O O10 0.637895 0.122474 0.661439
O O11 0.895848 0.149755 0.950902
O O12 0.250000 0.750000 0.500000
O O13 0.008618 0.771589 0.233960
O O14 0.000000 0.712914 0.000000
#
# Coordination Sequence:
#
# PCOD8113082 Si02
#       7
#     8   4   8   8   8   4   8
#     4  11  22  39  68  95 125 171 218 265 317 387
#     4  10  23  43  72  92 132 170 214 265 335 390
#     4  11  24  44  68  97 128 168 215 271 332 394
#     4  12  24  43  63  95 134 174 220 262 328 382
#     4  12  23  37  63  96 128 173 221 270 310 375
#     4  12  25  43  66  96 130 176 208 271 333 398
#     4  11  23  42  66  94 132 177 215 266 322 380
#
# _framework density 20.482298
#
# number of rings (size 3 to 8) (size 9 to 14) (size 15 to 20)
#    0.000    0.667    6.667    1.500    0.000    1.000 
#    0.000    1.667    0.000    2.000    0.000    0.000 
#    0.000    0.000    0.000    0.000    0.000    0.000 
#
# Total GULP energy -297361.497904 kJ/mol
# GULP energy per Si atom -12390.062413 kJ/mol
# Density = 2.043568 g / cm^3
# Si number density = 20.482298 Si / 1000 Ang^3
#
#
#
# Elastic Constant Matrix: (Units=GPa)
#
#
# Indices 1 2 3 4 5 6 
#
# 1 115.3479 46.8958 41.7264 0.0000 -6.8442 0.0000
# 2 46.8958 97.1445 27.9828 0.0000 -16.2525 0.0000
# 3 41.7264 27.9828 130.2229 0.0000 -5.3948 0.0000
# 4 0.0000 0.0000 0.0000 25.3972 0.0000 -5.5115
# 5 -6.8442 -16.2525 -5.3948 0.0000 39.1436 0.0000
# 6 0.0000 0.0000 0.0000 -5.5115 0.0000 25.4228
#
#
#
# Elastic Compliance Matrix: (Units=1/GPa)
#
#
# Indices 1 2 3 4 5 6 
#
# 1 0.011607 -0.004893 -0.002683 0.000000 -0.000372 0.000000
# 2 -0.004893 0.013789 -0.001200 0.000000 0.004704 0.000000
# 3 -0.002683 -0.001200 0.008807 0.000000 0.000246 0.000000
# 4 0.000000 0.000000 0.000000 0.041318 0.000000 0.008958
# 5 -0.000372 0.004704 0.000246 0.000000 0.027469 0.000000
# 6 0.000000 0.000000 0.000000 0.008958 0.000000 0.041277
#
#
# Mechanical properties :
#
#
# Convention : Reuss Voigt Hill
#
# Bulk Modulus (GPa) = 60.05856 63.99169 62.02512
# Shear Modulus (GPa) = 29.87405 33.06674 31.47039
#
# Velocity S-wave (km/s) = 3.82321 4.02233 3.92403
# Velocity P-wave (km/s) = 6.99107 7.27203 7.13293
#
# Compressibility (1/GPa) = 0.01665042
#
# Stress axis : x y z
#
# Youngs Moduli (GPa) = 86.15399 72.52391 113.54519
#
# Poissons Ratio (x) = 0.35482 0.30467
# Poissons Ratio (y) = 0.42151 0.13630
# Poissons Ratio (z) = 0.23117 0.08706
#
# Static dielectric constant tensor:
#      x y z
#    x 3.923450 0.000000 -0.085230 
#    y 0.000000 3.900300 0.000000 
#    z -0.085230 0.000000 4.032310 
# 
# 
# High freq. dielectric constant tensor:
#      x y z
#    x 1.804310 0.000000 -0.002250 
#    y 0.000000 1.777070 0.000000 
#    z -0.002250 0.000000 1.826430 
# 
# From -- ./inp_files/80891.got.cif
#   From: 2010.06.25/outbox.cif.g09.slc.cpg/sg12_41_cif.got.tgz:80891.got - 2010.06.28 00:19:55.
