data_PCOD8113079
_publ_section_title
;
Structure prediction by ZEFSAII (Michael W. Deem and Ramdas Pophale) SiO2 
 PCOD8113079
Probable space group: C 2/M
;
_chemical_formula_sum "Si O2"
_cell_formula_units_Z 28
_cell_length_a 9.286823
_cell_length_b 17.733075
_cell_length_c 9.417927
_cell_angle_alpha 90.000000
_cell_angle_beta 47.102686
_cell_angle_gamma 90.000000
_cell_volume 1136.209772
_symmetry_space_group_name_H-M "C 2/M"
_symmetry_group_IT_number 12
_symmetry_cell_setting 'monoclinic'
loop_
_space_group_symop_operation_xyz
x,y,z
-x,y,-z
-x,-y,-z
x,-y,z
1/2+x,1/2+y,z
1/2-x,1/2+y,-z
1/2-x,1/2-y,-z
1/2+x,1/2-y,z
loop_
_atom_site_type_symbol
_atom_site_label
_atom_site_fract_x
_atom_site_fract_y
_atom_site_fract_z
Si Si1 0.000000 0.622908 0.000000
Si Si2 0.700088 0.500000 0.269527
Si Si3 0.446995 0.210672 0.760993
Si Si4 0.294554 0.337071 0.336807
Si Si5 0.932204 0.000000 0.202130
O O1 0.836595 0.573759 0.194977
O O2 0.104465 0.673143 0.052435
O O3 0.500000 0.500000 0.500000
O O4 0.633057 0.500000 0.152954
O O5 0.498590 0.299087 0.755510
O O6 0.267933 0.201976 0.770721
O O7 0.639049 0.173409 0.565541
O O8 0.303698 0.426580 0.318469
O O9 0.000000 0.000000 0.000000
#
# Coordination Sequence:
#
# PCOD8113079 Si02
#       5
#     4   4   8   8   4
#     4  11  24  42  72 105 138 192 240 289 360 428
#     4  11  25  44  68 106 149 182 232 302 363 424
#     4  10  23  43  70  99 141 186 241 295 351 429
#     4  10  24  44  68 100 143 189 236 293 363 419
#     4  12  25  41  67 100 138 184 234 292 357 424
#
# _framework density 24.643336999999999
#
# number of rings (size 3 to 8) (size 9 to 14) (size 15 to 20)
#    0.000    1.429    0.000    3.429    6.000    5.714 
#    0.000    0.000    0.000    0.000    0.000    0.000 
#    0.000    0.000    0.000    0.000    0.000    0.000 
#
# Total GULP energy -173542.363558 kJ/mol
# GULP energy per Si atom -12395.883111 kJ/mol
# Density = 2.458725 g / cm^3
# Si number density = 24.643337 Si / 1000 Ang^3
#
#
#
# Elastic Constant Matrix: (Units=GPa)
#
#
# Indices 1 2 3 4 5 6 
#
# 1 108.8709 32.6787 -3.4300 0.0000 15.2470 0.0000
# 2 32.6787 162.4264 39.9344 0.0000 -0.8802 0.0000
# 3 -3.4300 39.9344 115.6861 0.0000 7.8733 0.0000
# 4 0.0000 0.0000 0.0000 -30.9357 0.0000 54.6719
# 5 15.2470 -0.8802 7.8733 0.0000 43.5810 0.0000
# 6 0.0000 0.0000 0.0000 54.6719 0.0000 -5.5472
#
#
#
# Elastic Compliance Matrix: (Units=1/GPa)
#
#
# Indices 1 2 3 4 5 6 
#
# 1 0.010541 -0.002498 0.001447 0.000000 -0.004000 0.000000
# 2 -0.002498 0.007333 -0.002708 0.000000 0.001511 0.000000
# 3 0.001447 -0.002708 0.009780 0.000000 -0.002328 0.000000
# 4 0.000000 0.000000 0.000000 0.001969 0.000000 0.019405
# 5 -0.004000 0.001511 -0.002328 0.000000 0.024796 0.000000
# 6 0.000000 0.000000 0.000000 0.019405 0.000000 0.010980
#
#
# Mechanical properties :
#
#
# Convention : Reuss Voigt Hill
#
# Bulk Modulus (GPa) = 49.66346 58.37218 54.01782
# Shear Modulus (GPa) = 62.79016 22.60632 42.69824
#
# Velocity S-wave (km/s) = 5.05321 3.03205 4.16703
# Velocity P-wave (km/s) = 7.36500 5.99966 6.71711
#
# Compressibility (1/GPa) = 0.02013553
#
# Stress axis : x y z
#
# Youngs Moduli (GPa) = 94.86980 136.36407 102.24605
#
# Poissons Ratio (x) = 0.34066 -0.14796
# Poissons Ratio (y) = 0.23700 0.27692
# Poissons Ratio (z) = -0.13728 0.36932
#
# Static dielectric constant tensor:
#      x y z
#    x 4.602630 0.000000 0.202840 
#    y 0.000000 4.540740 0.000000 
#    z 0.202840 0.000000 4.240120 
# 
# 
# High freq. dielectric constant tensor:
#      x y z
#    x 1.984060 0.000000 0.008320 
#    y 0.000000 1.987080 0.000000 
#    z 0.008320 0.000000 1.991590 
# 
# From -- ./inp_files/37946.got.cif
#   From: 2010.06.25/outbox.cif.g09.slc.cpg/sg12_19_cif.got.tgz:37946.got - 2010.06.28 00:19:55.
