data_PCOD8113673
_publ_section_title
;
Structure prediction by ZEFSAII (Michael W. Deem and Ramdas Pophale) SiO2 
 PCOD8113673
Probable space group: C 2/M
;
_chemical_formula_sum "Si O2"
_cell_formula_units_Z 56
_cell_length_a 13.788274
_cell_length_b 24.587639
_cell_length_c 8.614923
_cell_angle_alpha 90.000000
_cell_angle_beta 70.507746
_cell_angle_gamma 90.000000
_cell_volume 2753.248885
_symmetry_space_group_name_H-M "C 2/M"
_symmetry_group_IT_number 12
_symmetry_cell_setting 'monoclinic'
loop_
_space_group_symop_operation_xyz
x,y,z
-x,y,-z
-x,-y,-z
x,-y,z
1/2+x,1/2+y,z
1/2-x,1/2+y,-z
1/2-x,1/2-y,-z
1/2+x,1/2-y,z
loop_
_atom_site_type_symbol
_atom_site_label
_atom_site_fract_x
_atom_site_fract_y
_atom_site_fract_z
Si Si1 0.109296 0.342418 0.997297
Si Si2 0.918418 0.231011 0.150514
Si Si3 0.894470 0.352576 0.635572
Si Si4 0.313578 0.363248 0.746158
Si Si5 0.183258 0.134173 0.623026
Si Si6 0.505125 0.560625 0.313368
Si Si7 0.066211 0.236989 0.333969
O O1 0.129160 0.279554 0.930333
O O2 0.200925 0.377030 0.870552
O O3 0.112427 0.355426 0.176341
O O4 0.000000 0.364914 0.000000
O O5 0.837447 0.190361 0.271804
O O6 0.987564 0.260405 0.246481
O O7 0.000000 0.197400 0.000000
O O8 0.796776 0.385068 0.616815
O O9 0.883790 0.288104 0.602524
O O10 0.000000 0.375604 0.500000
O O11 0.312080 0.358073 0.562391
O O12 0.389796 0.407603 0.780322
O O13 0.351584 0.303900 0.785700
O O14 0.094333 0.090420 0.708471
O O15 0.500000 0.557428 0.500000
O O16 0.509809 0.500000 0.239423
O O17 0.000000 0.203322 0.500000
#
# Coordination Sequence:
#
# PCOD8113673 Si02
#       7
#     8   8   8   8   8   8   8
#     4  11  23  38  52  80 115 159 196 231 276 337
#     4  11  21  34  52  79 119 156 196 231 277 335
#     4  11  24  37  54  79 116 158 195 234 277 334
#     4  11  21  35  59  83 114 151 192 235 285 340
#     4  11  22  35  57  85 113 152 190 238 286 334
#     4   9  19  39  64  91 116 143 185 236 292 346
#     4  11  19  34  53  79 116 155 194 232 277 334
#
# _framework density 20.339607999999998
#
# number of rings (size 3 to 8) (size 9 to 14) (size 15 to 20)
#    0.000    1.286    5.714    2.143    4.000    2.286 
#    0.000    0.000    0.000    4.714    0.000    0.000 
#    0.000    0.000    0.000    0.000    0.000    0.000 
#
# Total GULP energy -346869.279118 kJ/mol
# GULP energy per Si atom -12388.188540 kJ/mol
# Density = 2.029331 g / cm^3
# Si number density = 20.339608 Si / 1000 Ang^3
#
#
#
# Elastic Constant Matrix: (Units=GPa)
#
#
# Indices 1 2 3 4 5 6 
#
# 1 171.4839 51.9449 49.7474 0.0000 -23.8504 0.0000
# 2 51.9449 57.9980 22.9821 0.0000 -9.4498 0.0000
# 3 49.7474 22.9821 106.1300 0.0000 -16.4409 0.0000
# 4 0.0000 0.0000 0.0000 8.9957 0.0000 -0.7128
# 5 -23.8504 -9.4498 -16.4409 0.0000 40.2001 0.0000
# 6 0.0000 0.0000 0.0000 -0.7128 0.0000 16.1998
#
#
#
# Elastic Compliance Matrix: (Units=1/GPa)
#
#
# Indices 1 2 3 4 5 6 
#
# 1 0.008883 -0.006589 -0.002307 0.000000 0.002778 0.000000
# 2 -0.006589 0.024082 -0.001980 0.000000 0.000942 0.000000
# 3 -0.002307 -0.001980 0.011369 0.000000 0.002816 0.000000
# 4 0.000000 0.000000 0.000000 0.111553 0.000000 0.004908
# 5 0.002778 0.000942 0.002816 0.000000 0.027897 0.000000
# 6 0.000000 0.000000 0.000000 0.004908 0.000000 0.061945
#
#
# Mechanical properties :
#
#
# Convention : Reuss Voigt Hill
#
# Bulk Modulus (GPa) = 44.28513 64.99563 54.64038
# Shear Modulus (GPa) = 18.18133 27.14159 22.66146
#
# Velocity S-wave (km/s) = 2.99304 3.65694 3.34152
# Velocity P-wave (km/s) = 5.81072 7.06084 6.46606
#
# Compressibility (1/GPa) = 0.02258094
#
# Stress axis : x y z
#
# Youngs Moduli (GPa) = 112.57561 41.52537 87.96174
#
# Poissons Ratio (x) = 0.27362 0.20289
# Poissons Ratio (y) = 0.74179 0.17419
# Poissons Ratio (z) = 0.25966 0.08223
#
# Static dielectric constant tensor:
#      x y z
#    x 3.949550 0.000000 -0.146710 
#    y 0.000000 3.304620 0.000000 
#    z -0.146710 0.000000 3.859460 
# 
# 
# High freq. dielectric constant tensor:
#      x y z
#    x 1.806890 0.000000 -0.005280 
#    y 0.000000 1.720300 0.000000 
#    z -0.005280 0.000000 1.804510 
# 
# From -- ./inp_files/65285.got.cif
#   From: 2010.06.25/outbox.cif.g09.slc.cpg/sg12_33_cif.got.tgz:65285.got - 2010.06.28 00:19:55.
