data_PCOD8113816
_publ_section_title
;
Structure prediction by ZEFSAII (Michael W. Deem and Ramdas Pophale) SiO2 
 PCOD8113816
Probable space group: C 2/M
;
_chemical_formula_sum "Si O2"
_cell_formula_units_Z 48
_cell_length_a 8.518625
_cell_length_b 23.779269
_cell_length_c 24.736286
_cell_angle_alpha 90.000000
_cell_angle_beta 149.200429
_cell_angle_gamma 90.000000
_cell_volume 2565.685133
_symmetry_space_group_name_H-M "C 2/M"
_symmetry_group_IT_number 12
_symmetry_cell_setting 'monoclinic'
loop_
_space_group_symop_operation_xyz
x,y,z
-x,y,-z
-x,-y,-z
x,-y,z
1/2+x,1/2+y,z
1/2-x,1/2+y,-z
1/2-x,1/2-y,-z
1/2+x,1/2-y,z
loop_
_atom_site_type_symbol
_atom_site_label
_atom_site_fract_x
_atom_site_fract_y
_atom_site_fract_z
Si Si1 0.865246 0.287996 0.199233
Si Si2 0.653201 0.230118 0.399156
Si Si3 0.551630 0.348840 0.654413
Si Si4 0.689980 0.435110 0.503099
Si Si5 0.762911 0.133936 0.682763
Si Si6 0.158841 0.818525 0.885663
O O1 0.840350 0.239441 0.147642
O O2 0.525379 0.310879 0.112371
O O3 0.010249 0.264200 0.297314
O O4 0.082070 0.338019 0.240861
O O5 0.628615 0.292244 0.418240
O O6 0.455494 0.188525 0.377630
O O7 0.000000 0.207904 0.500000
O O8 0.451239 0.399851 0.587399
O O9 0.466141 0.365286 0.689581
O O10 0.500000 0.420252 0.500000
O O11 0.662852 0.500000 0.479114
O O12 0.046844 0.420826 0.618991
O O13 0.993606 0.132560 0.802043
O O14 0.500000 0.838389 0.000000
#
# Coordination Sequence:
#
# PCOD8113816 Si02
#       6
#     8   8   8   8   8   8
#     4  11  20  34  50  79 115 153 185 221 274 330
#     4  11  20  32  51  83 114 149 182 218 268 337
#     4  12  21  34  56  82 114 149 184 220 272 338
#     4  11  25  41  57  81 113 149 185 225 276 334
#     4  11  21  36  55  81 114 148 189 228 273 325
#     4  11  21  35  53  78 114 151 190 231 276 323
#
# _framework density 18.708452999999999
#
# number of rings (size 3 to 8) (size 9 to 14) (size 15 to 20)
#    0.000    0.833    5.000    5.500    0.000    3.333 
#    0.000    0.000    0.000    0.500    0.000    0.000 
#    0.000    6.000    0.000    0.000    0.000    0.000 
#
# Total GULP energy -297632.332720 kJ/mol
# GULP energy per Si atom -12401.347197 kJ/mol
# Density = 1.866587 g / cm^3
# Si number density = 18.708453 Si / 1000 Ang^3
#
#
#
# Elastic Constant Matrix: (Units=GPa)
#
#
# Indices 1 2 3 4 5 6 
#
# 1 134.5562 29.9966 31.6342 -0.0113 24.2947 -0.0032
# 2 29.9966 59.3654 12.1693 -0.0124 0.2106 -0.0190
# 3 31.6342 12.1693 95.6646 -0.0535 25.8774 -0.0167
# 4 -0.0113 -0.0124 -0.0535 9.2468 -0.0064 6.4376
# 5 24.2947 0.2106 25.8774 -0.0064 32.1813 0.0030
# 6 -0.0032 -0.0190 -0.0167 6.4376 0.0030 8.7934
#
#
#
# Elastic Compliance Matrix: (Units=1/GPa)
#
#
# Indices 1 2 3 4 5 6 
#
# 1 0.009929 -0.004823 -0.000832 0.000001 -0.006796 -0.000007
# 2 -0.004823 0.019752 -0.002387 -0.000028 0.005431 0.000055
# 3 -0.000832 -0.002387 0.013876 0.000106 -0.010514 -0.000053
# 4 0.000001 -0.000028 0.000106 0.220565 -0.000027 -0.161475
# 5 -0.006796 0.005431 -0.010514 -0.000027 0.044623 -0.000006
# 6 -0.000007 0.000055 -0.000053 -0.161475 -0.000006 0.231936
#
#
# Mechanical properties :
#
#
# Convention : Reuss Voigt Hill
#
# Bulk Modulus (GPa) = 36.39712 48.57626 42.48669
# Shear Modulus (GPa) = 8.83513 24.43005 16.63259
#
# Velocity S-wave (km/s) = 2.17550 3.61755 2.98491
# Velocity P-wave (km/s) = 5.08011 6.59319 5.88547
#
# Compressibility (1/GPa) = 0.02747470
#
# Stress axis : x y z
#
# Youngs Moduli (GPa) = 100.71006 50.62857 72.06665
#
# Poissons Ratio (x) = 0.24416 0.05994
# Poissons Ratio (y) = 0.48569 0.17201
# Poissons Ratio (z) = 0.08376 0.12084
#
# Static dielectric constant tensor:
#      x y z
#    x 3.895500 0.000000 0.298350 
#    y 0.000000 3.137730 0.000000 
#    z 0.298350 0.000000 3.588910 
# 
# 
# High freq. dielectric constant tensor:
#      x y z
#    x 1.760070 0.000000 0.012120 
#    y 0.000000 1.676780 0.000000 
#    z 0.012120 0.000000 1.710470 
# 
# From -- ./inp_files/357033.got.cif
#   From: 2010.06.25/outbox.cif.g09.slc.cpg/sg12_179_cif.got.tgz:357033.got - 2010.06.28 00:19:55.
