data_PCOD8113338
_publ_section_title
;
Structure prediction by ZEFSAII (Michael W. Deem and Ramdas Pophale) SiO2 
 PCOD8113338
Probable space group: C 2/M
;
_chemical_formula_sum "Si O2"
_cell_formula_units_Z 44
_cell_length_a 10.445518
_cell_length_b 23.109823
_cell_length_c 8.909661
_cell_angle_alpha 90.000000
_cell_angle_beta 104.062548
_cell_angle_gamma 90.000000
_cell_volume 2086.283949
_symmetry_space_group_name_H-M "C 2/M"
_symmetry_group_IT_number 12
_symmetry_cell_setting 'monoclinic'
loop_
_space_group_symop_operation_xyz
x,y,z
-x,y,-z
-x,-y,-z
x,-y,z
1/2+x,1/2+y,z
1/2-x,1/2+y,-z
1/2-x,1/2-y,-z
1/2+x,1/2-y,z
loop_
_atom_site_type_symbol
_atom_site_label
_atom_site_fract_x
_atom_site_fract_y
_atom_site_fract_z
Si Si1 0.795044 0.000000 0.625047
Si Si2 0.087187 0.000000 0.803224
Si Si3 0.871503 0.627884 0.053176
Si Si4 0.767012 0.301965 0.766134
Si Si5 0.708476 0.000000 0.911240
Si Si6 0.647401 0.593755 0.586967
Si Si7 0.963689 0.291271 0.316113
O O1 0.781825 0.942750 0.523117
O O2 0.687929 0.000000 0.726297
O O3 0.931520 0.000000 0.753994
O O4 0.144238 0.056511 0.737224
O O5 0.139102 0.000000 0.988789
O O6 0.853557 0.558858 0.042839
O O7 0.892885 0.650883 0.229327
O O8 0.765458 0.667161 0.930805
O O9 0.000000 0.643079 0.000000
O O10 0.736255 0.350273 0.632066
O O11 0.645745 0.258124 0.733563
O O12 0.905717 0.274451 0.746262
O O13 0.500000 0.611898 0.500000
O O14 0.000000 0.301010 0.500000
#
# Coordination Sequence:
#
# PCOD8113338 Si02
#       7
#     4   4   8   8   4   8   8
#     4   9  21  32  57  97 130 159 210 267 310 371
#     4   9  17  36  56  89 126 168 205 253 310 390
#     4  10  24  43  65  90 128 168 212 258 317 392
#     4  11  22  44  68  92 128 171 215 260 322 377
#     4  12  20  38  62  93 128 161 214 252 333 362
#     4   9  18  36  62  89 127 170 209 253 320 380
#     4  11  25  43  66  96 128 165 220 268 314 371
#
# _framework density 21.090131
#
# number of rings (size 3 to 8) (size 9 to 14) (size 15 to 20)
#    0.000    1.818    1.818    3.273    2.545    0.000 
#    3.273    0.455    0.000    0.000    0.000    0.000 
#    0.000    0.000    0.000    0.000    0.000    0.000 
#
# Total GULP energy -272565.778044 kJ/mol
# GULP energy per Si atom -12389.353547 kJ/mol
# Density = 2.104213 g / cm^3
# Si number density = 21.090131 Si / 1000 Ang^3
#
#
#
# Elastic Constant Matrix: (Units=GPa)
#
#
# Indices 1 2 3 4 5 6 
#
# 1 79.2223 51.3443 30.7941 0.0000 5.2677 0.0000
# 2 51.3443 132.9412 60.0640 0.0000 15.6880 0.0000
# 3 30.7941 60.0640 140.9437 0.0000 8.6018 0.0000
# 4 0.0000 0.0000 0.0000 26.5105 0.0000 9.0037
# 5 5.2677 15.6880 8.6018 0.0000 29.8656 0.0000
# 6 0.0000 0.0000 0.0000 9.0037 0.0000 23.6302
#
#
#
# Elastic Compliance Matrix: (Units=1/GPa)
#
#
# Indices 1 2 3 4 5 6 
#
# 1 0.016990 -0.006110 -0.001141 0.000000 0.000542 0.000000
# 2 -0.006110 0.011961 -0.003506 0.000000 -0.004196 0.000000
# 3 -0.001141 -0.003506 0.008870 0.000000 -0.000512 0.000000
# 4 0.000000 0.000000 0.000000 0.043328 0.000000 -0.016509
# 5 0.000542 -0.004196 -0.000512 0.000000 0.035739 0.000000
# 6 0.000000 0.000000 0.000000 -0.016509 0.000000 0.048609
#
#
# Mechanical properties :
#
#
# Convention : Reuss Voigt Hill
#
# Bulk Modulus (GPa) = 61.32782 70.83467 66.08124
# Shear Modulus (GPa) = 25.98099 30.06158 28.02129
#
# Velocity S-wave (km/s) = 3.51366 3.77952 3.64901
# Velocity P-wave (km/s) = 6.75301 7.25989 7.01103
#
# Compressibility (1/GPa) = 0.01630581
#
# Stress axis : x y z
#
# Youngs Moduli (GPa) = 58.85672 83.60285 112.74154
#
# Poissons Ratio (x) = 0.51084 0.12867
# Poissons Ratio (y) = 0.35963 0.39531
# Poissons Ratio (z) = 0.06717 0.29314
#
# Static dielectric constant tensor:
#      x y z
#    x 3.626790 0.000000 0.261840 
#    y 0.000000 3.672330 0.000000 
#    z 0.261840 0.000000 4.370740 
# 
# 
# High freq. dielectric constant tensor:
#      x y z
#    x 1.808820 0.000000 0.015070 
#    y 0.000000 1.822950 0.000000 
#    z 0.015070 0.000000 1.840980 
# 
# From -- ./inp_files/49422.got.cif
#   From: 2010.06.25/outbox.cif.g09.slc.cpg/sg12_25_cif.got.tgz:49422.got - 2010.06.28 00:19:55.
