data_PCOD8113972
_publ_section_title
;
Structure prediction by ZEFSAII (Michael W. Deem and Ramdas Pophale) SiO2 
 PCOD8113972
Probable space group: C 2/M
;
_chemical_formula_sum "Si O2"
_cell_formula_units_Z 56
_cell_length_a 8.653419
_cell_length_b 14.675741
_cell_length_c 24.487743
_cell_angle_alpha 90.000000
_cell_angle_beta 60.174423
_cell_angle_gamma 90.000000
_cell_volume 2697.912116
_symmetry_space_group_name_H-M "C 2/M"
_symmetry_group_IT_number 12
_symmetry_cell_setting 'monoclinic'
loop_
_space_group_symop_operation_xyz
x,y,z
-x,y,-z
-x,-y,-z
x,-y,z
1/2+x,1/2+y,z
1/2-x,1/2+y,-z
1/2-x,1/2-y,-z
1/2+x,1/2-y,z
loop_
_atom_site_type_symbol
_atom_site_label
_atom_site_fract_x
_atom_site_fract_y
_atom_site_fract_z
Si Si1 0.560204 0.392995 0.209459
Si Si2 0.195696 0.279561 0.129688
Si Si3 0.022249 0.841750 0.336636
Si Si4 0.442943 0.210898 0.955294
Si Si5 0.763253 0.000000 0.413822
Si Si6 0.180324 0.401702 0.233612
Si Si7 0.863475 0.500000 0.443909
Si Si8 0.646106 0.146380 0.641777
O O1 0.611475 0.500000 0.191444
O O2 0.657116 0.329131 0.146751
O O3 0.609830 0.359783 0.261678
O O4 0.349069 0.375057 0.240854
O O5 0.403659 0.288907 0.076405
O O6 0.074690 0.328721 0.103223
O O7 0.144482 0.328822 0.193597
O O8 0.929406 0.744867 0.358769
O O9 0.177753 0.848906 0.353130
O O10 0.867621 0.912660 0.374971
O O11 0.500000 0.151073 0.000000
O O12 0.250000 0.250000 0.000000
O O13 0.572485 0.000000 0.419096
O O14 0.751203 0.000000 0.481054
O O15 0.216227 0.500000 0.199873
O O16 0.006510 0.409868 0.300841
O O17 0.808229 0.591320 0.421186
#
# Coordination Sequence:
#
# PCOD8113972 Si02
#       8
#     8   8   8   8   4   8   4   8
#     4  11  23  38  61  94 134 166 210 271 333 387
#     4  11  20  38  64  92 122 169 217 258 324 391
#     4  12  25  41  65  96 134 175 217 274 332 386
#     4   9  20  38  64  90 123 169 214 258 315 381
#     4  11  25  47  71  95 131 179 223 267 327 393
#     4  11  23  38  61  94 133 167 211 269 331 390
#     4  11  25  47  71  95 131 179 223 267 325 399
#     4  12  25  41  65  96 134 175 218 273 332 387
#
# _framework density 20.756791
#
# number of rings (size 3 to 8) (size 9 to 14) (size 15 to 20)
#    0.000    1.000    4.286    3.000    2.000    1.714 
#    0.000    0.000    0.000   17.143    0.000    0.000 
#    0.000    0.000    0.000    0.000    0.000    0.000 
#
# Total GULP energy -346914.979423 kJ/mol
# GULP energy per Si atom -12389.820694 kJ/mol
# Density = 2.070955 g / cm^3
# Si number density = 20.756791 Si / 1000 Ang^3
#
#
#
# Elastic Constant Matrix: (Units=GPa)
#
#
# Indices 1 2 3 4 5 6 
#
# 1 114.4818 21.2597 31.2372 -0.0001 23.6429 0.0000
# 2 21.2597 113.4132 30.2211 0.0000 14.7547 0.0000
# 3 31.2372 30.2211 96.3303 -0.0001 18.9091 0.0000
# 4 -0.0001 0.0000 -0.0001 2.7257 0.0000 -3.7883
# 5 23.6429 14.7547 18.9091 0.0000 43.4943 0.0000
# 6 0.0000 0.0000 0.0000 -3.7883 0.0000 36.8502
#
#
#
# Elastic Compliance Matrix: (Units=1/GPa)
#
#
# Indices 1 2 3 4 5 6 
#
# 1 0.010408 -0.000773 -0.002267 0.000000 -0.004410 0.000000
# 2 -0.000773 0.009864 -0.002481 0.000000 -0.001847 0.000000
# 3 -0.002267 -0.002481 0.012559 0.000000 -0.003386 0.000000
# 4 0.000000 0.000000 0.000000 0.428035 -0.000001 0.044003
# 5 -0.004410 -0.001847 -0.003386 -0.000001 0.027487 0.000000
# 6 0.000000 0.000000 0.000000 0.044003 0.000000 0.031661
#
#
# Mechanical properties :
#
#
# Convention : Reuss Voigt Hill
#
# Bulk Modulus (GPa) = 45.89633 54.40681 50.15157
# Shear Modulus (GPa) = 9.28819 32.71454 21.00136
#
# Velocity S-wave (km/s) = 2.11766 3.97431 3.18430
# Velocity P-wave (km/s) = 5.30460 6.87958 6.14278
#
# Compressibility (1/GPa) = 0.02178823
#
# Stress axis : x y z
#
# Youngs Moduli (GPa) = 96.08168 101.38163 79.62367
#
# Poissons Ratio (x) = 0.07839 0.18049
# Poissons Ratio (y) = 0.07430 0.19756
# Poissons Ratio (z) = 0.21779 0.25154
#
# Static dielectric constant tensor:
#      x y z
#    x 4.254690 0.000000 0.335270 
#    y 0.000000 3.678890 0.000000 
#    z 0.335270 0.000000 4.023570 
# 
# 
# High freq. dielectric constant tensor:
#      x y z
#    x 1.839580 0.000000 0.008290 
#    y 0.000000 1.786540 0.000000 
#    z 0.008290 0.000000 1.817310 
# 
# From -- ./inp_files/332891.got.cif
#   From: 2010.06.25/outbox.cif.g09.slc.cpg/sg12_167_cif.got.tgz:332891.got - 2010.06.28 00:19:55.
