data_PCOD8113500
_publ_section_title
;
Structure prediction by ZEFSAII (Michael W. Deem and Ramdas Pophale) SiO2 
 PCOD8113500
Probable space group: C 2/M
;
_chemical_formula_sum "Si O2"
_cell_formula_units_Z 40
_cell_length_a 23.996887
_cell_length_b 8.708125
_cell_length_c 9.536627
_cell_angle_alpha 90.000000
_cell_angle_beta 77.138856
_cell_angle_gamma 90.000000
_cell_volume 1942.852984
_symmetry_space_group_name_H-M "C 2/M"
_symmetry_group_IT_number 12
_symmetry_cell_setting 'monoclinic'
loop_
_space_group_symop_operation_xyz
x,y,z
-x,y,-z
-x,-y,-z
x,-y,z
1/2+x,1/2+y,z
1/2-x,1/2+y,-z
1/2-x,1/2-y,-z
1/2+x,1/2-y,z
loop_
_atom_site_type_symbol
_atom_site_label
_atom_site_fract_x
_atom_site_fract_y
_atom_site_fract_z
Si Si1 0.837292 0.680288 0.583762
Si Si2 0.638667 0.679264 0.718156
Si Si3 0.757491 0.179028 0.147832
Si Si4 0.016491 0.324775 0.831297
Si Si5 0.448585 0.325259 0.635515
O O1 0.830063 0.500000 0.559496
O O2 0.829793 0.770072 0.442001
O O3 0.789496 0.744102 0.717534
O O4 0.898675 0.712239 0.617016
O O5 0.623918 0.500000 0.716199
O O6 0.679687 0.715754 0.826668
O O7 0.580876 0.772517 0.769082
O O8 0.747503 0.000000 0.136514
O O9 0.750000 0.250000 0.000000
O O10 0.011349 0.500000 0.783479
O O11 0.970904 0.221253 0.775442
O O12 0.000000 0.304567 0.000000
O O13 0.500000 0.304815 0.500000
O O14 0.426059 0.500000 0.651569
#
# Coordination Sequence:
#
# PCOD8113500 Si02
#       5
#     8   8   8   8   8
#     4  11  23  41  66  94 125 164 209 257 308 368
#     4  11  23  42  65  93 125 163 211 256 308 371
#     4  10  25  44  64  93 126 162 207 257 312 369
#     4  11  25  42  63  93 128 166 207 255 311 369
#     4  11  23  40  64  95 127 163 207 254 308 369
#
# _framework density 20.588277999999999
#
# number of rings (size 3 to 8) (size 9 to 14) (size 15 to 20)
#    0.000    1.200    2.000    3.000    2.800    5.600 
#    0.000    0.000    0.000    0.000    0.000    0.000 
#    0.000    0.000    0.000    0.000    0.000    0.000 
#
# Total GULP energy -248112.037163 kJ/mol
# GULP energy per Si atom -12405.601858 kJ/mol
# Density = 2.054142 g / cm^3
# Si number density = 20.588278 Si / 1000 Ang^3
#
#
#
# Elastic Constant Matrix: (Units=GPa)
#
#
# Indices 1 2 3 4 5 6 
#
# 1 51.5271 6.2100 29.8769 0.0000 14.2962 0.0000
# 2 6.2100 32.8908 30.6559 0.0000 3.0645 0.0000
# 3 29.8769 30.6559 122.3070 0.0000 8.8114 0.0000
# 4 0.0000 0.0000 0.0000 48.0823 0.0000 12.8881
# 5 14.2962 3.0645 8.8114 0.0000 35.3055 0.0000
# 6 0.0000 0.0000 0.0000 12.8881 0.0000 38.7837
#
#
#
# Elastic Compliance Matrix: (Units=1/GPa)
#
#
# Indices 1 2 3 4 5 6 
#
# 1 0.025077 0.001572 -0.005884 0.000000 -0.008822 0.000000
# 2 0.001572 0.039803 -0.010250 0.000000 -0.001533 0.000000
# 3 -0.005884 -0.010250 0.012166 0.000000 0.000236 0.000000
# 4 0.000000 0.000000 0.000000 0.022831 0.000000 -0.007587
# 5 -0.008822 -0.001533 0.000236 0.000000 0.031971 0.000000
# 6 0.000000 0.000000 0.000000 -0.007587 0.000000 0.028305
#
#
# Mechanical properties :
#
#
# Convention : Reuss Voigt Hill
#
# Bulk Modulus (GPa) = 20.86758 37.80116 29.33437
# Shear Modulus (GPa) = 24.36020 33.76645 29.06332
#
# Velocity S-wave (km/s) = 3.44351 4.05419 3.76126
# Velocity P-wave (km/s) = 5.09588 6.34946 5.75689
#
# Compressibility (1/GPa) = 0.04792122
#
# Stress axis : x y z
#
# Youngs Moduli (GPa) = 39.87642 25.12351 82.19857
#
# Poissons Ratio (x) = -0.03948 0.48367
# Poissons Ratio (y) = -0.06267 0.84254
# Poissons Ratio (z) = 0.23464 0.25752
#
# Static dielectric constant tensor:
#      x y z
#    x 3.374840 0.000000 0.456490 
#    y 0.000000 3.780280 0.000000 
#    z 0.456490 0.000000 3.469930 
# 
# 
# High freq. dielectric constant tensor:
#      x y z
#    x 1.815110 0.000000 0.004690 
#    y 0.000000 1.810630 0.000000 
#    z 0.004690 0.000000 1.816410 
# 
# From -- ./inp_files/92781.got.cif
#   From: 2010.06.25/outbox.cif.g09.slc.cpg/sg12_47_cif.got.tgz:92781.got - 2010.06.28 00:19:55.
