data_PCOD8113276
_publ_section_title
;
Structure prediction by ZEFSAII (Michael W. Deem and Ramdas Pophale) SiO2 
 PCOD8113276
Probable space group: C 2/M
;
_chemical_formula_sum "Si O2"
_cell_formula_units_Z 40
_cell_length_a 9.051236
_cell_length_b 9.627495
_cell_length_c 20.843305
_cell_angle_alpha 90.000000
_cell_angle_beta 103.448315
_cell_angle_gamma 90.000000
_cell_volume 1766.498031
_symmetry_space_group_name_H-M "C 2/M"
_symmetry_group_IT_number 12
_symmetry_cell_setting 'monoclinic'
loop_
_space_group_symop_operation_xyz
x,y,z
-x,y,-z
-x,-y,-z
x,-y,z
1/2+x,1/2+y,z
1/2-x,1/2+y,-z
1/2-x,1/2-y,-z
1/2+x,1/2-y,z
loop_
_atom_site_type_symbol
_atom_site_label
_atom_site_fract_x
_atom_site_fract_y
_atom_site_fract_z
Si Si1 0.345665 0.339815 0.059192
Si Si2 0.237069 0.649561 0.439494
Si Si3 0.564433 0.754345 0.650710
Si Si4 0.633070 0.650603 0.259980
Si Si5 0.103948 0.341166 0.137668
O O1 0.369061 0.500000 0.037635
O O2 0.268482 0.342320 0.121414
O O3 0.502879 0.257966 0.082433
O O4 0.250000 0.250000 0.000000
O O5 0.254819 0.500000 0.473075
O O6 0.250000 0.750000 0.500000
O O7 0.372980 0.666091 0.402454
O O8 0.075414 0.653273 0.387484
O O9 0.500456 0.656834 0.700844
O O10 0.701671 0.848521 0.690527
O O11 0.616579 0.500000 0.223554
O O12 0.617054 0.778657 0.209779
O O13 0.040005 0.500000 0.135407
#
# Coordination Sequence:
#
# PCOD8113276 Si02
#       5
#     8   8   8   8   8
#     4  11  24  42  65  93 126 165 209 256 307 364
#     4  11  24  42  64  91 124 161 203 253 307 365
#     4  10  24  41  63  91 124 160 203 254 307 363
#     4  11  23  41  65  91 121 161 207 252 304 366
#     4  11  25  42  62  93 129 163 204 255 308 364
#
# _framework density 22.643671999999999
#
# number of rings (size 3 to 8) (size 9 to 14) (size 15 to 20)
#    0.000    1.200    0.000    4.800    0.000   20.000 
#    0.000    0.000    0.000    0.000    0.000    0.000 
#    0.000    0.000    0.000    0.000    0.000    0.000 
#
# Total GULP energy -247967.516579 kJ/mol
# GULP energy per Si atom -12398.375829 kJ/mol
# Density = 2.259213 g / cm^3
# Si number density = 22.643672 Si / 1000 Ang^3
#
#
#
# Elastic Constant Matrix: (Units=GPa)
#
#
# Indices 1 2 3 4 5 6 
#
# 1 106.5265 23.1726 13.7067 0.0000 -21.5349 0.0000
# 2 23.1726 190.3887 38.0678 0.0000 -11.0677 0.0000
# 3 13.7067 38.0678 86.8624 0.0000 -17.4178 0.0000
# 4 0.0000 0.0000 0.0000 36.0535 0.0000 0.1654
# 5 -21.5349 -11.0677 -17.4178 0.0000 26.7585 0.0000
# 6 0.0000 0.0000 0.0000 0.1654 0.0000 16.6669
#
#
#
# Elastic Compliance Matrix: (Units=1/GPa)
#
#
# Indices 1 2 3 4 5 6 
#
# 1 0.011364 -0.000944 0.000433 0.000000 0.009037 0.000000
# 2 -0.000944 0.005852 -0.002395 0.000000 0.000101 0.000000
# 3 0.000433 -0.002395 0.014221 0.000000 0.008615 0.000000
# 4 0.000000 0.000000 0.000000 0.027738 0.000000 -0.000275
# 5 0.009037 0.000101 0.008615 0.000000 0.050293 0.000000
# 6 0.000000 0.000000 0.000000 -0.000275 0.000000 0.060002
#
#
# Mechanical properties :
#
#
# Convention : Reuss Voigt Hill
#
# Bulk Modulus (GPa) = 39.02691 59.29688 49.16190
# Shear Modulus (GPa) = 27.19967 36.48445 31.84206
#
# Velocity S-wave (km/s) = 3.46960 4.01838 3.75403
# Velocity P-wave (km/s) = 5.77265 6.91185 6.36778
#
# Compressibility (1/GPa) = 0.02562334
#
# Stress axis : x y z
#
# Youngs Moduli (GPa) = 87.99818 170.87602 70.31662
#
# Poissons Ratio (x) = 0.16136 -0.03042
# Poissons Ratio (y) = 0.08310 0.16844
# Poissons Ratio (z) = -0.03807 0.40932
#
# Static dielectric constant tensor:
#      x y z
#    x 4.375700 0.000000 0.050830 
#    y 0.000000 4.050200 0.000000 
#    z 0.050830 0.000000 4.059730 
# 
# 
# High freq. dielectric constant tensor:
#      x y z
#    x 1.906260 0.000000 -0.002300 
#    y 0.000000 1.897960 0.000000 
#    z -0.002300 0.000000 1.893210 
# 
# From -- ./inp_files/331754.got.cif
#   From: 2010.06.25/outbox.cif.g09.slc.cpg/sg12_166_cif.got.tgz:331754.got - 2010.06.28 00:19:55.
