data_PCOD8113341
_publ_section_title
;
Structure prediction by ZEFSAII (Michael W. Deem and Ramdas Pophale) SiO2 
 PCOD8113341
Probable space group: C 2/M
;
_chemical_formula_sum "Si O2"
_cell_formula_units_Z 44
_cell_length_a 15.634065
_cell_length_b 25.862289
_cell_length_c 7.005629
_cell_angle_alpha 90.000000
_cell_angle_beta 45.639502
_cell_angle_gamma 90.000000
_cell_volume 2025.184741
_symmetry_space_group_name_H-M "C 2/M"
_symmetry_group_IT_number 12
_symmetry_cell_setting 'monoclinic'
loop_
_space_group_symop_operation_xyz
x,y,z
-x,y,-z
-x,-y,-z
x,-y,z
1/2+x,1/2+y,z
1/2-x,1/2+y,-z
1/2-x,1/2-y,-z
1/2+x,1/2-y,z
loop_
_atom_site_type_symbol
_atom_site_label
_atom_site_fract_x
_atom_site_fract_y
_atom_site_fract_z
Si Si1 0.863127 0.444599 0.700840
Si Si2 0.285401 0.440521 0.420248
Si Si3 0.000000 0.127157 0.000000
Si Si4 0.423447 0.307685 0.781864
Si Si5 0.738060 0.129177 0.843242
Si Si6 0.355023 0.232210 0.184260
O O1 0.799516 0.500000 0.858313
O O2 0.830834 0.432817 0.530390
O O3 0.000000 0.455462 0.500000
O O4 0.839991 0.395590 0.868803
O O5 0.322875 0.500000 0.386927
O O6 0.386319 0.408932 0.150563
O O7 0.268141 0.417304 0.655294
O O8 0.011183 0.163509 0.795735
O O9 0.500000 0.276884 0.500000
O O10 0.354800 0.350033 0.765266
O O11 0.334308 0.268983 0.032384
O O12 0.666907 0.173283 0.838884
O O13 0.250000 0.250000 0.500000
O O14 0.500000 0.238135 0.000000
#
# Coordination Sequence:
#
# PCOD8113341 Si02
#       6
#     8   8   4   8   8   8
#     4  10  24  43  65  95 135 181 227 286 355 421
#     4  11  24  43  69 103 141 180 235 297 358 429
#     4  12  21  44  70 102 144 182 233 294 368 432
#     4  12  24  46  71 102 145 189 235 298 370 433
#     4  12  25  42  70 100 135 183 237 290 353 436
#     4  12  28  48  74 106 148 193 246 306 370 435
#
# _framework density 21.726414999999999
#
# number of rings (size 3 to 8) (size 9 to 14) (size 15 to 20)
#    0.000    0.545    4.545    3.545    2.545    0.727 
#    0.000    3.636    0.000    0.000    0.000    0.000 
#    0.000    0.000    0.000    0.000    0.000    0.000 
#
# Total GULP energy -272545.969846 kJ/mol
# GULP energy per Si atom -12388.453175 kJ/mol
# Density = 2.167696 g / cm^3
# Si number density = 21.726415 Si / 1000 Ang^3
#
#
#
# Elastic Constant Matrix: (Units=GPa)
#
#
# Indices 1 2 3 4 5 6 
#
# 1 103.5826 14.2426 30.0195 0.0000 3.9736 0.0000
# 2 14.2426 111.1080 50.2781 0.0000 13.3206 0.0000
# 3 30.0195 50.2781 143.5909 0.0000 13.4460 0.0000
# 4 0.0000 0.0000 0.0000 49.0142 0.0000 6.5963
# 5 3.9736 13.3206 13.4460 0.0000 31.1264 0.0000
# 6 0.0000 0.0000 0.0000 6.5963 0.0000 38.5216
#
#
#
# Elastic Compliance Matrix: (Units=1/GPa)
#
#
# Indices 1 2 3 4 5 6 
#
# 1 0.010295 -0.000384 -0.001991 0.000000 -0.000290 0.000000
# 2 -0.000384 0.011001 -0.003476 0.000000 -0.003157 0.000000
# 3 -0.001991 -0.003476 0.008790 0.000000 -0.002055 0.000000
# 4 0.000000 0.000000 0.000000 0.020884 0.000000 -0.003576
# 5 -0.000290 -0.003157 -0.002055 0.000000 0.034403 0.000000
# 6 0.000000 0.000000 0.000000 -0.003576 0.000000 0.026572
#
#
# Mechanical properties :
#
#
# Convention : Reuss Voigt Hill
#
# Bulk Modulus (GPa) = 54.39405 60.81800 57.60602
# Shear Modulus (GPa) = 38.52849 41.31518 39.92183
#
# Velocity S-wave (km/s) = 4.21568 4.36548 4.29123
# Velocity P-wave (km/s) = 6.98471 7.31186 7.15016
#
# Compressibility (1/GPa) = 0.01838436
#
# Stress axis : x y z
#
# Youngs Moduli (GPa) = 97.13467 90.90116 113.76578
#
# Poissons Ratio (x) = 0.03492 0.22647
# Poissons Ratio (y) = 0.03731 0.39545
# Poissons Ratio (z) = 0.19336 0.31597
#
# Static dielectric constant tensor:
#      x y z
#    x 3.990210 0.000000 0.069920 
#    y 0.000000 4.153470 0.000000 
#    z 0.069920 0.000000 3.878650 
# 
# 
# High freq. dielectric constant tensor:
#      x y z
#    x 1.860390 0.000000 0.013850 
#    y 0.000000 1.868110 0.000000 
#    z 0.013850 0.000000 1.851530 
# 
# From -- ./inp_files/12323.got.cif
#   From: 2010.06.25/outbox.cif.g09.slc.cpg/sg12_7_cif.got.tgz:12323.got - 2010.06.28 00:19:55.
