data_PCOD8113091
_publ_section_title
;
Structure prediction by ZEFSAII (Michael W. Deem and Ramdas Pophale) SiO2 
 PCOD8113091
Probable space group: C 2/M
;
_chemical_formula_sum "Si O2"
_cell_formula_units_Z 60
_cell_length_a 22.157592
_cell_length_b 20.145584
_cell_length_c 11.764141
_cell_angle_alpha 90.000000
_cell_angle_beta 34.336725
_cell_angle_gamma 90.000000
_cell_volume 2961.995780
_symmetry_space_group_name_H-M "C 2/M"
_symmetry_group_IT_number 12
_symmetry_cell_setting 'monoclinic'
loop_
_space_group_symop_operation_xyz
x,y,z
-x,y,-z
-x,-y,-z
x,-y,z
1/2+x,1/2+y,z
1/2-x,1/2+y,-z
1/2-x,1/2-y,-z
1/2+x,1/2-y,z
loop_
_atom_site_type_symbol
_atom_site_label
_atom_site_fract_x
_atom_site_fract_y
_atom_site_fract_z
Si Si1 0.500000 0.648111 0.000000
Si Si2 0.225431 0.075996 0.287003
Si Si3 0.404414 0.863824 0.872159
Si Si4 0.407421 0.698954 0.554420
Si Si5 0.364062 0.078429 0.523247
Si Si6 0.285473 0.825140 0.827645
Si Si7 0.797053 0.922510 0.417671
Si Si8 0.937091 0.220556 0.880411
O O1 0.411483 0.605379 0.202700
O O2 0.561756 0.692721 0.994654
O O3 0.146279 0.126897 0.346656
O O4 0.233118 0.096922 0.406765
O O5 0.185137 0.000000 0.335763
O O6 0.340256 0.082935 0.047596
O O7 0.514335 0.897544 0.665064
O O8 0.340604 0.837737 0.861813
O O9 0.424734 0.799145 0.916128
O O10 0.500000 0.708143 0.500000
O O11 0.325547 0.758990 0.701241
O O12 0.453270 0.704853 0.355926
O O13 0.304077 0.109792 0.723671
O O14 0.301524 0.102049 0.507221
O O15 0.360852 0.000000 0.544117
O O16 0.158945 0.813884 0.041967
O O17 0.809616 0.000000 0.384825
#
# Coordination Sequence:
#
# PCOD8113091 Si02
#       8
#     4   8   8   8   8   8   8   8
#     4  12  23  42  68  98 131 160 224 282 318 386
#     4  11  25  43  66  95 133 177 217 270 331 391
#     4  12  24  43  66  96 137 173 217 267 330 395
#     4  12  22  42  68  94 134 174 219 268 326 399
#     4  11  24  42  68  99 130 172 225 271 323 388
#     4  12  23  44  68  95 137 176 217 267 331 392
#     4  10  23  44  66  90 131 179 214 263 334 397
#     4  12  24  39  67 104 123 169 219 271 328 383
#
# _framework density 20.256613000000002
#
# number of rings (size 3 to 8) (size 9 to 14) (size 15 to 20)
#    0.000    0.533    6.667    2.200    0.000    3.467 
#    0.000    5.333    0.000    0.000    0.000    0.000 
#    0.000    0.000    0.000    0.000    0.000    0.000 
#
# Total GULP energy -372097.916658 kJ/mol
# GULP energy per Si atom -12403.263889 kJ/mol
# Density = 2.021051 g / cm^3
# Si number density = 20.256613 Si / 1000 Ang^3
#
#
#
# Elastic Constant Matrix: (Units=GPa)
#
#
# Indices 1 2 3 4 5 6 
#
# 1 62.4075 33.0280 17.2452 0.0000 -0.5155 0.0000
# 2 33.0280 83.8871 38.2637 0.0000 -3.9996 0.0000
# 3 17.2452 38.2637 101.6672 0.0000 6.4761 0.0000
# 4 0.0000 0.0000 0.0000 34.5409 0.0000 0.7784
# 5 -0.5155 -3.9996 6.4761 0.0000 31.0146 0.0000
# 6 0.0000 0.0000 0.0000 0.7784 0.0000 25.8298
#
#
#
# Elastic Compliance Matrix: (Units=1/GPa)
#
#
# Indices 1 2 3 4 5 6 
#
# 1 0.020274 -0.007796 -0.000469 0.000000 -0.000571 0.000000
# 2 -0.007796 0.017675 -0.005540 0.000000 0.003307 0.000000
# 3 -0.000469 -0.005540 0.012209 0.000000 -0.003272 0.000000
# 4 0.000000 0.000000 0.000000 0.028971 0.000000 -0.000873
# 5 -0.000571 0.003307 -0.003272 0.000000 0.033343 0.000000
# 6 0.000000 0.000000 0.000000 -0.000873 0.000000 0.038741
#
#
# Mechanical properties :
#
#
# Convention : Reuss Voigt Hill
#
# Bulk Modulus (GPa) = 44.34870 47.22619 45.78744
# Shear Modulus (GPa) = 26.83272 28.90538 27.86905
#
# Velocity S-wave (km/s) = 3.64351 3.78161 3.71320
# Velocity P-wave (km/s) = 6.29612 6.51399 6.40598
#
# Compressibility (1/GPa) = 0.02254858
#
# Stress axis : x y z
#
# Youngs Moduli (GPa) = 49.32354 56.57702 81.90594
#
# Poissons Ratio (x) = 0.44107 0.03838
# Poissons Ratio (y) = 0.38452 0.45380
# Poissons Ratio (z) = 0.02311 0.31346
#
# Static dielectric constant tensor:
#      x y z
#    x 3.784250 0.000000 -0.028680 
#    y 0.000000 3.719150 0.000000 
#    z -0.028680 0.000000 3.870430 
# 
# 
# High freq. dielectric constant tensor:
#      x y z
#    x 1.790380 0.000000 0.001350 
#    y 0.000000 1.796840 0.000000 
#    z 0.001350 0.000000 1.805730 
# 
# From -- ./inp_files/168964.got.cif
#   From: 2010.06.25/outbox.cif.g09.slc.cpg/sg12_85_cif.got.tgz:168964.got - 2010.06.28 00:19:55.
