data_PCOD8113499
_publ_section_title
;
Structure prediction by ZEFSAII (Michael W. Deem and Ramdas Pophale) SiO2 
 PCOD8113499
Probable space group: C 2/M
;
_chemical_formula_sum "Si O2"
_cell_formula_units_Z 48
_cell_length_a 14.577047
_cell_length_b 17.355888
_cell_length_c 14.434118
_cell_angle_alpha 90.000000
_cell_angle_beta 140.136004
_cell_angle_gamma 90.000000
_cell_volume 2340.683019
_symmetry_space_group_name_H-M "C 2/M"
_symmetry_group_IT_number 12
_symmetry_cell_setting 'monoclinic'
loop_
_space_group_symop_operation_xyz
x,y,z
-x,y,-z
-x,-y,-z
x,-y,z
1/2+x,1/2+y,z
1/2-x,1/2+y,-z
1/2-x,1/2-y,-z
1/2+x,1/2-y,z
loop_
_atom_site_type_symbol
_atom_site_label
_atom_site_fract_x
_atom_site_fract_y
_atom_site_fract_z
Si Si1 0.705629 0.829571 0.415735
Si Si2 0.353751 0.855460 0.339231
Si Si3 0.147226 0.179326 0.657421
Si Si4 0.368214 0.588787 0.688709
Si Si5 0.675063 0.409678 0.865688
Si Si6 0.087103 0.587976 0.803607
O O1 0.750000 0.750000 0.500000
O O2 0.730760 0.826914 0.325735
O O3 0.799197 0.897162 0.534399
O O4 0.540064 0.850113 0.301423
O O5 0.500000 0.886245 0.500000
O O6 0.373737 0.766829 0.326471
O O7 0.217363 0.863043 0.300602
O O8 0.325747 0.905229 0.225159
O O9 0.194701 0.130734 0.782525
O O10 0.000000 0.147047 0.500000
O O11 0.356630 0.500000 0.706874
O O12 0.532426 0.617389 0.810046
O O13 0.663919 0.500000 0.837828
O O14 0.810778 0.387996 0.033057
O O15 0.032883 0.500000 0.774473
#
# Coordination Sequence:
#
# PCOD8113499 Si02
#       6
#     8   8   8   8   8   8
#     4  12  22  41  66  95 129 163 214 269 319 385
#     4  11  22  38  66  97 127 166 219 274 319 392
#     4  11  22  40  66  93 128 171 216 267 325 385
#     4  11  22  39  65  94 126 167 216 265 318 387
#     4  10  25  44  62  93 134 172 217 268 324 390
#     4  11  25  44  65  94 133 172 213 271 329 382
#
# _framework density 20.506834999999999
#
# number of rings (size 3 to 8) (size 9 to 14) (size 15 to 20)
#    0.000    1.000    5.000    2.000    0.000    4.333 
#    0.000    5.833    0.000    0.000    0.000    0.000 
#    0.000    0.000    0.000    0.000    0.000    0.000 
#
# Total GULP energy -297665.285289 kJ/mol
# GULP energy per Si atom -12402.720220 kJ/mol
# Density = 2.046016 g / cm^3
# Si number density = 20.506835 Si / 1000 Ang^3
#
#
#
# Elastic Constant Matrix: (Units=GPa)
#
#
# Indices 1 2 3 4 5 6 
#
# 1 132.7264 49.8818 59.9941 0.0004 -7.9420 0.0004
# 2 49.8818 59.5998 61.2267 0.0001 -2.0826 0.0001
# 3 59.9941 61.2267 137.6470 0.0006 -8.6813 0.0008
# 4 0.0004 0.0001 0.0006 30.3181 0.0003 -4.6903
# 5 -7.9420 -2.0826 -8.6813 0.0003 37.3744 0.0004
# 6 0.0004 0.0001 0.0008 -4.6903 0.0004 33.9590
#
#
#
# Elastic Compliance Matrix: (Units=1/GPa)
#
#
# Indices 1 2 3 4 5 6 
#
# 1 0.011217 -0.008130 -0.001168 0.000000 0.001659 0.000000
# 2 -0.008130 0.036872 -0.013028 0.000000 -0.002699 0.000000
# 3 -0.001168 -0.013028 0.013708 0.000000 0.002210 0.000000
# 4 0.000000 0.000000 0.000000 0.033704 0.000000 0.004655
# 5 0.001659 -0.002699 0.002210 0.000000 0.027472 0.000000
# 6 0.000000 0.000000 0.000000 0.004655 0.000000 0.030090
#
#
# Mechanical properties :
#
#
# Convention : Reuss Voigt Hill
#
# Bulk Modulus (GPa) = 58.32380 74.68649 66.50514
# Shear Modulus (GPa) = 24.57840 30.92166 27.75003
#
# Velocity S-wave (km/s) = 3.46576 3.88734 3.68259
# Velocity P-wave (km/s) = 6.67220 7.52648 7.11218
#
# Compressibility (1/GPa) = 0.01714566
#
# Stress axis : x y z
#
# Youngs Moduli (GPa) = 89.14989 27.12062 72.94867
#
# Poissons Ratio (x) = 0.22050 0.08520
# Poissons Ratio (y) = 0.72482 0.95036
# Poissons Ratio (z) = 0.10412 0.35332
#
# Static dielectric constant tensor:
#      x y z
#    x 3.761100 0.000000 -0.026350 
#    y 0.000000 3.670750 0.000000 
#    z -0.026350 0.000000 3.691260 
# 
# 
# High freq. dielectric constant tensor:
#      x y z
#    x 1.811440 0.000000 -0.003230 
#    y 0.000000 1.802020 0.000000 
#    z -0.003230 0.000000 1.791000 
# 
# From -- ./inp_files/216495.got.cif
#   From: 2010.06.25/outbox.cif.g09.slc.cpg/sg12_109_cif.got.tgz:216495.got - 2010.06.28 00:19:55.
