data_PCOD8113941
_publ_section_title
;
Structure prediction by ZEFSAII (Michael W. Deem and Ramdas Pophale) SiO2 
 PCOD8113941
Probable space group: C 2/M
;
_chemical_formula_sum "Si O2"
_cell_formula_units_Z 36
_cell_length_a 4.946604
_cell_length_b 23.231087
_cell_length_c 16.169747
_cell_angle_alpha 90.000000
_cell_angle_beta 114.585566
_cell_angle_gamma 90.000000
_cell_volume 1689.688504
_symmetry_space_group_name_H-M "C 2/M"
_symmetry_group_IT_number 12
_symmetry_cell_setting 'monoclinic'
loop_
_space_group_symop_operation_xyz
x,y,z
-x,y,-z
-x,-y,-z
x,-y,z
1/2+x,1/2+y,z
1/2-x,1/2+y,-z
1/2-x,1/2-y,-z
1/2+x,1/2-y,z
loop_
_atom_site_type_symbol
_atom_site_label
_atom_site_fract_x
_atom_site_fract_y
_atom_site_fract_z
Si Si1 0.630258 0.090601 0.215313
Si Si2 0.182723 0.834874 0.441338
Si Si3 0.830112 0.213981 0.247756
Si Si4 0.278336 0.064130 0.331355
Si Si5 0.661627 0.000000 0.934791
O O1 0.673951 0.156786 0.192320
O O2 0.502733 0.090194 0.292105
O O3 0.410410 0.057497 0.126095
O O4 0.948307 0.059656 0.251511
O O5 0.500000 0.802522 0.500000
O O6 0.276974 0.894974 0.410590
O O7 0.000000 0.849322 0.500000
O O8 0.973142 0.797229 0.355940
O O9 0.592832 0.265658 0.220968
O O10 0.384564 0.000000 0.369513
O O11 0.500000 0.000000 0.000000
O O12 0.000000 0.000000 0.000000
#
# Coordination Sequence:
#
# PCOD8113941 Si02
#       5
#     8   8   8   8   4
#     4  11  22  41  63  93 126 154 203 248 291 377
#     4  11  23  36  53  86 124 160 213 271 312 345
#     4  11  23  40  63  85 115 171 217 249 298 352
#     4  11  20  37  61  82 120 171 205 245 309 366
#     4  12  24  40  70 104 128 150 180 242 322 364
#
# _framework density 21.305702
#
# number of rings (size 3 to 8) (size 9 to 14) (size 15 to 20)
#    0.000    0.889    2.222    8.000    0.000    3.556 
#    0.000    0.000    0.000    4.000    0.000    0.000 
#    0.000    0.000    0.000    0.000    0.000    0.000 
#
# Total GULP energy -223220.602955 kJ/mol
# GULP energy per Si atom -12401.144609 kJ/mol
# Density = 2.125721 g / cm^3
# Si number density = 21.305702 Si / 1000 Ang^3
#
#
#
# Elastic Constant Matrix: (Units=GPa)
#
#
# Indices 1 2 3 4 5 6 
#
# 1 122.0848 29.9517 18.1884 0.0000 1.1079 0.0000
# 2 29.9517 104.2839 19.1212 0.0000 10.8403 0.0000
# 3 18.1884 19.1212 66.1836 0.0000 9.8673 0.0000
# 4 0.0000 0.0000 0.0000 41.0492 0.0000 -4.7495
# 5 1.1079 10.8403 9.8673 0.0000 40.0170 0.0000
# 6 0.0000 0.0000 0.0000 -4.7495 0.0000 43.5466
#
#
#
# Elastic Compliance Matrix: (Units=1/GPa)
#
#
# Indices 1 2 3 4 5 6 
#
# 1 0.009044 -0.002331 -0.001940 0.000000 0.000860 0.000000
# 2 -0.002331 0.010899 -0.002157 0.000000 -0.002356 0.000000
# 3 -0.001940 -0.002157 0.016788 0.000000 -0.003502 0.000000
# 4 0.000000 0.000000 0.000000 0.024672 0.000000 0.002691
# 5 0.000860 -0.002356 -0.003502 0.000000 0.026467 0.000000
# 6 0.000000 0.000000 0.000000 0.002691 0.000000 0.023257
#
#
# Mechanical properties :
#
#
# Convention : Reuss Voigt Hill
#
# Bulk Modulus (GPa) = 41.88549 47.45276 44.66912
# Shear Modulus (GPa) = 37.89513 39.94196 38.91855
#
# Velocity S-wave (km/s) = 4.22197 4.33449 4.27860
# Velocity P-wave (km/s) = 6.59307 6.88266 6.73942
#
# Compressibility (1/GPa) = 0.02387462
#
# Stress axis : x y z
#
# Youngs Moduli (GPa) = 110.56807 91.75005 59.56683
#
# Poissons Ratio (x) = 0.21389 0.11557
# Poissons Ratio (y) = 0.25776 0.12848
# Poissons Ratio (z) = 0.21452 0.19790
#
# Static dielectric constant tensor:
#      x y z
#    x 4.140900 0.000000 0.145580 
#    y 0.000000 3.951350 0.000000 
#    z 0.145580 0.000000 3.529540 
# 
# 
# High freq. dielectric constant tensor:
#      x y z
#    x 1.865490 0.000000 0.006150 
#    y 0.000000 1.845110 0.000000 
#    z 0.006150 0.000000 1.787810 
# 
# From -- ./inp_files/191536.got.cif
#   From: 2010.06.25/outbox.cif.g09.slc.cpg/sg12_96_cif.got.tgz:191536.got - 2010.06.28 00:19:55.
