data_PCOD8113787
_publ_section_title
;
Structure prediction by ZEFSAII (Michael W. Deem and Ramdas Pophale) SiO2 
 PCOD8113787
Probable space group: C 2/M
;
_chemical_formula_sum "Si O2"
_cell_formula_units_Z 56
_cell_length_a 32.251224
_cell_length_b 8.632398
_cell_length_c 21.249966
_cell_angle_alpha 90.000000
_cell_angle_beta 27.952492
_cell_angle_gamma 90.000000
_cell_volume 2773.110988
_symmetry_space_group_name_H-M "C 2/M"
_symmetry_group_IT_number 12
_symmetry_cell_setting 'monoclinic'
loop_
_space_group_symop_operation_xyz
x,y,z
-x,y,-z
-x,-y,-z
x,-y,z
1/2+x,1/2+y,z
1/2-x,1/2+y,-z
1/2-x,1/2-y,-z
1/2+x,1/2-y,z
loop_
_atom_site_type_symbol
_atom_site_label
_atom_site_fract_x
_atom_site_fract_y
_atom_site_fract_z
Si Si1 0.745564 0.820094 0.310556
Si Si2 0.176273 0.680957 0.224018
Si Si3 0.563844 0.176886 0.263334
Si Si4 0.584279 0.320834 0.459317
Si Si5 0.299501 0.821075 0.492104
Si Si6 0.647019 0.319510 0.949195
Si Si7 0.007451 0.819669 0.762389
O O1 0.670894 0.706806 0.385299
O O2 0.758104 0.784496 0.367770
O O3 0.834321 0.785288 0.150052
O O4 0.717867 0.000000 0.337844
O O5 0.167874 0.500000 0.253388
O O6 0.157066 0.706748 0.175228
O O7 0.103446 0.776814 0.361366
O O8 0.273224 0.745145 0.113603
O O9 0.490055 0.207825 0.414565
O O10 0.550632 0.290659 0.222370
O O11 0.556825 0.000000 0.249086
O O12 0.555934 0.500000 0.502412
O O13 0.250000 0.750000 0.500000
O O14 0.399504 0.765064 0.365602
O O15 0.304395 0.000000 0.472389
O O16 0.641054 0.500000 0.970743
O O17 0.551952 0.253112 0.099572
O O18 0.028295 0.000000 0.741084
#
# Coordination Sequence:
#
# PCOD8113787 Si02
#       7
#     8   8   8   8   8   8   8
#     4   9  18  37  62  83 110 152 192 225 274 342
#     4   9  19  35  53  74 108 156 202 237 276 333
#     4  11  21  33  51  76 111 155 198 237 282 338
#     4  11  20  30  50  80 113 146 189 244 292 331
#     4  11  23  40  65  91 116 145 183 230 283 344
#     4   8  17  36  59  82 111 152 197 234 274 332
#     4  11  22  37  59  86 117 148 185 238 291 338
#
# _framework density 20.193926999999999
#
# number of rings (size 3 to 8) (size 9 to 14) (size 15 to 20)
#    0.000    2.000    1.429    3.857    0.000    4.000 
#    0.000    6.429    0.000    4.286    0.000    0.000 
#    0.000    0.000    0.000    0.000    0.000    0.000 
#
# Total GULP energy -347005.012693 kJ/mol
# GULP energy per Si atom -12393.036168 kJ/mol
# Density = 2.014797 g / cm^3
# Si number density = 20.193927 Si / 1000 Ang^3
#
#
#
# Elastic Constant Matrix: (Units=GPa)
#
#
# Indices 1 2 3 4 5 6 
#
# 1 126.9674 27.9242 49.5371 -0.0022 21.0423 -0.0010
# 2 27.9242 55.3723 18.1035 0.0074 6.6120 -0.0007
# 3 49.5371 18.1035 108.2692 -0.0027 20.6721 -0.0059
# 4 -0.0022 0.0074 -0.0027 16.6603 -0.0025 1.4785
# 5 21.0423 6.6120 20.6721 -0.0025 15.5366 0.0031
# 6 -0.0010 -0.0007 -0.0059 1.4785 0.0031 30.8610
#
#
#
# Elastic Compliance Matrix: (Units=1/GPa)
#
#
# Indices 1 2 3 4 5 6 
#
# 1 0.011436 -0.003662 -0.002628 0.000001 -0.010433 0.000001
# 2 -0.003662 0.020595 -0.001396 -0.000010 -0.001947 0.000001
# 3 -0.002628 -0.001396 0.013244 0.000000 -0.013468 0.000004
# 4 0.000001 -0.000010 0.000000 0.060279 0.000013 -0.002888
# 5 -0.010433 -0.001947 -0.013468 0.000013 0.097243 -0.000013
# 6 0.000001 0.000001 0.000004 -0.002888 -0.000013 0.032542
#
#
# Mechanical properties :
#
#
# Convention : Reuss Voigt Hill
#
# Bulk Modulus (GPa) = 33.44265 53.52650 43.48457
# Shear Modulus (GPa) = 19.18071 25.61451 22.39761
#
# Velocity S-wave (km/s) = 3.08527 3.56536 3.33397
# Velocity P-wave (km/s) = 5.41189 6.59643 6.03330
#
# Compressibility (1/GPa) = 0.02990194
#
# Stress axis : x y z
#
# Youngs Moduli (GPa) = 87.44422 48.55449 75.50872
#
# Poissons Ratio (x) = 0.17781 0.19843
# Poissons Ratio (y) = 0.32023 0.10544
# Poissons Ratio (z) = 0.22980 0.06780
#
# Static dielectric constant tensor:
#      x y z
#    x 3.636420 0.000000 0.177760 
#    y 0.000000 3.456490 0.000020 
#    z 0.177760 0.000020 3.857650 
# 
# 
# High freq. dielectric constant tensor:
#      x y z
#    x 1.775990 0.000000 0.015450 
#    y 0.000000 1.772890 0.000000 
#    z 0.015450 0.000000 1.781460 
# 
# From -- ./inp_files/329523.got.cif
#   From: 2010.06.25/outbox.cif.g09.slc.cpg/sg12_165_cif.got.tgz:329523.got - 2010.06.28 00:19:55.
