data_PCOD8113130
_publ_section_title
;
Structure prediction by ZEFSAII (Michael W. Deem and Ramdas Pophale) SiO2 
 PCOD8113130
Probable space group: C 2/M
;
_chemical_formula_sum "Si O2"
_cell_formula_units_Z 40
_cell_length_a 20.151940
_cell_length_b 10.861727
_cell_length_c 8.126217
_cell_angle_alpha 90.000000
_cell_angle_beta 104.704573
_cell_angle_gamma 90.000000
_cell_volume 1720.448885
_symmetry_space_group_name_H-M "C 2/M"
_symmetry_group_IT_number 12
_symmetry_cell_setting 'monoclinic'
loop_
_space_group_symop_operation_xyz
x,y,z
-x,y,-z
-x,-y,-z
x,-y,z
1/2+x,1/2+y,z
1/2-x,1/2+y,-z
1/2-x,1/2-y,-z
1/2+x,1/2-y,z
loop_
_atom_site_type_symbol
_atom_site_label
_atom_site_fract_x
_atom_site_fract_y
_atom_site_fract_z
Si Si1 0.025620 0.757563 0.830305
Si Si2 0.806986 0.500000 0.680943
Si Si3 0.837506 0.000000 0.541502
Si Si4 0.644033 0.867305 0.744217
Si Si5 0.249865 0.000000 0.006743
Si Si6 0.881474 0.261774 0.606647
Si Si7 0.103107 0.000000 0.787360
O O1 0.086578 0.659455 0.846133
O O2 0.054714 0.887351 0.795162
O O3 0.963108 0.724408 0.669747
O O4 0.000000 0.756621 0.000000
O O5 0.744966 0.500000 0.511028
O O6 0.775710 0.500000 0.839425
O O7 0.849070 0.373465 0.688629
O O8 0.859540 0.124535 0.654369
O O9 0.872956 0.000000 0.385575
O O10 0.643476 0.766131 0.600184
O O11 0.625772 0.000000 0.650572
O O12 0.718524 0.878448 0.881060
O O13 0.167697 0.000000 0.954946
#
# Coordination Sequence:
#
# PCOD8113130 Si02
#       7
#     8   4   4   8   4   8   4
#     4  12  26  43  68 102 138 182 236 289 354 414
#     4  11  23  45  71 107 138 183 236 295 350 414
#     4  11  25  45  69 106 141 190 232 287 356 421
#     4  10  23  44  69 102 133 186 231 289 345 414
#     4   9  23  46  70 101 142 183 239 289 346 420
#     4  12  24  45  73 103 146 184 235 291 351 426
#     4  11  24  46  69  98 143 190 229 285 358 425
#
# _framework density 23.249748
#
# number of rings (size 3 to 8) (size 9 to 14) (size 15 to 20)
#    0.600    0.400    3.000    3.300    1.400    2.800 
#   10.800    0.000    0.000    0.000    0.000    0.000 
#    0.000    0.000    0.000    0.000    0.000    0.000 
#
# Total GULP energy -247901.357662 kJ/mol
# GULP energy per Si atom -12395.067883 kJ/mol
# Density = 2.319683 g / cm^3
# Si number density = 23.249748 Si / 1000 Ang^3
#
#
#
# Elastic Constant Matrix: (Units=GPa)
#
#
# Indices 1 2 3 4 5 6 
#
# 1 71.9796 13.7555 7.9419 0.0000 2.2068 0.0000
# 2 13.7555 133.1179 3.4063 0.0000 -9.5655 0.0000
# 3 7.9419 3.4063 54.8892 0.0000 0.3380 0.0000
# 4 0.0000 0.0000 0.0000 -16.8370 0.0000 52.2030
# 5 2.2068 -9.5655 0.3380 0.0000 29.7523 0.0000
# 6 0.0000 0.0000 0.0000 52.2030 0.0000 -19.8146
#
#
#
# Elastic Compliance Matrix: (Units=1/GPa)
#
#
# Indices 1 2 3 4 5 6 
#
# 1 0.014456 -0.001554 -0.001986 0.000000 -0.001549 0.000000
# 2 -0.001554 0.007870 -0.000280 0.000000 0.002649 0.000000
# 3 -0.001986 -0.000280 0.018524 0.000000 -0.000153 0.000000
# 4 0.000000 0.000000 0.000000 0.008285 0.000000 0.021828
# 5 -0.001549 0.002649 -0.000153 0.000000 0.034579 0.000000
# 6 0.000000 0.000000 0.000000 0.021828 0.000000 0.007040
#
#
# Mechanical properties :
#
#
# Convention : Reuss Voigt Hill
#
# Bulk Modulus (GPa) = 30.11043 34.46601 32.28822
# Shear Modulus (GPa) = 45.67644 14.27901 29.97773
#
# Velocity S-wave (km/s) = 4.43719 2.48091 3.59469
# Velocity P-wave (km/s) = 6.26343 4.80239 5.58093
#
# Compressibility (1/GPa) = 0.03321109
#
# Stress axis : x y z
#
# Youngs Moduli (GPa) = 69.17326 127.06069 53.98366
#
# Poissons Ratio (x) = 0.19750 0.10719
# Poissons Ratio (y) = 0.10752 0.01511
# Poissons Ratio (z) = 0.13736 0.03555
#
# Static dielectric constant tensor:
#      x y z
#    x 4.395130 0.000000 0.173330 
#    y 0.000000 4.547990 0.000000 
#    z 0.173330 0.000000 4.015300 
# 
# 
# High freq. dielectric constant tensor:
#      x y z
#    x 1.927060 0.000000 0.002260 
#    y 0.000000 1.929550 0.000000 
#    z 0.002260 0.000000 1.909480 
# 
# From -- ./inp_files/83696.got.cif
#   From: 2010.06.25/outbox.cif.g09.slc.cpg/sg12_42_cif.got.tgz:83696.got - 2010.06.28 00:19:55.
