data_PCOD8113203
_publ_section_title
;
Structure prediction by ZEFSAII (Michael W. Deem and Ramdas Pophale) SiO2 
 PCOD8113203
Probable space group: C 2/M
;
_chemical_formula_sum "Si O2"
_cell_formula_units_Z 44
_cell_length_a 21.175688
_cell_length_b 7.441518
_cell_length_c 13.329978
_cell_angle_alpha 90.000000
_cell_angle_beta 88.332811
_cell_angle_gamma 90.000000
_cell_volume 2099.638929
_symmetry_space_group_name_H-M "C 2/M"
_symmetry_group_IT_number 12
_symmetry_cell_setting 'monoclinic'
loop_
_space_group_symop_operation_xyz
x,y,z
-x,y,-z
-x,-y,-z
x,-y,z
1/2+x,1/2+y,z
1/2-x,1/2+y,-z
1/2-x,1/2-y,-z
1/2+x,1/2-y,z
loop_
_atom_site_type_symbol
_atom_site_label
_atom_site_fract_x
_atom_site_fract_y
_atom_site_fract_z
Si Si1 0.205788 0.792300 0.908614
Si Si2 0.401182 0.000000 0.846655
Si Si3 0.314336 0.708033 0.768064
Si Si4 0.057383 0.210785 0.572933
Si Si5 0.026016 0.500000 0.734318
Si Si6 0.817591 0.209067 0.543995
Si Si7 0.602235 0.000000 0.930183
O O1 0.242073 0.734971 0.805501
O O2 0.142491 0.679916 0.917026
O O3 0.186816 0.000000 0.906984
O O4 0.250000 0.750000 0.000000
O O5 0.358747 0.821596 0.839425
O O6 0.451126 0.000000 0.754137
O O7 0.430013 0.000000 0.957873
O O8 0.334583 0.500000 0.773946
O O9 0.320057 0.788957 0.655743
O O10 0.046529 0.320429 0.675191
O O11 0.123491 0.283667 0.523321
O O12 0.000000 0.252002 0.500000
O O13 0.060204 0.000000 0.599821
O O14 0.051386 0.500000 0.845521
O O15 0.750000 0.250000 0.500000
O O16 0.827500 0.000000 0.553372
#
# Coordination Sequence:
#
# PCOD8113203 Si02
#       7
#     8   4   8   8   4   8   4
#     4  12  21  39  66  97 129 172 219 272 336 400
#     4  12  25  45  67  96 123 182 229 273 320 400
#     4  11  22  39  66  98 131 170 219 269 328 397
#     4  10  23  47  71  95 130 180 230 270 324 405
#     4  12  28  44  70  94 134 182 225 271 335 391
#     4  10  24  38  61  98 137 165 207 277 333 386
#     4  12  27  43  65  98 141 165 222 285 336 393
#
# _framework density 20.955984000000001
#
# number of rings (size 3 to 8) (size 9 to 14) (size 15 to 20)
#    0.000    0.909    4.545    1.636    5.091    2.909 
#    0.000    0.000    0.000    3.273    0.000    0.000 
#    0.000    0.000    0.000    0.000    0.000    0.000 
#
# Total GULP energy -272832.973921 kJ/mol
# GULP energy per Si atom -12401.498815 kJ/mol
# Density = 2.090829 g / cm^3
# Si number density = 20.955984 Si / 1000 Ang^3
#
#
#
# Elastic Constant Matrix: (Units=GPa)
#
#
# Indices 1 2 3 4 5 6 
#
# 1 111.0540 23.2502 39.6021 0.0000 -17.4178 0.0000
# 2 23.2502 124.4093 38.5659 0.0000 -4.5936 0.0000
# 3 39.6021 38.5659 133.8348 0.0000 -13.0844 0.0000
# 4 0.0000 0.0000 0.0000 30.1675 0.0000 -2.3871
# 5 -17.4178 -4.5936 -13.0844 0.0000 45.6056 0.0000
# 6 0.0000 0.0000 0.0000 -2.3871 0.0000 24.5396
#
#
#
# Elastic Compliance Matrix: (Units=1/GPa)
#
#
# Indices 1 2 3 4 5 6 
#
# 1 0.010637 -0.001088 -0.002518 0.000000 0.003230 0.000000
# 2 -0.001088 0.008939 -0.002270 0.000000 -0.000166 0.000000
# 3 -0.002518 -0.002270 0.009007 0.000000 0.001394 0.000000
# 4 0.000000 0.000000 0.000000 0.033405 0.000000 0.003249
# 5 0.003230 -0.000166 0.001394 0.000000 0.023544 0.000000
# 6 0.000000 0.000000 0.000000 0.003249 0.000000 0.041067
#
#
# Mechanical properties :
#
#
# Convention : Reuss Voigt Hill
#
# Bulk Modulus (GPa) = 59.41518 63.57051 61.49284
# Shear Modulus (GPa) = 34.73130 37.92121 36.32625
#
# Velocity S-wave (km/s) = 4.07547 4.25851 4.16799
# Velocity P-wave (km/s) = 7.11054 7.38790 7.25055
#
# Compressibility (1/GPa) = 0.01683072
#
# Stress axis : x y z
#
# Youngs Moduli (GPa) = 94.01080 111.87057 111.01872
#
# Poissons Ratio (x) = 0.12172 0.27957
# Poissons Ratio (y) = 0.10228 0.25203
# Poissons Ratio (z) = 0.23674 0.25397
#
# Static dielectric constant tensor:
#      x y z
#    x 3.858710 0.000000 -0.283910 
#    y 0.000000 3.714230 0.000000 
#    z -0.283910 0.000000 3.925480 
# 
# 
# High freq. dielectric constant tensor:
#      x y z
#    x 1.816140 0.000000 -0.017470 
#    y 0.000000 1.829120 0.000000 
#    z -0.017470 0.000000 1.829100 
# 
# From -- ./inp_files/163256.got.cif
#   From: 2010.06.25/outbox.cif.g09.slc.cpg/sg12_82_cif.got.tgz:163256.got - 2010.06.28 00:19:55.
