data_PCOD8113683
_publ_section_title
;
Structure prediction by ZEFSAII (Michael W. Deem and Ramdas Pophale) SiO2 
 PCOD8113683
Probable space group: C 2/M
;
_chemical_formula_sum "Si O2"
_cell_formula_units_Z 48
_cell_length_a 10.711135
_cell_length_b 22.646467
_cell_length_c 21.061058
_cell_angle_alpha 90.000000
_cell_angle_beta 148.033409
_cell_angle_gamma 90.000000
_cell_volume 2704.707583
_symmetry_space_group_name_H-M "C 2/M"
_symmetry_group_IT_number 12
_symmetry_cell_setting 'monoclinic'
loop_
_space_group_symop_operation_xyz
x,y,z
-x,y,-z
-x,-y,-z
x,-y,z
1/2+x,1/2+y,z
1/2-x,1/2+y,-z
1/2-x,1/2-y,-z
1/2+x,1/2-y,z
loop_
_atom_site_type_symbol
_atom_site_label
_atom_site_fract_x
_atom_site_fract_y
_atom_site_fract_z
Si Si1 0.006960 0.432527 0.605141
Si Si2 0.996185 0.752375 0.923206
Si Si3 0.293115 0.376933 0.832558
Si Si4 0.233251 0.431479 0.940547
Si Si5 0.376718 0.124796 0.878661
Si Si6 0.881755 0.067579 0.656909
O O1 0.983499 0.500000 0.616323
O O2 0.068245 0.394717 0.693550
O O3 0.214733 0.424679 0.644730
O O4 0.759663 0.411610 0.467334
O O5 0.848671 0.809313 0.837540
O O6 0.872107 0.691376 0.849674
O O7 0.250000 0.750000 0.000000
O O8 0.000000 0.756727 0.000000
O O9 0.222453 0.387582 0.875456
O O10 0.524588 0.416839 0.917197
O O11 0.231546 0.500000 0.918775
O O12 0.011244 0.419060 0.889241
O O13 0.106621 0.107261 0.766249
O O14 0.500000 0.121022 0.000000
O O15 0.960802 0.000000 0.683249
#
# Coordination Sequence:
#
# PCOD8113683 Si02
#       6
#     8   8   8   8   8   8
#     4   9  18  34  56  78 106 144 179 217 276 330
#     4  11  21  37  54  79 115 147 183 230 277 333
#     4  11  19  35  54  78 106 144 188 215 275 331
#     4  11  21  33  52  82 114 138 178 234 278 332
#     4  11  22  34  55  82 108 144 184 227 286 326
#     4   9  19  35  53  80 111 136 176 230 272 328
#
# _framework density 17.746835999999998
#
# number of rings (size 3 to 8) (size 9 to 14) (size 15 to 20)
#    0.000    1.667    3.333    4.500    2.333    2.667 
#    0.000    1.667    0.000    3.000    0.000    0.000 
#    0.000    0.000    0.000    0.000    0.000    0.000 
#
# Total GULP energy -297529.257383 kJ/mol
# GULP energy per Si atom -12397.052391 kJ/mol
# Density = 1.770644 g / cm^3
# Si number density = 17.746836 Si / 1000 Ang^3
#
#
#
# Elastic Constant Matrix: (Units=GPa)
#
#
# Indices 1 2 3 4 5 6 
#
# 1 64.1641 30.2792 28.0441 0.0038 3.7509 0.0027
# 2 30.2792 112.1478 54.1440 0.0000 6.0637 0.0000
# 3 28.0441 54.1440 122.7204 -0.0037 -1.3291 0.0151
# 4 0.0038 0.0000 -0.0037 19.2413 0.0014 1.4103
# 5 3.7509 6.0637 -1.3291 0.0014 24.1270 0.0008
# 6 0.0027 0.0000 0.0151 1.4103 0.0008 25.3433
#
#
#
# Elastic Compliance Matrix: (Units=1/GPa)
#
#
# Indices 1 2 3 4 5 6 
#
# 1 0.018583 -0.003610 -0.002677 -0.000004 -0.002129 0.000000
# 2 -0.003610 0.012272 -0.004620 0.000000 -0.002778 0.000003
# 3 -0.002677 -0.004620 0.010822 0.000003 0.002173 -0.000006
# 4 -0.000004 0.000000 0.000003 0.052184 -0.000002 -0.002904
# 5 -0.002129 -0.002778 0.002173 -0.000002 0.042596 -0.000002
# 6 0.000000 0.000003 -0.000006 -0.002904 -0.000002 0.039620
#
#
# Mechanical properties :
#
#
# Convention : Reuss Voigt Hill
#
# Bulk Modulus (GPa) = 50.34150 58.21854 54.28002
# Shear Modulus (GPa) = 24.44855 26.17998 25.31426
#
# Velocity S-wave (km/s) = 3.71567 3.84499 3.78088
# Velocity P-wave (km/s) = 6.84371 7.25177 7.05069
#
# Compressibility (1/GPa) = 0.01986432
#
# Stress axis : x y z
#
# Youngs Moduli (GPa) = 53.81268 81.48734 92.40422
#
# Poissons Ratio (x) = 0.29415 0.24737
# Poissons Ratio (y) = 0.19425 0.42686
# Poissons Ratio (z) = 0.14406 0.37643
#
# Static dielectric constant tensor:
#      x y z
#    x 3.221490 0.000000 -0.078100 
#    y 0.000000 3.543120 -0.000020 
#    z -0.078100 -0.000020 3.386430 
# 
# 
# High freq. dielectric constant tensor:
#      x y z
#    x 1.684500 0.000000 -0.000690 
#    y 0.000000 1.688930 0.000000 
#    z -0.000690 0.000000 1.667660 
# 
# From -- ./inp_files/132433.got.cif
#   From: 2010.06.25/outbox.cif.g09.slc.cpg/sg12_67_cif.got.tgz:132433.got - 2010.06.28 00:19:55.
