data_PCOD8113370
_publ_section_title
;
Structure prediction by ZEFSAII (Michael W. Deem and Ramdas Pophale) SiO2 
 PCOD8113370
Probable space group: C 2/M
;
_chemical_formula_sum "Si O2"
_cell_formula_units_Z 36
_cell_length_a 20.556267
_cell_length_b 14.765889
_cell_length_c 6.813968
_cell_angle_alpha 90.000000
_cell_angle_beta 122.599336
_cell_angle_gamma 90.000000
_cell_volume 1742.418719
_symmetry_space_group_name_H-M "C 2/M"
_symmetry_group_IT_number 12
_symmetry_cell_setting 'monoclinic'
loop_
_space_group_symop_operation_xyz
x,y,z
-x,y,-z
-x,-y,-z
x,-y,z
1/2+x,1/2+y,z
1/2-x,1/2+y,-z
1/2-x,1/2-y,-z
1/2+x,1/2-y,z
loop_
_atom_site_type_symbol
_atom_site_label
_atom_site_fract_x
_atom_site_fract_y
_atom_site_fract_z
Si Si1 0.455124 0.500000 0.227368
Si Si2 0.825972 0.500000 0.128648
Si Si3 0.407474 0.000000 0.871595
Si Si4 0.167148 0.000000 0.692821
Si Si5 0.655576 0.331599 0.414655
Si Si6 0.809067 0.633141 0.451886
Si Si7 0.000000 0.853977 0.000000
O O1 0.500000 0.500000 0.500000
O O2 0.364395 0.500000 0.135292
O O3 0.475492 0.411292 0.145164
O O4 0.822862 0.588414 0.261599
O O5 0.898091 0.500000 0.095184
O O6 0.758693 0.500000 0.857051
O O7 0.368182 0.911342 0.706093
O O8 0.500000 0.000000 0.000000
O O9 0.134848 0.910498 0.533305
O O10 0.720534 0.377044 0.379837
O O11 0.682066 0.240554 0.565210
O O12 0.577399 0.298492 0.176817
#
# Coordination Sequence:
#
# PCOD8113370 Si02
#       7
#     4   4   4   4   8   8   4
#     4  11  20  35  56  88 127 165 207 240 308 394
#     4  11  22  44  71  88 124 178 214 277 332 377
#     4  11  24  46  70  92 124 172 230 281 327 372
#     4  12  20  39  65  93 128 174 204 252 324 405
#     4  11  22  41  65  97 135 169 216 261 327 389
#     4  10  24  44  64  96 128 169 223 272 318 393
#     4  11  22  38  60  89 132 174 196 265 320 375
#
# _framework density 20.660934000000001
#
# number of rings (size 3 to 8) (size 9 to 14) (size 15 to 20)
#    0.000    1.111    4.444    2.667    1.556    2.667 
#    4.000    2.222    0.000    0.000    0.000    0.000 
#    0.000    0.000    0.000    0.000    0.000    0.000 
#
# Total GULP energy -223034.771041 kJ/mol
# GULP energy per Si atom -12390.820613 kJ/mol
# Density = 2.061391 g / cm^3
# Si number density = 20.660934 Si / 1000 Ang^3
#
#
#
# Elastic Constant Matrix: (Units=GPa)
#
#
# Indices 1 2 3 4 5 6 
#
# 1 155.3038 28.7683 52.7453 0.0000 3.1779 0.0000
# 2 28.7683 110.0959 27.6671 0.0000 -11.6161 0.0000
# 3 52.7453 27.6671 94.9500 0.0000 -1.7522 0.0000
# 4 0.0000 0.0000 0.0000 15.5400 0.0000 9.2961
# 5 3.1779 -11.6161 -1.7522 0.0000 48.4278 0.0000
# 6 0.0000 0.0000 0.0000 9.2961 0.0000 9.5153
#
#
#
# Elastic Compliance Matrix: (Units=1/GPa)
#
#
# Indices 1 2 3 4 5 6 
#
# 1 0.008092 -0.001167 -0.004173 0.000000 -0.000962 0.000000
# 2 -0.001167 0.010220 -0.002284 0.000000 0.002445 0.000000
# 3 -0.004173 -0.002284 0.013519 0.000000 0.000215 0.000000
# 4 0.000000 0.000000 0.000000 0.154845 0.000000 -0.151277
# 5 -0.000962 0.002445 0.000215 0.000000 0.021307 0.000000
# 6 0.000000 0.000000 0.000000 -0.151277 0.000000 0.252886
#
#
# Mechanical properties :
#
#
# Convention : Reuss Voigt Hill
#
# Bulk Modulus (GPa) = 60.30431 64.30125 62.30278
# Shear Modulus (GPa) = 10.38108 31.44124 20.91116
#
# Velocity S-wave (km/s) = 2.24397 3.90522 3.18482
# Velocity P-wave (km/s) = 5.99707 7.17803 6.61396
#
# Compressibility (1/GPa) = 0.01658256
#
# Stress axis : x y z
#
# Youngs Moduli (GPa) = 123.57700 97.84640 73.96725
#
# Poissons Ratio (x) = 0.11422 0.30865
# Poissons Ratio (y) = 0.14426 0.16897
# Poissons Ratio (z) = 0.51567 0.22352
#
# Static dielectric constant tensor:
#      x y z
#    x 4.776630 0.000000 -0.138150 
#    y 0.000000 3.448050 0.000000 
#    z -0.138150 0.000000 3.828790 
# 
# 
# High freq. dielectric constant tensor:
#      x y z
#    x 1.826410 0.000000 0.006080 
#    y 0.000000 1.795890 0.000000 
#    z 0.006080 0.000000 1.804870 
# 
# From -- ./inp_files/20304.got.cif
#   From: 2010.06.25/outbox.cif.g09.slc.cpg/sg12_11_cif.got.tgz:20304.got - 2010.06.28 00:19:55.
