data_PCOD8113102
_publ_section_title
;
Structure prediction by ZEFSAII (Michael W. Deem and Ramdas Pophale) SiO2 
 PCOD8113102
Probable space group: C 2/M
;
_chemical_formula_sum "Si O2"
_cell_formula_units_Z 28
_cell_length_a 15.550676
_cell_length_b 10.157944
_cell_length_c 10.116692
_cell_angle_alpha 90.000000
_cell_angle_beta 57.229295
_cell_angle_gamma 90.000000
_cell_volume 1343.719962
_symmetry_space_group_name_H-M "C 2/M"
_symmetry_group_IT_number 12
_symmetry_cell_setting 'monoclinic'
loop_
_space_group_symop_operation_xyz
x,y,z
-x,y,-z
-x,-y,-z
x,-y,z
1/2+x,1/2+y,z
1/2-x,1/2+y,-z
1/2-x,1/2-y,-z
1/2+x,1/2-y,z
loop_
_atom_site_type_symbol
_atom_site_label
_atom_site_fract_x
_atom_site_fract_y
_atom_site_fract_z
Si Si1 0.918407 0.252812 0.318291
Si Si2 0.470910 0.500000 0.874129
Si Si3 0.270855 0.500000 0.899411
Si Si4 0.533492 0.000000 0.127397
Si Si5 0.220504 0.148373 0.356579
O O1 0.873810 0.231053 0.503603
O O2 0.824065 0.270532 0.295979
O O3 0.992131 0.376524 0.243221
O O4 0.983730 0.126610 0.231672
O O5 0.347668 0.500000 0.959019
O O6 0.500000 0.500000 0.000000
O O7 0.292676 0.630460 0.790503
O O8 0.154815 0.500000 0.043286
O O9 0.500000 0.000000 0.000000
O O10 0.228861 0.000000 0.414224
#
# Coordination Sequence:
#
# PCOD8113102 Si02
#       5
#     8   4   4   4   8
#     4  11  21  39  65 100 133 168 221 266 331 385
#     4  12  27  40  65  97 135 169 221 287 328 379
#     4  10  23  44  67  95 131 184 224 253 340 410
#     4  12  20  40  68  97 135 184 212 261 336 408
#     4   9  19  39  69  95 122 178 221 261 316 409
#
# _framework density 20.837676999999999
#
# number of rings (size 3 to 8) (size 9 to 14) (size 15 to 20)
#    0.857    0.571    5.714    0.857    0.000    3.429 
#    0.000    0.000    0.000    3.429    0.000    0.000 
#    0.000    0.000    0.000    0.000    0.000    0.000 
#
# Total GULP energy -173498.125281 kJ/mol
# GULP energy per Si atom -12392.723234 kJ/mol
# Density = 2.079025 g / cm^3
# Si number density = 20.837677 Si / 1000 Ang^3
#
#
#
# Elastic Constant Matrix: (Units=GPa)
#
#
# Indices 1 2 3 4 5 6 
#
# 1 144.0661 38.4491 67.8606 0.0000 -26.8602 0.0000
# 2 38.4491 135.1417 51.8826 0.0000 -26.9166 0.0000
# 3 67.8606 51.8826 117.8138 0.0000 -35.5639 0.0000
# 4 0.0000 0.0000 0.0000 31.1770 0.0000 -7.7594
# 5 -26.8602 -26.9166 -35.5639 0.0000 31.4608 0.0000
# 6 0.0000 0.0000 0.0000 -7.7594 0.0000 24.2575
#
#
#
# Elastic Compliance Matrix: (Units=1/GPa)
#
#
# Indices 1 2 3 4 5 6 
#
# 1 0.009730 -0.000468 -0.004572 0.000000 0.002739 0.000000
# 2 -0.000468 0.009440 -0.002384 0.000000 0.004983 0.000000
# 3 -0.004572 -0.002384 0.015753 0.000000 0.011864 0.000000
# 4 0.000000 0.000000 0.000000 0.034849 0.000000 0.011148
# 5 0.002739 0.004983 0.011864 0.000000 0.051799 0.000000
# 6 0.000000 0.000000 0.000000 0.011148 0.000000 0.044790
#
#
# Mechanical properties :
#
#
# Convention : Reuss Voigt Hill
#
# Bulk Modulus (GPa) = 49.80922 79.26735 64.53829
# Shear Modulus (GPa) = 26.60985 33.30099 29.95542
#
# Velocity S-wave (km/s) = 3.57740 4.00198 3.79563
# Velocity P-wave (km/s) = 6.40461 7.71216 7.08860
#
# Compressibility (1/GPa) = 0.02007660
#
# Stress axis : x y z
#
# Youngs Moduli (GPa) = 102.77215 105.92882 63.48194
#
# Poissons Ratio (x) = 0.04953 0.29023
# Poissons Ratio (y) = 0.04806 0.15133
# Poissons Ratio (z) = 0.46986 0.25252
#
# Static dielectric constant tensor:
#      x y z
#    x 3.507820 0.000000 -0.233670 
#    y 0.000000 3.818170 0.000000 
#    z -0.233670 0.000000 4.007190 
# 
# 
# High freq. dielectric constant tensor:
#      x y z
#    x 1.795200 0.000000 -0.028290 
#    y 0.000000 1.814530 0.000000 
#    z -0.028290 0.000000 1.816230 
# 
# From -- ./inp_files/138581.got.cif
#   From: 2010.06.25/outbox.cif.g09.slc.cpg/sg12_70_cif.got.tgz:138581.got - 2010.06.28 00:19:55.
