data_PCOD8113266
_publ_section_title
;
Structure prediction by ZEFSAII (Michael W. Deem and Ramdas Pophale) SiO2 
 PCOD8113266
Probable space group: C 2/M
;
_chemical_formula_sum "Si O2"
_cell_formula_units_Z 44
_cell_length_a 14.843070
_cell_length_b 11.413426
_cell_length_c 24.434877
_cell_angle_alpha 90.000000
_cell_angle_beta 33.360424
_cell_angle_gamma 90.000000
_cell_volume 2276.338071
_symmetry_space_group_name_H-M "C 2/M"
_symmetry_group_IT_number 12
_symmetry_cell_setting 'monoclinic'
loop_
_space_group_symop_operation_xyz
x,y,z
-x,y,-z
-x,-y,-z
x,-y,z
1/2+x,1/2+y,z
1/2-x,1/2+y,-z
1/2-x,1/2-y,-z
1/2+x,1/2-y,z
loop_
_atom_site_type_symbol
_atom_site_label
_atom_site_fract_x
_atom_site_fract_y
_atom_site_fract_z
Si Si1 0.616837 0.500000 0.801071
Si Si2 0.693333 0.000000 0.407522
Si Si3 0.499517 0.746116 0.119037
Si Si4 0.284750 0.772558 0.893041
Si Si5 0.808303 0.133219 0.775855
Si Si6 0.312939 0.500000 0.114429
Si Si7 0.177502 0.130362 0.562364
O O1 0.735394 0.500000 0.689270
O O2 0.499377 0.611678 0.862203
O O3 0.720910 0.500000 0.803854
O O4 0.500000 0.000000 0.500000
O O5 0.755550 0.883691 0.409007
O O6 0.577064 0.807738 0.132682
O O7 0.320016 0.791086 0.194438
O O8 0.613558 0.761291 0.008317
O O9 0.325810 0.667570 0.830746
O O10 0.276123 0.886194 0.860867
O O11 0.983383 0.148876 0.658690
O O12 0.747680 0.000000 0.804710
O O13 0.500000 0.500000 0.000000
O O14 0.250000 0.250000 0.500000
O O15 0.217539 0.000000 0.513774
#
# Coordination Sequence:
#
# PCOD8113266 Si02
#       7
#     4   4   8   8   8   4   8
#     4  12  22  42  64  89 131 176 216 285 324 386
#     4  10  24  40  69 106 121 169 230 272 339 416
#     4  11  24  36  65  87 133 174 221 272 329 380
#     4  11  23  39  57  97 123 177 229 266 318 398
#     4  11  23  42  61  92 134 170 211 272 343 398
#     4  12  20  40  61  87 128 173 223 275 317 370
#     4   9  22  44  70  99 132 169 217 279 340 408
#
# _framework density 19.329291000000001
#
# number of rings (size 3 to 8) (size 9 to 14) (size 15 to 20)
#    0.545    0.727    3.636    1.636    5.091    1.455 
#    1.636    0.000    0.000    0.545    0.000    0.000 
#    0.000    0.000    0.000    0.000    0.000    0.000 
#
# Total GULP energy -272594.645666 kJ/mol
# GULP energy per Si atom -12390.665712 kJ/mol
# Density = 1.928530 g / cm^3
# Si number density = 19.329291 Si / 1000 Ang^3
#
#
#
# Elastic Constant Matrix: (Units=GPa)
#
#
# Indices 1 2 3 4 5 6 
#
# 1 122.7073 35.7986 49.0543 0.0000 1.5391 0.0000
# 2 35.7986 120.9037 51.9408 -0.0001 7.9243 0.0000
# 3 49.0543 51.9408 84.0709 -0.0015 6.2229 0.0004
# 4 0.0000 -0.0001 -0.0015 32.0349 0.0002 10.4730
# 5 1.5391 7.9243 6.2229 0.0002 38.1149 0.0000
# 6 0.0000 0.0000 0.0004 10.4730 0.0000 54.9590
#
#
#
# Elastic Compliance Matrix: (Units=1/GPa)
#
#
# Indices 1 2 3 4 5 6 
#
# 1 0.010684 -0.000691 -0.005856 0.000000 0.000668 0.000000
# 2 -0.000691 0.011361 -0.006521 0.000000 -0.001269 0.000000
# 3 -0.005856 -0.006521 0.019458 0.000001 -0.001585 0.000000
# 4 0.000000 0.000000 0.000001 0.033290 0.000000 -0.006344
# 5 0.000668 -0.001269 -0.001585 0.000000 0.026732 0.000000
# 6 0.000000 0.000000 0.000000 -0.006344 0.000000 0.019404
#
#
# Mechanical properties :
#
#
# Convention : Reuss Voigt Hill
#
# Bulk Modulus (GPa) = 65.08512 66.80769 65.94640
# Shear Modulus (GPa) = 32.85398 37.74764 35.30081
#
# Velocity S-wave (km/s) = 4.12721 4.42393 4.27814
# Velocity P-wave (km/s) = 7.51377 7.79312 7.65472
#
# Compressibility (1/GPa) = 0.01536449
#
# Stress axis : x y z
#
# Youngs Moduli (GPa) = 93.59851 88.02354 51.39225
#
# Poissons Ratio (x) = 0.06086 0.30097
# Poissons Ratio (y) = 0.06471 0.33515
# Poissons Ratio (z) = 0.54814 0.57404
#
# Static dielectric constant tensor:
#      x y z
#    x 3.626710 0.000000 0.016990 
#    y 0.000000 3.698940 0.000000 
#    z 0.016990 0.000000 3.417300 
# 
# 
# High freq. dielectric constant tensor:
#      x y z
#    x 1.763390 0.000000 -0.002470 
#    y 0.000000 1.758310 0.000000 
#    z -0.002470 0.000000 1.733810 
# 
# From -- ./inp_files/339294.got.cif
#   From: 2010.06.25/outbox.cif.g09.slc.cpg/sg12_170_cif.got.tgz:339294.got - 2010.06.28 00:19:55.
