data_PCOD8113045
_publ_section_title
;
Structure prediction by ZEFSAII (Michael W. Deem and Ramdas Pophale) SiO2 
 PCOD8113045
Probable space group: C 2/M
;
_chemical_formula_sum "Si O2"
_cell_formula_units_Z 48
_cell_length_a 18.716372
_cell_length_b 8.791625
_cell_length_c 29.756673
_cell_angle_alpha 90.000000
_cell_angle_beta 151.143370
_cell_angle_gamma 90.000000
_cell_volume 2363.089215
_symmetry_space_group_name_H-M "C 2/M"
_symmetry_group_IT_number 12
_symmetry_cell_setting 'monoclinic'
loop_
_space_group_symop_operation_xyz
x,y,z
-x,y,-z
-x,-y,-z
x,-y,z
1/2+x,1/2+y,z
1/2-x,1/2+y,-z
1/2-x,1/2-y,-z
1/2+x,1/2-y,z
loop_
_atom_site_type_symbol
_atom_site_label
_atom_site_fract_x
_atom_site_fract_y
_atom_site_fract_z
Si Si1 0.397144 0.176618 0.564016
Si Si2 0.884279 0.324438 0.236420
Si Si3 0.412661 0.830167 0.905896
Si Si4 0.860137 0.830900 0.454073
Si Si5 0.412673 0.820081 0.087059
Si Si6 0.938208 0.819664 0.744746
O O1 0.250000 0.250000 0.500000
O O2 0.523463 0.215790 0.668763
O O3 0.434746 0.251062 0.537569
O O4 0.373632 0.000000 0.543920
O O5 0.898518 0.500000 0.230319
O O6 0.718270 0.288280 0.159219
O O7 0.939950 0.224294 0.225371
O O8 0.516699 0.776056 0.922163
O O9 0.351420 0.000000 0.861853
O O10 0.500000 0.831690 0.000000
O O11 0.724735 0.735921 0.358986
O O12 0.000000 0.844143 0.500000
O O13 0.798728 0.000000 0.431935
O O14 0.518020 0.753665 0.183742
O O15 0.399446 0.000000 0.085804
O O16 0.250000 0.750000 0.000000
O O17 0.936057 0.000000 0.748777
#
# Coordination Sequence:
#
# PCOD8113045 Si02
#       6
#     8   8   8   8   8   8
#     4  11  23  40  64  94 128 169 215 263 317 378
#     4  11  24  41  65  96 129 165 213 266 317 378
#     4  10  23  43  67  96 128 164 209 258 315 380
#     4  11  25  43  64  92 129 170 216 268 322 379
#     4  11  24  43  68  98 133 169 210 261 317 380
#     4  12  25  42  66  93 128 172 216 263 320 381
#
# _framework density 20.312394999999999
#
# number of rings (size 3 to 8) (size 9 to 14) (size 15 to 20)
#    0.000    1.000    1.667    4.500    2.333    6.333 
#    0.000    0.000    0.000    0.000    0.000    0.000 
#    0.000    0.000    0.000    0.000    0.000    0.000 
#
# Total GULP energy -297660.895765 kJ/mol
# GULP energy per Si atom -12402.537324 kJ/mol
# Density = 2.026616 g / cm^3
# Si number density = 20.312395 Si / 1000 Ang^3
#
#
#
# Elastic Constant Matrix: (Units=GPa)
#
#
# Indices 1 2 3 4 5 6 
#
# 1 138.9963 56.6133 54.1080 0.0000 -12.0008 0.0001
# 2 56.6133 99.4023 51.3373 0.0000 -13.8024 0.0004
# 3 54.1080 51.3373 92.6818 0.0002 -0.8708 0.0000
# 4 0.0000 0.0000 0.0002 36.3435 0.0000 -1.6772
# 5 -12.0008 -13.8024 -0.8708 0.0000 39.7439 0.0000
# 6 0.0001 0.0004 0.0000 -1.6772 0.0000 32.8446
#
#
#
# Elastic Compliance Matrix: (Units=1/GPa)
#
#
# Indices 1 2 3 4 5 6 
#
# 1 0.010387 -0.003560 -0.004075 0.000000 0.001811 0.000000
# 2 -0.003560 0.016257 -0.006885 0.000000 0.004420 0.000000
# 3 -0.004075 -0.006885 0.016952 0.000000 -0.003250 0.000000
# 4 0.000000 0.000000 0.000000 0.027580 0.000000 0.001408
# 5 0.001811 0.004420 -0.003250 0.000000 0.027172 0.000000
# 6 0.000000 0.000000 0.000000 0.001408 0.000000 0.030518
#
#
# Mechanical properties :
#
#
# Convention : Reuss Voigt Hill
#
# Bulk Modulus (GPa) = 68.70104 72.79976 70.75040
# Shear Modulus (GPa) = 30.72022 33.05451 31.88737
#
# Velocity S-wave (km/s) = 3.89316 4.03837 3.96643
# Velocity P-wave (km/s) = 7.35558 7.59358 7.47553
#
# Compressibility (1/GPa) = 0.01455582
#
# Stress axis : x y z
#
# Youngs Moduli (GPa) = 96.27381 61.51090 58.98974
#
# Poissons Ratio (x) = 0.21896 0.24040
# Poissons Ratio (y) = 0.34270 0.40617
# Poissons Ratio (z) = 0.39234 0.42353
#
# Static dielectric constant tensor:
#      x y z
#    x 3.809440 0.000000 -0.104370 
#    y 0.000000 4.285580 0.000000 
#    z -0.104370 0.000000 3.685100 
# 
# 
# High freq. dielectric constant tensor:
#      x y z
#    x 1.809040 0.000000 -0.005410 
#    y 0.000000 1.807760 0.000000 
#    z -0.005410 0.000000 1.803310 
# 
# From -- ./inp_files/378549.got.cif
#   From: 2010.06.25/outbox.cif.g09.slc.cpg/sg12_190_cif.got.tgz:378549.got - 2010.06.28 00:19:55.
