data_PCOD8113573
_publ_section_title
;
Structure prediction by ZEFSAII (Michael W. Deem and Ramdas Pophale) SiO2 
 PCOD8113573
Probable space group: C 2/M
;
_chemical_formula_sum "Si O2"
_cell_formula_units_Z 48
_cell_length_a 19.672689
_cell_length_b 18.920224
_cell_length_c 13.646715
_cell_angle_alpha 90.000000
_cell_angle_beta 30.077849
_cell_angle_gamma 90.000000
_cell_volume 2545.707973
_symmetry_space_group_name_H-M "C 2/M"
_symmetry_group_IT_number 12
_symmetry_cell_setting 'monoclinic'
loop_
_space_group_symop_operation_xyz
x,y,z
-x,y,-z
-x,-y,-z
x,-y,z
1/2+x,1/2+y,z
1/2-x,1/2+y,-z
1/2-x,1/2-y,-z
1/2+x,1/2-y,z
loop_
_atom_site_type_symbol
_atom_site_label
_atom_site_fract_x
_atom_site_fract_y
_atom_site_fract_z
Si Si1 0.135255 0.779243 0.387312
Si Si2 0.659341 0.792613 0.037020
Si Si3 0.380730 0.291591 0.377429
Si Si4 0.897288 0.919361 0.213192
Si Si5 0.864715 0.422668 0.799484
Si Si6 0.844331 0.384619 0.617378
O O1 0.146517 0.818242 0.477649
O O2 0.122573 0.697637 0.432028
O O3 0.000000 0.804371 0.500000
O O4 0.268998 0.795383 0.157866
O O5 0.510945 0.759683 0.209171
O O6 0.652498 0.871791 0.086640
O O7 0.750000 0.750000 0.000000
O O8 0.250000 0.250000 0.500000
O O9 0.413752 0.363777 0.279821
O O10 0.749882 0.911811 0.351129
O O11 0.920347 0.000000 0.221765
O O12 0.000000 0.897853 0.000000
O O13 0.814877 0.500000 0.895365
O O14 0.781743 0.399426 0.804423
O O15 0.018784 0.426806 0.571856
#
# Coordination Sequence:
#
# PCOD8113573 Si02
#       6
#     8   8   8   8   8   8
#     4  12  21  38  63  92 123 160 210 252 303 364
#     4  12  22  39  63  87 124 164 204 252 297 366
#     4  12  24  40  63  92 124 162 208 252 304 366
#     4  11  24  38  57  88 126 160 197 249 310 365
#     4  11  21  34  60  93 120 151 198 255 310 357
#     4  11  17  37  58  88 121 152 196 255 308 357
#
# _framework density 18.855266
#
# number of rings (size 3 to 8) (size 9 to 14) (size 15 to 20)
#    0.000    0.500    8.333    3.000    0.000    0.000 
#    0.000    0.833    0.000    1.000    0.000    4.667 
#    0.000    0.000    0.000    0.000    0.000    0.000 
#
# Total GULP energy -297564.688478 kJ/mol
# GULP energy per Si atom -12398.528687 kJ/mol
# Density = 1.881235 g / cm^3
# Si number density = 18.855266 Si / 1000 Ang^3
#
#
#
# Elastic Constant Matrix: (Units=GPa)
#
#
# Indices 1 2 3 4 5 6 
#
# 1 120.1627 54.0537 53.8970 -0.0020 16.0394 0.0018
# 2 54.0537 120.7485 30.2085 -0.0016 16.2899 0.0016
# 3 53.8970 30.2085 101.9499 -0.0034 16.1933 0.0034
# 4 -0.0020 -0.0016 -0.0034 8.0100 0.0022 31.3460
# 5 16.0394 16.2899 16.1933 0.0022 38.7209 -0.0021
# 6 0.0018 0.0016 0.0034 31.3460 -0.0021 1.4834
#
#
#
# Elastic Compliance Matrix: (Units=1/GPa)
#
#
# Indices 1 2 3 4 5 6 
#
# 1 0.012766 -0.004215 -0.005293 0.000000 -0.001301 0.000000
# 2 -0.004215 0.010639 -0.000525 0.000000 -0.002510 0.000000
# 3 -0.005293 -0.000525 0.013260 -0.000001 -0.003132 0.000002
# 4 0.000000 0.000000 -0.000001 -0.001528 0.000003 0.032293
# 5 -0.001301 -0.002510 -0.003132 0.000003 0.028731 -0.000003
# 6 0.000000 0.000000 0.000002 0.032293 -0.000003 -0.008252
#
#
# Mechanical properties :
#
#
# Convention : Reuss Voigt Hill
#
# Bulk Modulus (GPa) = 60.24965 68.79773 64.52369
# Shear Modulus (GPa) = 61.56501 23.28965 42.42733
#
# Velocity S-wave (km/s) = 5.72034 3.51833 4.74873
# Velocity P-wave (km/s) = 8.69786 7.28501 8.02260
#
# Compressibility (1/GPa) = 0.01659761
#
# Stress axis : x y z
#
# Youngs Moduli (GPa) = 78.33310 93.99759 75.41360
#
# Poissons Ratio (x) = 0.39620 0.39919
# Poissons Ratio (y) = 0.33017 0.03962
# Poissons Ratio (z) = 0.41464 0.04938
#
# Static dielectric constant tensor:
#      x y z
#    x 3.747410 0.000000 0.010870 
#    y 0.000000 3.390510 0.000000 
#    z 0.010870 0.000000 3.523970 
# 
# 
# High freq. dielectric constant tensor:
#      x y z
#    x 1.737750 0.000000 -0.006270 
#    y 0.000000 1.718660 0.000000 
#    z -0.006270 0.000000 1.729650 
# 
# From -- ./inp_files/234237.got.cif
#   From: 2010.06.25/outbox.cif.g09.slc.cpg/sg12_118_cif.got.tgz:234237.got - 2010.06.28 00:19:55.
