data_PCOD8113323
_publ_section_title
;
Structure prediction by ZEFSAII (Michael W. Deem and Ramdas Pophale) SiO2 
 PCOD8113323
Probable space group: C 2/M
;
_chemical_formula_sum "Si O2"
_cell_formula_units_Z 56
_cell_length_a 9.233410
_cell_length_b 27.522701
_cell_length_c 11.108185
_cell_angle_alpha 90.000000
_cell_angle_beta 70.204505
_cell_angle_gamma 90.000000
_cell_volume 2656.092287
_symmetry_space_group_name_H-M "C 2/M"
_symmetry_group_IT_number 12
_symmetry_cell_setting 'monoclinic'
loop_
_space_group_symop_operation_xyz
x,y,z
-x,y,-z
-x,-y,-z
x,-y,z
1/2+x,1/2+y,z
1/2-x,1/2+y,-z
1/2-x,1/2-y,-z
1/2+x,1/2-y,z
loop_
_atom_site_type_symbol
_atom_site_label
_atom_site_fract_x
_atom_site_fract_y
_atom_site_fract_z
Si Si1 0.600066 0.816159 0.581911
Si Si2 0.686994 0.189149 0.208577
Si Si3 0.169501 0.346809 0.961215
Si Si4 0.237618 0.053907 0.986805
Si Si5 0.631676 0.647358 0.636015
Si Si6 0.083482 0.946112 0.787954
Si Si7 0.335864 0.704660 0.703705
O O1 0.500000 0.789588 0.500000
O O2 0.470750 0.839839 0.706875
O O3 0.715551 0.855728 0.491019
O O4 0.717659 0.782739 0.626749
O O5 0.830657 0.175485 0.250943
O O6 0.633641 0.245189 0.236493
O O7 0.743854 0.177981 0.058367
O O8 0.156151 0.404890 0.984262
O O9 0.264528 0.334236 0.816332
O O10 0.000000 0.324570 0.000000
O O11 0.076279 0.056775 0.098942
O O12 0.310224 0.000000 0.983657
O O13 0.215560 0.064868 0.850371
O O14 0.587054 0.591920 0.677212
O O15 0.492709 0.678223 0.614480
O O16 0.107668 0.000000 0.726304
#
# Coordination Sequence:
#
# PCOD8113323 Si02
#       7
#     8   8   8   8   8   8   8
#     4  10  24  43  60  83 119 164 210 253 298 348
#     4  11  24  41  58  89 127 165 200 250 310 362
#     4  12  23  38  61  87 130 160 195 254 318 371
#     4   9  18  35  60  90 121 153 199 252 314 375
#     4  11  22  37  68  88 120 161 212 255 295 364
#     4   9  17  34  61  93 121 152 198 258 316 367
#     4  12  24  40  61  91 120 166 212 253 302 363
#
# _framework density 21.083604000000001
#
# number of rings (size 3 to 8) (size 9 to 14) (size 15 to 20)
#    0.000    1.429    4.286    2.571    0.000    7.143 
#    0.000    0.000    0.000    7.286    0.000    0.000 
#    0.000    0.000    0.000    0.000    0.000    0.000 
#
# Total GULP energy -346917.619023 kJ/mol
# GULP energy per Si atom -12389.914965 kJ/mol
# Density = 2.103562 g / cm^3
# Si number density = 21.083604 Si / 1000 Ang^3
#
#
#
# Elastic Constant Matrix: (Units=GPa)
#
#
# Indices 1 2 3 4 5 6 
#
# 1 102.5759 19.4297 28.3844 0.0000 5.5868 0.0000
# 2 19.4297 113.1277 25.2916 0.0000 7.1837 0.0000
# 3 28.3844 25.2916 71.0887 0.0000 7.6627 0.0000
# 4 0.0000 0.0000 0.0000 13.4860 0.0000 -0.1313
# 5 5.5868 7.1837 7.6627 0.0000 25.4509 0.0000
# 6 0.0000 0.0000 0.0000 -0.1313 0.0000 24.5043
#
#
#
# Elastic Compliance Matrix: (Units=1/GPa)
#
#
# Indices 1 2 3 4 5 6 
#
# 1 0.011084 -0.000952 -0.003983 0.000000 -0.000965 0.000000
# 2 -0.000952 0.009760 -0.002912 0.000000 -0.001669 0.000000
# 3 -0.003983 -0.002912 0.017064 0.000000 -0.003441 0.000000
# 4 0.000000 0.000000 0.000000 0.074155 0.000000 0.000397
# 5 -0.000965 -0.001669 -0.003441 0.000000 0.041010 0.000000
# 6 0.000000 0.000000 0.000000 0.000397 0.000000 0.040811
#
#
# Mechanical properties :
#
#
# Convention : Reuss Voigt Hill
#
# Bulk Modulus (GPa) = 45.01682 48.11152 46.56417
# Shear Modulus (GPa) = 23.04315 26.93402 24.98859
#
# Velocity S-wave (km/s) = 3.30955 3.57807 3.44643
# Velocity P-wave (km/s) = 6.00018 6.31974 6.16203
#
# Compressibility (1/GPa) = 0.02221392
#
# Stress axis : x y z
#
# Youngs Moduli (GPa) = 90.22109 102.45725 58.60179
#
# Poissons Ratio (x) = 0.09753 0.23340
# Poissons Ratio (y) = 0.08588 0.17067
# Poissons Ratio (z) = 0.35934 0.29840
#
# Static dielectric constant tensor:
#      x y z
#    x 3.942990 0.000000 0.085930 
#    y 0.000000 3.724900 0.000000 
#    z 0.085930 0.000000 3.875860 
# 
# 
# High freq. dielectric constant tensor:
#      x y z
#    x 1.827230 0.000000 0.000820 
#    y 0.000000 1.798600 0.000000 
#    z 0.000820 0.000000 1.821880 
# 
# From -- ./inp_files/124226.got.cif
#   From: 2010.06.25/outbox.cif.g09.slc.cpg/sg12_63_cif.got.tgz:124226.got - 2010.06.28 00:19:55.
