data_PCOD8113056
_publ_section_title
;
Structure prediction by ZEFSAII (Michael W. Deem and Ramdas Pophale) SiO2 
 PCOD8113056
Probable space group: C 2/M
;
_chemical_formula_sum "Si O2"
_cell_formula_units_Z 56
_cell_length_a 26.939680
_cell_length_b 8.389300
_cell_length_c 12.495428
_cell_angle_alpha 90.000000
_cell_angle_beta 67.751044
_cell_angle_gamma 90.000000
_cell_volume 2613.773562
_symmetry_space_group_name_H-M "C 2/M"
_symmetry_group_IT_number 12
_symmetry_cell_setting 'monoclinic'
loop_
_space_group_symop_operation_xyz
x,y,z
-x,y,-z
-x,-y,-z
x,-y,z
1/2+x,1/2+y,z
1/2-x,1/2+y,-z
1/2-x,1/2-y,-z
1/2+x,1/2-y,z
loop_
_atom_site_type_symbol
_atom_site_label
_atom_site_fract_x
_atom_site_fract_y
_atom_site_fract_z
Si Si1 0.637386 0.815083 0.744022
Si Si2 0.058647 0.683712 0.423398
Si Si3 0.746161 0.815404 0.316743
Si Si4 0.603928 0.180539 0.160399
Si Si5 0.213196 0.182985 0.121938
Si Si6 0.559438 0.684778 0.984555
Si Si7 0.144823 0.186163 0.510276
O O1 0.699903 0.784911 0.714743
O O2 0.601468 0.716880 0.855978
O O3 0.621383 0.761583 0.637742
O O4 0.624606 0.000000 0.769721
O O5 0.065304 0.500000 0.452925
O O6 0.064083 0.706543 0.292119
O O7 0.103688 0.784650 0.447452
O O8 0.000000 0.749673 0.500000
O O9 0.720969 0.787646 0.221033
O O10 0.702676 0.763450 0.440114
O O11 0.759934 0.000000 0.321538
O O12 0.652649 0.303228 0.130659
O O13 0.626300 0.000000 0.141314
O O14 0.572404 0.211528 0.077622
O O15 0.227029 0.000000 0.135814
O O16 0.250000 0.250000 0.000000
O O17 0.562002 0.500000 0.013293
O O18 0.500000 0.736615 0.000000
O O19 0.153658 0.000000 0.518898
#
# Coordination Sequence:
#
# PCOD8113056 Si02
#       7
#     8   8   8   8   8   8   8
#     4  12  26  45  69  97 133 176 224 273 330 394
#     4  10  23  43  68 100 135 175 222 271 325 389
#     4  12  24  43  67  97 135 173 219 271 328 393
#     4  11  23  42  68  98 134 173 219 271 327 389
#     4  12  24  40  64  95 132 174 218 268 327 390
#     4  11  26  47  69  97 134 174 222 276 331 391
#     4  12  25  43  68 101 137 175 220 270 332 394
#
# _framework density 21.424963999999999
#
# number of rings (size 3 to 8) (size 9 to 14) (size 15 to 20)
#    0.000    0.571    1.429    7.286    2.000    2.000 
#    0.000    0.000    0.000    0.000    0.000    0.000 
#    0.000    0.000    0.000    0.000    0.000    0.000 
#
# Total GULP energy -347451.401375 kJ/mol
# GULP energy per Si atom -12408.978621 kJ/mol
# Density = 2.137620 g / cm^3
# Si number density = 21.424964 Si / 1000 Ang^3
#
#
#
# Elastic Constant Matrix: (Units=GPa)
#
#
# Indices 1 2 3 4 5 6 
#
# 1 95.8781 6.4910 45.3497 0.0000 -6.1436 0.0000
# 2 6.4910 84.0571 15.2620 0.0000 -2.3825 0.0000
# 3 45.3497 15.2620 137.1683 0.0000 -2.2204 0.0000
# 4 0.0000 0.0000 0.0000 27.9672 0.0000 8.4404
# 5 -6.1436 -2.3825 -2.2204 0.0000 38.8657 0.0000
# 6 0.0000 0.0000 0.0000 8.4404 0.0000 31.5219
#
#
#
# Elastic Compliance Matrix: (Units=1/GPa)
#
#
# Indices 1 2 3 4 5 6 
#
# 1 0.012482 -0.000174 -0.004079 0.000000 0.001729 0.000000
# 2 -0.000174 0.012162 -0.001285 0.000000 0.000645 0.000000
# 3 -0.004079 -0.001285 0.008778 0.000000 -0.000222 0.000000
# 4 0.000000 0.000000 0.000000 0.038900 0.000000 -0.010416
# 5 0.001729 0.000645 -0.000222 0.000000 0.026030 0.000000
# 6 0.000000 0.000000 0.000000 -0.010416 0.000000 0.034513
#
#
# Mechanical properties :
#
#
# Convention : Reuss Voigt Hill
#
# Bulk Modulus (GPa) = 44.75320 50.14544 47.44932
# Shear Modulus (GPa) = 33.02722 36.33767 34.68245
#
# Velocity S-wave (km/s) = 3.93049 4.12277 4.02778
# Velocity P-wave (km/s) = 6.44454 6.79109 6.62008
#
# Compressibility (1/GPa) = 0.02234477
#
# Stress axis : x y z
#
# Youngs Moduli (GPa) = 80.11527 82.22508 113.91596
#
# Poissons Ratio (x) = 0.01432 0.46470
# Poissons Ratio (y) = 0.01396 0.14640
# Poissons Ratio (z) = 0.32682 0.10567
#
# Static dielectric constant tensor:
#      x y z
#    x 3.763090 0.000000 0.020450 
#    y 0.000000 3.829410 0.000000 
#    z 0.020450 0.000000 3.975390 
# 
# 
# High freq. dielectric constant tensor:
#      x y z
#    x 1.843360 0.000000 0.000950 
#    y 0.000000 1.848680 0.000000 
#    z 0.000950 0.000000 1.858210 
# 
# From -- ./inp_files/180873.got.cif
#   From: 2010.06.25/outbox.cif.g09.slc.cpg/sg12_91_cif.got.tgz:180873.got - 2010.06.28 00:19:55.
