data_PCOD8113888
_publ_section_title
;
Structure prediction by ZEFSAII (Michael W. Deem and Ramdas Pophale) SiO2 
 PCOD8113888
Probable space group: C 2/M
;
_chemical_formula_sum "Si O2"
_cell_formula_units_Z 48
_cell_length_a 13.397475
_cell_length_b 15.496043
_cell_length_c 12.421227
_cell_angle_alpha 90.000000
_cell_angle_beta 76.262236
_cell_angle_gamma 90.000000
_cell_volume 2504.973583
_symmetry_space_group_name_H-M "C 2/M"
_symmetry_group_IT_number 12
_symmetry_cell_setting 'monoclinic'
loop_
_space_group_symop_operation_xyz
x,y,z
-x,y,-z
-x,-y,-z
x,-y,z
1/2+x,1/2+y,z
1/2-x,1/2+y,-z
1/2-x,1/2-y,-z
1/2+x,1/2-y,z
loop_
_atom_site_type_symbol
_atom_site_label
_atom_site_fract_x
_atom_site_fract_y
_atom_site_fract_z
Si Si1 0.860563 0.829701 0.760310
Si Si2 0.414254 0.702480 0.370150
Si Si3 0.110815 0.632418 0.481278
Si Si4 0.695921 0.407365 0.441523
Si Si5 0.358899 0.500000 0.135247
Si Si6 0.252225 0.830601 0.751106
Si Si7 0.091292 0.000000 0.126674
O O1 0.807777 0.844000 0.658118
O O2 0.799509 0.743880 0.819742
O O3 0.855834 0.913892 0.837406
O O4 0.977524 0.804542 0.713823
O O5 0.408981 0.774360 0.462683
O O6 0.382431 0.616173 0.442349
O O7 0.334908 0.718257 0.294526
O O8 0.189139 0.584000 0.540092
O O9 0.156193 0.638128 0.349922
O O10 0.000000 0.584590 0.500000
O O11 0.660770 0.500000 0.407033
O O12 0.293465 0.413809 0.176270
O O13 0.466814 0.500000 0.174629
O O14 0.383090 0.500000 0.004270
#
# Coordination Sequence:
#
# PCOD8113888 Si02
#       7
#     8   8   8   8   4   8   4
#     4  12  21  37  65  93 117 164 203 252 316 360
#     4  11  20  35  54  92 127 161 197 239 296 380
#     4  11  20  35  53  86 128 169 197 229 290 383
#     4  11  22  31  50  86 129 160 201 244 293 362
#     4  11  26  48  62  91 120 155 216 276 310 353
#     4  11  22  38  64  88 128 164 201 250 310 365
#     4  11  26  44  70  90 114 154 221 276 312 354
#
# _framework density 19.161878999999999
#
# number of rings (size 3 to 8) (size 9 to 14) (size 15 to 20)
#    0.000    0.833    7.500    1.500    5.833    1.667 
#    0.000    0.000    0.000    0.000    0.000    4.667 
#    0.000    0.000    0.000    0.000    0.000    0.000 
#
# Total GULP energy -297379.860239 kJ/mol
# GULP energy per Si atom -12390.827510 kJ/mol
# Density = 1.911827 g / cm^3
# Si number density = 19.161879 Si / 1000 Ang^3
#
#
#
# Elastic Constant Matrix: (Units=GPa)
#
#
# Indices 1 2 3 4 5 6 
#
# 1 100.8855 41.2772 27.5670 0.0000 -1.5768 0.0000
# 2 41.2772 114.2276 26.3680 0.0000 -5.5726 0.0000
# 3 27.5670 26.3680 58.6509 0.0000 -2.0026 0.0000
# 4 0.0000 0.0000 0.0000 22.8674 0.0000 0.1728
# 5 -1.5768 -5.5726 -2.0026 0.0000 21.8057 0.0000
# 6 0.0000 0.0000 0.0000 0.1728 0.0000 14.7049
#
#
#
# Elastic Compliance Matrix: (Units=1/GPa)
#
#
# Indices 1 2 3 4 5 6 
#
# 1 0.012538 -0.003556 -0.004308 0.000000 -0.000398 0.000000
# 2 -0.003556 0.010873 -0.003141 0.000000 0.002233 0.000000
# 3 -0.004308 -0.003141 0.020513 0.000000 0.000770 0.000000
# 4 0.000000 0.000000 0.000000 0.043734 0.000000 -0.000514
# 5 -0.000398 0.002233 0.000770 0.000000 0.046472 0.000000
# 6 0.000000 0.000000 0.000000 -0.000514 0.000000 0.068011
#
#
# Mechanical properties :
#
#
# Convention : Reuss Voigt Hill
#
# Bulk Modulus (GPa) = 45.63036 51.57647 48.60341
# Shear Modulus (GPa) = 21.60237 23.77906 22.69071
#
# Velocity S-wave (km/s) = 3.36126 3.52654 3.44489
# Velocity P-wave (km/s) = 6.23930 6.59974 6.42205
#
# Compressibility (1/GPa) = 0.02191524
#
# Stress axis : x y z
#
# Youngs Moduli (GPa) = 79.75756 91.96844 48.74893
#
# Poissons Ratio (x) = 0.32701 0.21002
# Poissons Ratio (y) = 0.28359 0.15312
# Poissons Ratio (z) = 0.34361 0.28886
#
# Static dielectric constant tensor:
#      x y z
#    x 3.856340 0.000000 0.036290 
#    y 0.000000 3.708310 0.000000 
#    z 0.036290 0.000000 3.160780 
# 
# 
# High freq. dielectric constant tensor:
#      x y z
#    x 1.757900 0.000000 0.005190 
#    y 0.000000 1.755210 0.000000 
#    z 0.005190 0.000000 1.702360 
# 
# From -- ./inp_files/142912.got.cif
#   From: 2010.06.25/outbox.cif.g09.slc.cpg/sg12_72_cif.got.tgz:142912.got - 2010.06.28 00:19:55.
