data_PCOD8113569
_publ_section_title
;
Structure prediction by ZEFSAII (Michael W. Deem and Ramdas Pophale) SiO2 
 PCOD8113569
Probable space group: C 2/M
;
_chemical_formula_sum "Si O2"
_cell_formula_units_Z 56
_cell_length_a 8.661530
_cell_length_b 17.870964
_cell_length_c 30.625923
_cell_angle_alpha 90.000000
_cell_angle_beta 139.103028
_cell_angle_gamma 90.000000
_cell_volume 3103.663982
_symmetry_space_group_name_H-M "C 2/M"
_symmetry_group_IT_number 12
_symmetry_cell_setting 'monoclinic'
loop_
_space_group_symop_operation_xyz
x,y,z
-x,y,-z
-x,-y,-z
x,-y,z
1/2+x,1/2+y,z
1/2-x,1/2+y,-z
1/2-x,1/2-y,-z
1/2+x,1/2-y,z
loop_
_atom_site_type_symbol
_atom_site_label
_atom_site_fract_x
_atom_site_fract_y
_atom_site_fract_z
Si Si1 0.740481 0.200207 0.455350
Si Si2 0.469977 0.802276 0.247612
Si Si3 0.751477 0.218653 0.952248
Si Si4 0.489097 0.303236 0.332120
Si Si5 0.164464 0.586682 0.633958
Si Si6 0.165078 0.086279 0.231862
Si Si7 0.750259 0.694623 0.865381
O O1 0.750000 0.250000 0.500000
O O2 0.645086 0.249873 0.395443
O O3 0.579225 0.127958 0.429134
O O4 0.000000 0.169855 0.500000
O O5 0.430768 0.738793 0.275107
O O6 0.744273 0.824016 0.302904
O O7 0.330632 0.876985 0.230640
O O8 0.364615 0.769090 0.180484
O O9 0.762963 0.286449 0.919555
O O10 0.502991 0.174226 0.896463
O O11 0.750000 0.250000 0.000000
O O12 0.000000 0.171611 0.000000
O O13 0.628468 0.379481 0.351759
O O14 0.138408 0.500000 0.616433
O O15 0.220116 0.599826 0.696528
O O16 0.906306 0.121770 0.175851
O O17 0.138864 0.000000 0.214601
#
# Coordination Sequence:
#
# PCOD8113569 Si02
#       7
#     8   8   8   8   8   8   8
#     4  12  22  37  62  84 105 153 200 235 275 353
#     4  12  19  34  63  88 110 148 196 239 288 342
#     4   9  19  31  53  90 116 145 195 243 266 313
#     4  12  20  37  59  86 113 146 192 243 292 341
#     4  11  24  41  58  86 121 148 186 248 305 342
#     4  11  23  37  57  90 123 148 184 245 307 346
#     4  11  17  33  59  86 111 152 192 236 278 341
#
# _framework density 18.043192000000001
#
# number of rings (size 3 to 8) (size 9 to 14) (size 15 to 20)
#    0.000    0.857    8.571    0.000    0.000    0.857 
#    0.000    1.429    0.000    4.286    0.000    0.000 
#    0.000    0.000    0.000    0.000    0.000    0.000 
#
# Total GULP energy -347125.911430 kJ/mol
# GULP energy per Si atom -12397.353980 kJ/mol
# Density = 1.800212 g / cm^3
# Si number density = 18.043192 Si / 1000 Ang^3
#
#
#
# Elastic Constant Matrix: (Units=GPa)
#
#
# Indices 1 2 3 4 5 6 
#
# 1 125.6095 54.3877 46.3147 0.0000 38.9619 0.0000
# 2 54.3877 120.1902 43.9483 0.0000 17.0290 0.0000
# 3 46.3147 43.9483 88.7327 -0.0001 21.8202 0.0000
# 4 0.0000 0.0000 -0.0001 13.0882 0.0000 3.8472
# 5 38.9619 17.0290 21.8202 0.0000 50.3514 0.0000
# 6 0.0000 0.0000 0.0000 3.8472 0.0000 29.2482
#
#
#
# Elastic Compliance Matrix: (Units=1/GPa)
#
#
# Indices 1 2 3 4 5 6 
#
# 1 0.013037 -0.003693 -0.003136 0.000000 -0.007480 0.000000
# 2 -0.003693 0.011296 -0.003840 0.000000 0.000701 0.000000
# 3 -0.003136 -0.003840 0.015549 0.000000 -0.003013 0.000000
# 4 0.000000 0.000000 0.000000 0.079478 0.000000 -0.010454
# 5 -0.007480 0.000701 -0.003013 0.000000 0.026717 0.000000
# 6 0.000000 0.000000 0.000000 -0.010454 0.000000 0.035565
#
#
# Mechanical properties :
#
#
# Convention : Reuss Voigt Hill
#
# Bulk Modulus (GPa) = 53.92392 69.31486 61.61939
# Shear Modulus (GPa) = 23.90508 31.19633 27.55070
#
# Velocity S-wave (km/s) = 3.64384 4.16261 3.91184
# Velocity P-wave (km/s) = 6.90321 7.84873 7.39111
#
# Compressibility (1/GPa) = 0.01854465
#
# Stress axis : x y z
#
# Youngs Moduli (GPa) = 76.70747 88.52845 64.31081
#
# Poissons Ratio (x) = 0.32691 0.20169
# Poissons Ratio (y) = 0.28326 0.24693
# Poissons Ratio (z) = 0.24057 0.33992
#
# Static dielectric constant tensor:
#      x y z
#    x 3.952110 0.000000 0.258770 
#    y 0.000000 3.038090 0.000000 
#    z 0.258770 0.000000 3.578860 
# 
# 
# High freq. dielectric constant tensor:
#      x y z
#    x 1.721760 0.000000 0.007970 
#    y 0.000000 1.653150 0.000000 
#    z 0.007970 0.000000 1.716060 
# 
# From -- ./inp_files/333158.got.cif
#   From: 2010.06.25/outbox.cif.g09.slc.cpg/sg12_167_cif.got.tgz:333158.got - 2010.06.28 00:19:55.
