data_PCOD8113426
_publ_section_title
;
Structure prediction by ZEFSAII (Michael W. Deem and Ramdas Pophale) SiO2 
 PCOD8113426
Probable space group: C 2/M
;
_chemical_formula_sum "Si O2"
_cell_formula_units_Z 40
_cell_length_a 9.993923
_cell_length_b 17.853623
_cell_length_c 13.939030
_cell_angle_alpha 90.000000
_cell_angle_beta 47.018131
_cell_angle_gamma 90.000000
_cell_volume 1819.493427
_symmetry_space_group_name_H-M "C 2/M"
_symmetry_group_IT_number 12
_symmetry_cell_setting 'monoclinic'
loop_
_space_group_symop_operation_xyz
x,y,z
-x,y,-z
-x,-y,-z
x,-y,z
1/2+x,1/2+y,z
1/2-x,1/2+y,-z
1/2-x,1/2-y,-z
1/2+x,1/2-y,z
loop_
_atom_site_type_symbol
_atom_site_label
_atom_site_fract_x
_atom_site_fract_y
_atom_site_fract_z
Si Si1 0.155405 0.585697 0.493322
Si Si2 0.428955 0.587357 0.737701
Si Si3 0.515593 0.178327 0.729180
Si Si4 0.857156 0.777219 0.650158
Si Si5 0.661542 0.825132 0.999313
O O1 0.110717 0.500000 0.533429
O O2 0.354095 0.597566 0.349088
O O3 0.138066 0.623712 0.605143
O O4 0.000000 0.620678 0.500000
O O5 0.380783 0.500000 0.744216
O O6 0.377628 0.634932 0.668073
O O7 0.315259 0.619137 0.883386
O O8 0.657305 0.238379 0.705152
O O9 0.371834 0.227111 0.738669
O O10 0.421500 0.134785 0.864349
O O11 0.000000 0.752645 0.500000
O O12 0.500000 0.810111 0.000000
O O13 0.750000 0.750000 0.000000
#
# Coordination Sequence:
#
# PCOD8113426 Si02
#       5
#     8   8   8   8   8
#     4  10  24  45  69 100 137 180 229 286 348 410
#     4  11  25  44  67  97 140 179 224 283 346 410
#     4  12  24  41  69  99 136 175 229 285 334 408
#     4  12  24  40  67 105 131 177 226 279 348 398
#     4  12  25  45  68 103 138 182 228 281 342 408
#
# _framework density 21.98414
#
# number of rings (size 3 to 8) (size 9 to 14) (size 15 to 20)
#    0.000    0.600    6.000    1.200    2.800    4.000 
#    0.000    0.000    0.000    4.200    0.000    0.000 
#    0.000    0.000    0.000    0.000    0.000    0.000 
#
# Total GULP energy -247915.267018 kJ/mol
# GULP energy per Si atom -12395.763351 kJ/mol
# Density = 2.193410 g / cm^3
# Si number density = 21.984140 Si / 1000 Ang^3
#
#
#
# Elastic Constant Matrix: (Units=GPa)
#
#
# Indices 1 2 3 4 5 6 
#
# 1 135.1819 30.5338 61.8601 0.0000 5.2368 -0.0001
# 2 30.5338 98.0949 40.1849 -0.0001 8.6068 0.0000
# 3 61.8601 40.1849 172.3809 -0.0002 14.3540 0.0001
# 4 0.0000 -0.0001 -0.0002 28.9842 0.0001 2.7141
# 5 5.2368 8.6068 14.3540 0.0001 41.6983 0.0000
# 6 -0.0001 0.0000 0.0001 2.7141 0.0000 23.7789
#
#
#
# Elastic Compliance Matrix: (Units=1/GPa)
#
#
# Indices 1 2 3 4 5 6 
#
# 1 0.009088 -0.001662 -0.002890 0.000000 0.000197 0.000000
# 2 -0.001662 0.011662 -0.001996 0.000000 -0.001511 0.000000
# 3 -0.002890 -0.001996 0.007453 0.000000 -0.001790 0.000000
# 4 0.000000 0.000000 0.000000 0.034874 0.000000 -0.003981
# 5 0.000197 -0.001511 -0.001790 0.000000 0.024885 0.000000
# 6 0.000000 0.000000 0.000000 -0.003981 0.000000 0.042509
#
#
# Mechanical properties :
#
#
# Convention : Reuss Voigt Hill
#
# Bulk Modulus (GPa) = 66.20132 74.53503 70.36817
# Shear Modulus (GPa) = 33.64675 37.09753 35.37214
#
# Velocity S-wave (km/s) = 3.91641 4.11234 4.01557
# Velocity P-wave (km/s) = 7.11545 7.51838 7.31969
#
# Compressibility (1/GPa) = 0.01510544
#
# Stress axis : x y z
#
# Youngs Moduli (GPa) = 110.03801 85.74906 134.17926
#
# Poissons Ratio (x) = 0.14252 0.38780
# Poissons Ratio (y) = 0.18289 0.26787
# Poissons Ratio (z) = 0.31802 0.17118
#
# Static dielectric constant tensor:
#      x y z
#    x 4.159320 0.000000 0.057210 
#    y 0.000000 3.810650 0.000000 
#    z 0.057210 0.000000 4.492600 
# 
# 
# High freq. dielectric constant tensor:
#      x y z
#    x 1.872670 0.000000 -0.001470 
#    y 0.000000 1.848910 0.000000 
#    z -0.001470 0.000000 1.884100 
# 
# From -- ./inp_files/196765.got.cif
#   From: 2010.06.25/outbox.cif.g09.slc.cpg/sg12_99_cif.got.tgz:196765.got - 2010.06.28 00:19:55.
