data_PCOD8113002
_publ_section_title
;
Structure prediction by ZEFSAII (Michael W. Deem and Ramdas Pophale) SiO2 
 PCOD8113002
Probable space group: C 2/M
;
_chemical_formula_sum "Si O2"
_cell_formula_units_Z 64
_cell_length_a 20.235554
_cell_length_b 8.748995
_cell_length_c 21.988646
_cell_angle_alpha 90.000000
_cell_angle_beta 123.758990
_cell_angle_gamma 90.000000
_cell_volume 3236.477536
_symmetry_space_group_name_H-M "C 2/M"
_symmetry_group_IT_number 12
_symmetry_cell_setting 'monoclinic'
loop_
_space_group_symop_operation_xyz
x,y,z
-x,y,-z
-x,-y,-z
x,-y,z
1/2+x,1/2+y,z
1/2-x,1/2+y,-z
1/2-x,1/2-y,-z
1/2+x,1/2-y,z
loop_
_atom_site_type_symbol
_atom_site_label
_atom_site_fract_x
_atom_site_fract_y
_atom_site_fract_z
Si Si1 0.689735 0.177570 0.593657
Si Si2 0.273511 0.677327 0.948671
Si Si3 0.573408 0.821778 0.425099
Si Si4 0.627905 0.679171 0.328845
Si Si5 0.409059 0.320861 0.353157
Si Si6 0.639779 0.320366 0.806632
Si Si7 0.043017 0.176809 0.960434
Si Si8 0.498346 0.821135 0.184155
O O1 0.640731 0.217129 0.508314
O O2 0.780014 0.225118 0.626488
O O3 0.658660 0.277797 0.633529
O O4 0.681680 0.000000 0.606751
O O5 0.254037 0.500000 0.942647
O O6 0.223616 0.747815 0.867912
O O7 0.250000 0.750000 0.000000
O O8 0.364803 0.711509 0.982058
O O9 0.590358 0.725127 0.373787
O O10 0.489053 0.771487 0.409926
O O11 0.571894 0.000000 0.407736
O O12 0.614756 0.500000 0.312988
O O13 0.583833 0.767861 0.252311
O O14 0.427263 0.500000 0.365713
O O15 0.378851 0.270613 0.271453
O O16 0.646728 0.500000 0.817290
O O17 0.570900 0.264822 0.815721
O O18 0.006697 0.281270 0.889216
O O19 0.028319 0.000000 0.936067
O O20 0.000000 0.224475 0.000000
O O21 0.487852 0.000000 0.188873
#
# Coordination Sequence:
#
# PCOD8113002 Si02
#       8
#     8   8   8   8   8   8   8   8
#     4  10  24  42  61  89 126 164 204 257 315 370
#     4  11  22  37  63  93 122 158 203 250 299 358
#     4  11  22  39  64  92 122 161 209 258 308 370
#     4  11  23  41  64  90 124 165 207 255 312 371
#     4  11  24  40  62  91 124 165 208 255 311 369
#     4  11  23  40  62  89 124 161 205 257 305 363
#     4  10  23  43  65  91 126 166 202 244 302 365
#     4  12  24  39  64  93 122 161 205 254 307 364
#
# _framework density 19.774584999999998
#
# number of rings (size 3 to 8) (size 9 to 14) (size 15 to 20)
#    0.000    1.125    2.500    3.750    0.000    6.750 
#    0.000    3.750    0.000    0.000    0.000    0.000 
#    0.000    0.000    0.000    0.000    0.000    0.000 
#
# Total GULP energy -397051.801477 kJ/mol
# GULP energy per Si atom -12407.868796 kJ/mol
# Density = 1.972958 g / cm^3
# Si number density = 19.774585 Si / 1000 Ang^3
#
#
#
# Elastic Constant Matrix: (Units=GPa)
#
#
# Indices 1 2 3 4 5 6 
#
# 1 97.9933 27.5745 33.8788 0.0000 0.9389 0.0000
# 2 27.5745 54.9735 44.1248 0.0000 2.1846 0.0000
# 3 33.8788 44.1248 126.1950 0.0000 9.8601 0.0000
# 4 0.0000 0.0000 0.0000 37.3639 0.0000 -1.7418
# 5 0.9389 2.1846 9.8601 0.0000 28.1236 0.0000
# 6 0.0000 0.0000 0.0000 -1.7418 0.0000 31.4414
#
#
#
# Elastic Compliance Matrix: (Units=1/GPa)
#
#
# Indices 1 2 3 4 5 6 
#
# 1 0.012108 -0.004799 -0.001614 0.000000 0.000535 0.000000
# 2 -0.004799 0.027227 -0.008307 0.000000 0.000957 0.000000
# 3 -0.001614 -0.008307 0.011523 0.000000 -0.003341 0.000000
# 4 0.000000 0.000000 0.000000 0.026833 0.000000 0.001487
# 5 0.000535 0.000957 -0.003341 0.000000 0.036636 0.000000
# 6 0.000000 0.000000 0.000000 0.001487 0.000000 0.031888
#
#
# Mechanical properties :
#
#
# Convention : Reuss Voigt Hill
#
# Bulk Modulus (GPa) = 46.68840 54.47978 50.58409
# Shear Modulus (GPa) = 27.35316 30.95804 29.15560
#
# Velocity S-wave (km/s) = 3.72324 3.96099 3.84395
# Velocity P-wave (km/s) = 6.49191 6.96631 6.73329
#
# Compressibility (1/GPa) = 0.02141860
#
# Stress axis : x y z
#
# Youngs Moduli (GPa) = 82.58899 36.72838 86.78209
#
# Poissons Ratio (x) = 0.17625 0.14010
# Poissons Ratio (y) = 0.39633 0.72086
# Poissons Ratio (z) = 0.13333 0.30509
#
# Static dielectric constant tensor:
#      x y z
#    x 3.554940 0.000000 0.059980 
#    y 0.000000 3.639580 0.000000 
#    z 0.059980 0.000000 3.829920 
# 
# 
# High freq. dielectric constant tensor:
#      x y z
#    x 1.772350 0.000000 0.004810 
#    y 0.000000 1.778880 0.000000 
#    z 0.004810 0.000000 1.786970 
# 
# From -- ./inp_files/346142.got.cif
#   From: 2010.06.25/outbox.cif.g09.slc.cpg/sg12_174_cif.got.tgz:346142.got - 2010.06.28 00:19:55.
