data_PCOD8113224
_publ_section_title
;
Structure prediction by ZEFSAII (Michael W. Deem and Ramdas Pophale) SiO2 
 PCOD8113224
Probable space group: C 2/M
;
_chemical_formula_sum "Si O2"
_cell_formula_units_Z 44
_cell_length_a 11.673225
_cell_length_b 14.547871
_cell_length_c 26.987072
_cell_angle_alpha 90.000000
_cell_angle_beta 24.721475
_cell_angle_gamma 90.000000
_cell_volume 1916.628523
_symmetry_space_group_name_H-M "C 2/M"
_symmetry_group_IT_number 12
_symmetry_cell_setting 'monoclinic'
loop_
_space_group_symop_operation_xyz
x,y,z
-x,y,-z
-x,-y,-z
x,-y,z
1/2+x,1/2+y,z
1/2-x,1/2+y,-z
1/2-x,1/2-y,-z
1/2+x,1/2-y,z
loop_
_atom_site_type_symbol
_atom_site_label
_atom_site_fract_x
_atom_site_fract_y
_atom_site_fract_z
Si Si1 0.649870 0.000000 0.493051
Si Si2 0.368596 0.500000 0.240607
Si Si3 0.056198 0.604145 0.758207
Si Si4 0.341379 0.852620 0.742133
Si Si5 0.490206 0.183318 0.886738
Si Si6 0.653868 0.347788 0.522565
Si Si7 0.376374 0.000000 0.103191
O O1 0.500000 0.000000 0.500000
O O2 0.435325 0.000000 0.621123
O O3 0.831439 0.910002 0.432919
O O4 0.395372 0.408476 0.195513
O O5 0.553699 0.500000 0.217538
O O6 0.127322 0.500000 0.743618
O O7 0.338122 0.653531 0.629807
O O8 0.838339 0.610769 0.799513
O O9 0.915774 0.650781 0.860870
O O10 0.643047 0.875852 0.601915
O O11 0.267553 0.744285 0.772834
O O12 0.539023 0.093318 0.901730
O O13 0.250000 0.250000 0.000000
O O14 0.750000 0.250000 0.500000
O O15 0.500000 0.000000 0.000000
#
# Coordination Sequence:
#
# PCOD8113224 Si02
#       7
#     4   4   8   8   8   8   4
#     4  10  24  37  66  99 144 184 228 286 339 422
#     4  10  24  44  67 106 142 185 232 284 360 418
#     4  12  25  48  76 103 146 190 241 299 357 425
#     4  11  25  45  72 108 149 188 236 295 354 430
#     4  12  29  49  75 107 140 189 250 296 362 425
#     4  11  23  42  68 108 146 186 239 287 353 431
#     4  12  28  49  77 100 143 189 237 307 355 424
#
# _framework density 22.956979
#
# number of rings (size 3 to 8) (size 9 to 14) (size 15 to 20)
#    0.000    0.727    4.545    1.636    7.636    2.182 
#    0.000    0.909    0.000    0.000    0.000    0.000 
#    0.000    0.000    0.000    0.000    0.000    0.000 
#
# Total GULP energy -272655.016465 kJ/mol
# GULP energy per Si atom -12393.409839 kJ/mol
# Density = 2.290473 g / cm^3
# Si number density = 22.956979 Si / 1000 Ang^3
#
#
#
# Elastic Constant Matrix: (Units=GPa)
#
#
# Indices 1 2 3 4 5 6 
#
# 1 150.7594 60.6567 27.1521 0.0672 18.5857 -0.0071
# 2 60.6567 172.6831 24.0760 0.0260 8.9089 0.0061
# 3 27.1521 24.0760 62.7031 -0.2871 11.0467 0.0145
# 4 0.0672 0.0260 -0.2871 33.6213 0.0574 2.9609
# 5 18.5857 8.9089 11.0467 0.0574 34.3931 0.0335
# 6 -0.0071 0.0061 0.0145 2.9609 0.0335 30.5415
#
#
#
# Elastic Compliance Matrix: (Units=1/GPa)
#
#
# Indices 1 2 3 4 5 6 
#
# 1 0.008415 -0.002494 -0.002119 -0.000028 -0.003221 0.000010
# 2 -0.002494 0.006883 -0.001575 -0.000014 0.000071 0.000000
# 3 -0.002119 -0.001575 0.018229 0.000170 -0.004302 -0.000021
# 4 -0.000028 -0.000014 0.000170 0.030001 -0.000083 -0.002909
# 5 -0.003221 0.000071 -0.004302 -0.000083 0.032180 -0.000026
# 6 0.000010 0.000000 -0.000021 -0.002909 -0.000026 0.033024
#
#
# Mechanical properties :
#
#
# Convention : Reuss Voigt Hill
#
# Bulk Modulus (GPa) = 47.28049 67.76838 57.52443
# Shear Modulus (GPa) = 33.74719 37.99521 35.87120
#
# Velocity S-wave (km/s) = 3.83824 4.07266 3.95719
# Velocity P-wave (km/s) = 6.34687 7.19022 6.78167
#
# Compressibility (1/GPa) = 0.02115037
#
# Stress axis : x y z
#
# Youngs Moduli (GPa) = 118.82967 145.28316 54.85656
#
# Poissons Ratio (x) = 0.36239 0.11624
# Poissons Ratio (y) = 0.29641 0.08642
# Poissons Ratio (z) = 0.25180 0.22887
#
# Static dielectric constant tensor:
#      x y z
#    x -3.833260 0.026660 2.963530 
#    y 0.026660 4.495500 -0.006470 
#    z 2.963530 -0.006470 2.857290 
# 
# 
# High freq. dielectric constant tensor:
#      x y z
#    x 1.906860 0.000010 0.009450 
#    y 0.000010 1.920340 0.000000 
#    z 0.009450 0.000000 1.901920 
# 
# From -- ./inp_files/358140.got.cif
#   From: 2010.06.25/outbox.cif.g09.slc.cpg/sg12_180_cif.got.tgz:358140.got - 2010.06.28 00:19:55.
