data_PCOD8113603
_publ_section_title
;
Structure prediction by ZEFSAII (Michael W. Deem and Ramdas Pophale) SiO2 
 PCOD8113603
Probable space group: C 2/M
;
_chemical_formula_sum "Si O2"
_cell_formula_units_Z 48
_cell_length_a 15.372194
_cell_length_b 14.282648
_cell_length_c 25.726176
_cell_angle_alpha 90.000000
_cell_angle_beta 153.609384
_cell_angle_gamma 90.000000
_cell_volume 2510.616207
_symmetry_space_group_name_H-M "C 2/M"
_symmetry_group_IT_number 12
_symmetry_cell_setting 'monoclinic'
loop_
_space_group_symop_operation_xyz
x,y,z
-x,y,-z
-x,-y,-z
x,-y,z
1/2+x,1/2+y,z
1/2-x,1/2+y,-z
1/2-x,1/2-y,-z
1/2+x,1/2-y,z
loop_
_atom_site_type_symbol
_atom_site_label
_atom_site_fract_x
_atom_site_fract_y
_atom_site_fract_z
Si Si1 0.155119 0.000000 0.985653
Si Si2 0.212140 0.308697 0.634086
Si Si3 0.583315 0.309066 0.765985
Si Si4 0.150173 0.000000 0.256418
Si Si5 0.676597 0.710386 0.016563
Si Si6 0.535125 0.000000 0.120771
Si Si7 0.792182 0.699580 0.780425
Si Si8 0.730934 0.500000 0.876535
O O1 0.929132 0.000000 0.844825
O O2 0.181394 0.098524 0.029318
O O3 0.326644 0.000000 0.036085
O O4 0.357205 0.307880 0.662123
O O5 0.213524 0.411654 0.659445
O O6 0.271442 0.237118 0.710974
O O7 0.000000 0.281373 0.500000
O O8 0.693116 0.248029 0.867432
O O9 0.602048 0.278220 0.715316
O O10 0.691960 0.409249 0.820952
O O11 0.942893 0.000000 0.174333
O O12 0.750000 0.750000 0.000000
O O13 0.457743 0.748354 0.902829
O O14 0.662388 0.909787 0.203283
O O15 0.456405 0.000000 0.018978
#
# Coordination Sequence:
#
# PCOD8113603 Si02
#       8
#     4   8   8   4   8   4   8   4
#     4  11  18  32  60  84 123 152 185 223 282 356
#     4  11  23  41  61  80 110 154 199 243 288 333
#     4  11  22  37  57  89 121 147 191 237 288 346
#     4   9  17  35  59  84 106 144 190 245 286 334
#     4  12  19  36  58  87 123 155 178 227 290 351
#     4  11  19  32  56  91 117 148 184 232 294 344
#     4  12  23  36  59  87 118 152 190 238 291 343
#     4   9  17  31  57  88 118 141 181 240 289 337
#
# _framework density 19.118811999999998
#
# number of rings (size 3 to 8) (size 9 to 14) (size 15 to 20)
#    0.000    1.000    6.667    2.250    0.000    1.333 
#    0.000    2.917    0.000    0.000    0.000    0.000 
#    0.000    0.000    0.000    0.000    0.000    0.000 
#
# Total GULP energy -297324.254615 kJ/mol
# GULP energy per Si atom -12388.510609 kJ/mol
# Density = 1.907530 g / cm^3
# Si number density = 19.118812 Si / 1000 Ang^3
#
#
#
# Elastic Constant Matrix: (Units=GPa)
#
#
# Indices 1 2 3 4 5 6 
#
# 1 79.3453 23.3165 10.4959 0.0012 6.6240 0.0217
# 2 23.3165 136.2253 18.0395 0.0018 1.9029 -0.0124
# 3 10.4959 18.0395 68.5990 0.0031 12.8891 -0.0580
# 4 0.0012 0.0018 0.0031 11.4567 -0.0001 11.2093
# 5 6.6240 1.9029 12.8891 -0.0001 17.1156 0.0025
# 6 0.0217 -0.0124 -0.0580 11.2093 0.0025 415.0288
#
#
#
# Elastic Compliance Matrix: (Units=1/GPa)
#
#
# Indices 1 2 3 4 5 6 
#
# 1 0.013717 -0.002196 -0.000664 0.000000 -0.004565 -0.000001
# 2 -0.002196 0.007966 -0.002041 -0.000001 0.001501 0.000000
# 3 -0.000664 -0.002041 0.017618 -0.000007 -0.012783 0.000003
# 4 0.000000 -0.000001 -0.000007 0.089654 0.000006 -0.002421
# 5 -0.004565 0.001501 -0.012783 0.000006 0.069653 -0.000002
# 6 -0.000001 0.000000 0.000003 -0.002421 -0.000002 0.002475
#
#
# Mechanical properties :
#
#
# Convention : Reuss Voigt Hill
#
# Bulk Modulus (GPa) = 33.89872 43.09706 38.49789
# Shear Modulus (GPa) = 22.65343 104.20809 63.43076
#
# Velocity S-wave (km/s) = 3.44594 7.39080 5.76621
# Velocity P-wave (km/s) = 5.79670 9.76844 8.03194
#
# Compressibility (1/GPa) = 0.02949964
#
# Stress axis : x y z
#
# Youngs Moduli (GPa) = 72.90003 125.53382 56.76158
#
# Poissons Ratio (x) = 0.27570 0.03766
# Poissons Ratio (y) = 0.16011 0.11584
# Poissons Ratio (z) = 0.04837 0.25619
#
# Static dielectric constant tensor:
#      x y z
#    x 3.604290 -0.000010 0.129930 
#    y -0.000010 3.781660 0.000000 
#    z 0.129930 0.000000 3.159600 
# 
# 
# High freq. dielectric constant tensor:
#      x y z
#    x 1.748910 0.000000 0.011820 
#    y 0.000000 1.751500 0.000000 
#    z 0.011820 0.000000 1.706560 
# 
# From -- ./inp_files/340251.got.cif
#   From: 2010.06.25/outbox.cif.g09.slc.cpg/sg12_171_cif.got.tgz:340251.got - 2010.06.28 00:19:55.
