data_PCOD8113081
_publ_section_title
;
Structure prediction by ZEFSAII (Michael W. Deem and Ramdas Pophale) SiO2 
 PCOD8113081
Probable space group: C 2/M
;
_chemical_formula_sum "Si O2"
_cell_formula_units_Z 32
_cell_length_a 16.933653
_cell_length_b 10.310954
_cell_length_c 19.599846
_cell_angle_alpha 90.000000
_cell_angle_beta 154.928965
_cell_angle_gamma 90.000000
_cell_volume 1450.117648
_symmetry_space_group_name_H-M "C 2/M"
_symmetry_group_IT_number 12
_symmetry_cell_setting 'monoclinic'
loop_
_space_group_symop_operation_xyz
x,y,z
-x,y,-z
-x,-y,-z
x,-y,z
1/2+x,1/2+y,z
1/2-x,1/2+y,-z
1/2-x,1/2-y,-z
1/2+x,1/2-y,z
loop_
_atom_site_type_symbol
_atom_site_label
_atom_site_fract_x
_atom_site_fract_y
_atom_site_fract_z
Si Si1 0.594149 0.500000 0.800357
Si Si2 0.355065 0.500000 0.321091
Si Si3 0.044838 0.000000 0.112676
Si Si4 0.397917 0.762295 0.674236
Si Si5 0.340896 0.000000 0.109875
Si Si6 0.716610 0.749784 0.671043
O O1 0.575740 0.500000 0.703657
O O2 0.497620 0.624514 0.758575
O O3 0.803791 0.500000 0.997894
O O4 0.500000 0.500000 0.500000
O O5 0.241767 0.634065 0.241664
O O6 0.165797 0.126039 0.219854
O O7 0.000000 0.000000 0.000000
O O8 0.858981 0.000000 0.011118
O O9 0.250000 0.750000 0.500000
O O10 0.549325 0.873509 0.778684
O O11 0.280363 0.803710 0.648007
O O12 0.500000 0.788430 0.500000
#
# Coordination Sequence:
#
# PCOD8113081 Si02
#       6
#     4   4   4   8   4   8
#     4  12  25  46  74 107 147 191 241 308 365 429
#     4  10  23  43  72 105 146 188 242 294 353 438
#     4  12  29  43  70 103 149 192 236 302 367 437
#     4  12  25  46  77 103 142 195 245 308 364 446
#     4  12  28  48  71 110 147 187 257 306 379 433
#     4  11  24  47  71 107 144 188 245 293 363 439
#
# _framework density 22.067174000000001
#
# number of rings (size 3 to 8) (size 9 to 14) (size 15 to 20)
#    0.000    0.500    2.500    5.625    7.000    0.000 
#    0.000    1.875    0.000    0.000    0.000    0.000 
#    0.000    0.000    0.000    0.000    0.000    0.000 
#
# Total GULP energy -198315.840341 kJ/mol
# GULP energy per Si atom -12394.740021 kJ/mol
# Density = 2.201695 g / cm^3
# Si number density = 22.067174 Si / 1000 Ang^3
#
#
#
# Elastic Constant Matrix: (Units=GPa)
#
#
# Indices 1 2 3 4 5 6 
#
# 1 135.8776 45.7312 45.6022 0.0004 8.6476 0.0003
# 2 45.7312 179.1222 76.3639 -0.0079 27.4576 0.0013
# 3 45.6022 76.3639 145.3451 0.0010 4.4760 0.0013
# 4 0.0004 -0.0079 0.0010 78.9903 0.0004 14.8242
# 5 8.6476 27.4576 4.4760 0.0004 42.8065 0.0006
# 6 0.0003 0.0013 0.0013 14.8242 0.0006 41.3209
#
#
#
# Elastic Compliance Matrix: (Units=1/GPa)
#
#
# Indices 1 2 3 4 5 6 
#
# 1 0.008484 -0.001196 -0.002011 0.000000 -0.000737 0.000000
# 2 -0.001196 0.008218 -0.003800 0.000001 -0.004633 0.000000
# 3 -0.002011 -0.003800 0.009450 0.000000 0.001855 0.000000
# 4 0.000000 0.000001 0.000000 0.013574 -0.000001 -0.004870
# 5 -0.000737 -0.004633 0.001855 -0.000001 0.026287 0.000000
# 6 0.000000 0.000000 0.000000 -0.004870 0.000000 0.025948
#
#
# Mechanical properties :
#
#
# Convention : Reuss Voigt Hill
#
# Bulk Modulus (GPa) = 82.37785 88.41549 85.39667
# Shear Modulus (GPa) = 45.44598 52.13339 48.78968
#
# Velocity S-wave (km/s) = 4.54303 4.86581 4.70719
# Velocity P-wave (km/s) = 8.05794 8.46887 8.26595
#
# Compressibility (1/GPa) = 0.01213918
#
# Stress axis : x y z
#
# Youngs Moduli (GPa) = 117.87230 121.68098 105.81517
#
# Poissons Ratio (x) = 0.14550 0.21278
# Poissons Ratio (y) = 0.14095 0.40210
# Poissons Ratio (z) = 0.23702 0.46239
#
# Static dielectric constant tensor:
#      x y z
#    x 4.356680 0.000000 -0.149330 
#    y 0.000000 4.583720 0.000030 
#    z -0.149330 0.000030 4.151610 
# 
# 
# High freq. dielectric constant tensor:
#      x y z
#    x 1.877820 0.000000 -0.005430 
#    y 0.000000 1.895040 0.000000 
#    z -0.005430 0.000000 1.868570 
# 
# From -- ./inp_files/269441.got.cif
#   From: 2010.06.25/outbox.cif.g09.slc.cpg/sg12_135_cif.got.tgz:269441.got - 2010.06.28 00:19:55.
