data_PCOD8113029
_publ_section_title
;
Structure prediction by ZEFSAII (Michael W. Deem and Ramdas Pophale) SiO2 
 PCOD8113029
Probable space group: C 2/M
;
_chemical_formula_sum "Si O2"
_cell_formula_units_Z 64
_cell_length_a 16.476400
_cell_length_b 21.298118
_cell_length_c 9.221466
_cell_angle_alpha 90.000000
_cell_angle_beta 89.939652
_cell_angle_gamma 90.000000
_cell_volume 3235.961040
_symmetry_space_group_name_H-M "C 2/M"
_symmetry_group_IT_number 12
_symmetry_cell_setting 'monoclinic'
loop_
_space_group_symop_operation_xyz
x,y,z
-x,y,-z
-x,-y,-z
x,-y,z
1/2+x,1/2+y,z
1/2-x,1/2+y,-z
1/2-x,1/2-y,-z
1/2+x,1/2-y,z
loop_
_atom_site_type_symbol
_atom_site_label
_atom_site_fract_x
_atom_site_fract_y
_atom_site_fract_z
Si Si1 0.506326 0.928032 0.338763
Si Si2 0.430532 0.572014 0.885203
Si Si3 0.746794 0.925787 0.948103
Si Si4 0.275627 0.431764 0.481238
Si Si5 0.677810 0.112956 0.242574
Si Si6 0.154250 0.624465 0.685970
Si Si7 0.421288 0.648723 0.593981
Si Si8 0.336568 0.775008 0.541804
O O1 0.500000 0.897099 0.500000
O O2 0.589846 0.918152 0.256519
O O3 0.431711 0.898114 0.248664
O O4 0.486364 0.000000 0.352291
O O5 0.441903 0.500000 0.829567
O O6 0.343698 0.579009 0.963497
O O7 0.436903 0.621073 0.753292
O O8 0.500000 0.589794 0.000000
O O9 0.722146 0.883181 0.809762
O O10 0.720963 0.000000 0.936285
O O11 0.701349 0.888010 0.074832
O O12 0.310103 0.500000 0.522018
O O13 0.251010 0.427915 0.312838
O O14 0.188667 0.419654 0.557231
O O15 0.342783 0.381888 0.521766
O O16 0.673652 0.181170 0.316581
O O17 0.137914 0.691794 0.610156
O O18 0.500000 0.633190 0.500000
O O19 0.402282 0.722986 0.590899
O O20 0.250000 0.750000 0.500000
#
# Coordination Sequence:
#
# PCOD8113029 Si02
#       8
#     8   8   8   8   8   8   8   8
#     4  11  20  34  60  95 125 156 204 270 324 370
#     4  10  23  43  66  96 133 170 210 267 336 390
#     4  11  22  41  65  95 136 170 205 259 329 400
#     4  11  20  38  64  94 125 162 217 269 330 385
#     4  11  24  38  62  96 127 169 214 263 319 385
#     4  11  22  38  65  92 124 173 210 257 322 385
#     4  12  26  41  67  97 127 171 222 275 317 376
#     4  11  22  44  64  89 124 169 224 265 304 374
#
# _framework density 19.777740999999999
#
# number of rings (size 3 to 8) (size 9 to 14) (size 15 to 20)
#    0.000    1.000    6.250    2.625    3.500    1.500 
#    0.000    5.000    0.000    0.000    0.000    0.000 
#    0.000    0.000    0.000    0.000    0.000    0.000 
#
# Total GULP energy -396550.419587 kJ/mol
# GULP energy per Si atom -12392.200612 kJ/mol
# Density = 1.973273 g / cm^3
# Si number density = 19.777741 Si / 1000 Ang^3
#
#
#
# Elastic Constant Matrix: (Units=GPa)
#
#
# Indices 1 2 3 4 5 6 
#
# 1 121.5141 44.7646 44.9900 0.0000 4.9096 0.0000
# 2 44.7646 108.5093 49.2239 0.0000 4.8425 0.0000
# 3 44.9900 49.2239 95.5375 0.0000 -4.1341 0.0000
# 4 0.0000 0.0000 0.0000 27.5775 0.0000 8.3954
# 5 4.9096 4.8425 -4.1341 0.0000 33.1803 0.0000
# 6 0.0000 0.0000 0.0000 8.3954 0.0000 23.9262
#
#
#
# Elastic Compliance Matrix: (Units=1/GPa)
#
#
# Indices 1 2 3 4 5 6 
#
# 1 0.010645 -0.002624 -0.003733 0.000000 -0.001657 0.000000
# 2 -0.002624 0.012891 -0.005500 0.000000 -0.002178 0.000000
# 3 -0.003733 -0.005500 0.015199 0.000000 0.003249 0.000000
# 4 0.000000 0.000000 0.000000 0.040598 0.000000 -0.014245
# 5 -0.001657 -0.002178 0.003249 0.000000 0.031106 0.000000
# 6 0.000000 0.000000 0.000000 -0.014245 0.000000 0.046794
#
#
# Mechanical properties :
#
#
# Convention : Reuss Voigt Hill
#
# Bulk Modulus (GPa) = 66.57309 67.05755 66.81532
# Shear Modulus (GPa) = 26.88832 29.37562 28.13197
#
# Velocity S-wave (km/s) = 3.69117 3.85812 3.77557
# Velocity P-wave (km/s) = 7.20417 7.33662 7.27070
#
# Compressibility (1/GPa) = 0.01502108
#
# Stress axis : x y z
#
# Youngs Moduli (GPa) = 93.93899 77.57503 65.79293
#
# Poissons Ratio (x) = 0.20359 0.24557
# Poissons Ratio (y) = 0.24654 0.36187
# Poissons Ratio (z) = 0.35063 0.42667
#
# Static dielectric constant tensor:
#      x y z
#    x 3.683360 0.000000 0.084860 
#    y 0.000000 3.460020 0.000000 
#    z 0.084860 0.000000 3.484060 
# 
# 
# High freq. dielectric constant tensor:
#      x y z
#    x 1.786320 0.000000 0.008180 
#    y 0.000000 1.762740 0.000000 
#    z 0.008180 0.000000 1.754630 
# 
# From -- ./inp_files/77510.got.cif
#   From: 2010.06.25/outbox.cif.g09.slc.cpg/sg12_39_cif.got.tgz:77510.got - 2010.06.28 00:19:55.
