data_PCOD8113960
_publ_section_title
;
Structure prediction by ZEFSAII (Michael W. Deem and Ramdas Pophale) SiO2 
 PCOD8113960
Probable space group: C 2/M
;
_chemical_formula_sum "Si O2"
_cell_formula_units_Z 52
_cell_length_a 9.299605
_cell_length_b 22.181022
_cell_length_c 19.070773
_cell_angle_alpha 90.000000
_cell_angle_beta 139.557225
_cell_angle_gamma 90.000000
_cell_volume 2551.822065
_symmetry_space_group_name_H-M "C 2/M"
_symmetry_group_IT_number 12
_symmetry_cell_setting 'monoclinic'
loop_
_space_group_symop_operation_xyz
x,y,z
-x,y,-z
-x,-y,-z
x,-y,z
1/2+x,1/2+y,z
1/2-x,1/2+y,-z
1/2-x,1/2-y,-z
1/2+x,1/2-y,z
loop_
_atom_site_type_symbol
_atom_site_label
_atom_site_fract_x
_atom_site_fract_y
_atom_site_fract_z
Si Si1 0.228570 0.681242 0.611760
Si Si2 0.990242 0.114819 0.174189
Si Si3 0.367200 0.000000 0.108825
Si Si4 0.500000 0.133088 0.000000
Si Si5 0.630429 0.720252 0.689647
Si Si6 0.600448 0.500000 0.142668
Si Si7 0.498423 0.866079 0.152098
Si Si8 0.151890 0.199933 0.116742
O O1 0.387074 0.634505 0.709768
O O2 0.371032 0.704043 0.598148
O O3 0.162071 0.736483 0.636322
O O4 0.000000 0.650824 0.500000
O O5 0.001156 0.166789 0.118774
O O6 0.128602 0.057903 0.201071
O O7 0.733807 0.096626 0.094139
O O8 0.505574 0.061117 0.143060
O O9 0.309149 0.000000 0.168859
O O10 0.138544 0.000000 0.982190
O O11 0.524950 0.166734 0.933684
O O12 0.775974 0.659979 0.730687
O O13 0.695182 0.750687 0.788839
O O14 0.296709 0.849762 0.128678
O O15 0.000000 0.231692 0.000000
#
# Coordination Sequence:
#
# PCOD8113960 Si02
#       8
#     8   8   4   4   8   4   8   8
#     4  11  24  44  63  89 122 162 213 264 317 367
#     4  11  23  37  62  91 122 163 206 254 307 374
#     4  11  22  36  62  87 132 177 202 246 299 385
#     4  12  22  35  58  90 134 158 202 247 312 368
#     4  11  24  39  62  91 121 163 206 256 319 371
#     4  11  20  38  61  87 121 171 214 244 305 382
#     4  12  23  38  58  92 131 167 209 246 304 376
#     4  11  21  37  59  87 127 168 199 240 308 389
#
# _framework density 20.377596
#
# number of rings (size 3 to 8) (size 9 to 14) (size 15 to 20)
#    0.000    0.769    7.692    0.462    1.077    1.846 
#    0.000    0.385    0.000    0.000    0.000    1.615 
#    0.000    0.000    0.000    0.000    0.000    0.000 
#
# Total GULP energy -322179.976661 kJ/mol
# GULP energy per Si atom -12391.537564 kJ/mol
# Density = 2.033122 g / cm^3
# Si number density = 20.377596 Si / 1000 Ang^3
#
#
#
# Elastic Constant Matrix: (Units=GPa)
#
#
# Indices 1 2 3 4 5 6 
#
# 1 99.4839 6.1788 30.7772 0.0000 13.6538 0.0000
# 2 6.1788 54.3154 18.1343 0.0000 4.8202 0.0000
# 3 30.7772 18.1343 89.8408 -0.0006 17.9639 0.0002
# 4 0.0000 0.0000 -0.0006 9.9126 -0.0001 3.1240
# 5 13.6538 4.8202 17.9639 -0.0001 25.2253 0.0000
# 6 0.0000 0.0000 0.0002 3.1240 0.0000 18.4869
#
#
#
# Elastic Compliance Matrix: (Units=1/GPa)
#
#
# Indices 1 2 3 4 5 6 
#
# 1 0.011583 0.000102 -0.003185 0.000000 -0.004021 0.000000
# 2 0.000102 0.019768 -0.003800 0.000000 -0.001127 0.000000
# 3 -0.003185 -0.003800 0.014574 0.000001 -0.007929 0.000000
# 4 0.000000 0.000000 0.000001 0.106557 0.000000 -0.018007
# 5 -0.004021 -0.001127 -0.007929 0.000000 0.047681 0.000000
# 6 0.000000 0.000000 0.000000 -0.018007 0.000000 0.057135
#
#
# Mechanical properties :
#
#
# Convention : Reuss Voigt Hill
#
# Bulk Modulus (GPa) = 31.09386 39.31341 35.20364
# Shear Modulus (GPa) = 17.74420 23.29495 20.51957
#
# Velocity S-wave (km/s) = 2.95408 3.38474 3.17672
# Velocity P-wave (km/s) = 5.18917 5.88300 5.54694
#
# Compressibility (1/GPa) = 0.03216069
#
# Stress axis : x y z
#
# Youngs Moduli (GPa) = 86.33651 50.58675 68.61452
#
# Poissons Ratio (x) = -0.00518 0.21851
# Poissons Ratio (y) = -0.00885 0.26073
# Poissons Ratio (z) = 0.27494 0.19223
#
# Static dielectric constant tensor:
#      x y z
#    x 4.000070 0.000000 0.060230 
#    y 0.000000 3.478420 0.000000 
#    z 0.060230 0.000000 3.552840 
# 
# 
# High freq. dielectric constant tensor:
#      x y z
#    x 1.823750 0.000000 0.006350 
#    y 0.000000 1.768730 0.000000 
#    z 0.006350 0.000000 1.764040 
# 
# From -- ./inp_files/302392.got.cif
#   From: 2010.06.25/outbox.cif.g09.slc.cpg/sg12_152_cif.got.tgz:302392.got - 2010.06.28 00:19:55.
