data_PCOD8113011
_publ_section_title
;
Structure prediction by ZEFSAII (Michael W. Deem and Ramdas Pophale) SiO2 
 PCOD8113011
Probable space group: C 2/M
;
_chemical_formula_sum "Si O2"
_cell_formula_units_Z 56
_cell_length_a 27.100194
_cell_length_b 18.079119
_cell_length_c 6.657001
_cell_angle_alpha 90.000000
_cell_angle_beta 55.337858
_cell_angle_gamma 90.000000
_cell_volume 2682.716362
_symmetry_space_group_name_H-M "C 2/M"
_symmetry_group_IT_number 12
_symmetry_cell_setting 'monoclinic'
loop_
_space_group_symop_operation_xyz
x,y,z
-x,y,-z
-x,-y,-z
x,-y,z
1/2+x,1/2+y,z
1/2-x,1/2+y,-z
1/2-x,1/2-y,-z
1/2+x,1/2-y,z
loop_
_atom_site_type_symbol
_atom_site_label
_atom_site_fract_x
_atom_site_fract_y
_atom_site_fract_z
Si Si1 0.942937 0.680171 0.509320
Si Si2 0.446804 0.327433 0.267073
Si Si3 0.733783 0.414155 0.314409
Si Si4 0.929180 0.584836 0.185005
Si Si5 0.349333 0.826769 0.054273
Si Si6 0.340104 0.671183 0.211684
Si Si7 0.373462 0.414128 0.738836
O O1 0.965019 0.749841 0.326495
O O2 0.915079 0.614431 0.439864
O O3 0.000000 0.649525 0.500000
O O4 0.888869 0.703249 0.778817
O O5 0.389390 0.314979 0.265181
O O6 0.431192 0.386750 0.477257
O O7 0.500000 0.356758 0.000000
O O8 0.740113 0.500000 0.347102
O O9 0.797949 0.382421 0.099037
O O10 0.714060 0.376260 0.569699
O O11 0.687457 0.399091 0.242710
O O12 0.909040 0.500000 0.210892
O O13 0.893247 0.632824 0.107763
O O14 0.000000 0.595587 0.000000
O O15 0.316770 0.753150 0.212299
O O16 0.369545 0.628696 0.956853
O O17 0.382916 0.500000 0.762965
#
# Coordination Sequence:
#
# PCOD8113011 Si02
#       7
#     8   8   8   8   8   8   8
#     4  12  23  40  65  95 130 172 214 261 315 377
#     4  11  23  40  66  97 131 168 213 258 318 386
#     4  10  24  43  63  91 129 167 214 271 324 378
#     4  11  24  41  61  93 133 171 212 260 315 374
#     4  12  23  40  67  95 127 169 223 262 311 384
#     4  11  22  42  67  93 126 171 211 267 321 378
#     4  10  23  43  65  94 129 168 212 267 325 376
#
# _framework density 20.874364
#
# number of rings (size 3 to 8) (size 9 to 14) (size 15 to 20)
#    0.000    1.000    4.286    2.571    0.000    4.000 
#    0.000    2.143    0.000    0.000    0.000    0.000 
#    0.000    0.000    0.000    0.000    0.000    0.000 
#
# Total GULP energy -347268.749587 kJ/mol
# GULP energy per Si atom -12402.455342 kJ/mol
# Density = 2.082685 g / cm^3
# Si number density = 20.874364 Si / 1000 Ang^3
#
#
#
# Elastic Constant Matrix: (Units=GPa)
#
#
# Indices 1 2 3 4 5 6 
#
# 1 39.8450 23.1449 22.3424 0.0000 -2.6290 0.0000
# 2 23.1449 128.0302 32.3980 0.0000 9.1190 0.0000
# 3 22.3424 32.3980 89.3899 0.0000 3.4303 0.0000
# 4 0.0000 0.0000 0.0000 34.3501 0.0000 -2.2902
# 5 -2.6290 9.1190 3.4303 0.0000 33.3601 0.0000
# 6 0.0000 0.0000 0.0000 -2.2902 0.0000 28.1104
#
#
#
# Elastic Compliance Matrix: (Units=1/GPa)
#
#
# Indices 1 2 3 4 5 6 
#
# 1 0.031553 -0.004377 -0.006467 0.000000 0.004348 0.000000
# 2 -0.004377 0.009347 -0.002191 0.000000 -0.002675 0.000000
# 3 -0.006467 -0.002191 0.013648 0.000000 -0.001314 0.000000
# 4 0.000000 0.000000 0.000000 0.029271 0.000000 0.002385
# 5 0.004348 -0.002675 -0.001314 0.000000 0.031185 0.000000
# 6 0.000000 0.000000 0.000000 0.002385 0.000000 0.035768
#
#
# Mechanical properties :
#
#
# Convention : Reuss Voigt Hill
#
# Bulk Modulus (GPa) = 35.11540 45.89286 40.50413
# Shear Modulus (GPa) = 26.83345 31.12275 28.97810
#
# Velocity S-wave (km/s) = 3.58924 3.86548 3.72992
# Velocity P-wave (km/s) = 5.83401 6.47731 6.16406
#
# Compressibility (1/GPa) = 0.02847753
#
# Stress axis : x y z
#
# Youngs Moduli (GPa) = 31.69269 106.98747 73.27196
#
# Poissons Ratio (x) = 0.46832 0.47384
# Poissons Ratio (y) = 0.13873 0.16053
# Poissons Ratio (z) = 0.20495 0.23440
#
# Static dielectric constant tensor:
#      x y z
#    x 3.685530 0.000000 0.073330 
#    y 0.000000 3.843390 0.000000 
#    z 0.073330 0.000000 3.917390 
# 
# 
# High freq. dielectric constant tensor:
#      x y z
#    x 1.812000 0.000000 0.006570 
#    y 0.000000 1.825100 0.000000 
#    z 0.006570 0.000000 1.823890 
# 
# From -- ./inp_files/28770.got.cif
#   From: 2010.06.25/outbox.cif.g09.slc.cpg/sg12_15_cif.got.tgz:28770.got - 2010.06.28 00:19:55.
