data_PCOD8113174
_publ_section_title
;
Structure prediction by ZEFSAII (Michael W. Deem and Ramdas Pophale) SiO2 
 PCOD8113174
Probable space group: C 2/M
;
_chemical_formula_sum "Si O2"
_cell_formula_units_Z 36
_cell_length_a 18.899906
_cell_length_b 12.871012
_cell_length_c 7.632691
_cell_angle_alpha 90.000000
_cell_angle_beta 61.705766
_cell_angle_gamma 90.000000
_cell_volume 1634.902058
_symmetry_space_group_name_H-M "C 2/M"
_symmetry_group_IT_number 12
_symmetry_cell_setting 'monoclinic'
loop_
_space_group_symop_operation_xyz
x,y,z
-x,y,-z
-x,-y,-z
x,-y,z
1/2+x,1/2+y,z
1/2-x,1/2+y,-z
1/2-x,1/2-y,-z
1/2+x,1/2-y,z
loop_
_atom_site_type_symbol
_atom_site_label
_atom_site_fract_x
_atom_site_fract_y
_atom_site_fract_z
Si Si1 0.000000 0.727938 0.500000
Si Si2 0.880349 0.622118 0.893702
Si Si3 0.298619 0.619634 0.902598
Si Si4 0.612584 0.379732 0.549830
Si Si5 0.910010 0.801114 0.070231
O O1 0.064377 0.652241 0.334963
O O2 0.037410 0.803524 0.602676
O O3 0.881151 0.500000 0.926871
O O4 0.790224 0.666218 0.954456
O O5 0.909641 0.675849 0.042474
O O6 0.292372 0.500000 0.955956
O O7 0.318205 0.637897 0.674459
O O8 0.372682 0.661657 0.929589
O O9 0.584573 0.500000 0.584932
O O10 0.644423 0.343285 0.704467
O O11 0.000000 0.844003 0.000000
#
# Coordination Sequence:
#
# PCOD8113174 Si02
#       5
#     4   8   8   8   8
#     4  12  22  44  68 100 132 184 216 274 332 394
#     4  11  25  46  67  96 136 183 227 268 324 393
#     4  10  23  45  70  97 137 174 215 281 338 392
#     4  11  23  40  67 103 132 166 220 274 340 397
#     4  12  23  41  69 102 132 174 219 274 336 391
#
# _framework density 22.019667999999999
#
# number of rings (size 3 to 8) (size 9 to 14) (size 15 to 20)
#    0.000    0.889    4.444    2.000    0.000    4.889 
#    0.000    0.000    0.000    0.000    0.000    0.000 
#    0.000    0.000    0.000    0.000    0.000    0.000 
#
# Total GULP energy -223145.104801 kJ/mol
# GULP energy per Si atom -12396.950267 kJ/mol
# Density = 2.196955 g / cm^3
# Si number density = 22.019668 Si / 1000 Ang^3
#
#
#
# Elastic Constant Matrix: (Units=GPa)
#
#
# Indices 1 2 3 4 5 6 
#
# 1 98.5264 43.2797 65.7216 0.0000 -13.4361 0.0000
# 2 43.2797 80.8411 70.3919 0.0000 -3.7099 0.0000
# 3 65.7216 70.3919 144.9927 0.0000 0.6312 0.0000
# 4 0.0000 0.0000 0.0000 34.6169 0.0000 0.8122
# 5 -13.4361 -3.7099 0.6312 0.0000 41.5748 0.0000
# 6 0.0000 0.0000 0.0000 0.8122 0.0000 27.1777
#
#
#
# Elastic Compliance Matrix: (Units=1/GPa)
#
#
# Indices 1 2 3 4 5 6 
#
# 1 0.016122 -0.003500 -0.005630 0.000000 0.004984 0.000000
# 2 -0.003500 0.022368 -0.009277 0.000000 0.001006 0.000000
# 3 -0.005630 -0.009277 0.013965 0.000000 -0.002859 0.000000
# 4 0.000000 0.000000 0.000000 0.028908 0.000000 -0.000864
# 5 0.004984 0.001006 -0.002859 0.000000 0.025797 0.000000
# 6 0.000000 0.000000 0.000000 -0.000864 0.000000 0.036821
#
#
# Mechanical properties :
#
#
# Convention : Reuss Voigt Hill
#
# Bulk Modulus (GPa) = 63.93674 75.90519 69.92097
# Shear Modulus (GPa) = 26.88031 30.33835 28.60933
#
# Velocity S-wave (km/s) = 3.49770 3.71588 3.60844
# Velocity P-wave (km/s) = 6.73878 7.27714 7.01312
#
# Compressibility (1/GPa) = 0.01564046
#
# Stress axis : x y z
#
# Youngs Moduli (GPa) = 62.02582 44.70665 71.60573
#
# Poissons Ratio (x) = 0.15648 0.40316
# Poissons Ratio (y) = 0.21710 0.66430
# Poissons Ratio (z) = 0.34922 0.41475
#
# Static dielectric constant tensor:
#      x y z
#    x 3.885350 0.000000 -0.021890 
#    y 0.000000 4.229980 0.000000 
#    z -0.021890 0.000000 4.049310 
# 
# 
# High freq. dielectric constant tensor:
#      x y z
#    x 1.848900 0.000000 -0.005210 
#    y 0.000000 1.883620 0.000000 
#    z -0.005210 0.000000 1.874550 
# 
# From -- ./inp_files/72213.got.cif
#   From: 2010.06.25/outbox.cif.g09.slc.cpg/sg12_37_cif.got.tgz:72213.got - 2010.06.28 00:19:55.
