data_PCOD8113774
_publ_section_title
;
Structure prediction by ZEFSAII (Michael W. Deem and Ramdas Pophale) SiO2 
 PCOD8113774
Probable space group: C 2/M
;
_chemical_formula_sum "Si O2"
_cell_formula_units_Z 56
_cell_length_a 19.326734
_cell_length_b 9.152428
_cell_length_c 24.418469
_cell_angle_alpha 90.000000
_cell_angle_beta 47.926664
_cell_angle_gamma 90.000000
_cell_volume 3206.162430
_symmetry_space_group_name_H-M "C 2/M"
_symmetry_group_IT_number 12
_symmetry_cell_setting 'monoclinic'
loop_
_space_group_symop_operation_xyz
x,y,z
-x,y,-z
-x,-y,-z
x,-y,z
1/2+x,1/2+y,z
1/2-x,1/2+y,-z
1/2-x,1/2-y,-z
1/2+x,1/2-y,z
loop_
_atom_site_type_symbol
_atom_site_label
_atom_site_fract_x
_atom_site_fract_y
_atom_site_fract_z
Si Si1 0.643209 0.672701 0.895576
Si Si2 0.210081 0.172370 0.256162
Si Si3 0.477744 0.672876 0.699109
Si Si4 0.551062 0.326786 0.051460
Si Si5 0.297546 0.667014 0.307766
Si Si6 0.014026 0.168929 0.186331
Si Si7 0.315731 0.328466 0.422633
O O1 0.659141 0.500000 0.879348
O O2 0.729262 0.757737 0.824223
O O3 0.548963 0.728369 0.916848
O O4 0.633591 0.716132 0.965418
O O5 0.233327 0.231943 0.303882
O O6 0.102693 0.215459 0.300729
O O7 0.225083 0.000000 0.247200
O O8 0.486907 0.500000 0.702192
O O9 0.456190 0.740985 0.771364
O O10 0.578200 0.729425 0.624717
O O11 0.543992 0.500000 0.057551
O O12 0.566961 0.262678 0.104805
O O13 0.268272 0.500000 0.312920
O O14 0.404223 0.690851 0.234463
O O15 0.281785 0.710292 0.379322
O O16 0.039774 0.000000 0.175447
O O17 0.309796 0.500000 0.436271
O O18 0.250000 0.250000 0.500000
#
# Coordination Sequence:
#
# PCOD8113774 Si02
#       7
#     8   8   8   8   8   8   8
#     4   9  16  27  44  68  94 121 161 207 242 277
#     4  11  20  30  45  70 101 130 157 191 239 288
#     4   8  17  31  47  69  98 129 158 187 231 291
#     4   8  13  23  45  70  87 115 166 212 238 270
#     4   9  17  31  53  74  92 122 163 199 229 270
#     4   8  12  25  49  69  84 116 169 209 225 263
#     4   9  18  35  58  79  97 121 156 195 232 275
#
# _framework density 17.466365
#
# number of rings (size 3 to 8) (size 9 to 14) (size 15 to 20)
#    0.000    3.143    1.429    3.000    0.000    0.571 
#    0.000    4.286    0.000    6.000    0.000    0.000 
#    0.000    0.000    0.000    0.000    0.000    0.000 
#
# Total GULP energy -346888.562469 kJ/mol
# GULP energy per Si atom -12388.877231 kJ/mol
# Density = 1.742661 g / cm^3
# Si number density = 17.466365 Si / 1000 Ang^3
#
#
#
# Elastic Constant Matrix: (Units=GPa)
#
#
# Indices 1 2 3 4 5 6 
#
# 1 82.9430 39.2497 52.7600 -0.0001 1.8339 -0.0002
# 2 39.2497 43.4688 39.9686 -0.0002 1.7373 -0.0008
# 3 52.7600 39.9686 138.3374 0.0000 11.4952 0.0000
# 4 -0.0001 -0.0002 0.0000 25.2570 0.0000 0.2166
# 5 1.8339 1.7373 11.4952 0.0000 21.0944 0.0000
# 6 -0.0002 -0.0008 0.0000 0.2166 0.0000 19.0176
#
#
#
# Elastic Compliance Matrix: (Units=1/GPa)
#
#
# Indices 1 2 3 4 5 6 
#
# 1 0.022384 -0.016759 -0.003821 0.000000 0.001516 0.000000
# 2 -0.016759 0.043997 -0.006431 0.000000 0.001338 0.000002
# 3 -0.003821 -0.006431 0.010969 0.000000 -0.005116 0.000000
# 4 0.000000 0.000000 0.000000 0.039597 0.000000 -0.000451
# 5 0.001516 0.001338 -0.005116 0.000000 0.049952 0.000000
# 6 0.000000 0.000002 0.000000 -0.000451 0.000000 0.052588
#
#
# Mechanical properties :
#
#
# Convention : Reuss Voigt Hill
#
# Bulk Modulus (GPa) = 42.86651 58.74511 50.80581
# Shear Modulus (GPa) = 17.77560 21.92520 19.85040
#
# Velocity S-wave (km/s) = 3.19361 3.54684 3.37485
# Velocity P-wave (km/s) = 6.18017 7.10491 6.65861
#
# Compressibility (1/GPa) = 0.02332823
#
# Stress axis : x y z
#
# Youngs Moduli (GPa) = 44.67510 22.72882 91.16395
#
# Poissons Ratio (x) = 0.38090 0.34834
# Poissons Ratio (y) = 0.74869 0.58631
# Poissons Ratio (z) = 0.17070 0.14618
#
# Static dielectric constant tensor:
#      x y z
#    x 3.248680 0.000000 0.225500 
#    y 0.000000 2.798010 0.000000 
#    z 0.225500 0.000000 3.451340 
# 
# 
# High freq. dielectric constant tensor:
#      x y z
#    x 1.660930 0.000000 0.018200 
#    y 0.000000 1.628190 0.000000 
#    z 0.018200 0.000000 1.679490 
# 
# From -- ./inp_files/345475.got.cif
#   From: 2010.06.25/outbox.cif.g09.slc.cpg/sg12_173_cif.got.tgz:345475.got - 2010.06.28 00:19:55.
