data_PCOD8113467
_publ_section_title
;
Structure prediction by ZEFSAII (Michael W. Deem and Ramdas Pophale) SiO2 
 PCOD8113467
Probable space group: C 2/M
;
_chemical_formula_sum "Si O2"
_cell_formula_units_Z 64
_cell_length_a 14.163859
_cell_length_b 23.562272
_cell_length_c 17.966485
_cell_angle_alpha 90.000000
_cell_angle_beta 150.321288
_cell_angle_gamma 90.000000
_cell_volume 2968.836586
_symmetry_space_group_name_H-M "C 2/M"
_symmetry_group_IT_number 12
_symmetry_cell_setting 'monoclinic'
loop_
_space_group_symop_operation_xyz
x,y,z
-x,y,-z
-x,-y,-z
x,-y,z
1/2+x,1/2+y,z
1/2-x,1/2+y,-z
1/2-x,1/2-y,-z
1/2+x,1/2-y,z
loop_
_atom_site_type_symbol
_atom_site_label
_atom_site_fract_x
_atom_site_fract_y
_atom_site_fract_z
Si Si1 0.700846 0.808787 0.926512
Si Si2 0.398556 0.331542 0.794920
Si Si3 0.286255 0.124635 0.828712
Si Si4 0.606701 0.566711 0.408472
Si Si5 0.777099 0.256621 0.213203
Si Si6 0.804441 0.362916 0.674077
Si Si7 0.279040 0.061687 0.365596
Si Si8 0.681221 0.244974 0.537186
O O1 0.661792 0.792757 0.815392
O O2 0.528649 0.848385 0.834333
O O3 0.750000 0.750000 0.000000
O O4 0.882375 0.848133 0.066561
O O5 0.396854 0.286565 0.862293
O O6 0.299264 0.391235 0.744986
O O7 0.306667 0.304732 0.658187
O O8 0.271680 0.191581 0.838034
O O9 0.250970 0.111199 0.717512
O O10 0.108545 0.092530 0.746677
O O11 0.500000 0.103782 0.000000
O O12 0.589724 0.500000 0.413976
O O13 0.735332 0.594856 0.561902
O O14 0.723070 0.578240 0.412066
O O15 0.956631 0.266510 0.390890
O O16 0.703587 0.303017 0.596648
O O17 0.500000 0.059288 0.500000
O O18 0.189322 0.000000 0.286081
O O19 0.750000 0.250000 0.500000
#
# Coordination Sequence:
#
# PCOD8113467 Si02
#       8
#     8   8   8   8   8   8   8   8
#     4  12  24  40  61  98 145 184 219 274 352 413
#     4  12  24  38  65  99 138 175 224 281 343 412
#     4  12  26  42  69 102 144 185 225 283 349 415
#     4  11  27  49  73 100 134 182 239 291 338 400
#     4  12  23  39  61  99 143 180 223 281 344 418
#     4  12  24  42  65  97 137 185 229 277 340 409
#     4  10  24  47  75 102 131 176 235 292 342 399
#     4  12  21  36  60  94 129 177 226 275 338 403
#
# _framework density 21.557265999999998
#
# number of rings (size 3 to 8) (size 9 to 14) (size 15 to 20)
#    0.000    0.375    5.000    4.125    5.250    1.250 
#    0.000    0.625    0.000    1.500    0.000    0.000 
#    0.000    0.000    0.000    0.000    0.000    0.000 
#
# Total GULP energy -396626.103918 kJ/mol
# GULP energy per Si atom -12394.565747 kJ/mol
# Density = 2.150820 g / cm^3
# Si number density = 21.557266 Si / 1000 Ang^3
#
#
#
# Elastic Constant Matrix: (Units=GPa)
#
#
# Indices 1 2 3 4 5 6 
#
# 1 100.5759 27.2790 27.6881 0.0182 15.2510 -0.0001
# 2 27.2790 128.7761 33.2663 0.0026 7.7224 -0.0003
# 3 27.6881 33.2663 106.4059 0.0972 17.5265 0.0232
# 4 0.0182 0.0026 0.0972 17.8631 0.0374 5.7817
# 5 15.2510 7.7224 17.5265 0.0374 28.6575 0.0052
# 6 -0.0001 -0.0003 0.0232 5.7817 0.0052 28.3209
#
#
#
# Elastic Compliance Matrix: (Units=1/GPa)
#
#
# Indices 1 2 3 4 5 6 
#
# 1 0.011589 -0.001735 -0.001706 0.000007 -0.004657 0.000001
# 2 -0.001735 0.008721 -0.002269 0.000013 -0.000039 -0.000001
# 3 -0.001706 -0.002269 0.011455 -0.000049 -0.005486 0.000002
# 4 0.000007 0.000013 -0.000049 0.059943 -0.000053 -0.012237
# 5 -0.004657 -0.000039 -0.005486 -0.000053 0.040739 0.000008
# 6 0.000001 -0.000001 0.000002 -0.012237 0.000008 0.037808
#
#
# Mechanical properties :
#
#
# Convention : Reuss Voigt Hill
#
# Bulk Modulus (GPa) = 49.15047 56.91385 53.03216
# Shear Modulus (GPa) = 26.53132 31.46993 29.00062
#
# Velocity S-wave (km/s) = 3.51199 3.82492 3.67179
# Velocity P-wave (km/s) = 6.26856 6.77976 6.52917
#
# Compressibility (1/GPa) = 0.02034569
#
# Stress axis : x y z
#
# Youngs Moduli (GPa) = 86.28781 114.66108 87.29865
#
# Poissons Ratio (x) = 0.19893 0.14895
# Poissons Ratio (y) = 0.14971 0.19805
# Poissons Ratio (z) = 0.14723 0.26013
#
# Static dielectric constant tensor:
#      x y z
#    x 4.115170 0.000000 0.221130 
#    y 0.000000 4.027500 -0.000200 
#    z 0.221130 -0.000200 3.892780 
# 
# 
# High freq. dielectric constant tensor:
#      x y z
#    x 1.864920 0.000000 0.010650 
#    y 0.000000 1.822980 0.000000 
#    z 0.010650 0.000000 1.858410 
# 
# From -- ./inp_files/272884.got.cif
#   From: 2010.06.25/outbox.cif.g09.slc.cpg/sg12_137_cif.got.tgz:272884.got - 2010.06.28 00:19:55.
