data_PCOD8113375
_publ_section_title
;
Structure prediction by ZEFSAII (Michael W. Deem and Ramdas Pophale) SiO2 
 PCOD8113375
Probable space group: C 2/M
;
_chemical_formula_sum "Si O2"
_cell_formula_units_Z 40
_cell_length_a 23.987209
_cell_length_b 8.573436
_cell_length_c 9.593996
_cell_angle_alpha 90.000000
_cell_angle_beta 76.506949
_cell_angle_gamma 90.000000
_cell_volume 1918.572965
_symmetry_space_group_name_H-M "C 2/M"
_symmetry_group_IT_number 12
_symmetry_cell_setting 'monoclinic'
loop_
_space_group_symop_operation_xyz
x,y,z
-x,y,-z
-x,-y,-z
x,-y,z
1/2+x,1/2+y,z
1/2-x,1/2+y,-z
1/2-x,1/2-y,-z
1/2+x,1/2-y,z
loop_
_atom_site_type_symbol
_atom_site_label
_atom_site_fract_x
_atom_site_fract_y
_atom_site_fract_z
Si Si1 0.394226 0.817320 0.719520
Si Si2 0.986409 0.184665 0.853534
Si Si3 0.736833 0.815530 0.157316
Si Si4 0.415674 0.315964 0.412690
Si Si5 0.701470 0.816497 0.626394
O O1 0.424536 0.742682 0.836970
O O2 0.327454 0.770607 0.759263
O O3 0.423250 0.757116 0.560886
O O4 0.402222 0.000000 0.724713
O O5 0.033777 0.245829 0.716580
O O6 0.985954 0.000000 0.860240
O O7 0.000000 0.252247 0.000000
O O8 0.782098 0.724730 0.226181
O O9 0.747121 0.000000 0.159897
O O10 0.750000 0.750000 0.000000
O O11 0.418079 0.500000 0.429065
O O12 0.357227 0.266985 0.374791
O O13 0.750000 0.750000 0.500000
O O14 0.694770 0.000000 0.606680
#
# Coordination Sequence:
#
# PCOD8113375 Si02
#       5
#     8   8   8   8   8
#     4  11  24  42  65  94 127 167 213 262 319 378
#     4  10  24  44  65  93 126 165 211 263 321 379
#     4  11  25  43  64  95 132 172 213 261 320 381
#     4  11  23  41  67  95 126 169 215 262 316 378
#     4  12  24  41  66  97 131 168 212 262 316 380
#
# _framework density 20.84883
#
# number of rings (size 3 to 8) (size 9 to 14) (size 15 to 20)
#    0.000    1.000    2.000    4.200    2.800    6.800 
#    0.000    0.000    0.000    0.000    0.000    0.000 
#    0.000    0.000    0.000    0.000    0.000    0.000 
#
# Total GULP energy -248112.704433 kJ/mol
# GULP energy per Si atom -12405.635222 kJ/mol
# Density = 2.080138 g / cm^3
# Si number density = 20.848830 Si / 1000 Ang^3
#
#
#
# Elastic Constant Matrix: (Units=GPa)
#
#
# Indices 1 2 3 4 5 6 
#
# 1 75.2197 -13.4588 17.9804 0.0000 15.7899 0.0000
# 2 -13.4588 -58.6807 5.1721 0.0000 -20.3993 0.0000
# 3 17.9804 5.1721 130.3538 0.0000 15.5420 0.0000
# 4 0.0000 0.0000 0.0000 31.5878 0.0000 7.3577
# 5 15.7899 -20.3993 15.5420 0.0000 41.7394 0.0000
# 6 0.0000 0.0000 0.0000 7.3577 0.0000 36.4505
#
#
#
# Elastic Compliance Matrix: (Units=1/GPa)
#
#
# Indices 1 2 3 4 5 6 
#
# 1 0.014542 -0.001451 -0.001264 0.000000 -0.005740 0.000000
# 2 -0.001451 -0.014149 0.001591 0.000000 -0.006959 0.000000
# 3 -0.001264 0.001591 0.007988 0.000000 -0.001718 0.000000
# 4 0.000000 0.000000 0.000000 0.033220 0.000000 -0.006706
# 5 -0.005740 -0.006959 -0.001718 0.000000 0.023368 0.000000
# 6 0.000000 0.000000 0.000000 -0.006706 0.000000 0.028788
#
#
# Mechanical properties :
#
#
# Convention : Reuss Voigt Hill
#
# Bulk Modulus (GPa) = 163.07568 18.47556 90.77562
# Shear Modulus (GPa) = 50.99541 31.10216 41.04878
#
# Velocity S-wave (km/s) = 4.95103 3.86656 4.44202
# Velocity P-wave (km/s) = 10.53905 5.36793 8.36320
#
# Compressibility (1/GPa) = 0.00613212
#
# Stress axis : x y z
#
# Youngs Moduli (GPa) = 68.76772 -70.67530 125.19551
#
# Poissons Ratio (x) = -0.10257 0.15823
# Poissons Ratio (y) = 0.09980 -0.19922
# Poissons Ratio (z) = 0.08691 0.11246
#
# Static dielectric constant tensor:
#      x y z
#    x 4.719870 0.000000 0.248340 
#    y 0.000000 3.041390 0.000000 
#    z 0.248340 0.000000 4.087860 
# 
# 
# High freq. dielectric constant tensor:
#      x y z
#    x 1.829290 0.000000 0.009040 
#    y 0.000000 1.819220 0.000000 
#    z 0.009040 0.000000 1.830370 
# 
# From -- ./inp_files/92741.got.cif
#   From: 2010.06.25/outbox.cif.g09.slc.cpg/sg12_47_cif.got.tgz:92741.got - 2010.06.28 00:19:55.
