data_PCOD8113952
_publ_section_title
;
Structure prediction by ZEFSAII (Michael W. Deem and Ramdas Pophale) SiO2 
 PCOD8113952
Probable space group: C 2/M
;
_chemical_formula_sum "Si O2"
_cell_formula_units_Z 44
_cell_length_a 24.821682
_cell_length_b 18.275221
_cell_length_c 13.129186
_cell_angle_alpha 90.000000
_cell_angle_beta 157.899736
_cell_angle_gamma 90.000000
_cell_volume 2240.698246
_symmetry_space_group_name_H-M "C 2/M"
_symmetry_group_IT_number 12
_symmetry_cell_setting 'monoclinic'
loop_
_space_group_symop_operation_xyz
x,y,z
-x,y,-z
-x,-y,-z
x,-y,z
1/2+x,1/2+y,z
1/2-x,1/2+y,-z
1/2-x,1/2-y,-z
1/2+x,1/2-y,z
loop_
_atom_site_type_symbol
_atom_site_label
_atom_site_fract_x
_atom_site_fract_y
_atom_site_fract_z
Si Si1 0.500000 0.657045 0.500000
Si Si2 0.580696 0.349059 0.245448
Si Si3 0.064054 0.292400 0.337120
Si Si4 0.374573 0.083398 0.699392
Si Si5 0.257418 0.289635 0.195563
Si Si6 0.424887 0.584260 0.562319
O O1 0.642911 0.706484 0.731833
O O2 0.530228 0.606208 0.652888
O O3 0.578025 0.262697 0.265607
O O4 0.741023 0.377434 0.517144
O O5 0.505139 0.394028 0.206196
O O6 0.500000 0.365613 0.000000
O O7 0.081920 0.374426 0.327906
O O8 0.186453 0.276655 0.634895
O O9 0.909706 0.280172 0.121600
O O10 0.338057 0.000000 0.605445
O O11 0.500000 0.086817 0.000000
O O12 0.280756 0.366297 0.298224
O O13 0.382166 0.500000 0.483348
#
# Coordination Sequence:
#
# PCOD8113952 Si02
#       6
#     4   8   8   8   8   8
#     4   8  19  38  56  88 107 148 192 242 279 326
#     4  11  22  36  57  86 118 153 185 224 283 343
#     4  11  20  38  56  84 114 152 185 233 279 338
#     4  11  23  37  56  83 115 154 191 231 277 333
#     4   9  21  34  60  84 109 146 191 232 287 324
#     4   9  18  35  56  84 114 145 188 234 279 327
#
# _framework density 19.636735999999999
#
# number of rings (size 3 to 8) (size 9 to 14) (size 15 to 20)
#    1.091    0.909    0.000    5.182    0.000    4.364 
#    0.000    0.000    0.000    0.000    0.000    0.636 
#    0.000    0.000    0.000    0.000    0.000    0.000 
#
# Total GULP energy -272604.599121 kJ/mol
# GULP energy per Si atom -12391.118142 kJ/mol
# Density = 1.959204 g / cm^3
# Si number density = 19.636736 Si / 1000 Ang^3
#
#
#
# Elastic Constant Matrix: (Units=GPa)
#
#
# Indices 1 2 3 4 5 6 
#
# 1 109.5396 16.6395 30.5186 0.0000 10.2138 0.0000
# 2 16.6395 93.2526 12.3089 0.0000 17.2616 0.0000
# 3 30.5186 12.3089 59.6407 0.0000 15.1932 0.0000
# 4 0.0000 0.0000 0.0000 26.9980 0.0000 -48.3667
# 5 10.2138 17.2616 15.1932 0.0000 26.9173 0.0000
# 6 0.0000 0.0000 0.0000 -48.3667 0.0000 198.9861
#
#
#
# Elastic Compliance Matrix: (Units=1/GPa)
#
#
# Indices 1 2 3 4 5 6 
#
# 1 0.010786 -0.001163 -0.005170 0.000000 -0.000429 0.000000
# 2 -0.001163 0.012312 -0.000055 0.000000 -0.007424 0.000000
# 3 -0.005170 -0.000055 0.022092 0.000000 -0.010472 0.000000
# 4 0.000000 0.000000 0.000000 0.065609 0.000000 0.015947
# 5 -0.000429 -0.007424 -0.010472 0.000000 0.047985 0.000000
# 6 0.000000 0.000000 0.000000 0.015947 0.000000 0.008902
#
#
# Mechanical properties :
#
#
# Convention : Reuss Voigt Hill
#
# Bulk Modulus (GPa) = 30.85024 42.37409 36.61216
# Shear Modulus (GPa) = 26.14141 64.11135 45.12638
#
# Velocity S-wave (km/s) = 3.65259 5.72010 4.79901
# Velocity P-wave (km/s) = 5.79078 8.07787 7.02798
#
# Compressibility (1/GPa) = 0.03241466
#
# Stress axis : x y z
#
# Youngs Moduli (GPa) = 92.71123 81.21872 45.26565
#
# Poissons Ratio (x) = 0.09444 0.23403
# Poissons Ratio (y) = 0.10780 0.00249
# Poissons Ratio (z) = 0.47933 0.00446
#
# Static dielectric constant tensor:
#      x y z
#    x 3.631800 0.000000 0.095910 
#    y 0.000000 3.574110 0.000000 
#    z 0.095910 0.000000 3.295770 
# 
# 
# High freq. dielectric constant tensor:
#      x y z
#    x 1.769040 0.000000 0.008020 
#    y 0.000000 1.758260 0.000000 
#    z 0.008020 0.000000 1.738790 
# 
# From -- ./inp_files/247126.got.cif
#   From: 2010.06.25/outbox.cif.g09.slc.cpg/sg12_124_cif.got.tgz:247126.got - 2010.06.28 00:19:55.
