data_PCOD8113147
_publ_section_title
;
Structure prediction by ZEFSAII (Michael W. Deem and Ramdas Pophale) SiO2 
 PCOD8113147
Probable space group: C 2/M
;
_chemical_formula_sum "Si O2"
_cell_formula_units_Z 56
_cell_length_a 19.270079
_cell_length_b 8.408583
_cell_length_c 28.670394
_cell_angle_alpha 90.000000
_cell_angle_beta 146.109143
_cell_angle_gamma 90.000000
_cell_volume 2590.434355
_symmetry_space_group_name_H-M "C 2/M"
_symmetry_group_IT_number 12
_symmetry_cell_setting 'monoclinic'
loop_
_space_group_symop_operation_xyz
x,y,z
-x,y,-z
-x,-y,-z
x,-y,z
1/2+x,1/2+y,z
1/2-x,1/2+y,-z
1/2-x,1/2-y,-z
1/2+x,1/2-y,z
loop_
_atom_site_type_symbol
_atom_site_label
_atom_site_fract_x
_atom_site_fract_y
_atom_site_fract_z
Si Si1 0.305532 0.681334 0.827349
Si Si2 0.898335 0.815441 0.351193
Si Si3 0.338487 0.814885 0.508875
Si Si4 0.762771 0.812505 0.367037
Si Si5 0.485799 0.814685 0.198449
Si Si6 0.249288 0.184947 0.893515
Si Si7 0.430579 0.315356 0.069385
O O1 0.266366 0.500000 0.795756
O O2 0.213030 0.795537 0.747600
O O3 0.302478 0.717992 0.880027
O O4 0.446089 0.714453 0.891382
O O5 0.854481 0.748457 0.377429
O O6 0.017589 0.719083 0.398978
O O7 0.934749 0.000000 0.374699
O O8 0.250000 0.750000 0.500000
O O9 0.311631 0.732559 0.444789
O O10 0.313702 0.000000 0.490418
O O11 0.624448 0.743438 0.281996
O O12 0.756788 0.000000 0.358554
O O13 0.398251 0.717291 0.185012
O O14 0.439257 0.789275 0.120277
O O15 0.480080 0.000000 0.208281
O O16 0.276962 0.000000 0.902243
O O17 0.312741 0.252133 0.975374
O O18 0.411802 0.500000 0.071887
#
# Coordination Sequence:
#
# PCOD8113147 Si02
#       7
#     8   8   8   8   8   8   8
#     4  11  24  42  66  96 131 170 216 270 325 385
#     4  11  23  44  71  99 132 170 215 263 320 388
#     4  12  27  45  69 100 136 173 214 264 321 381
#     4  10  23  44  70  98 131 171 215 264 321 386
#     4  11  23  42  67  95 130 171 218 269 325 386
#     4  12  26  41  62  92 131 175 221 271 327 385
#     4  11  23  42  66  94 129 169 219 272 326 387
#
# _framework density 21.617995000000001
#
# number of rings (size 3 to 8) (size 9 to 14) (size 15 to 20)
#    0.000    0.857    1.429    5.571    2.000    7.429 
#    0.000    0.000    0.000    0.000    0.000    0.000 
#    0.000    0.000    0.000    0.000    0.000    0.000 
#
# Total GULP energy -347396.483187 kJ/mol
# GULP energy per Si atom -12407.017257 kJ/mol
# Density = 2.156879 g / cm^3
# Si number density = 21.617995 Si / 1000 Ang^3
#
#
#
# Elastic Constant Matrix: (Units=GPa)
#
#
# Indices 1 2 3 4 5 6 
#
# 1 69.9353 27.7552 1.1808 0.0000 21.1974 0.0002
# 2 27.7552 33.8396 11.5517 -0.0001 11.2162 0.0011
# 3 1.1808 11.5517 69.2095 0.0000 13.2676 0.0002
# 4 0.0000 -0.0001 0.0000 35.0334 0.0000 -1.6809
# 5 21.1974 11.2162 13.2676 0.0000 40.0584 -0.0001
# 6 0.0002 0.0011 0.0002 -1.6809 -0.0001 31.4111
#
#
#
# Elastic Compliance Matrix: (Units=1/GPa)
#
#
# Indices 1 2 3 4 5 6 
#
# 1 0.024309 -0.018405 0.004416 0.000000 -0.009173 0.000000
# 2 -0.018405 0.047547 -0.007407 0.000000 -0.001120 -0.000002
# 3 0.004416 -0.007407 0.016722 0.000000 -0.005801 0.000000
# 4 0.000000 0.000000 0.000000 0.028618 0.000000 0.001531
# 5 -0.009173 -0.001120 -0.005801 0.000000 0.032052 0.000000
# 6 0.000000 -0.000002 0.000000 0.001531 0.000000 0.031918
#
#
# Mechanical properties :
#
#
# Convention : Reuss Voigt Hill
#
# Bulk Modulus (GPa) = 21.84159 28.21776 25.02967
# Shear Modulus (GPa) = 20.90114 30.13368 25.51741
#
# Velocity S-wave (km/s) = 3.11278 3.73757 3.43939
# Velocity P-wave (km/s) = 4.80047 5.63091 5.23219
#
# Compressibility (1/GPa) = 0.04578422
#
# Stress axis : x y z
#
# Youngs Moduli (GPa) = 41.13683 21.03176 59.80164
#
# Poissons Ratio (x) = 0.38710 -0.26406
# Poissons Ratio (y) = 0.75714 0.44297
# Poissons Ratio (z) = -0.18165 0.15579
#
# Static dielectric constant tensor:
#      x y z
#    x 4.162920 0.000000 0.215150 
#    y 0.000000 3.810140 0.000000 
#    z 0.215150 0.000000 3.853780 
# 
# 
# High freq. dielectric constant tensor:
#      x y z
#    x 1.866640 0.000000 0.008260 
#    y 0.000000 1.847770 0.000000 
#    z 0.008260 0.000000 1.854580 
# 
# From -- ./inp_files/363229.got.cif
#   From: 2010.06.25/outbox.cif.g09.slc.cpg/sg12_182_cif.got.tgz:363229.got - 2010.06.28 00:19:55.
