data_PCOD8113842
_publ_section_title
;
Structure prediction by ZEFSAII (Michael W. Deem and Ramdas Pophale) SiO2 
 PCOD8113842
Probable space group: C 2/M
;
_chemical_formula_sum "Si O2"
_cell_formula_units_Z 64
_cell_length_a 15.087421
_cell_length_b 27.267504
_cell_length_c 9.837059
_cell_angle_alpha 90.000000
_cell_angle_beta 122.534391
_cell_angle_gamma 90.000000
_cell_volume 3411.840197
_symmetry_space_group_name_H-M "C 2/M"
_symmetry_group_IT_number 12
_symmetry_cell_setting 'monoclinic'
loop_
_space_group_symop_operation_xyz
x,y,z
-x,y,-z
-x,-y,-z
x,-y,z
1/2+x,1/2+y,z
1/2-x,1/2+y,-z
1/2-x,1/2-y,-z
1/2+x,1/2-y,z
loop_
_atom_site_type_symbol
_atom_site_label
_atom_site_fract_x
_atom_site_fract_y
_atom_site_fract_z
Si Si1 0.398239 0.555418 0.603965
Si Si2 0.723448 0.652033 0.881115
Si Si3 0.865792 0.945047 0.260262
Si Si4 0.792092 0.148432 0.623552
Si Si5 0.564684 0.200142 0.930264
Si Si6 0.111256 0.190270 0.039449
Si Si7 0.074929 0.691091 0.447353
Si Si8 0.615076 0.298988 0.548001
O O1 0.367704 0.500000 0.621486
O O2 0.523082 0.563430 0.724024
O O3 0.373652 0.564853 0.426603
O O4 0.329837 0.591986 0.641635
O O5 0.718894 0.593189 0.866601
O O6 0.702234 0.678886 0.720559
O O7 0.838686 0.665386 0.030607
O O8 0.633926 0.668973 0.910613
O O9 0.825114 0.000000 0.198172
O O10 0.802722 0.170025 0.783894
O O11 0.668138 0.153536 0.484537
O O12 0.864278 0.181086 0.585215
O O13 0.490923 0.206875 0.739174
O O14 0.500000 0.175202 0.000000
O O15 0.611233 0.251123 0.025320
O O16 0.000000 0.170222 0.000000
O O17 0.124642 0.740305 0.553656
O O18 0.000000 0.666559 0.500000
O O19 0.500000 0.316792 0.500000
#
# Coordination Sequence:
#
# PCOD8113842 Si02
#       8
#     8   8   8   8   8   8   8   8
#     4   9  18  34  57  86 111 132 172 229 280 328
#     4  12  21  35  58  79 109 152 183 217 278 329
#     4   9  18  34  57  86 112 133 170 228 283 329
#     4  12  21  35  58  81 108 149 187 222 270 329
#     4  11  23  38  51  76 115 150 187 228 265 307
#     4  11  22  35  51  81 118 145 175 223 276 329
#     4  11  23  38  53  76 112 152 194 228 256 309
#     4  11  20  33  55  83 106 139 190 226 266 325
#
# _framework density 18.758206000000001
#
# number of rings (size 3 to 8) (size 9 to 14) (size 15 to 20)
#    0.000    1.250    1.250    9.000    0.000    0.000 
#    0.000    0.625    0.000    3.750    0.000    0.000 
#    0.000    0.000    0.000    0.000    0.000    0.000 
#
# Total GULP energy -396862.685326 kJ/mol
# GULP energy per Si atom -12401.958916 kJ/mol
# Density = 1.871551 g / cm^3
# Si number density = 18.758206 Si / 1000 Ang^3
#
#
#
# Elastic Constant Matrix: (Units=GPa)
#
#
# Indices 1 2 3 4 5 6 
#
# 1 88.9212 51.7578 22.5747 0.0000 -0.4154 0.0000
# 2 51.7578 114.4611 39.5914 0.0000 12.1409 0.0000
# 3 22.5747 39.5914 64.2038 0.0000 2.3801 0.0000
# 4 0.0000 0.0000 0.0000 17.0138 0.0000 3.4178
# 5 -0.4154 12.1409 2.3801 0.0000 27.9801 0.0000
# 6 0.0000 0.0000 0.0000 3.4178 0.0000 21.8936
#
#
#
# Elastic Compliance Matrix: (Units=1/GPa)
#
#
# Indices 1 2 3 4 5 6 
#
# 1 0.015662 -0.006981 -0.001327 0.000000 0.003375 0.000000
# 2 -0.006981 0.014745 -0.006417 0.000000 -0.005956 0.000000
# 3 -0.001327 -0.006417 0.019959 0.000000 0.001067 0.000000
# 4 0.000000 0.000000 0.000000 0.060679 0.000000 -0.009472
# 5 0.003375 -0.005956 0.001067 0.000000 0.038283 0.000000
# 6 0.000000 0.000000 0.000000 -0.009472 0.000000 0.047154
#
#
# Mechanical properties :
#
#
# Convention : Reuss Voigt Hill
#
# Bulk Modulus (GPa) = 47.81048 55.04823 51.42935
# Shear Modulus (GPa) = 21.46805 23.62165 22.54485
#
# Velocity S-wave (km/s) = 3.38666 3.55247 3.47056
# Velocity P-wave (km/s) = 6.39028 6.79975 6.59820
#
# Compressibility (1/GPa) = 0.02091592
#
# Stress axis : x y z
#
# Youngs Moduli (GPa) = 63.84868 67.82137 50.10149
#
# Poissons Ratio (x) = 0.47346 0.06649
# Poissons Ratio (y) = 0.44573 0.32150
# Poissons Ratio (z) = 0.08474 0.43520
#
# Static dielectric constant tensor:
#      x y z
#    x 3.515400 0.000000 -0.065190 
#    y 0.000000 3.332780 0.000000 
#    z -0.065190 0.000000 3.285830 
# 
# 
# High freq. dielectric constant tensor:
#      x y z
#    x 1.726460 0.000000 -0.009630 
#    y 0.000000 1.704030 0.000000 
#    z -0.009630 0.000000 1.720430 
# 
# From -- ./inp_files/68277.got.cif
#   From: 2010.06.25/outbox.cif.g09.slc.cpg/sg12_35_cif.got.tgz:68277.got - 2010.06.28 00:19:55.
