data_PCOD8113449
_publ_section_title
;
Structure prediction by ZEFSAII (Michael W. Deem and Ramdas Pophale) SiO2 
 PCOD8113449
Probable space group: C 2/M
;
_chemical_formula_sum "Si O2"
_cell_formula_units_Z 36
_cell_length_a 10.730429
_cell_length_b 24.511167
_cell_length_c 6.645445
_cell_angle_alpha 90.000000
_cell_angle_beta 106.194701
_cell_angle_gamma 90.000000
_cell_volume 1678.498211
_symmetry_space_group_name_H-M "C 2/M"
_symmetry_group_IT_number 12
_symmetry_cell_setting 'monoclinic'
loop_
_space_group_symop_operation_xyz
x,y,z
-x,y,-z
-x,-y,-z
x,-y,z
1/2+x,1/2+y,z
1/2-x,1/2+y,-z
1/2-x,1/2-y,-z
1/2+x,1/2-y,z
loop_
_atom_site_type_symbol
_atom_site_label
_atom_site_fract_x
_atom_site_fract_y
_atom_site_fract_z
Si Si1 0.146869 0.715387 0.331240
Si Si2 0.863522 0.610805 0.413396
Si Si3 0.500000 0.289785 0.000000
Si Si4 0.649226 0.563834 0.595954
Si Si5 0.239921 0.853970 0.962937
O O1 0.250000 0.750000 0.500000
O O2 0.104208 0.665277 0.446895
O O3 0.024814 0.753415 0.212590
O O4 0.204243 0.694670 0.145852
O O5 0.737664 0.579243 0.442726
O O6 0.000000 0.576979 0.500000
O O7 0.843927 0.624518 0.170793
O O8 0.379506 0.329600 0.970014
O O9 0.500000 0.582203 0.500000
O O10 0.658474 0.500000 0.640624
O O11 0.701432 0.593884 0.814994
#
# Coordination Sequence:
#
# PCOD8113449 Si02
#       5
#     8   8   4   8   8
#     4  11  24  37  57  92 133 175 211 262 315 382
#     4  11  24  43  65  95 134 170 218 270 323 388
#     4  12  22  38  65  90 131 178 222 260 316 382
#     4  10  24  46  70  96 127 165 216 278 333 385
#     4  11  24  41  62  97 125 172 220 264 320 390
#
# _framework density 21.447742999999999
#
# number of rings (size 3 to 8) (size 9 to 14) (size 15 to 20)
#    0.000    1.111    2.222    3.333    6.222    4.000 
#    0.000    3.889    0.000    0.000    0.000    0.000 
#    0.000    0.000    0.000    0.000    0.000    0.000 
#
# Total GULP energy -223207.532451 kJ/mol
# GULP energy per Si atom -12400.418469 kJ/mol
# Density = 2.139893 g / cm^3
# Si number density = 21.447743 Si / 1000 Ang^3
#
#
#
# Elastic Constant Matrix: (Units=GPa)
#
#
# Indices 1 2 3 4 5 6 
#
# 1 129.1537 20.0385 42.6293 0.0000 10.8836 0.0000
# 2 20.0385 68.2662 30.8768 0.0000 6.0410 0.0000
# 3 42.6293 30.8768 150.0611 0.0000 17.9186 0.0000
# 4 0.0000 0.0000 0.0000 30.8904 0.0000 5.4118
# 5 10.8836 6.0410 17.9186 0.0000 39.4038 0.0000
# 6 0.0000 0.0000 0.0000 5.4118 0.0000 23.0117
#
#
#
# Elastic Compliance Matrix: (Units=1/GPa)
#
#
# Indices 1 2 3 4 5 6 
#
# 1 0.008755 -0.001545 -0.002018 0.000000 -0.001264 0.000000
# 2 -0.001545 0.016463 -0.002853 0.000000 -0.000800 0.000000
# 3 -0.002018 -0.002853 0.008148 0.000000 -0.002710 0.000000
# 4 0.000000 0.000000 0.000000 0.033764 0.000000 -0.007940
# 5 -0.001264 -0.000800 -0.002710 0.000000 0.027082 0.000000
# 6 0.000000 0.000000 0.000000 -0.007940 0.000000 0.045324
#
#
# Mechanical properties :
#
#
# Convention : Reuss Voigt Hill
#
# Bulk Modulus (GPa) = 48.70151 59.39668 54.04910
# Shear Modulus (GPa) = 31.40434 35.59026 33.49730
#
# Velocity S-wave (km/s) = 3.83067 4.07799 3.95626
# Velocity P-wave (km/s) = 6.50552 7.06591 6.79150
#
# Compressibility (1/GPa) = 0.02053325
#
# Stress axis : x y z
#
# Youngs Moduli (GPa) = 114.21888 60.74105 122.72949
#
# Poissons Ratio (x) = 0.09386 0.24771
# Poissons Ratio (y) = 0.17649 0.35015
# Poissons Ratio (z) = 0.23053 0.17330
#
# Static dielectric constant tensor:
#      x y z
#    x 4.014460 0.000000 0.096120 
#    y 0.000000 3.753570 0.000000 
#    z 0.096120 0.000000 3.983190 
# 
# 
# High freq. dielectric constant tensor:
#      x y z
#    x 1.853490 0.000000 0.008080 
#    y 0.000000 1.828500 0.000000 
#    z 0.008080 0.000000 1.855280 
# 
# From -- ./inp_files/7431.got.cif
#   From: 2010.06.25/outbox.cif.g09.slc.cpg/sg12_4_cif.got.tgz:7431.got - 2010.06.28 00:19:55.
