data_PCOD8113541
_publ_section_title
;
Structure prediction by ZEFSAII (Michael W. Deem and Ramdas Pophale) SiO2 
 PCOD8113541
Probable space group: C 2/M
;
_chemical_formula_sum "Si O2"
_cell_formula_units_Z 24
_cell_length_a 6.994635
_cell_length_b 15.943782
_cell_length_c 10.201553
_cell_angle_alpha 90.000000
_cell_angle_beta 120.173623
_cell_angle_gamma 90.000000
_cell_volume 983.537331
_symmetry_space_group_name_H-M "C 2/M"
_symmetry_group_IT_number 12
_symmetry_cell_setting 'monoclinic'
loop_
_space_group_symop_operation_xyz
x,y,z
-x,y,-z
-x,-y,-z
x,-y,z
1/2+x,1/2+y,z
1/2-x,1/2+y,-z
1/2-x,1/2-y,-z
1/2+x,1/2-y,z
loop_
_atom_site_type_symbol
_atom_site_label
_atom_site_fract_x
_atom_site_fract_y
_atom_site_fract_z
Si Si1 0.626262 0.000000 0.904036
Si Si2 0.500000 0.201064 0.500000
Si Si3 0.000000 0.865281 0.000000
Si Si4 0.967831 0.166354 0.705597
Si Si5 0.161261 0.000000 0.676465
O O1 0.776044 0.919219 0.930690
O O2 0.422050 0.000000 0.728661
O O3 0.500000 0.000000 0.000000
O O4 0.720000 0.145218 0.564261
O O5 0.444741 0.258250 0.353752
O O6 0.978550 0.807345 0.862722
O O7 0.111760 0.082222 0.745837
O O8 0.000000 0.000000 0.500000
#
# Coordination Sequence:
#
# PCOD8113541 Si02
#       5
#     4   4   4   8   4
#     4  11  22  43  66 109 148 165 230 300 344 411
#     4  10  26  46  64  98 152 182 234 286 336 432
#     4  11  24  42  72 104 138 187 226 288 352 407
#     4  11  24  45  68 102 139 188 232 286 350 406
#     4  12  24  41  75 102 131 184 230 286 349 401
#
# _framework density 24.401717999999999
#
# number of rings (size 3 to 8) (size 9 to 14) (size 15 to 20)
#    0.000    1.000    5.000    1.000    4.667    2.000 
#    0.000    0.000    0.000    0.000    0.000    0.000 
#    0.000    0.000    0.000    0.000    0.000    0.000 
#
# Total GULP energy -148733.811876 kJ/mol
# GULP energy per Si atom -12394.484323 kJ/mol
# Density = 2.434618 g / cm^3
# Si number density = 24.401718 Si / 1000 Ang^3
#
#
#
# Elastic Constant Matrix: (Units=GPa)
#
#
# Indices 1 2 3 4 5 6 
#
# 1 124.8322 25.4917 52.6604 0.0000 22.2755 0.0000
# 2 25.4917 54.4833 28.3476 0.0000 4.0591 0.0000
# 3 52.6604 28.3476 165.7874 0.0000 -11.2853 0.0000
# 4 0.0000 0.0000 0.0000 5.6883 0.0000 9.9931
# 5 22.2755 4.0591 -11.2853 0.0000 73.8895 0.0000
# 6 0.0000 0.0000 0.0000 9.9931 0.0000 1.4456
#
#
#
# Elastic Compliance Matrix: (Units=1/GPa)
#
#
# Indices 1 2 3 4 5 6 
#
# 1 0.010553 -0.003086 -0.003061 0.000000 -0.003480 0.000000
# 2 -0.003086 0.021250 -0.002698 0.000000 -0.000649 0.000000
# 3 -0.003061 -0.002698 0.007618 0.000000 0.002235 0.000000
# 4 0.000000 0.000000 0.000000 -0.015775 0.000000 0.109048
# 5 -0.003480 -0.000649 0.002235 0.000000 0.014960 0.000000
# 6 0.000000 0.000000 0.000000 0.109048 0.000000 -0.062072
#
#
# Mechanical properties :
#
#
# Convention : Reuss Voigt Hill
#
# Bulk Modulus (GPa) = 46.01590 62.01138 54.01364
# Shear Modulus (GPa) = 3411.85888 32.11156 1721.98522
#
# Velocity S-wave (km/s) = 37.43314 3.63154 26.59349
# Velocity P-wave (km/s) = 43.44213 6.56140 31.06662
#
# Compressibility (1/GPa) = 0.02173162
#
# Stress axis : x y z
#
# Youngs Moduli (GPa) = 94.75805 47.05920 131.27524
#
# Poissons Ratio (x) = 0.14521 0.40188
# Poissons Ratio (y) = 0.29238 0.35412
# Poissons Ratio (z) = 0.29009 0.12694
#
# Static dielectric constant tensor:
#      x y z
#    x 4.852830 0.000000 0.167050 
#    y 0.000000 4.080280 0.000000 
#    z 0.167050 0.000000 4.680640 
# 
# 
# High freq. dielectric constant tensor:
#      x y z
#    x 1.984830 0.000000 0.009620 
#    y 0.000000 1.927580 0.000000 
#    z 0.009620 0.000000 1.992250 
# 
# From -- ./inp_files/118368.got.cif
#   From: 2010.06.25/outbox.cif.g09.slc.cpg/sg12_60_cif.got.tgz:118368.got - 2010.06.28 00:19:55.
