data_PCOD8113919
_publ_section_title
;
Structure prediction by ZEFSAII (Michael W. Deem and Ramdas Pophale) SiO2 
 PCOD8113919
Probable space group: C 2/M
;
_chemical_formula_sum "Si O2"
_cell_formula_units_Z 44
_cell_length_a 11.602696
_cell_length_b 18.015937
_cell_length_c 12.794225
_cell_angle_alpha 90.000000
_cell_angle_beta 117.428693
_cell_angle_gamma 90.000000
_cell_volume 2373.775341
_symmetry_space_group_name_H-M "C 2/M"
_symmetry_group_IT_number 12
_symmetry_cell_setting 'monoclinic'
loop_
_space_group_symop_operation_xyz
x,y,z
-x,y,-z
-x,-y,-z
x,-y,z
1/2+x,1/2+y,z
1/2-x,1/2+y,-z
1/2-x,1/2-y,-z
1/2+x,1/2-y,z
loop_
_atom_site_type_symbol
_atom_site_label
_atom_site_fract_x
_atom_site_fract_y
_atom_site_fract_z
Si Si1 0.468025 0.500000 0.160754
Si Si2 0.243167 0.000000 0.378468
Si Si3 0.704667 0.000000 0.156941
Si Si4 0.263765 0.799705 0.143286
Si Si5 0.387795 0.000000 0.644546
Si Si6 0.073314 0.378980 0.631652
Si Si7 0.500000 0.619115 0.000000
Si Si8 0.641102 0.844395 0.032343
O O1 0.594397 0.500000 0.284994
O O2 0.357850 0.500000 0.202580
O O3 0.453781 0.570996 0.079725
O O4 0.308080 0.071188 0.355216
O O5 0.266739 0.000000 0.513232
O O6 0.670687 0.000000 0.264624
O O7 0.646273 0.927278 0.078528
O O8 0.358343 0.810865 0.281200
O O9 0.251612 0.710809 0.125111
O O10 0.339049 0.843052 0.083186
O O11 0.119350 0.832551 0.092274
O O12 0.475016 0.926610 0.662594
O O13 0.000000 0.346232 0.500000
O O14 0.500000 0.811456 0.000000
#
# Coordination Sequence:
#
# PCOD8113919 Si02
#       8
#     4   4   4   8   4   8   4   8
#     4  11  21  32  58  87 113 149 193 230 278 345
#     4   9  17  33  58  86 109 148 191 240 275 322
#     4  12  23  38  53  82 118 155 186 219 289 353
#     4  11  21  38  61  84 112 148 187 237 287 329
#     4   9  20  35  57  84 116 151 189 229 280 336
#     4   9  18  35  62  87 108 142 195 244 276 318
#     4  11  20  36  58  87 114 142 192 243 280 326
#     4  11  24  37  56  84 117 149 183 228 289 345
#
# _framework density 18.535874
#
# number of rings (size 3 to 8) (size 9 to 14) (size 15 to 20)
#    0.000    1.636    4.545    2.455    0.000    1.818 
#    0.000    0.000    4.000    3.273    0.000    0.000 
#    0.000    0.000    0.000    0.000    0.000    0.000 
#
# Total GULP energy -272708.676708 kJ/mol
# GULP energy per Si atom -12395.848941 kJ/mol
# Density = 1.849369 g / cm^3
# Si number density = 18.535874 Si / 1000 Ang^3
#
#
#
# Elastic Constant Matrix: (Units=GPa)
#
#
# Indices 1 2 3 4 5 6 
#
# 1 108.1671 14.4160 54.2773 0.0000 -6.8020 0.0000
# 2 14.4160 87.7117 56.7774 0.0000 -1.6116 0.0000
# 3 54.2773 56.7774 132.5871 0.0000 8.2677 0.0000
# 4 0.0000 0.0000 0.0000 27.9785 0.0000 9.1874
# 5 -6.8020 -1.6116 8.2677 0.0000 40.1512 0.0000
# 6 0.0000 0.0000 0.0000 9.1874 0.0000 21.0400
#
#
#
# Elastic Compliance Matrix: (Units=1/GPa)
#
#
# Indices 1 2 3 4 5 6 
#
# 1 0.012242 0.001981 -0.006072 0.000000 0.003404 0.000000
# 2 0.001981 0.016262 -0.007939 0.000000 0.002623 0.000000
# 3 -0.006072 -0.007939 0.013687 0.000000 -0.004166 0.000000
# 4 0.000000 0.000000 0.000000 0.041725 0.000000 -0.018220
# 5 0.003404 0.002623 -0.004166 0.000000 0.026446 0.000000
# 6 0.000000 0.000000 0.000000 -0.018220 0.000000 0.055484
#
#
# Mechanical properties :
#
#
# Convention : Reuss Voigt Hill
#
# Bulk Modulus (GPa) = 55.15003 64.37859 59.76431
# Shear Modulus (GPa) = 25.51685 31.36695 28.44190
#
# Velocity S-wave (km/s) = 3.71431 4.11813 3.92142
# Velocity P-wave (km/s) = 6.94352 7.57755 7.26746
#
# Compressibility (1/GPa) = 0.01813236
#
# Stress axis : x y z
#
# Youngs Moduli (GPa) = 81.68683 61.49177 73.06106
#
# Poissons Ratio (x) = -0.12182 0.44363
# Poissons Ratio (y) = -0.16183 0.58000
# Poissons Ratio (z) = 0.49601 0.48815
#
# Static dielectric constant tensor:
#      x y z
#    x 3.459700 0.000000 0.017480 
#    y 0.000000 3.293960 0.000000 
#    z 0.017480 0.000000 3.410280 
# 
# 
# High freq. dielectric constant tensor:
#      x y z
#    x 1.726110 0.000000 0.003570 
#    y 0.000000 1.708660 0.000000 
#    z 0.003570 0.000000 1.712750 
# 
# From -- ./inp_files/131344.got.cif
#   From: 2010.06.25/outbox.cif.g09.slc.cpg/sg12_66_cif.got.tgz:131344.got - 2010.06.28 00:19:55.
