data_PCOD8113580
_publ_section_title
;
Structure prediction by ZEFSAII (Michael W. Deem and Ramdas Pophale) SiO2 
 PCOD8113580
Probable space group: C 2/M
;
_chemical_formula_sum "Si O2"
_cell_formula_units_Z 48
_cell_length_a 16.363123
_cell_length_b 18.783377
_cell_length_c 17.096009
_cell_angle_alpha 90.000000
_cell_angle_beta 147.145948
_cell_angle_gamma 90.000000
_cell_volume 2850.592308
_symmetry_space_group_name_H-M "C 2/M"
_symmetry_group_IT_number 12
_symmetry_cell_setting 'monoclinic'
loop_
_space_group_symop_operation_xyz
x,y,z
-x,y,-z
-x,-y,-z
x,-y,z
1/2+x,1/2+y,z
1/2-x,1/2+y,-z
1/2-x,1/2-y,-z
1/2+x,1/2-y,z
loop_
_atom_site_type_symbol
_atom_site_label
_atom_site_fract_x
_atom_site_fract_y
_atom_site_fract_z
Si Si1 0.340651 0.176614 0.566213
Si Si2 0.531807 0.793391 0.855891
Si Si3 0.422957 0.765318 0.358452
Si Si4 0.903941 0.083300 0.704000
Si Si5 0.388781 0.321427 0.842466
Si Si6 0.155283 0.828574 0.842531
O O1 0.250000 0.250000 0.500000
O O2 0.420089 0.158579 0.713311
O O3 0.461961 0.183490 0.594716
O O4 0.228827 0.112319 0.457988
O O5 0.440222 0.755578 0.851546
O O6 0.598334 0.734043 0.852261
O O7 0.666212 0.840981 0.000401
O O8 0.500000 0.738152 0.500000
O O9 0.278182 0.814219 0.257865
O O10 0.377023 0.695093 0.272502
O O11 0.892519 0.118520 0.779640
O O12 0.064168 0.100202 0.791299
O O13 0.885726 0.000000 0.699377
O O14 0.500000 0.347021 0.000000
#
# Coordination Sequence:
#
# PCOD8113580 Si02
#       6
#     8   8   8   8   8   8
#     4  11  18  34  55  78 105 144 192 231 261 319
#     4   9  17  31  53  80 104 131 186 242 265 304
#     4  11  18  29  54  88 105 131 180 239 274 308
#     4  11  23  38  53  77 118 156 183 217 274 341
#     4  11  20  32  54  85 113 140 178 227 284 323
#     4   9  18  32  53  78 103 139 186 231 266 313
#
# _framework density 16.838605999999999
#
# number of rings (size 3 to 8) (size 9 to 14) (size 15 to 20)
#    0.000    1.667    8.333    0.000    2.333    0.333 
#    0.000    2.500    0.000    0.500    0.000    1.167 
#    0.000    0.000    0.000    0.000    0.000    0.000 
#
# Total GULP energy -297582.131774 kJ/mol
# GULP energy per Si atom -12399.255491 kJ/mol
# Density = 1.680028 g / cm^3
# Si number density = 16.838606 Si / 1000 Ang^3
#
#
#
# Elastic Constant Matrix: (Units=GPa)
#
#
# Indices 1 2 3 4 5 6 
#
# 1 67.1696 49.9804 43.3916 -0.0051 12.3079 -0.0033
# 2 49.9804 74.4898 45.0937 -0.0016 5.9882 -0.0016
# 3 43.3916 45.0937 144.0202 -0.0087 2.5313 -0.0071
# 4 -0.0051 -0.0016 -0.0087 16.0172 -0.0031 1.2481
# 5 12.3079 5.9882 2.5313 -0.0031 32.8559 -0.0023
# 6 -0.0033 -0.0016 -0.0071 1.2481 -0.0023 12.7300
#
#
#
# Elastic Compliance Matrix: (Units=1/GPa)
#
#
# Indices 1 2 3 4 5 6 
#
# 1 0.033368 -0.019369 -0.003836 0.000005 -0.008674 0.000002
# 2 -0.019369 0.028036 -0.002984 -0.000004 0.002376 -0.000002
# 3 -0.003836 -0.002984 0.009011 0.000003 0.001287 0.000004
# 4 0.000005 -0.000004 0.000003 0.062913 0.000004 -0.006168
# 5 -0.008674 0.002376 0.001287 0.000004 0.033153 0.000004
# 6 0.000002 -0.000002 0.000004 -0.006168 0.000004 0.079160
#
#
# Mechanical properties :
#
#
# Convention : Reuss Voigt Hill
#
# Bulk Modulus (GPa) = 55.44575 62.51232 58.97904
# Shear Modulus (GPa) = 16.44558 22.13487 19.29022
#
# Velocity S-wave (km/s) = 3.12855 3.62958 3.38834
# Velocity P-wave (km/s) = 6.78599 7.40068 7.09999
#
# Compressibility (1/GPa) = 0.01803565
#
# Stress axis : x y z
#
# Youngs Moduli (GPa) = 29.96909 35.66785 110.97379
#
# Poissons Ratio (x) = 0.69085 0.42573
# Poissons Ratio (y) = 0.58047 0.33120
# Poissons Ratio (z) = 0.11497 0.10645
#
# Static dielectric constant tensor:
#      x y z
#    x 3.339180 0.000000 0.061100 
#    y 0.000000 2.585130 0.000000 
#    z 0.061100 0.000000 3.870900 
# 
# 
# High freq. dielectric constant tensor:
#      x y z
#    x 1.656730 0.000000 0.002100 
#    y 0.000000 1.576310 0.000000 
#    z 0.002100 0.000000 1.679090 
# 
# From -- ./inp_files/74497.got.cif
#   From: 2010.06.25/outbox.cif.g09.slc.cpg/sg12_38_cif.got.tgz:74497.got - 2010.06.28 00:19:55.
