data_PCOD8113762
_publ_section_title
;
Structure prediction by ZEFSAII (Michael W. Deem and Ramdas Pophale) SiO2 
 PCOD8113762
Probable space group: C 2/M
;
_chemical_formula_sum "Si O2"
_cell_formula_units_Z 64
_cell_length_a 20.253099
_cell_length_b 16.500563
_cell_length_c 17.017437
_cell_angle_alpha 90.000000
_cell_angle_beta 142.469920
_cell_angle_gamma 90.000000
_cell_volume 3464.403787
_symmetry_space_group_name_H-M "C 2/M"
_symmetry_group_IT_number 12
_symmetry_cell_setting 'monoclinic'
loop_
_space_group_symop_operation_xyz
x,y,z
-x,y,-z
-x,-y,-z
x,-y,z
1/2+x,1/2+y,z
1/2-x,1/2+y,-z
1/2-x,1/2-y,-z
1/2+x,1/2-y,z
loop_
_atom_site_type_symbol
_atom_site_label
_atom_site_fract_x
_atom_site_fract_y
_atom_site_fract_z
Si Si1 0.909206 0.404117 0.311862
Si Si2 0.062994 0.095912 0.397863
Si Si3 0.364341 0.902979 0.098341
Si Si4 0.270585 0.403296 0.314635
Si Si5 0.678083 0.403216 0.809066
Si Si6 0.258606 0.341559 0.535315
Si Si7 0.407452 0.093898 0.740153
Si Si8 0.150961 0.403906 0.577121
O O1 0.912445 0.500000 0.313685
O O2 0.857466 0.370721 0.181832
O O3 0.838435 0.377331 0.321047
O O4 0.033047 0.374941 0.435970
O O5 0.128867 0.126586 0.536755
O O6 0.121927 0.126742 0.374666
O O7 0.941380 0.131511 0.285442
O O8 0.058195 0.000000 0.391993
O O9 0.473575 0.867275 0.160179
O O10 0.367594 0.000000 0.100744
O O11 0.260386 0.870316 0.952884
O O12 0.269400 0.500000 0.313299
O O13 0.283808 0.368989 0.239502
O O14 0.157560 0.370002 0.245715
O O15 0.677194 0.500000 0.806471
O O16 0.250000 0.250000 0.500000
O O17 0.166026 0.394912 0.406203
O O18 0.240891 0.354404 0.611959
O O19 0.425311 0.000000 0.771384
O O20 0.168674 0.500000 0.583529
#
# Coordination Sequence:
#
# PCOD8113762 Si02
#       8
#     8   8   8   8   8   8   8   8
#     4   8  14  24  45  72  94 115 142 186 240 284
#     4   9  17  30  47  65  90 124 155 186 226 277
#     4   9  15  24  42  71  99 117 143 193 241 276
#     4   8  14  24  41  64  90 122 154 187 222 263
#     4   9  16  25  42  68  95 121 153 190 227 268
#     4  11  20  29  46  69  95 117 151 196 236 273
#     4   9  16  28  46  66  92 122 152 187 236 281
#     4   9  15  27  48  71  93 118 149 184 234 289
#
# _framework density 18.473597000000002
#
# number of rings (size 3 to 8) (size 9 to 14) (size 15 to 20)
#    0.000    3.000    1.250    3.000    0.000    2.000 
#    0.000    2.500   11.000    1.500    0.000    7.875 
#    0.000    0.000    0.000    0.000    0.000    0.000 
#
# Total GULP energy -396531.494584 kJ/mol
# GULP energy per Si atom -12391.609206 kJ/mol
# Density = 1.843155 g / cm^3
# Si number density = 18.473597 Si / 1000 Ang^3
#
#
#
# Elastic Constant Matrix: (Units=GPa)
#
#
# Indices 1 2 3 4 5 6 
#
# 1 197.1363 20.6051 94.5358 0.0000 -10.9735 0.0000
# 2 20.6051 12.7198 7.2195 0.0000 -0.3488 0.0000
# 3 94.5358 7.2195 124.2890 0.0000 -2.7213 0.0000
# 4 0.0000 0.0000 0.0000 4.9322 0.0000 -0.9666
# 5 -10.9735 -0.3488 -2.7213 0.0000 22.6368 0.0000
# 6 0.0000 0.0000 0.0000 -0.9666 0.0000 6.3017
#
#
#
# Elastic Compliance Matrix: (Units=1/GPa)
#
#
# Indices 1 2 3 4 5 6 
#
# 1 0.009678 -0.011834 -0.006592 0.000000 0.003717 0.000000
# 2 -0.011834 0.095779 0.003353 0.000000 -0.003858 0.000000
# 3 -0.006592 0.003353 0.012830 0.000000 -0.001602 0.000000
# 4 0.000000 0.000000 0.000000 0.209031 0.000000 0.032064
# 5 0.003717 -0.003858 -0.001602 0.000000 0.045726 0.000000
# 6 0.000000 0.000000 0.000000 0.032064 0.000000 0.163606
#
#
# Mechanical properties :
#
#
# Convention : Reuss Voigt Hill
#
# Bulk Modulus (GPa) = 11.34552 64.31845 37.83199
# Shear Modulus (GPa) = 8.38680 20.89312 14.63996
#
# Velocity S-wave (km/s) = 2.13301 3.36664 2.81816
# Velocity P-wave (km/s) = 3.49587 7.07138 5.57788
#
# Compressibility (1/GPa) = 0.08814048
#
# Stress axis : x y z
#
# Youngs Moduli (GPa) = 103.33083 10.44075 77.94199
#
# Poissons Ratio (x) = 0.12355 0.51381
# Poissons Ratio (y) = 1.22278 -0.26133
# Poissons Ratio (z) = 0.68118 -0.03501
#
# Static dielectric constant tensor:
#      x y z
#    x 3.905470 0.000000 -0.057140 
#    y 0.000000 2.759360 0.000000 
#    z -0.057140 0.000000 3.534950 
# 
# 
# High freq. dielectric constant tensor:
#      x y z
#    x 1.736270 0.000000 -0.003070 
#    y 0.000000 1.655090 0.000000 
#    z -0.003070 0.000000 1.684790 
# 
# From -- ./inp_files/284827.got.cif
#   From: 2010.06.25/outbox.cif.g09.slc.cpg/sg12_143_cif.got.tgz:284827.got - 2010.06.28 00:19:55.
