data_PCOD8113431
_publ_section_title
;
Structure prediction by ZEFSAII (Michael W. Deem and Ramdas Pophale) SiO2 
 PCOD8113431
Probable space group: C 2/M
;
_chemical_formula_sum "Si O2"
_cell_formula_units_Z 48
_cell_length_a 14.601510
_cell_length_b 10.711623
_cell_length_c 21.511476
_cell_angle_alpha 90.000000
_cell_angle_beta 139.371061
_cell_angle_gamma 90.000000
_cell_volume 2190.833595
_symmetry_space_group_name_H-M "C 2/M"
_symmetry_group_IT_number 12
_symmetry_cell_setting 'monoclinic'
loop_
_space_group_symop_operation_xyz
x,y,z
-x,y,-z
-x,-y,-z
x,-y,z
1/2+x,1/2+y,z
1/2-x,1/2+y,-z
1/2-x,1/2-y,-z
1/2+x,1/2-y,z
loop_
_atom_site_type_symbol
_atom_site_label
_atom_site_fract_x
_atom_site_fract_y
_atom_site_fract_z
Si Si1 0.602502 0.000000 0.991629
Si Si2 0.459392 0.734993 0.593133
Si Si3 0.709811 0.754321 0.381015
Si Si4 0.911055 0.000000 0.105403
Si Si5 0.000505 0.762728 0.074433
Si Si6 0.294041 0.500000 0.681620
Si Si7 0.267698 0.858373 0.735742
Si Si8 0.020825 0.500000 0.584141
O O1 0.570452 0.869093 0.940889
O O2 0.500000 0.000000 0.000000
O O3 0.774696 0.000000 0.081014
O O4 0.428987 0.721695 0.650603
O O5 0.332644 0.679870 0.485274
O O6 0.601370 0.665018 0.648354
O O7 0.453401 0.881653 0.580902
O O8 0.759610 0.620368 0.383030
O O9 0.672387 0.842369 0.303192
O O10 0.919999 0.122909 0.066059
O O11 0.042293 0.000000 0.219184
O O12 0.160543 0.744408 0.181670
O O13 0.000000 0.784565 0.000000
O O14 0.190039 0.500000 0.687678
O O15 0.298620 0.000000 0.774728
O O16 0.000000 0.500000 0.500000
#
# Coordination Sequence:
#
# PCOD8113431 Si02
#       8
#     4   8   8   4   8   4   8   4
#     4  10  24  45  70 100 142 185 222 275 353 420
#     4  11  24  40  66  98 134 184 227 280 337 407
#     4  11  24  41  63 100 137 175 233 279 338 408
#     4  12  23  44  76 106 135 180 237 289 347 415
#     4  11  24  47  72 103 137 178 232 293 353 418
#     4  12  22  41  70  97 134 180 232 278 342 408
#     4  12  25  45  67  98 140 181 226 289 349 414
#     4  12  18  40  68  89 134 182 219 281 337 390
#
# _framework density 21.909469000000001
#
# number of rings (size 3 to 8) (size 9 to 14) (size 15 to 20)
#    0.000    0.667    5.833    1.250    2.333    4.000 
#    3.000    0.000    0.000    0.000    0.000    0.000 
#    0.000    0.000    0.000    0.000    0.000    0.000 
#
# Total GULP energy -297329.776298 kJ/mol
# GULP energy per Si atom -12388.740679 kJ/mol
# Density = 2.185960 g / cm^3
# Si number density = 21.909469 Si / 1000 Ang^3
#
#
#
# Elastic Constant Matrix: (Units=GPa)
#
#
# Indices 1 2 3 4 5 6 
#
# 1 102.0592 22.8729 50.5174 0.0000 -7.6041 0.0000
# 2 22.8729 121.1977 11.2033 0.0000 -1.6657 0.0000
# 3 50.5174 11.2033 103.7140 0.0000 -1.3468 0.0000
# 4 0.0000 0.0000 0.0000 91.3476 0.0000 -77.8794
# 5 -7.6041 -1.6657 -1.3468 0.0000 32.0219 0.0000
# 6 0.0000 0.0000 0.0000 -77.8794 0.0000 124.7854
#
#
#
# Elastic Compliance Matrix: (Units=1/GPa)
#
#
# Indices 1 2 3 4 5 6 
#
# 1 0.013604 -0.001938 -0.006380 0.000000 0.002861 0.000000
# 2 -0.001938 0.008615 0.000013 0.000000 -0.000012 0.000000
# 3 -0.006380 0.000013 0.012735 0.000000 -0.000979 0.000000
# 4 0.000000 0.000000 0.000000 0.023396 0.000000 0.014602
# 5 0.002861 -0.000012 -0.000979 0.000000 0.031866 0.000000
# 6 0.000000 0.000000 0.000000 0.014602 0.000000 0.017127
#
#
# Mechanical properties :
#
#
# Convention : Reuss Voigt Hill
#
# Bulk Modulus (GPa) = 54.51060 55.12868 54.81964
# Shear Modulus (GPa) = 38.44173 65.78946 52.11560
#
# Velocity S-wave (km/s) = 4.19330 5.48571 4.88246
# Velocity P-wave (km/s) = 6.95550 8.08336 7.54055
#
# Compressibility (1/GPa) = 0.01834506
#
# Stress axis : x y z
#
# Youngs Moduli (GPa) = 73.51011 116.07127 78.52297
#
# Poissons Ratio (x) = 0.22498 0.50094
# Poissons Ratio (y) = 0.14248 -0.00105
# Poissons Ratio (z) = 0.46896 -0.00154
#
# Static dielectric constant tensor:
#      x y z
#    x 4.019070 0.000000 0.022600 
#    y 0.000000 4.100670 0.000000 
#    z 0.022600 0.000000 3.977470 
# 
# 
# High freq. dielectric constant tensor:
#      x y z
#    x 1.857460 0.000000 0.009960 
#    y 0.000000 1.870360 0.000000 
#    z 0.009960 0.000000 1.853940 
# 
# From -- ./inp_files/310316.got.cif
#   From: 2010.06.25/outbox.cif.g09.slc.cpg/sg12_156_cif.got.tgz:310316.got - 2010.06.28 00:19:55.
