data_PCOD8113501
_publ_section_title
;
Structure prediction by ZEFSAII (Michael W. Deem and Ramdas Pophale) SiO2 
 PCOD8113501
Probable space group: C 2/M
;
_chemical_formula_sum "Si O2"
_cell_formula_units_Z 64
_cell_length_a 31.549708
_cell_length_b 16.157485
_cell_length_c 9.319348
_cell_angle_alpha 90.000000
_cell_angle_beta 37.236639
_cell_angle_gamma 90.000000
_cell_volume 2874.668566
_symmetry_space_group_name_H-M "C 2/M"
_symmetry_group_IT_number 12
_symmetry_cell_setting 'monoclinic'
loop_
_space_group_symop_operation_xyz
x,y,z
-x,y,-z
-x,-y,-z
x,-y,z
1/2+x,1/2+y,z
1/2-x,1/2+y,-z
1/2-x,1/2-y,-z
1/2+x,1/2-y,z
loop_
_atom_site_type_symbol
_atom_site_label
_atom_site_fract_x
_atom_site_fract_y
_atom_site_fract_z
Si Si1 0.339855 0.687145 0.652433
Si Si2 0.230593 0.591450 0.356643
Si Si3 0.926488 0.769360 0.149754
Si Si4 0.139153 0.813988 0.963546
Si Si5 0.930503 0.094656 0.619228
Si Si6 0.080378 0.643897 0.234690
Si Si7 0.590252 0.910147 0.896601
Si Si8 0.195266 0.641188 0.134553
O O1 0.363664 0.719081 0.432605
O O2 0.405975 0.637842 0.538998
O O3 0.323863 0.762677 0.799986
O O4 0.268461 0.631671 0.846645
O O5 0.265589 0.500000 0.274658
O O6 0.277904 0.670411 0.276904
O O7 0.170549 0.597151 0.636758
O O8 0.201174 0.599372 0.273890
O O9 0.901654 0.818235 0.076106
O O10 0.945554 0.672368 0.070496
O O11 0.000000 0.810089 0.000000
O O12 0.125295 0.893248 0.103633
O O13 0.118864 0.730493 0.098586
O O14 0.000000 0.136763 0.500000
O O15 0.943747 0.000000 0.545461
O O16 0.129322 0.601126 0.225456
O O17 0.000000 0.656224 0.500000
O O18 0.081836 0.587316 0.090667
O O19 0.560165 0.000000 0.922260
#
# Coordination Sequence:
#
# PCOD8113501 Si02
#       8
#     8   8   8   8   8   8   8   8
#     4  11  22  40  62  97 131 168 229 275 333 397
#     4  11  23  43  68 100 134 176 224 275 338 407
#     4  11  25  40  67  97 132 178 224 274 332 397
#     4  11  22  39  66  95 133 173 218 273 328 405
#     4  11  22  38  64  94 132 175 218 275 338 402
#     4  11  25  41  69 102 133 173 226 279 340 403
#     4  10  25  44  65  95 134 175 224 277 338 402
#     4  11  22  39  67  95 129 173 218 284 328 398
#
# _framework density 22.263435000000001
#
# number of rings (size 3 to 8) (size 9 to 14) (size 15 to 20)
#    0.000    1.125    3.750    2.250    5.250    2.000 
#    0.000    2.500    0.000    3.375    0.000    0.000 
#    0.000    0.000    0.000    0.000    0.000    0.000 
#
# Total GULP energy -396489.108591 kJ/mol
# GULP energy per Si atom -12390.284643 kJ/mol
# Density = 2.221276 g / cm^3
# Si number density = 22.263435 Si / 1000 Ang^3
#
#
#
# Elastic Constant Matrix: (Units=GPa)
#
#
# Indices 1 2 3 4 5 6 
#
# 1 135.6462 25.9427 34.6308 0.0000 -2.7698 0.0000
# 2 25.9427 68.3932 15.7580 0.0000 -1.3834 0.0000
# 3 34.6308 15.7580 93.7414 0.0000 7.2063 0.0000
# 4 0.0000 0.0000 0.0000 7.7329 0.0000 -4.2944
# 5 -2.7698 -1.3834 7.2063 0.0000 36.7240 0.0000
# 6 0.0000 0.0000 0.0000 -4.2944 0.0000 19.4764
#
#
#
# Elastic Compliance Matrix: (Units=1/GPa)
#
#
# Indices 1 2 3 4 5 6 
#
# 1 0.008613 -0.002592 -0.002831 0.000000 0.001108 0.000000
# 2 -0.002592 0.016034 -0.001796 0.000000 0.000761 0.000000
# 3 -0.002831 -0.001796 0.012222 0.000000 -0.002679 0.000000
# 4 0.000000 0.000000 0.000000 0.147362 0.000000 0.032492
# 5 0.001108 0.000761 -0.002679 0.000000 0.027868 0.000000
# 6 0.000000 0.000000 0.000000 0.032492 0.000000 0.058508
#
#
# Mechanical properties :
#
#
# Convention : Reuss Voigt Hill
#
# Bulk Modulus (GPa) = 44.58511 50.04932 47.31721
# Shear Modulus (GPa) = 17.09262 27.54994 22.32128
#
# Velocity S-wave (km/s) = 2.77383 3.52156 3.16982
# Velocity P-wave (km/s) = 5.50713 6.25016 5.89037
#
# Compressibility (1/GPa) = 0.02242901
#
# Stress axis : x y z
#
# Youngs Moduli (GPa) = 116.09809 62.36777 81.82269
#
# Poissons Ratio (x) = 0.16168 0.23167
# Poissons Ratio (y) = 0.30098 0.14696
# Poissons Ratio (z) = 0.32872 0.11202
#
# Static dielectric constant tensor:
#      x y z
#    x 4.043650 0.000000 -0.113230 
#    y 0.000000 3.894310 0.000000 
#    z -0.113230 0.000000 4.127780 
# 
# 
# High freq. dielectric constant tensor:
#      x y z
#    x 1.877710 0.000000 -0.003900 
#    y 0.000000 1.857200 0.000000 
#    z -0.003900 0.000000 1.883460 
# 
# From -- ./inp_files/112854.got.cif
#   From: 2010.06.25/outbox.cif.g09.slc.cpg/sg12_57_cif.got.tgz:112854.got - 2010.06.28 00:19:55.
