data_PCOD8113105
_publ_section_title
;
Structure prediction by ZEFSAII (Michael W. Deem and Ramdas Pophale) SiO2 
 PCOD8113105
Probable space group: C 2/M
;
_chemical_formula_sum "Si O2"
_cell_formula_units_Z 48
_cell_length_a 26.180590
_cell_length_b 10.294325
_cell_length_c 25.149128
_cell_angle_alpha 90.000000
_cell_angle_beta 158.421569
_cell_angle_gamma 90.000000
_cell_volume 2492.768018
_symmetry_space_group_name_H-M "C 2/M"
_symmetry_group_IT_number 12
_symmetry_cell_setting 'monoclinic'
loop_
_space_group_symop_operation_xyz
x,y,z
-x,y,-z
-x,-y,-z
x,-y,z
1/2+x,1/2+y,z
1/2-x,1/2+y,-z
1/2-x,1/2-y,-z
1/2+x,1/2-y,z
loop_
_atom_site_type_symbol
_atom_site_label
_atom_site_fract_x
_atom_site_fract_y
_atom_site_fract_z
Si Si1 0.252391 0.341079 0.951221
Si Si2 0.270434 0.228684 0.231966
Si Si3 0.237843 0.646584 0.657608
Si Si4 0.470977 0.733763 0.076893
Si Si5 0.523385 0.144096 0.649729
Si Si6 0.931829 0.500000 0.875235
Si Si7 0.159995 0.000000 0.672782
O O1 0.256829 0.500000 0.965189
O O2 0.115114 0.294209 0.785684
O O3 0.250000 0.250000 0.000000
O O4 0.386126 0.292053 0.048349
O O5 0.265499 0.220721 0.290229
O O6 0.387913 0.140454 0.319088
O O7 0.308591 0.378880 0.257838
O O8 0.121346 0.189884 0.063111
O O9 0.188911 0.500000 0.620815
O O10 0.392402 0.646258 0.784135
O O11 0.125691 0.711785 0.507912
O O12 0.521358 0.880226 0.115940
O O13 0.491195 0.000000 0.637891
O O14 0.765022 0.500000 0.723263
O O15 0.000000 0.500000 0.000000
O O16 0.000000 0.000000 0.500000
#
# Coordination Sequence:
#
# PCOD8113105 Si02
#       7
#     8   8   8   8   8   4   4
#     4  10  23  44  68  89 114 153 208 268 318 368
#     4  11  20  33  51  80 120 163 196 232 282 358
#     4  11  20  32  54  84 119 156 192 236 291 365
#     4  11  22  36  58  84 120 159 203 246 305 359
#     4   9  20  37  56  83 116 153 192 242 302 359
#     4  12  20  38  54  86 130 168 202 246 300 364
#     4  12  22  32  50  80 122 168 200 240 280 350
#
# _framework density 19.255703
#
# number of rings (size 3 to 8) (size 9 to 14) (size 15 to 20)
#    0.000    1.333    3.333    3.000    1.167    4.000 
#    1.500    0.833    0.000    0.000    0.000    0.000 
#    0.000    0.000    0.000    0.000    0.000    0.000 
#
# Total GULP energy -297326.011544 kJ/mol
# GULP energy per Si atom -12388.583814 kJ/mol
# Density = 1.921188 g / cm^3
# Si number density = 19.255703 Si / 1000 Ang^3
#
#
#
# Elastic Constant Matrix: (Units=GPa)
#
#
# Indices 1 2 3 4 5 6 
#
# 1 106.5934 35.7000 67.1984 -0.0002 -12.1039 0.0003
# 2 35.7000 78.3270 26.2780 -0.0083 -0.2138 -0.0016
# 3 67.1984 26.2780 188.6764 -0.0067 6.8455 -0.0015
# 4 -0.0002 -0.0083 -0.0067 21.2835 -0.0016 1.8603
# 5 -12.1039 -0.2138 6.8455 -0.0016 15.6586 0.0001
# 6 0.0003 -0.0016 -0.0015 1.8603 0.0001 32.0631
#
#
#
# Elastic Compliance Matrix: (Units=1/GPa)
#
#
# Indices 1 2 3 4 5 6 
#
# 1 0.016557 -0.005603 -0.005668 -0.000003 0.015200 -0.000001
# 2 -0.005603 0.015305 0.000014 0.000006 -0.004129 0.000001
# 3 -0.005668 0.000014 0.007596 0.000002 -0.007702 0.000000
# 4 -0.000003 0.000006 0.000002 0.047224 0.000002 -0.002740
# 5 0.015200 -0.004129 -0.007702 0.000002 0.078923 -0.000001
# 6 -0.000001 0.000001 0.000000 -0.002740 -0.000001 0.031348
#
#
# Mechanical properties :
#
#
# Convention : Reuss Voigt Hill
#
# Bulk Modulus (GPa) = 59.02005 70.21662 64.61834
# Shear Modulus (GPa) = 22.21070 30.09572 26.15321
#
# Velocity S-wave (km/s) = 3.39995 3.95771 3.68938
# Velocity P-wave (km/s) = 6.79191 7.57820 7.19580
#
# Compressibility (1/GPa) = 0.01694340
#
# Stress axis : x y z
#
# Youngs Moduli (GPa) = 60.39578 65.33798 131.64264
#
# Poissons Ratio (x) = 0.36612 0.74616
# Poissons Ratio (y) = 0.33843 -0.00183
# Poissons Ratio (z) = 0.34233 -0.00091
#
# Static dielectric constant tensor:
#      x y z
#    x 3.147530 -0.000010 0.075930 
#    y -0.000010 3.771080 -0.000010 
#    z 0.075930 -0.000010 4.003840 
# 
# 
# High freq. dielectric constant tensor:
#      x y z
#    x 1.703880 0.000000 0.010270 
#    y 0.000000 1.749940 0.000000 
#    z 0.010270 0.000000 1.771050 
# 
# From -- ./inp_files/369311.got.cif
#   From: 2010.06.25/outbox.cif.g09.slc.cpg/sg12_185_cif.got.tgz:369311.got - 2010.06.28 00:19:55.
