data_PCOD8113287
_publ_section_title
;
Structure prediction by ZEFSAII (Michael W. Deem and Ramdas Pophale) SiO2 
 PCOD8113287
Probable space group: C 2/M
;
_chemical_formula_sum "Si O2"
_cell_formula_units_Z 48
_cell_length_a 18.473653
_cell_length_b 14.224752
_cell_length_c 16.472629
_cell_angle_alpha 90.000000
_cell_angle_beta 149.721747
_cell_angle_gamma 90.000000
_cell_volume 2182.544666
_symmetry_space_group_name_H-M "C 2/M"
_symmetry_group_IT_number 12
_symmetry_cell_setting 'monoclinic'
loop_
_space_group_symop_operation_xyz
x,y,z
-x,y,-z
-x,-y,-z
x,-y,z
1/2+x,1/2+y,z
1/2-x,1/2+y,-z
1/2-x,1/2-y,-z
1/2+x,1/2-y,z
loop_
_atom_site_type_symbol
_atom_site_label
_atom_site_fract_x
_atom_site_fract_y
_atom_site_fract_z
Si Si1 0.644495 0.000000 0.190595
Si Si2 0.802191 0.000000 0.040326
Si Si3 0.655032 0.305346 0.843621
Si Si4 0.828594 0.180710 0.323617
Si Si5 0.462976 0.000000 0.733154
Si Si6 0.980491 0.000000 0.886324
Si Si7 0.899384 0.796812 0.823254
Si Si8 0.901119 0.294451 0.660030
O O1 0.746682 0.088884 0.275827
O O2 0.576231 0.000000 0.211966
O O3 0.500000 0.000000 0.000000
O O4 0.864915 0.087934 0.148951
O O5 0.865126 0.000000 0.009669
O O6 0.631315 0.000000 0.875784
O O7 0.718014 0.302706 0.814520
O O8 0.501806 0.255475 0.692010
O O9 0.750000 0.250000 0.000000
O O10 0.764075 0.268991 0.311221
O O11 0.000000 0.171192 0.500000
O O12 0.396321 0.904690 0.632617
O O13 0.896013 0.096636 0.784067
O O14 0.000000 0.000000 0.000000
O O15 0.954802 0.727553 0.804583
O O16 0.000000 0.784903 0.000000
O O17 0.750000 0.250000 0.500000
#
# Coordination Sequence:
#
# PCOD8113287 Si02
#       8
#     4   4   8   8   4   4   8   8
#     4  12  25  44  74 105 143 185 240 291 360 437
#     4  12  24  44  70 111 137 181 249 302 344 425
#     4  12  25  43  71 103 140 190 241 298 358 425
#     4  12  26  45  69 104 147 186 234 300 371 428
#     4  12  26  43  74 105 143 184 242 294 362 436
#     4  10  24  41  72 103 136 184 243 299 344 408
#     4  11  23  45  71 100 138 187 243 288 351 428
#     4  12  26  45  68 103 146 185 229 294 362 425
#
# _framework density 21.992677
#
# number of rings (size 3 to 8) (size 9 to 14) (size 15 to 20)
#    0.000    0.333    5.000    4.250    2.333    1.333 
#    0.000    0.417    0.000    0.000    0.000    0.000 
#    0.000    0.000    0.000    0.000    0.000    0.000 
#
# Total GULP energy -297504.595051 kJ/mol
# GULP energy per Si atom -12396.024794 kJ/mol
# Density = 2.194262 g / cm^3
# Si number density = 21.992677 Si / 1000 Ang^3
#
#
#
# Elastic Constant Matrix: (Units=GPa)
#
#
# Indices 1 2 3 4 5 6 
#
# 1 140.2482 47.5331 20.7984 0.0001 25.5236 0.0000
# 2 47.5331 201.6197 51.3994 0.0003 26.2335 0.0000
# 3 20.7984 51.3994 105.5446 0.0006 31.8249 -0.0002
# 4 0.0001 0.0003 0.0006 10.1604 0.0003 23.0903
# 5 25.5236 26.2335 31.8249 0.0003 43.2524 -0.0001
# 6 0.0000 0.0000 -0.0002 23.0903 -0.0001 9.3893
#
#
#
# Elastic Compliance Matrix: (Units=1/GPa)
#
#
# Indices 1 2 3 4 5 6 
#
# 1 0.008369 -0.001511 0.000385 0.000000 -0.004305 0.000000
# 2 -0.001511 0.006048 -0.002326 0.000000 -0.001065 0.000000
# 3 0.000385 -0.002326 0.013076 0.000000 -0.008437 0.000000
# 4 0.000000 0.000000 0.000000 -0.021448 0.000000 0.052746
# 5 -0.004305 -0.001065 -0.008437 0.000000 0.032514 0.000000
# 6 0.000000 0.000000 0.000000 0.052746 0.000000 -0.023210
#
#
# Mechanical properties :
#
#
# Convention : Reuss Voigt Hill
#
# Bulk Modulus (GPa) = 48.57373 76.31936 62.44655
# Shear Modulus (GPa) = 171.72895 34.40587 103.06741
#
# Velocity S-wave (km/s) = 8.84614 3.95957 6.85319
# Velocity P-wave (km/s) = 11.24603 7.46202 9.54345
#
# Compressibility (1/GPa) = 0.02058726
#
# Stress axis : x y z
#
# Youngs Moduli (GPa) = 119.49241 165.35368 76.47699
#
# Poissons Ratio (x) = 0.24984 -0.02943
# Poissons Ratio (y) = 0.18054 0.17791
# Poissons Ratio (z) = -0.04598 0.38468
#
# Static dielectric constant tensor:
#      x y z
#    x 4.471900 0.000010 0.073590 
#    y 0.000010 8.333990 0.000020 
#    z 0.073590 0.000020 3.684180 
# 
# 
# High freq. dielectric constant tensor:
#      x y z
#    x 1.889030 0.000000 0.013570 
#    y 0.000000 1.883070 0.000000 
#    z 0.013570 0.000000 1.845270 
# 
# From -- ./inp_files/278295.got.cif
#   From: 2010.06.25/outbox.cif.g09.slc.cpg/sg12_140_cif.got.tgz:278295.got - 2010.06.28 00:19:55.
