data_PCOD8113009
_publ_section_title
;
Structure prediction by ZEFSAII (Michael W. Deem and Ramdas Pophale) SiO2 
 PCOD8113009
Probable space group: C 2/M
;
_chemical_formula_sum "Si O2"
_cell_formula_units_Z 48
_cell_length_a 29.234653
_cell_length_b 8.767139
_cell_length_c 14.588733
_cell_angle_alpha 90.000000
_cell_angle_beta 142.116082
_cell_angle_gamma 90.000000
_cell_volume 2296.079026
_symmetry_space_group_name_H-M "C 2/M"
_symmetry_group_IT_number 12
_symmetry_cell_setting 'monoclinic'
loop_
_space_group_symop_operation_xyz
x,y,z
-x,y,-z
-x,-y,-z
x,-y,z
1/2+x,1/2+y,z
1/2-x,1/2+y,-z
1/2-x,1/2-y,-z
1/2+x,1/2-y,z
loop_
_atom_site_type_symbol
_atom_site_label
_atom_site_fract_x
_atom_site_fract_y
_atom_site_fract_z
Si Si1 0.439910 0.825439 0.668532
Si Si2 0.067528 0.822086 0.538999
Si Si3 0.771453 0.180493 0.130335
Si Si4 0.703784 0.320886 0.508253
Si Si5 0.796413 0.179676 0.807796
Si Si6 0.053745 0.325460 0.003322
O O1 0.449592 0.768408 0.580683
O O2 0.382316 0.724139 0.636314
O O3 0.517055 0.809199 0.845184
O O4 0.412569 0.000000 0.624342
O O5 0.145076 0.769309 0.708033
O O6 0.000000 0.784311 0.500000
O O7 0.071090 0.000000 0.519767
O O8 0.709617 0.247542 0.101394
O O9 0.764209 0.000000 0.114853
O O10 0.750000 0.250000 0.000000
O O11 0.714854 0.500000 0.524676
O O12 0.750000 0.250000 0.500000
O O13 0.728796 0.251966 0.644407
O O14 0.787096 0.000000 0.798259
O O15 0.873642 0.220226 0.880537
O O16 0.077798 0.500000 0.060398
O O17 0.000000 0.269191 0.000000
#
# Coordination Sequence:
#
# PCOD8113009 Si02
#       6
#     8   8   8   8   8   8
#     4  11  23  40  65  97 129 168 216 265 321 384
#     4  10  23  43  66  93 127 170 214 263 325 384
#     4  11  24  43  67  96 131 171 212 269 328 385
#     4  12  24  41  66  95 129 169 213 266 323 383
#     4  12  25  42  66  96 131 172 218 267 320 387
#     4  10  23  43  65  93 132 174 216 267 324 381
#
# _framework density 20.905206
#
# number of rings (size 3 to 8) (size 9 to 14) (size 15 to 20)
#    0.000    1.000    1.667    5.000    2.333    4.000 
#    0.000    0.000    0.000    0.000    0.000    0.000 
#    0.000    0.000    0.000    0.000    0.000    0.000 
#
# Total GULP energy -297741.359403 kJ/mol
# GULP energy per Si atom -12405.889975 kJ/mol
# Density = 2.085762 g / cm^3
# Si number density = 20.905206 Si / 1000 Ang^3
#
#
#
# Elastic Constant Matrix: (Units=GPa)
#
#
# Indices 1 2 3 4 5 6 
#
# 1 104.1801 42.5691 17.1828 0.0000 -1.6951 0.0000
# 2 42.5691 118.6791 35.1104 0.0000 -6.9038 0.0000
# 3 17.1828 35.1104 67.9254 0.0000 -4.1368 0.0000
# 4 0.0000 0.0000 0.0000 32.2671 0.0000 -2.6343
# 5 -1.6951 -6.9038 -4.1368 0.0000 39.6078 0.0000
# 6 0.0000 0.0000 0.0000 -2.6343 0.0000 38.9164
#
#
#
# Elastic Compliance Matrix: (Units=1/GPa)
#
#
# Indices 1 2 3 4 5 6 
#
# 1 0.011297 -0.003798 -0.000911 0.000000 -0.000274 0.000000
# 2 -0.003798 0.011282 -0.004791 0.000000 0.001304 0.000000
# 3 -0.000911 -0.004791 0.017487 0.000000 0.000952 0.000000
# 4 0.000000 0.000000 0.000000 0.031163 0.000000 0.002109
# 5 -0.000274 0.001304 0.000952 0.000000 0.025562 0.000000
# 6 0.000000 0.000000 0.000000 0.002109 0.000000 0.025839
#
#
# Mechanical properties :
#
#
# Convention : Reuss Voigt Hill
#
# Bulk Modulus (GPa) = 47.47388 53.38993 50.43191
# Shear Modulus (GPa) = 33.63535 35.21975 34.42755
#
# Velocity S-wave (km/s) = 4.01552 4.10901 4.06253
# Velocity P-wave (km/s) = 6.65264 6.93588 6.79573
#
# Compressibility (1/GPa) = 0.02106421
#
# Stress axis : x y z
#
# Youngs Moduli (GPa) = 88.52193 88.63804 57.18517
#
# Poissons Ratio (x) = 0.33669 0.05209
# Poissons Ratio (y) = 0.33624 0.27399
# Poissons Ratio (z) = 0.08064 0.42469
#
# Static dielectric constant tensor:
#      x y z
#    x 3.870060 0.000000 -0.047930 
#    y 0.000000 3.382150 0.000000 
#    z -0.047930 0.000000 3.949440 
# 
# 
# High freq. dielectric constant tensor:
#      x y z
#    x 1.832160 0.000000 -0.003130 
#    y 0.000000 1.821990 0.000000 
#    z -0.003130 0.000000 1.825170 
# 
# From -- ./inp_files/244680.got.cif
#   From: 2010.06.25/outbox.cif.g09.slc.cpg/sg12_123_cif.got.tgz:244680.got - 2010.06.28 00:19:55.
