data_PCOD8113971
_publ_section_title
;
Structure prediction by ZEFSAII (Michael W. Deem and Ramdas Pophale) SiO2 
 PCOD8113971
Probable space group: C 2/M
;
_chemical_formula_sum "Si O2"
_cell_formula_units_Z 56
_cell_length_a 7.363844
_cell_length_b 24.126931
_cell_length_c 14.724138
_cell_angle_alpha 90.000000
_cell_angle_beta 70.644788
_cell_angle_gamma 90.000000
_cell_volume 2468.142150
_symmetry_space_group_name_H-M "C 2/M"
_symmetry_group_IT_number 12
_symmetry_cell_setting 'monoclinic'
loop_
_space_group_symop_operation_xyz
x,y,z
-x,y,-z
-x,-y,-z
x,-y,z
1/2+x,1/2+y,z
1/2-x,1/2+y,-z
1/2-x,1/2-y,-z
1/2+x,1/2-y,z
loop_
_atom_site_type_symbol
_atom_site_label
_atom_site_fract_x
_atom_site_fract_y
_atom_site_fract_z
Si Si1 0.463686 0.643200 0.604554
Si Si2 0.556397 0.000000 0.833627
Si Si3 0.726914 0.118100 0.968850
Si Si4 0.250754 0.500000 0.991614
Si Si5 0.820410 0.435248 0.591961
Si Si6 0.186934 0.314162 0.152987
Si Si7 0.066671 0.399044 0.712538
Si Si8 0.437790 0.691526 0.799829
O O1 0.500000 0.672137 0.500000
O O2 0.629552 0.598939 0.599703
O O3 0.258828 0.613108 0.623900
O O4 0.444606 0.688310 0.688554
O O5 0.631254 0.945917 0.771754
O O6 0.616854 0.000000 0.926620
O O7 0.326706 0.000000 0.890686
O O8 0.851598 0.060976 0.965663
O O9 0.793183 0.145375 0.863397
O O10 0.500000 0.103368 0.000000
O O11 0.761679 0.161546 0.044955
O O12 0.770087 0.500000 0.589797
O O13 0.000000 0.417708 0.500000
O O14 0.889853 0.421931 0.682201
O O15 0.350552 0.321344 0.200403
O O16 0.131021 0.250366 0.151310
O O17 0.998236 0.345167 0.220856
#
# Coordination Sequence:
#
# PCOD8113971 Si02
#       8
#     8   4   8   4   8   8   8   8
#     4  12  26  45  71 104 141 188 238 295 359 420
#     4  11  20  38  65 102 137 191 220 282 356 415
#     4  12  22  43  69 104 142 186 233 286 353 429
#     4  11  20  38  64 103 143 177 236 270 353 433
#     4  11  24  44  69 104 140 186 240 290 346 423
#     4  12  25  47  71  99 140 180 239 298 348 430
#     4  12  23  43  71  99 143 185 233 292 356 417
#     4  12  27  46  69 103 134 187 243 293 360 420
#
# _framework density 22.689129999999999
#
# number of rings (size 3 to 8) (size 9 to 14) (size 15 to 20)
#    0.000    0.286    6.429    4.286    1.000    0.286 
#    1.286    5.714    0.000    0.000    0.000    0.000 
#    0.000    0.000    0.000    0.000    0.000    0.000 
#
# Total GULP energy -346988.391682 kJ/mol
# GULP energy per Si atom -12392.442560 kJ/mol
# Density = 2.263749 g / cm^3
# Si number density = 22.689130 Si / 1000 Ang^3
#
#
#
# Elastic Constant Matrix: (Units=GPa)
#
#
# Indices 1 2 3 4 5 6 
#
# 1 96.0896 19.4210 21.9225 0.0000 0.6863 0.0000
# 2 19.4210 158.8388 53.8507 0.0000 -6.9471 0.0000
# 3 21.9225 53.8507 143.4459 0.0000 9.9511 0.0000
# 4 0.0000 0.0000 0.0000 30.3518 0.0000 3.0457
# 5 0.6863 -6.9471 9.9511 0.0000 35.1316 0.0000
# 6 0.0000 0.0000 0.0000 3.0457 0.0000 8.4597
#
#
#
# Elastic Compliance Matrix: (Units=1/GPa)
#
#
# Indices 1 2 3 4 5 6 
#
# 1 0.010889 -0.000880 -0.001333 0.000000 -0.000009 0.000000
# 2 -0.000880 0.007462 -0.002826 0.000000 0.002293 0.000000
# 3 -0.001333 -0.002826 0.008439 0.000000 -0.002923 0.000000
# 4 0.000000 0.000000 0.000000 0.034182 0.000000 -0.012306
# 5 -0.000009 0.002293 -0.002923 0.000000 0.029746 0.000000
# 6 0.000000 0.000000 0.000000 -0.012306 0.000000 0.122638
#
#
# Mechanical properties :
#
#
# Convention : Reuss Voigt Hill
#
# Bulk Modulus (GPa) = 59.83850 65.41807 62.62828
# Shear Modulus (GPa) = 21.83374 35.00062 28.41718
#
# Velocity S-wave (km/s) = 3.10546 3.93188 3.54285
# Velocity P-wave (km/s) = 6.26809 7.03618 6.66321
#
# Compressibility (1/GPa) = 0.01671165
#
# Stress axis : x y z
#
# Youngs Moduli (GPa) = 91.83572 134.02023 118.50300
#
# Poissons Ratio (x) = 0.11791 0.15799
# Poissons Ratio (y) = 0.08079 0.33486
# Poissons Ratio (z) = 0.12244 0.37871
#
# Static dielectric constant tensor:
#      x y z
#    x 4.066810 0.000000 0.040860 
#    y 0.000000 5.735410 0.000000 
#    z 0.040860 0.000000 4.265320 
# 
# 
# High freq. dielectric constant tensor:
#      x y z
#    x 1.895310 0.000000 0.008590 
#    y 0.000000 1.893130 0.000000 
#    z 0.008590 0.000000 1.904190 
# 
# From -- ./inp_files/198836.got.cif
#   From: 2010.06.25/outbox.cif.g09.slc.cpg/sg12_100_cif.got.tgz:198836.got - 2010.06.28 00:19:55.
