data_PCOD8113207
_publ_section_title
;
Structure prediction by ZEFSAII (Michael W. Deem and Ramdas Pophale) SiO2 
 PCOD8113207
Probable space group: C 2/M
;
_chemical_formula_sum "Si O2"
_cell_formula_units_Z 12
_cell_length_a 9.905297
_cell_length_b 9.416324
_cell_length_c 5.168177
_cell_angle_alpha 90.000000
_cell_angle_beta 118.408154
_cell_angle_gamma 90.000000
_cell_volume 423.996286
_symmetry_space_group_name_H-M "C 2/M"
_symmetry_group_IT_number 12
_symmetry_cell_setting 'monoclinic'
loop_
_space_group_symop_operation_xyz
x,y,z
-x,y,-z
-x,-y,-z
x,-y,z
1/2+x,1/2+y,z
1/2-x,1/2+y,-z
1/2-x,1/2-y,-z
1/2+x,1/2-y,z
loop_
_atom_site_type_symbol
_atom_site_label
_atom_site_fract_x
_atom_site_fract_y
_atom_site_fract_z
Si Si1 0.830553 0.837705 0.295489
Si Si2 0.602000 0.000000 0.346899
O O1 0.713496 0.858609 0.440758
O O2 0.000000 0.771613 0.500000
O O3 0.852111 0.000000 0.209263
O O4 0.750000 0.750000 0.000000
O O5 0.500000 0.000000 0.500000
O O6 0.500000 0.000000 0.000000
#
# Coordination Sequence:
#
# PCOD8113207 Si02
#       2
#     8   4
#     4   9  21  46  82 114 159 211 274 334 410 488
#     4  10  23  48  79 114 165 214 265 340 419 488
#
# _framework density 28.302135
#
# number of rings (size 3 to 8) (size 9 to 14) (size 15 to 20)
#    2.000    0.667    0.000    0.000    0.000    4.000 
#    0.000   23.333    0.000    2.000    0.000    0.000 
#    0.000    0.000    0.000    0.000    0.000    0.000 
#
# Total GULP energy -74363.244528 kJ/mol
# GULP energy per Si atom -12393.874088 kJ/mol
# Density = 2.823772 g / cm^3
# Si number density = 28.302135 Si / 1000 Ang^3
#
#
#
# Elastic Constant Matrix: (Units=GPa)
#
#
# Indices 1 2 3 4 5 6 
#
# 1 367.7483 78.0158 162.1646 0.0000 -13.2805 0.0000
# 2 78.0158 107.2527 56.1260 0.0000 11.4603 0.0000
# 3 162.1646 56.1260 193.3661 0.0000 9.3539 0.0000
# 4 0.0000 0.0000 0.0000 47.0979 0.0000 29.5438
# 5 -13.2805 11.4603 9.3539 0.0000 75.8911 0.0000
# 6 0.0000 0.0000 0.0000 29.5438 0.0000 31.9299
#
#
#
# Elastic Compliance Matrix: (Units=1/GPa)
#
#
# Indices 1 2 3 4 5 6 
#
# 1 0.004685 -0.001740 -0.003498 0.000000 0.001514 0.000000
# 2 -0.001740 0.011763 -0.001866 0.000000 -0.001851 0.000000
# 3 -0.003498 -0.001866 0.008714 0.000000 -0.001404 0.000000
# 4 0.000000 0.000000 0.000000 0.050602 0.000000 -0.046821
# 5 0.001514 -0.001851 -0.001404 0.000000 0.013894 0.000000
# 6 0.000000 0.000000 0.000000 -0.046821 0.000000 0.074641
#
#
# Mechanical properties :
#
#
# Convention : Reuss Voigt Hill
#
# Bulk Modulus (GPa) = 91.26849 140.10889 115.68869
# Shear Modulus (GPa) = 27.44862 55.78784 41.61823
#
# Velocity S-wave (km/s) = 3.11761 4.44458 3.83887
# Velocity P-wave (km/s) = 6.72884 8.71500 7.78552
#
# Compressibility (1/GPa) = 0.01095668
#
# Stress axis : x y z
#
# Youngs Moduli (GPa) = 213.43621 85.00956 114.75395
#
# Poissons Ratio (x) = 0.14787 0.40136
# Poissons Ratio (y) = 0.37127 0.21414
# Poissons Ratio (z) = 0.74650 0.15863
#
# Static dielectric constant tensor:
#      x y z
#    x 6.751330 0.000000 0.779280 
#    y 0.000000 6.636900 0.000000 
#    z 0.779280 0.000000 4.272440 
# 
# 
# High freq. dielectric constant tensor:
#      x y z
#    x 2.183860 0.000000 0.010700 
#    y 0.000000 2.229900 0.000000 
#    z 0.010700 0.000000 2.110110 
# 
# From -- ./inp_files/1300.got.cif
#   From: 2010.06.25/outbox.cif.g09.slc.cpg/sg12_1_cif.got.tgz:1300.got - 2010.06.28 00:19:55.
