data_PCOD8113472
_publ_section_title
;
Structure prediction by ZEFSAII (Michael W. Deem and Ramdas Pophale) SiO2 
 PCOD8113472
Probable space group: C 2/M
;
_chemical_formula_sum "Si O2"
_cell_formula_units_Z 40
_cell_length_a 9.298406
_cell_length_b 15.683326
_cell_length_c 17.939319
_cell_angle_alpha 90.000000
_cell_angle_beta 132.267350
_cell_angle_gamma 90.000000
_cell_volume 1935.944273
_symmetry_space_group_name_H-M "C 2/M"
_symmetry_group_IT_number 12
_symmetry_cell_setting 'monoclinic'
loop_
_space_group_symop_operation_xyz
x,y,z
-x,y,-z
-x,-y,-z
x,-y,z
1/2+x,1/2+y,z
1/2-x,1/2+y,-z
1/2-x,1/2-y,-z
1/2+x,1/2-y,z
loop_
_atom_site_type_symbol
_atom_site_label
_atom_site_fract_x
_atom_site_fract_y
_atom_site_fract_z
Si Si1 0.782157 0.330899 0.270888
Si Si2 0.553846 0.000000 0.604454
Si Si3 0.035407 0.405504 0.929519
Si Si4 0.717668 0.500000 0.602292
Si Si5 0.596825 0.673703 0.955920
Si Si6 0.127809 0.667974 0.273114
O O1 0.823568 0.415903 0.332404
O O2 0.564681 0.337757 0.163565
O O3 0.774422 0.249268 0.324465
O O4 0.942970 0.317516 0.262549
O O5 0.500000 0.000000 0.500000
O O6 0.351924 0.000000 0.577083
O O7 0.947154 0.500000 0.889850
O O8 0.938318 0.342136 0.835947
O O9 0.268054 0.410672 0.997505
O O10 0.000000 0.368525 0.000000
O O11 0.500000 0.500000 0.500000
O O12 0.754815 0.584075 0.663637
O O13 0.500000 0.686251 0.000000
O O14 0.750000 0.750000 0.000000
#
# Coordination Sequence:
#
# PCOD8113472 Si02
#       6
#     8   4   8   4   8   8
#     4  11  24  41  67  97 134 175 219 267 328 394
#     4  10  26  50  68  95 130 166 224 287 335 390
#     4  11  24  39  58  92 138 174 222 262 315 389
#     4  10  24  48  72  92 122 166 216 278 341 394
#     4  12  22  36  60  92 132 175 212 256 315 389
#     4  11  23  43  66  96 132 172 216 267 327 395
#
# _framework density 20.661750999999999
#
# number of rings (size 3 to 8) (size 9 to 14) (size 15 to 20)
#    0.000    1.000    5.000    0.600    4.200    2.800 
#    0.000    4.000    0.000    0.000    0.000    0.000 
#    0.000    0.000    0.000    0.000    0.000    0.000 
#
# Total GULP energy -247915.183133 kJ/mol
# GULP energy per Si atom -12395.759157 kJ/mol
# Density = 2.061472 g / cm^3
# Si number density = 20.661751 Si / 1000 Ang^3
#
#
#
# Elastic Constant Matrix: (Units=GPa)
#
#
# Indices 1 2 3 4 5 6 
#
# 1 123.1595 67.9982 67.9350 0.0000 -5.9591 0.0000
# 2 67.9982 166.4203 73.3911 0.0000 -2.9512 0.0000
# 3 67.9350 73.3911 136.7642 0.0000 1.6254 0.0000
# 4 0.0000 0.0000 0.0000 16.0281 0.0000 2.0854
# 5 -5.9591 -2.9512 1.6254 0.0000 40.8223 0.0000
# 6 0.0000 0.0000 0.0000 2.0854 0.0000 33.9627
#
#
#
# Elastic Compliance Matrix: (Units=1/GPa)
#
#
# Indices 1 2 3 4 5 6 
#
# 1 0.012384 -0.003022 -0.004551 0.000000 0.001771 0.000000
# 2 -0.003022 0.008631 -0.003134 0.000000 0.000308 0.000000
# 3 -0.004551 -0.003134 0.011270 0.000000 -0.001340 0.000000
# 4 0.000000 0.000000 0.000000 0.062893 0.000000 -0.003862
# 5 0.001771 0.000308 -0.001340 0.000000 0.024830 0.000000
# 6 0.000000 0.000000 0.000000 -0.003862 0.000000 0.029681
#
#
# Mechanical properties :
#
#
# Convention : Reuss Voigt Hill
#
# Bulk Modulus (GPa) = 91.98476 93.88807 92.93642
# Shear Modulus (GPa) = 28.61592 32.63060 30.62326
#
# Velocity S-wave (km/s) = 3.72556 3.97832 3.85401
# Velocity P-wave (km/s) = 7.94496 8.16345 8.05494
#
# Compressibility (1/GPa) = 0.01087137
#
# Stress axis : x y z
#
# Youngs Moduli (GPa) = 80.75054 115.85834 88.72755
#
# Poissons Ratio (x) = 0.35007 0.40380
# Poissons Ratio (y) = 0.24399 0.27812
# Poissons Ratio (z) = 0.36750 0.36316
#
# Static dielectric constant tensor:
#      x y z
#    x 3.975860 0.000000 0.113070 
#    y 0.000000 4.259070 0.000000 
#    z 0.113070 0.000000 3.667560 
# 
# 
# High freq. dielectric constant tensor:
#      x y z
#    x 1.816180 0.000000 -0.001100 
#    y 0.000000 1.828650 0.000000 
#    z -0.001100 0.000000 1.793680 
# 
# From -- ./inp_files/119169.got.cif
#   From: 2010.06.25/outbox.cif.g09.slc.cpg/sg12_60_cif.got.tgz:119169.got - 2010.06.28 00:19:55.
