data_PCOD8113881
_publ_section_title
;
Structure prediction by ZEFSAII (Michael W. Deem and Ramdas Pophale) SiO2 
 PCOD8113881
Probable space group: C 2/M
;
_chemical_formula_sum "Si O2"
_cell_formula_units_Z 56
_cell_length_a 30.074563
_cell_length_b 16.478438
_cell_length_c 9.896992
_cell_angle_alpha 90.000000
_cell_angle_beta 34.423174
_cell_angle_gamma 90.000000
_cell_volume 2772.669458
_symmetry_space_group_name_H-M "C 2/M"
_symmetry_group_IT_number 12
_symmetry_cell_setting 'monoclinic'
loop_
_space_group_symop_operation_xyz
x,y,z
-x,y,-z
-x,-y,-z
x,-y,z
1/2+x,1/2+y,z
1/2-x,1/2+y,-z
1/2-x,1/2-y,-z
1/2+x,1/2-y,z
loop_
_atom_site_type_symbol
_atom_site_label
_atom_site_fract_x
_atom_site_fract_y
_atom_site_fract_z
Si Si1 0.215921 0.406004 0.876061
Si Si2 0.131359 0.175834 0.929995
Si Si3 0.005462 0.091765 0.834931
Si Si4 0.093950 0.282616 0.266709
Si Si5 0.090432 0.296958 0.801683
Si Si6 0.639890 0.701753 0.419932
Si Si7 0.279496 0.091454 0.453497
O O1 0.218370 0.500000 0.919007
O O2 0.280187 0.350296 0.791034
O O3 0.233819 0.401402 0.672666
O O4 0.130649 0.367632 0.122622
O O5 0.097290 0.246527 0.921592
O O6 0.220789 0.153200 0.675623
O O7 0.122807 0.206679 0.103922
O O8 0.077761 0.096735 0.033793
O O9 0.068523 0.138686 0.588261
O O10 0.034011 0.000000 0.777825
O O11 0.000000 0.130782 0.000000
O O12 0.129374 0.265323 0.325402
O O13 0.000000 0.291562 0.500000
O O14 0.135913 0.251098 0.568541
O O15 0.133058 0.382775 0.721978
O O16 0.000000 0.316363 0.000000
O O17 0.264953 0.000000 0.539402
#
# Coordination Sequence:
#
# PCOD8113881 Si02
#       7
#     8   8   8   8   8   8   8
#     4  11  24  43  67  94 127 169 217 267 316 373
#     4  12  20  42  64  96 125 164 213 259 316 378
#     4  11  20  34  62  96 128 163 206 260 318 376
#     4  12  25  42  66  95 131 173 216 255 315 389
#     4  12  21  39  67  93 126 167 216 258 313 375
#     4  12  22  41  62  98 127 167 213 261 316 382
#     4  11  24  41  67  98 127 164 214 273 320 367
#
# _framework density 20.197141999999999
#
# number of rings (size 3 to 8) (size 9 to 14) (size 15 to 20)
#    0.000    0.429    7.143    2.571    0.000    2.857 
#    0.000    5.714    0.000    0.000    0.000    0.000 
#    0.000    0.000    0.000    0.000    0.000    0.000 
#
# Total GULP energy -347296.960887 kJ/mol
# GULP energy per Si atom -12403.462889 kJ/mol
# Density = 2.015117 g / cm^3
# Si number density = 20.197142 Si / 1000 Ang^3
#
#
#
# Elastic Constant Matrix: (Units=GPa)
#
#
# Indices 1 2 3 4 5 6 
#
# 1 65.6884 26.5353 23.3297 0.0000 -17.8895 0.0000
# 2 26.5353 74.2293 36.3398 0.0000 -14.1560 0.0000
# 3 23.3297 36.3398 97.5658 0.0000 -16.0049 0.0000
# 4 0.0000 0.0000 0.0000 23.7629 0.0000 -4.2566
# 5 -17.8895 -14.1560 -16.0049 0.0000 40.5221 0.0000
# 6 0.0000 0.0000 0.0000 -4.2566 0.0000 27.7624
#
#
#
# Elastic Compliance Matrix: (Units=1/GPa)
#
#
# Indices 1 2 3 4 5 6 
#
# 1 0.019542 -0.004910 -0.001829 0.000000 0.006190 0.000000
# 2 -0.004910 0.018205 -0.005260 0.000000 0.002115 0.000000
# 3 -0.001829 -0.005260 0.013058 0.000000 0.002513 0.000000
# 4 0.000000 0.000000 0.000000 0.043271 0.000000 0.006634
# 5 0.006190 0.002115 0.002513 0.000000 0.029142 0.000000
# 6 0.000000 0.000000 0.000000 0.006634 0.000000 0.037037
#
#
# Mechanical properties :
#
#
# Convention : Reuss Voigt Hill
#
# Bulk Modulus (GPa) = 37.30206 45.54368 41.42287
# Shear Modulus (GPa) = 25.88147 28.49473 27.18810
#
# Velocity S-wave (km/s) = 3.58361 3.76018 3.67295
# Velocity P-wave (km/s) = 5.96926 6.43820 6.20816
#
# Compressibility (1/GPa) = 0.02680817
#
# Stress axis : x y z
#
# Youngs Moduli (GPa) = 51.17166 54.92887 76.58120
#
# Poissons Ratio (x) = 0.26971 0.14004
# Poissons Ratio (y) = 0.25126 0.40280
# Poissons Ratio (z) = 0.09357 0.28892
#
# Static dielectric constant tensor:
#      x y z
#    x 3.736300 0.000000 -0.100710 
#    y 0.000000 3.638950 0.000000 
#    z -0.100710 0.000000 3.701830 
# 
# 
# High freq. dielectric constant tensor:
#      x y z
#    x 1.786840 0.000000 -0.011980 
#    y 0.000000 1.781220 0.000000 
#    z -0.011980 0.000000 1.791540 
# 
# From -- ./inp_files/98086.got.cif
#   From: 2010.06.25/outbox.cif.g09.slc.cpg/sg12_50_cif.got.tgz:98086.got - 2010.06.28 00:19:55.
