data_PCOD8113206
_publ_section_title
;
Structure prediction by ZEFSAII (Michael W. Deem and Ramdas Pophale) SiO2 
 PCOD8113206
Probable space group: C 2/M
;
_chemical_formula_sum "Si O2"
_cell_formula_units_Z 24
_cell_length_a 18.454582
_cell_length_b 10.545351
_cell_length_c 18.639370
_cell_angle_alpha 90.000000
_cell_angle_beta 164.530631
_cell_angle_gamma 90.000000
_cell_volume 967.513928
_symmetry_space_group_name_H-M "C 2/M"
_symmetry_group_IT_number 12
_symmetry_cell_setting 'monoclinic'
loop_
_space_group_symop_operation_xyz
x,y,z
-x,y,-z
-x,-y,-z
x,-y,z
1/2+x,1/2+y,z
1/2-x,1/2+y,-z
1/2-x,1/2-y,-z
1/2+x,1/2-y,z
loop_
_atom_site_type_symbol
_atom_site_label
_atom_site_fract_x
_atom_site_fract_y
_atom_site_fract_z
Si Si1 0.734529 0.234321 0.780589
Si Si2 0.117874 0.641416 0.826146
Si Si3 0.847965 0.500000 0.950547
Si Si4 0.207316 0.000000 0.507483
O O1 0.500000 0.219824 0.500000
O O2 0.629706 0.174095 0.754080
O O3 0.815961 0.379657 0.869635
O O4 0.000000 0.165163 0.000000
O O5 0.255350 0.500000 0.967667
O O6 0.803882 0.625324 0.554680
O O7 0.250000 0.750000 0.000000
O O8 0.612734 0.500000 0.786814
O O9 0.137117 0.500000 0.266774
#
# Coordination Sequence:
#
# PCOD8113206 Si02
#       4
#     8   8   4   4
#     4  12  26  43  69 103 148 187 228 285 357 417
#     4  10  23  48  73 106 138 186 235 292 344 420
#     4  12  22  45  70 105 142 181 237 294 340 414
#     4  10  24  41  76 101 134 179 245 288 344 395
#
# _framework density 24.805844
#
# number of rings (size 3 to 8) (size 9 to 14) (size 15 to 20)
#    1.000    0.000    3.333    3.000    0.000    5.333 
#    0.000    0.000    0.000    0.000    0.000    0.000 
#    0.000    0.000    0.000    0.000    0.000    0.000 
#
# Total GULP energy -148683.098008 kJ/mol
# GULP energy per Si atom -12390.258167 kJ/mol
# Density = 2.474939 g / cm^3
# Si number density = 24.805844 Si / 1000 Ang^3
#
#
#
# Elastic Constant Matrix: (Units=GPa)
#
#
# Indices 1 2 3 4 5 6 
#
# 1 185.7111 21.0296 50.7072 1.1759 -24.7600 -1.2353
# 2 21.0296 122.9206 4.6428 0.1764 -28.0334 -0.3196
# 3 50.7072 4.6428 70.0369 0.5876 -26.2600 -0.7159
# 4 1.1759 0.1764 0.5876 -50.2938 0.0792 96.6907
# 5 -24.7600 -28.0334 -26.2600 0.0792 49.4926 -0.1051
# 6 -1.2353 -0.3196 -0.7159 96.6907 -0.1051 -82.8956
#
#
#
# Elastic Compliance Matrix: (Units=1/GPa)
#
#
# Indices 1 2 3 4 5 6 
#
# 1 0.006833 -0.000901 -0.004741 0.000008 0.000393 -0.000049
# 2 -0.000901 0.009626 0.002358 0.000040 0.006253 -0.000005
# 3 -0.004741 0.002358 0.021427 0.000079 0.010333 -0.000044
# 4 0.000008 0.000040 0.000079 0.016004 0.000083 0.018666
# 5 0.000393 0.006253 0.010333 0.000083 0.029426 -0.000060
# 6 -0.000049 -0.000005 -0.000044 0.018666 -0.000060 0.009710
#
#
# Mechanical properties :
#
#
# Convention : Reuss Voigt Hill
#
# Bulk Modulus (GPa) = 31.92829 59.04753 45.48791
# Shear Modulus (GPa) = 45.44110 3.41325 24.42717
#
# Velocity S-wave (km/s) = 4.28468 1.17430 3.14145
# Velocity P-wave (km/s) = 6.11369 5.06894 5.61566
#
# Compressibility (1/GPa) = 0.03132019
#
# Stress axis : x y z
#
# Youngs Moduli (GPa) = 146.34591 103.88159 46.66946
#
# Poissons Ratio (x) = 0.09355 0.22125
# Poissons Ratio (y) = 0.13178 -0.11005
# Poissons Ratio (z) = 0.69379 -0.24495
#
# Static dielectric constant tensor:
#      x y z
#    x 6.673610 0.002130 0.011730 
#    y 0.002130 4.776480 -0.000620 
#    z 0.011730 -0.000620 4.237130 
# 
# 
# High freq. dielectric constant tensor:
#      x y z
#    x 2.020410 -0.000020 0.001130 
#    y -0.000020 1.985250 -0.000040 
#    z 0.001130 -0.000040 1.976110 
# 
# From -- ./inp_files/277157.got.cif
#   From: 2010.06.25/outbox.cif.g09.slc.cpg/sg12_139_cif.got.tgz:277157.got - 2010.06.28 00:19:55.
