data_PCOD8113760
_publ_section_title
;
Structure prediction by ZEFSAII (Michael W. Deem and Ramdas Pophale) SiO2 
 PCOD8113760
Probable space group: C 2/M
;
_chemical_formula_sum "Si O2"
_cell_formula_units_Z 48
_cell_length_a 27.381365
_cell_length_b 8.832687
_cell_length_c 11.909755
_cell_angle_alpha 90.000000
_cell_angle_beta 107.291185
_cell_angle_gamma 90.000000
_cell_volume 2750.211842
_symmetry_space_group_name_H-M "C 2/M"
_symmetry_group_IT_number 12
_symmetry_cell_setting 'monoclinic'
loop_
_space_group_symop_operation_xyz
x,y,z
-x,y,-z
-x,-y,-z
x,-y,z
1/2+x,1/2+y,z
1/2-x,1/2+y,-z
1/2-x,1/2-y,-z
1/2+x,1/2-y,z
loop_
_atom_site_type_symbol
_atom_site_label
_atom_site_fract_x
_atom_site_fract_y
_atom_site_fract_z
Si Si1 0.695903 0.322831 0.494835
Si Si2 0.864679 0.321854 0.090595
Si Si3 0.220536 0.670623 0.130460
Si Si4 0.556980 0.180660 0.032765
Si Si5 0.361540 0.830501 0.734254
Si Si6 0.317799 0.824360 0.281327
O O1 0.704395 0.500000 0.497132
O O2 0.750000 0.250000 0.500000
O O3 0.650695 0.276537 0.379312
O O4 0.676421 0.276348 0.604624
O O5 0.863259 0.500000 0.067431
O O6 0.863474 0.285324 0.223126
O O7 0.813347 0.260576 0.994367
O O8 0.915532 0.258336 0.063023
O O9 0.241035 0.500000 0.120312
O O10 0.187539 0.666230 0.220537
O O11 0.265826 0.788521 0.180130
O O12 0.589338 0.233382 0.163940
O O13 0.554912 0.000000 0.029785
O O14 0.500000 0.250169 0.000000
O O15 0.372910 0.000000 0.697397
O O16 0.318627 0.000000 0.316249
#
# Coordination Sequence:
#
# PCOD8113760 Si02
#       6
#     8   8   8   8   8   8
#     4  12  23  34  48  67  96 133 172 204 238 285
#     4   8  16  28  43  69 100 128 160 201 244 286
#     4   9  16  28  45  65  96 131 161 196 237 282
#     4   8  14  28  53  80 102 124 154 200 254 295
#     4   9  17  30  49  74 101 127 161 202 241 283
#     4  11  20  29  44  67  99 134 166 197 235 285
#
# _framework density 17.453199999999999
#
# number of rings (size 3 to 8) (size 9 to 14) (size 15 to 20)
#    0.000    2.500    1.667    4.500    0.000    0.000 
#    0.000    0.833    0.000    2.500    0.000    7.000 
#    0.000    0.000    0.000    0.000    0.000    0.000 
#
# Total GULP energy -297437.831047 kJ/mol
# GULP energy per Si atom -12393.242960 kJ/mol
# Density = 1.741348 g / cm^3
# Si number density = 17.453200 Si / 1000 Ang^3
#
#
#
# Elastic Constant Matrix: (Units=GPa)
#
#
# Indices 1 2 3 4 5 6 
#
# 1 94.3398 26.2884 64.3825 0.0000 3.6734 0.0000
# 2 26.2884 67.1241 38.7145 0.0000 -4.2669 0.0000
# 3 64.3825 38.7145 115.3469 0.0000 -15.2381 0.0000
# 4 0.0000 0.0000 0.0000 24.4918 0.0000 0.7065
# 5 3.6734 -4.2669 -15.2381 0.0000 20.8093 0.0000
# 6 0.0000 0.0000 0.0000 0.7065 0.0000 11.3972
#
#
#
# Elastic Compliance Matrix: (Units=1/GPa)
#
#
# Indices 1 2 3 4 5 6 
#
# 1 0.019921 -0.001521 -0.012305 0.000000 -0.012839 0.000000
# 2 -0.001521 0.018603 -0.005375 0.000000 0.000147 0.000000
# 3 -0.012305 -0.005375 0.019356 0.000000 0.015244 0.000000
# 4 0.000000 0.000000 0.000000 0.040903 0.000000 -0.002535
# 5 -0.012839 0.000147 0.015244 0.000000 0.061515 0.000000
# 6 0.000000 0.000000 0.000000 -0.002535 0.000000 0.087898
#
#
# Mechanical properties :
#
#
# Convention : Reuss Voigt Hill
#
# Bulk Modulus (GPa) = 51.34238 59.50907 55.42572
# Shear Modulus (GPa) = 17.05951 21.16800 19.11375
#
# Velocity S-wave (km/s) = 3.12980 3.48637 3.31289
# Velocity P-wave (km/s) = 6.52242 7.09766 6.81611
#
# Compressibility (1/GPa) = 0.01947709
#
# Stress axis : x y z
#
# Youngs Moduli (GPa) = 50.19739 53.75421 51.66441
#
# Poissons Ratio (x) = 0.08177 0.63573
# Poissons Ratio (y) = 0.07636 0.27772
# Poissons Ratio (z) = 0.61768 0.28895
#
# Static dielectric constant tensor:
#      x y z
#    x 3.331200 0.000000 -0.107050 
#    y 0.000000 2.977100 0.000000 
#    z -0.107050 0.000000 3.388760 
# 
# 
# High freq. dielectric constant tensor:
#      x y z
#    x 1.645750 0.000000 -0.015900 
#    y 0.000000 1.644970 0.000000 
#    z -0.015900 0.000000 1.675890 
# 
# From -- ./inp_files/185732.got.cif
#   From: 2010.06.25/outbox.cif.g09.slc.cpg/sg12_93_cif.got.tgz:185732.got - 2010.06.28 00:19:55.
