data_PCOD8113595
_publ_section_title
;
Structure prediction by ZEFSAII (Michael W. Deem and Ramdas Pophale) SiO2 
 PCOD8113595
Probable space group: C 2/M
;
_chemical_formula_sum "Si O2"
_cell_formula_units_Z 48
_cell_length_a 18.257260
_cell_length_b 29.721253
_cell_length_c 10.823466
_cell_angle_alpha 90.000000
_cell_angle_beta 25.576368
_cell_angle_gamma 90.000000
_cell_volume 2535.507788
_symmetry_space_group_name_H-M "C 2/M"
_symmetry_group_IT_number 12
_symmetry_cell_setting 'monoclinic'
loop_
_space_group_symop_operation_xyz
x,y,z
-x,y,-z
-x,-y,-z
x,-y,z
1/2+x,1/2+y,z
1/2-x,1/2+y,-z
1/2-x,1/2-y,-z
1/2+x,1/2-y,z
loop_
_atom_site_type_symbol
_atom_site_label
_atom_site_fract_x
_atom_site_fract_y
_atom_site_fract_z
Si Si1 0.576298 0.123917 0.254733
Si Si2 0.543217 0.051857 0.735098
Si Si3 0.206878 0.288015 0.923495
Si Si4 0.272222 0.551190 0.612153
Si Si5 0.442438 0.385894 0.727541
Si Si6 0.988489 0.210860 0.695590
O O1 0.500000 0.141913 0.500000
O O2 0.447131 0.087632 0.391134
O O3 0.613447 0.165849 0.106821
O O4 0.750068 0.096243 0.016230
O O5 0.705898 0.059993 0.574620
O O6 0.541284 0.000000 0.691300
O O7 0.373358 0.063381 0.069191
O O8 0.307876 0.290656 0.639437
O O9 0.363703 0.275221 0.773317
O O10 0.062842 0.249126 0.126580
O O11 0.326553 0.500000 0.545834
O O12 0.440636 0.578881 0.381524
O O13 0.500000 0.374391 0.500000
O O14 0.441122 0.339741 0.809068
#
# Coordination Sequence:
#
# PCOD8113595 Si02
#       6
#     8   8   8   8   8   8
#     4  11  22  32  49  78 108 135 166 211 257 295
#     4   9  18  35  54  76 103 132 169 206 253 310
#     4   9  17  27  44  70 101 133 164 202 251 297
#     4   9  18  33  57  78  97 132 171 210 252 303
#     4  11  18  32  50  79 105 127 172 216 249 288
#     4   9  16  27  44  70 103 131 162 207 248 296
#
# _framework density 18.931118999999999
#
# number of rings (size 3 to 8) (size 9 to 14) (size 15 to 20)
#    0.000    2.333    5.000    1.000    7.000    1.333 
#    0.000    0.833    0.000    3.000    0.000    0.000 
#    0.000    0.000    0.000    0.000    0.000    0.000 
#
# Total GULP energy -297328.499217 kJ/mol
# GULP energy per Si atom -12388.687467 kJ/mol
# Density = 1.888803 g / cm^3
# Si number density = 18.931119 Si / 1000 Ang^3
#
#
#
# Elastic Constant Matrix: (Units=GPa)
#
#
# Indices 1 2 3 4 5 6 
#
# 1 42.5250 43.0818 20.8160 -0.0002 -8.4822 0.0005
# 2 43.0818 110.2372 32.9513 0.0000 -9.1477 -0.0007
# 3 20.8160 32.9513 68.2869 -0.0004 -3.3965 0.0005
# 4 -0.0002 0.0000 -0.0004 29.3635 0.0000 2.2940
# 5 -8.4822 -9.1477 -3.3965 0.0000 19.2906 -0.0005
# 6 0.0005 -0.0007 0.0005 2.2940 -0.0005 1.0046
#
#
#
# Elastic Compliance Matrix: (Units=1/GPa)
#
#
# Indices 1 2 3 4 5 6 
#
# 1 0.042814 -0.014107 -0.005690 0.000002 0.011134 -0.000028
# 2 -0.014107 0.015591 -0.003192 -0.000002 0.000628 0.000025
# 3 -0.005690 -0.003192 0.017875 0.000001 -0.000868 -0.000011
# 4 0.000002 -0.000002 0.000001 0.041450 -0.000002 -0.094645
# 5 0.011134 0.000628 -0.000868 -0.000002 0.056879 0.000029
# 6 -0.000028 0.000025 -0.000011 -0.094645 0.000029 1.211491
#
#
# Mechanical properties :
#
#
# Convention : Reuss Voigt Hill
#
# Bulk Modulus (GPa) = 33.00069 46.08303 39.54186
# Shear Modulus (GPa) = 3.46698 18.21177 10.83937
#
# Velocity S-wave (km/s) = 1.35475 3.10498 2.39544
# Velocity P-wave (km/s) = 4.46284 6.10327 5.34634
#
# Compressibility (1/GPa) = 0.03030240
#
# Stress axis : x y z
#
# Youngs Moduli (GPa) = 23.35709 64.14047 55.94281
#
# Poissons Ratio (x) = 0.90485 0.31830
# Poissons Ratio (y) = 0.32951 0.17855
# Poissons Ratio (z) = 0.13290 0.20471
#
# Static dielectric constant tensor:
#      x y z
#    x 3.017120 0.000000 -0.022080 
#    y 0.000000 3.431790 0.000000 
#    z -0.022080 0.000000 3.622560 
# 
# 
# High freq. dielectric constant tensor:
#      x y z
#    x 1.673280 0.000000 -0.011570 
#    y 0.000000 1.741870 0.000000 
#    z -0.011570 0.000000 1.728440 
# 
# From -- ./inp_files/170807.got.cif
#   From: 2010.06.25/outbox.cif.g09.slc.cpg/sg12_86_cif.got.tgz:170807.got - 2010.06.28 00:19:55.
