data_PCOD8113763
_publ_section_title
;
Structure prediction by ZEFSAII (Michael W. Deem and Ramdas Pophale) SiO2 
 PCOD8113763
Probable space group: C 2/M
;
_chemical_formula_sum "Si O2"
_cell_formula_units_Z 48
_cell_length_a 24.029599
_cell_length_b 8.809234
_cell_length_c 13.666995
_cell_angle_alpha 90.000000
_cell_angle_beta 107.025350
_cell_angle_gamma 90.000000
_cell_volume 2766.274214
_symmetry_space_group_name_H-M "C 2/M"
_symmetry_group_IT_number 12
_symmetry_cell_setting 'monoclinic'
loop_
_space_group_symop_operation_xyz
x,y,z
-x,y,-z
-x,-y,-z
x,-y,z
1/2+x,1/2+y,z
1/2-x,1/2+y,-z
1/2-x,1/2-y,-z
1/2+x,1/2-y,z
loop_
_atom_site_type_symbol
_atom_site_label
_atom_site_fract_x
_atom_site_fract_y
_atom_site_fract_z
Si Si1 0.362252 0.674370 0.366817
Si Si2 0.515887 0.323461 0.111944
Si Si3 0.375751 0.326010 0.712138
Si Si4 0.459576 0.323073 0.279661
Si Si5 0.564267 0.823050 0.432017
Si Si6 0.252263 0.825261 0.394620
O O1 0.347120 0.500000 0.377896
O O2 0.391481 0.699461 0.273960
O O3 0.411707 0.726573 0.466315
O O4 0.302631 0.764866 0.349581
O O5 0.503152 0.500000 0.094609
O O6 0.584083 0.292419 0.172118
O O7 0.473580 0.262183 0.177154
O O8 0.500000 0.243246 0.000000
O O9 0.386567 0.500000 0.682939
O O10 0.393964 0.209596 0.637852
O O11 0.307458 0.299320 0.696897
O O12 0.477376 0.500000 0.296881
O O13 0.498692 0.228458 0.375972
O O14 0.565537 0.000000 0.458647
O O15 0.250000 0.750000 0.500000
O O16 0.264632 0.000000 0.421062
#
# Coordination Sequence:
#
# PCOD8113763 Si02
#       6
#     8   8   8   8   8   8
#     4  11  21  32  46  65  97 136 167 198 237 286
#     4   8  14  29  55  79  93 113 156 209 251 292
#     4   9  18  32  49  71  99 128 160 200 244 288
#     4   9  19  33  48  69  97 128 160 199 249 294
#     4  11  20  29  46  70  97 129 164 201 239 288
#     4  11  21  32  48  69  98 135 171 201 235 281
#
# _framework density 17.351858
#
# number of rings (size 3 to 8) (size 9 to 14) (size 15 to 20)
#    0.000    2.167    1.667    4.000    0.000    4.000 
#    0.000    0.000    0.000    9.000    0.000    0.000 
#    0.000    0.000    0.000    0.000    0.000    0.333 
#
# Total GULP energy -297420.196919 kJ/mol
# GULP energy per Si atom -12392.508205 kJ/mol
# Density = 1.731236 g / cm^3
# Si number density = 17.351858 Si / 1000 Ang^3
#
#
#
# Elastic Constant Matrix: (Units=GPa)
#
#
# Indices 1 2 3 4 5 6 
#
# 1 151.5549 37.6241 55.4367 0.0000 0.7164 0.0000
# 2 37.6241 61.2756 13.2518 0.0000 5.9469 0.0000
# 3 55.4367 13.2518 87.2138 0.0000 6.7593 0.0000
# 4 0.0000 0.0000 0.0000 7.5686 0.0000 2.1105
# 5 0.7164 5.9469 6.7593 0.0000 10.2277 0.0000
# 6 0.0000 0.0000 0.0000 2.1105 0.0000 26.8565
#
#
#
# Elastic Compliance Matrix: (Units=1/GPa)
#
#
# Indices 1 2 3 4 5 6 
#
# 1 0.010199 -0.005572 -0.006147 0.000000 0.006588 0.000000
# 2 -0.005572 0.020660 0.001374 0.000000 -0.012531 0.000000
# 3 -0.006147 0.001374 0.016013 0.000000 -0.010951 0.000000
# 4 0.000000 0.000000 0.000000 0.135085 0.000000 -0.010615
# 5 0.006588 -0.012531 -0.010951 0.000000 0.111836 0.000000
# 6 0.000000 0.000000 0.000000 -0.010615 0.000000 0.038069
#
#
# Mechanical properties :
#
#
# Convention : Reuss Voigt Hill
#
# Bulk Modulus (GPa) = 38.19416 56.96327 47.57872
# Shear Modulus (GPa) = 13.83970 21.84601 17.84286
#
# Velocity S-wave (km/s) = 2.82723 3.55209 3.21019
# Velocity P-wave (km/s) = 5.71988 7.05143 6.42027
#
# Compressibility (1/GPa) = 0.02618201
#
# Stress axis : x y z
#
# Youngs Moduli (GPa) = 98.05029 48.40228 62.44869
#
# Poissons Ratio (x) = 0.26971 0.38385
# Poissons Ratio (y) = 0.54637 -0.08580
# Poissons Ratio (z) = 0.60269 -0.06650
#
# Static dielectric constant tensor:
#      x y z
#    x 3.450590 0.000000 -0.076850 
#    y 0.000000 3.125070 0.000000 
#    z -0.076850 0.000000 3.266960 
# 
# 
# High freq. dielectric constant tensor:
#      x y z
#    x 1.678420 0.000000 -0.001770 
#    y 0.000000 1.659300 0.000000 
#    z -0.001770 0.000000 1.632080 
# 
# From -- ./inp_files/236596.got.cif
#   From: 2010.06.25/outbox.cif.g09.slc.cpg/sg12_119_cif.got.tgz:236596.got - 2010.06.28 00:19:55.
