data_PCOD8113916
_publ_section_title
;
Structure prediction by ZEFSAII (Michael W. Deem and Ramdas Pophale) SiO2 
 PCOD8113916
Probable space group: C 2/M
;
_chemical_formula_sum "Si O2"
_cell_formula_units_Z 48
_cell_length_a 11.027233
_cell_length_b 27.073159
_cell_length_c 9.430174
_cell_angle_alpha 90.000000
_cell_angle_beta 119.381332
_cell_angle_gamma 90.000000
_cell_volume 2453.181292
_symmetry_space_group_name_H-M "C 2/M"
_symmetry_group_IT_number 12
_symmetry_cell_setting 'monoclinic'
loop_
_space_group_symop_operation_xyz
x,y,z
-x,y,-z
-x,-y,-z
x,-y,z
1/2+x,1/2+y,z
1/2-x,1/2+y,-z
1/2-x,1/2-y,-z
1/2+x,1/2-y,z
loop_
_atom_site_type_symbol
_atom_site_label
_atom_site_fract_x
_atom_site_fract_y
_atom_site_fract_z
Si Si1 0.651471 0.053633 0.022317
Si Si2 0.000000 0.772012 0.500000
Si Si3 0.834674 0.946933 0.401569
Si Si4 0.761721 0.157448 0.354366
Si Si5 0.251630 0.346556 0.017342
Si Si6 0.500000 0.700009 0.000000
Si Si7 0.994897 0.280954 0.216258
O O1 0.772508 0.050782 0.208312
O O2 0.689569 0.099283 0.940234
O O3 0.645932 0.000000 0.940025
O O4 0.500000 0.065539 0.000000
O O5 0.873812 0.805507 0.486326
O O6 0.947422 0.737509 0.342808
O O7 0.772869 0.896798 0.436074
O O8 0.000000 0.941346 0.500000
O O9 0.794952 0.000000 0.453651
O O10 0.797588 0.153443 0.207768
O O11 0.608862 0.176649 0.298260
O O12 0.378098 0.335618 0.984628
O O13 0.138202 0.303555 0.937968
O O14 0.447372 0.735014 0.841998
#
# Coordination Sequence:
#
# PCOD8113916 Si02
#       7
#     8   4   8   8   8   4   8
#     4   9  18  34  58  88 116 146 194 248 290 343
#     4  12  24  36  51  86 117 146 192 238 292 342
#     4   9  17  30  51  81 114 144 180 233 292 343
#     4  11  20  36  57  82 112 149 190 240 288 342
#     4  11  21  37  59  83 112 155 197 237 291 351
#     4  12  22  36  57  80 113 158 198 230 290 348
#     4  12  23  39  57  82 112 156 197 242 286 347
#
# _framework density 19.56643
#
# number of rings (size 3 to 8) (size 9 to 14) (size 15 to 20)
#    0.000    1.333    4.167    4.000    0.000    0.000 
#    0.000    0.417    0.000    0.000    0.000    4.667 
#    0.000    0.000    0.000    0.000    0.000    0.000 
#
# Total GULP energy -297399.424277 kJ/mol
# GULP energy per Si atom -12391.642678 kJ/mol
# Density = 1.952190 g / cm^3
# Si number density = 19.566430 Si / 1000 Ang^3
#
#
#
# Elastic Constant Matrix: (Units=GPa)
#
#
# Indices 1 2 3 4 5 6 
#
# 1 94.3399 65.8718 15.1077 0.0000 20.3530 0.0000
# 2 65.8718 178.6660 22.4297 0.0000 5.7654 0.0000
# 3 15.1077 22.4297 56.4690 0.0000 13.4854 0.0000
# 4 0.0000 0.0000 0.0000 21.2093 0.0000 10.6246
# 5 20.3530 5.7654 13.4854 0.0000 29.6674 0.0000
# 6 0.0000 0.0000 0.0000 10.6246 0.0000 31.2451
#
#
#
# Elastic Compliance Matrix: (Units=1/GPa)
#
#
# Indices 1 2 3 4 5 6 
#
# 1 0.017018 -0.005976 0.000372 0.000000 -0.010683 0.000000
# 2 -0.005976 0.007990 -0.002449 0.000000 0.003660 0.000000
# 3 0.000372 -0.002449 0.020786 0.000000 -0.009227 0.000000
# 4 0.000000 0.000000 0.000000 0.056829 0.000000 -0.019324
# 5 -0.010683 0.003660 -0.009227 0.000000 0.044519 0.000000
# 6 0.000000 0.000000 0.000000 -0.019324 0.000000 0.038576
#
#
# Mechanical properties :
#
#
# Convention : Reuss Voigt Hill
#
# Bulk Modulus (GPa) = 33.68472 59.58815 46.63644
# Shear Modulus (GPa) = 23.61617 31.49541 27.55579
#
# Velocity S-wave (km/s) = 3.47792 4.01642 3.75683
# Velocity P-wave (km/s) = 5.77762 7.21313 6.53491
#
# Compressibility (1/GPa) = 0.02968705
#
# Stress axis : x y z
#
# Youngs Moduli (GPa) = 58.76149 125.16095 48.11017
#
# Poissons Ratio (x) = 0.74800 -0.01789
# Poissons Ratio (y) = 0.35117 0.11781
# Poissons Ratio (z) = -0.02186 0.30649
#
# Static dielectric constant tensor:
#      x y z
#    x 3.258470 0.000000 0.317670 
#    y 0.000000 4.464870 0.000000 
#    z 0.317670 0.000000 3.449070 
# 
# 
# High freq. dielectric constant tensor:
#      x y z
#    x 1.725820 0.000000 0.044180 
#    y 0.000000 1.793110 0.000000 
#    z 0.044180 0.000000 1.741160 
# 
# From -- ./inp_files/136389.got.cif
#   From: 2010.06.25/outbox.cif.g09.slc.cpg/sg12_69_cif.got.tgz:136389.got - 2010.06.28 00:19:55.
