data_PCOD8113979
_publ_section_title
;
Structure prediction by ZEFSAII (Michael W. Deem and Ramdas Pophale) SiO2 
 PCOD8113979
Probable space group: C 2/M
;
_chemical_formula_sum "Si O2"
_cell_formula_units_Z 40
_cell_length_a 16.205318
_cell_length_b 9.517580
_cell_length_c 26.366170
_cell_angle_alpha 90.000000
_cell_angle_beta 27.802526
_cell_angle_gamma 90.000000
_cell_volume 1896.765127
_symmetry_space_group_name_H-M "C 2/M"
_symmetry_group_IT_number 12
_symmetry_cell_setting 'monoclinic'
loop_
_space_group_symop_operation_xyz
x,y,z
-x,y,-z
-x,-y,-z
x,-y,z
1/2+x,1/2+y,z
1/2-x,1/2+y,-z
1/2-x,1/2-y,-z
1/2+x,1/2-y,z
loop_
_atom_site_type_symbol
_atom_site_label
_atom_site_fract_x
_atom_site_fract_y
_atom_site_fract_z
Si Si1 0.177669 0.500000 0.218002
Si Si2 0.359119 0.000000 0.467957
Si Si3 0.535932 0.500000 0.354890
Si Si4 0.685385 0.723982 0.926531
Si Si5 0.549836 0.236037 0.417703
Si Si6 0.666262 0.500000 0.719971
Si Si7 0.951493 0.000000 0.928290
Si Si8 0.123918 0.000000 0.193073
O O1 0.179976 0.637787 0.182047
O O2 0.348797 0.500000 0.159936
O O3 0.001494 0.500000 0.345897
O O4 0.386883 0.139710 0.486806
O O5 0.171801 0.000000 0.542589
O O6 0.590254 0.362361 0.357214
O O7 0.644012 0.500000 0.243311
O O8 0.780018 0.869571 0.885689
O O9 0.500000 0.748937 0.000000
O O10 0.652418 0.638680 0.996557
O O11 0.500000 0.297600 0.500000
O O12 0.723120 0.139458 0.328328
O O13 0.480691 0.500000 0.852281
O O14 0.587668 0.500000 0.705208
#
# Coordination Sequence:
#
# PCOD8113979 Si02
#       8
#     4   4   4   8   8   4   4   4
#     4   9  16  35  63  90 118 158 208 240 305 366
#     4  11  20  38  67  94 119 165 207 255 300 366
#     4  12  26  39  63  95 128 159 210 258 300 363
#     4   9  20  36  62  93 123 159 201 259 301 362
#     4  11  23  42  62  87 126 168 204 249 311 366
#     4  11  24  42  65  87 125 169 203 249 310 375
#     4   9  18  39  64  85 121 166 202 236 314 371
#     4  12  24  39  60  97 127 155 207 262 305 353
#
# _framework density 21.088536999999999
#
# number of rings (size 3 to 8) (size 9 to 14) (size 15 to 20)
#    0.000    1.600    2.000    6.000    2.800    2.400 
#    0.000    2.000    0.000    0.000    0.000    0.000 
#    0.000    0.000    0.000    0.000    0.000    0.000 
#
# Total GULP energy -247982.606670 kJ/mol
# GULP energy per Si atom -12399.130334 kJ/mol
# Density = 2.104054 g / cm^3
# Si number density = 21.088537 Si / 1000 Ang^3
#
#
#
# Elastic Constant Matrix: (Units=GPa)
#
#
# Indices 1 2 3 4 5 6 
#
# 1 86.1957 50.2426 30.3560 -0.0002 5.4772 -0.0070
# 2 50.2426 151.2132 32.7468 -0.0003 -4.9366 -0.0020
# 3 30.3560 32.7468 95.7796 -0.0036 10.0765 -0.0248
# 4 -0.0002 -0.0003 -0.0036 16.7439 0.0009 5.1723
# 5 5.4772 -4.9366 10.0765 0.0009 31.9426 0.0098
# 6 -0.0070 -0.0020 -0.0248 5.1723 0.0098 182.8579
#
#
#
# Elastic Compliance Matrix: (Units=1/GPa)
#
#
# Indices 1 2 3 4 5 6 
#
# 1 0.015502 -0.004556 -0.003105 -0.000001 -0.002383 0.000000
# 2 -0.004556 0.008599 -0.001777 0.000000 0.002671 0.000000
# 3 -0.003105 -0.001777 0.012417 0.000002 -0.003659 0.000002
# 4 -0.000001 0.000000 0.000002 0.060250 -0.000002 -0.001704
# 5 -0.002383 0.002671 -0.003659 -0.000002 0.033282 -0.000002
# 6 0.000000 0.000000 0.000002 -0.001704 -0.000002 0.005517
#
#
# Mechanical properties :
#
#
# Convention : Reuss Voigt Hill
#
# Bulk Modulus (GPa) = 56.68118 62.20882 59.44500
# Shear Modulus (GPa) = 31.18693 60.96507 46.07600
#
# Velocity S-wave (km/s) = 3.84976 5.38255 4.67934
# Velocity P-wave (km/s) = 6.83352 8.25785 7.57922
#
# Compressibility (1/GPa) = 0.01764254
#
# Stress axis : x y z
#
# Youngs Moduli (GPa) = 64.50735 116.29188 80.53380
#
# Poissons Ratio (x) = 0.52985 0.25003
# Poissons Ratio (y) = 0.29391 0.14310
# Poissons Ratio (z) = 0.20028 0.20664
#
# Static dielectric constant tensor:
#      x y z
#    x 3.814200 0.000000 0.324990 
#    y 0.000000 3.838830 0.000000 
#    z 0.324990 0.000000 3.978100 
# 
# 
# High freq. dielectric constant tensor:
#      x y z
#    x 1.815330 0.000000 0.016960 
#    y 0.000000 1.825940 0.000000 
#    z 0.016960 0.000000 1.830920 
# 
# From -- ./inp_files/362628.got.cif
#   From: 2010.06.25/outbox.cif.g09.slc.cpg/sg12_182_cif.got.tgz:362628.got - 2010.06.28 00:19:55.
