data_PCOD8113551
_publ_section_title
;
Structure prediction by ZEFSAII (Michael W. Deem and Ramdas Pophale) SiO2 
 PCOD8113551
Probable space group: C 2/M
;
_chemical_formula_sum "Si O2"
_cell_formula_units_Z 44
_cell_length_a 8.083310
_cell_length_b 18.070109
_cell_length_c 16.511932
_cell_angle_alpha 90.000000
_cell_angle_beta 50.904353
_cell_angle_gamma 90.000000
_cell_volume 1871.812759
_symmetry_space_group_name_H-M "C 2/M"
_symmetry_group_IT_number 12
_symmetry_cell_setting 'monoclinic'
loop_
_space_group_symop_operation_xyz
x,y,z
-x,y,-z
-x,-y,-z
x,-y,z
1/2+x,1/2+y,z
1/2-x,1/2+y,-z
1/2-x,1/2-y,-z
1/2+x,1/2-y,z
loop_
_atom_site_type_symbol
_atom_site_label
_atom_site_fract_x
_atom_site_fract_y
_atom_site_fract_z
Si Si1 0.194063 0.154946 0.882792
Si Si2 0.590144 0.703613 0.162275
Si Si3 0.654348 0.000000 0.832043
Si Si4 0.853266 0.500000 0.791750
Si Si5 0.000000 0.228787 0.500000
Si Si6 0.637555 0.341523 0.619535
Si Si7 0.838932 0.000000 0.325682
Si Si8 0.500000 0.118691 0.000000
O O1 0.393725 0.207034 0.844605
O O2 0.244252 0.069374 0.867601
O O3 0.128000 0.179899 0.812978
O O4 0.000000 0.173596 0.000000
O O5 0.569624 0.671756 0.259996
O O6 0.791942 0.669388 0.051904
O O7 0.598976 0.000000 0.751401
O O8 0.537862 0.070453 0.908072
O O9 0.907149 0.000000 0.773439
O O10 0.813423 0.500000 0.707604
O O11 0.816952 0.282587 0.591128
O O12 0.919732 0.173088 0.455753
O O13 0.717249 0.426642 0.605220
#
# Coordination Sequence:
#
# PCOD8113551 Si02
#       8
#     8   8   4   4   4   8   4   4
#     4  12  25  40  62  99 144 195 241 286 338 416
#     4  12  24  41  70 100 147 184 241 291 348 423
#     4  11  24  42  70 101 157 202 239 282 355 429
#     4  12  26  43  64 103 141 204 242 290 350 422
#     4  10  26  50  78 104 132 186 238 306 382 432
#     4  11  24  49  77 105 142 181 238 305 369 434
#     4  12  25  49  73 110 148 188 235 309 354 439
#     4  11  22  42  66 107 148 202 234 289 348 430
#
# _framework density 23.506623000000001
#
# number of rings (size 3 to 8) (size 9 to 14) (size 15 to 20)
#    0.000    0.545    4.545    3.000    2.545    4.364 
#    3.273    0.000    0.000    0.000    0.000    0.000 
#    0.000    0.000    0.000    0.000    0.000    0.000 
#
# Total GULP energy -272730.110888 kJ/mol
# GULP energy per Si atom -12396.823222 kJ/mol
# Density = 2.345312 g / cm^3
# Si number density = 23.506623 Si / 1000 Ang^3
#
#
#
# Elastic Constant Matrix: (Units=GPa)
#
#
# Indices 1 2 3 4 5 6 
#
# 1 120.9782 35.1990 14.4977 0.0000 17.0233 0.0000
# 2 35.1990 171.6111 19.5804 0.0000 16.9137 0.0000
# 3 14.4977 19.5804 62.2752 0.0000 9.5165 0.0000
# 4 0.0000 0.0000 0.0000 36.5042 0.0000 6.3712
# 5 17.0233 16.9137 9.5165 0.0000 28.1236 0.0000
# 6 0.0000 0.0000 0.0000 6.3712 0.0000 19.3058
#
#
#
# Elastic Compliance Matrix: (Units=1/GPa)
#
#
# Indices 1 2 3 4 5 6 
#
# 1 0.009428 -0.001366 -0.001075 0.000000 -0.004522 0.000000
# 2 -0.001366 0.006519 -0.001328 0.000000 -0.002645 0.000000
# 3 -0.001075 -0.001328 0.017404 0.000000 -0.004440 0.000000
# 4 0.000000 0.000000 0.000000 0.029068 0.000000 -0.009593
# 5 -0.004522 -0.002645 -0.004440 0.000000 0.041388 0.000000
# 6 0.000000 0.000000 0.000000 -0.009593 0.000000 0.054964
#
#
# Mechanical properties :
#
#
# Convention : Reuss Voigt Hill
#
# Bulk Modulus (GPa) = 38.73559 54.82430 46.77994
# Shear Modulus (GPa) = 28.58573 35.82589 32.20581
#
# Velocity S-wave (km/s) = 3.49100 3.90818 3.70547
# Velocity P-wave (km/s) = 5.72397 6.61352 6.18476
#
# Compressibility (1/GPa) = 0.02581605
#
# Stress axis : x y z
#
# Youngs Moduli (GPa) = 106.06296 153.38870 57.45845
#
# Poissons Ratio (x) = 0.20946 0.06174
# Poissons Ratio (y) = 0.14483 0.07629
# Poissons Ratio (z) = 0.11397 0.20366
#
# Static dielectric constant tensor:
#      x y z
#    x 4.392190 0.000000 0.103690 
#    y 0.000000 4.414220 0.000000 
#    z 0.103690 0.000000 3.905550 
# 
# 
# High freq. dielectric constant tensor:
#      x y z
#    x 1.934460 0.000000 0.013790 
#    y 0.000000 1.950710 0.000000 
#    z 0.013790 0.000000 1.902750 
# 
# From -- ./inp_files/195556.got.cif
#   From: 2010.06.25/outbox.cif.g09.slc.cpg/sg12_98_cif.got.tgz:195556.got - 2010.06.28 00:19:55.
