data_PCOD8113780
_publ_section_title
;
Structure prediction by ZEFSAII (Michael W. Deem and Ramdas Pophale) SiO2 
 PCOD8113780
Probable space group: C 2/M
;
_chemical_formula_sum "Si O2"
_cell_formula_units_Z 48
_cell_length_a 24.351446
_cell_length_b 8.468831
_cell_length_c 21.872886
_cell_angle_alpha 90.000000
_cell_angle_beta 141.826423
_cell_angle_gamma 90.000000
_cell_volume 2787.886267
_symmetry_space_group_name_H-M "C 2/M"
_symmetry_group_IT_number 12
_symmetry_cell_setting 'monoclinic'
loop_
_space_group_symop_operation_xyz
x,y,z
-x,y,-z
-x,-y,-z
x,-y,z
1/2+x,1/2+y,z
1/2-x,1/2+y,-z
1/2-x,1/2-y,-z
1/2+x,1/2-y,z
loop_
_atom_site_type_symbol
_atom_site_label
_atom_site_fract_x
_atom_site_fract_y
_atom_site_fract_z
Si Si1 0.458654 0.326851 0.530474
Si Si2 0.863850 0.188375 0.263788
Si Si3 0.284578 0.687620 0.323935
Si Si4 0.899555 0.183039 0.851403
Si Si5 0.582807 0.816527 0.001265
Si Si6 0.234754 0.185248 0.053577
O O1 0.500000 0.346217 0.500000
O O2 0.441235 0.500000 0.542916
O O3 0.534136 0.245373 0.639188
O O4 0.362119 0.242900 0.437419
O O5 0.806431 0.233287 0.273146
O O6 0.821823 0.275336 0.169346
O O7 0.863707 0.000000 0.254090
O O8 0.279665 0.500000 0.326447
O O9 0.191362 0.765031 0.261409
O O10 0.981373 0.279143 0.893192
O O11 0.916706 0.000000 0.855220
O O12 0.892140 0.216874 0.916991
O O13 0.593612 0.000000 0.026772
O O14 0.647843 0.771245 0.003542
O O15 0.217747 0.000000 0.037442
O O16 0.250000 0.250000 0.000000
#
# Coordination Sequence:
#
# PCOD8113780 Si02
#       6
#     8   8   8   8   8   8
#     4   7  12  23  42  68  95 127 163 196 233 287
#     4   9  16  29  48  69  97 130 165 203 243 285
#     4   9  15  26  46  71 100 133 165 194 237 293
#     4  11  20  30  47  73 103 132 161 200 247 295
#     4  11  21  35  51  69  94 129 168 205 246 293
#     4  12  24  37  52  72  98 130 168 207 247 291
#
# _framework density 17.217345999999999
#
# number of rings (size 3 to 8) (size 9 to 14) (size 15 to 20)
#    0.000    2.167    1.667    7.500    0.000    0.000 
#    0.000    0.833    0.000    3.000    0.000    1.167 
#    0.000    0.000    0.000    0.000    0.000    0.000 
#
# Total GULP energy -297401.572636 kJ/mol
# GULP energy per Si atom -12391.732193 kJ/mol
# Density = 1.717816 g / cm^3
# Si number density = 17.217346 Si / 1000 Ang^3
#
#
#
# Elastic Constant Matrix: (Units=GPa)
#
#
# Indices 1 2 3 4 5 6 
#
# 1 71.0087 11.5795 50.5469 0.0000 12.4474 0.0000
# 2 11.5795 58.0863 23.9408 0.0000 3.2863 0.0000
# 3 50.5469 23.9408 134.4680 0.0000 30.0603 0.0000
# 4 0.0000 0.0000 0.0000 16.8357 0.0000 1.1623
# 5 12.4474 3.2863 30.0603 0.0000 28.9758 0.0000
# 6 0.0000 0.0000 0.0000 1.1623 0.0000 19.6368
#
#
#
# Elastic Compliance Matrix: (Units=1/GPa)
#
#
# Indices 1 2 3 4 5 6 
#
# 1 0.019300 -0.000967 -0.006840 0.000000 -0.001085 0.000000
# 2 -0.000967 0.018694 -0.003364 0.000000 0.001785 0.000000
# 3 -0.006840 -0.003364 0.012843 0.000000 -0.010004 0.000000
# 4 0.000000 0.000000 0.000000 0.059641 0.000000 -0.003530
# 5 -0.001085 0.001785 -0.010004 0.000000 0.045154 0.000000
# 6 0.000000 0.000000 0.000000 -0.003530 0.000000 0.051134
#
#
# Mechanical properties :
#
#
# Convention : Reuss Voigt Hill
#
# Bulk Modulus (GPa) = 35.09352 48.41082 41.75217
# Shear Modulus (GPa) = 20.95508 24.92272 22.93890
#
# Velocity S-wave (km/s) = 3.49247 3.80878 3.65405
# Velocity P-wave (km/s) = 6.05723 6.89354 6.48887
#
# Compressibility (1/GPa) = 0.02849529
#
# Stress axis : x y z
#
# Youngs Moduli (GPa) = 51.81423 53.49325 77.86204
#
# Poissons Ratio (x) = 0.05172 0.53259
# Poissons Ratio (y) = 0.05009 0.26192
# Poissons Ratio (z) = 0.35442 0.17994
#
# Static dielectric constant tensor:
#      x y z
#    x 2.918940 0.000000 0.432060 
#    y 0.000000 3.060280 0.000000 
#    z 0.432060 0.000000 3.625250 
# 
# 
# High freq. dielectric constant tensor:
#      x y z
#    x 1.615420 0.000000 0.039180 
#    y 0.000000 1.652820 0.000000 
#    z 0.039180 0.000000 1.673220 
# 
# From -- ./inp_files/323853.got.cif
#   From: 2010.06.25/outbox.cif.g09.slc.cpg/sg12_162_cif.got.tgz:323853.got - 2010.06.28 00:19:55.
