data_PCOD8113408
_publ_section_title
;
Structure prediction by ZEFSAII (Michael W. Deem and Ramdas Pophale) SiO2 
 PCOD8113408
Probable space group: C 2/M
;
_chemical_formula_sum "Si O2"
_cell_formula_units_Z 32
_cell_length_a 15.880324
_cell_length_b 12.161554
_cell_length_c 6.768853
_cell_angle_alpha 90.000000
_cell_angle_beta 111.998372
_cell_angle_gamma 90.000000
_cell_volume 1212.088581
_symmetry_space_group_name_H-M "C 2/M"
_symmetry_group_IT_number 12
_symmetry_cell_setting 'monoclinic'
loop_
_space_group_symop_operation_xyz
x,y,z
-x,y,-z
-x,-y,-z
x,-y,z
1/2+x,1/2+y,z
1/2-x,1/2+y,-z
1/2-x,1/2-y,-z
1/2+x,1/2-y,z
loop_
_atom_site_type_symbol
_atom_site_label
_atom_site_fract_x
_atom_site_fract_y
_atom_site_fract_z
Si Si1 0.617322 0.500000 0.434013
Si Si2 0.664180 0.272311 0.059334
Si Si3 0.211148 0.619791 0.449804
Si Si4 0.081558 0.000000 0.869725
Si Si5 0.413984 0.874849 0.303763
O O1 0.678669 0.608520 0.443494
O O2 0.596334 0.500000 0.648338
O O3 0.529257 0.500000 0.209935
O O4 0.683656 0.224661 0.295560
O O5 0.750000 0.250000 0.000000
O O6 0.629272 0.397451 0.020694
O O7 0.585805 0.197252 0.893460
O O8 0.171555 0.500000 0.338966
O O9 0.177417 0.640263 0.644448
O O10 0.500000 0.831544 0.500000
O O11 0.426851 0.000000 0.249726
#
# Coordination Sequence:
#
# PCOD8113408 Si02
#       5
#     4   8   8   4   8
#     4   9  20  44  72 102 146 183 232 304 345 417
#     4  12  24  42  72 104 144 192 234 294 355 423
#     4   9  20  45  75 105 140 185 239 299 351 423
#     4  11  24  42  73 109 148 185 240 290 354 428
#     4  10  24  44  73 105 140 187 237 294 359 424
#
# _framework density 26.400711999999999
#
# number of rings (size 3 to 8) (size 9 to 14) (size 15 to 20)
#    0.750    1.000    2.500    0.750    5.250    2.000 
#    0.000    7.500    0.000    3.000    0.000    0.000 
#    0.000    0.000    0.000    0.000    0.000    0.000 
#
# Total GULP energy -198308.749506 kJ/mol
# GULP energy per Si atom -12394.296844 kJ/mol
# Density = 2.634062 g / cm^3
# Si number density = 26.400712 Si / 1000 Ang^3
#
#
#
# Elastic Constant Matrix: (Units=GPa)
#
#
# Indices 1 2 3 4 5 6 
#
# 1 130.6155 59.8723 43.7500 0.0000 11.8862 0.0000
# 2 59.8723 201.7139 76.1027 0.0000 28.5685 0.0000
# 3 43.7500 76.1027 144.5363 0.0000 44.4274 0.0000
# 4 0.0000 0.0000 0.0000 34.3552 0.0000 9.3334
# 5 11.8862 28.5685 44.4274 0.0000 40.3535 0.0000
# 6 0.0000 0.0000 0.0000 9.3334 0.0000 1.5842
#
#
#
# Elastic Compliance Matrix: (Units=1/GPa)
#
#
# Indices 1 2 3 4 5 6 
#
# 1 0.009200 -0.002127 -0.001957 0.000000 0.000951 0.000000
# 2 -0.002127 0.006717 -0.002454 0.000000 -0.001427 0.000000
# 3 -0.001957 -0.002454 0.012231 0.000000 -0.011152 0.000000
# 4 0.000000 0.000000 0.000000 -0.048469 0.000000 0.285552
# 5 0.000951 -0.001427 -0.011152 0.000000 0.037789 0.000000
# 6 0.000000 0.000000 0.000000 0.285552 0.000000 -1.051088
#
#
# Mechanical properties :
#
#
# Convention : Reuss Voigt Hill
#
# Bulk Modulus (GPa) = 66.35026 92.92394 79.63710
# Shear Modulus (GPa) = -4.92359 35.06796 15.07218
#
# Velocity S-wave (km/s) = -1.36711 3.64853 2.39194
# Velocity P-wave (km/s) = 4.76388 7.28169 6.15295
#
# Compressibility (1/GPa) = 0.01507153
#
# Stress axis : x y z
#
# Youngs Moduli (GPa) = 108.69486 148.87911 81.75808
#
# Poissons Ratio (x) = 0.31667 0.16000
# Poissons Ratio (y) = 0.23120 0.20066
# Poissons Ratio (z) = 0.21272 0.36539
#
# Static dielectric constant tensor:
#      x y z
#    x 4.944370 0.000000 0.136920 
#    y 0.000000 5.013290 0.000000 
#    z 0.136920 0.000000 4.942320 
# 
# 
# High freq. dielectric constant tensor:
#      x y z
#    x 2.055390 0.000000 0.006860 
#    y 0.000000 2.082440 0.000000 
#    z 0.006860 0.000000 2.071780 
# 
# From -- ./inp_files/19223.got.cif
#   From: 2010.06.25/outbox.cif.g09.slc.cpg/sg12_10_cif.got.tgz:19223.got - 2010.06.28 00:19:55.
