data_PCOD8113039
_publ_section_title
;
Structure prediction by ZEFSAII (Michael W. Deem and Ramdas Pophale) SiO2 
 PCOD8113039
Probable space group: C 2/M
;
_chemical_formula_sum "Si O2"
_cell_formula_units_Z 56
_cell_length_a 14.381461
_cell_length_b 13.117639
_cell_length_c 21.843659
_cell_angle_alpha 90.000000
_cell_angle_beta 41.456702
_cell_angle_gamma 90.000000
_cell_volume 2728.207542
_symmetry_space_group_name_H-M "C 2/M"
_symmetry_group_IT_number 12
_symmetry_cell_setting 'monoclinic'
loop_
_space_group_symop_operation_xyz
x,y,z
-x,y,-z
-x,-y,-z
x,-y,z
1/2+x,1/2+y,z
1/2-x,1/2+y,-z
1/2-x,1/2-y,-z
1/2+x,1/2-y,z
loop_
_atom_site_type_symbol
_atom_site_label
_atom_site_fract_x
_atom_site_fract_y
_atom_site_fract_z
Si Si1 0.287506 0.620260 0.654512
Si Si2 0.456383 0.234433 0.168715
Si Si3 0.800059 0.615985 0.439189
Si Si4 0.610728 0.883243 0.995756
Si Si5 0.131005 0.118187 0.890025
Si Si6 0.478735 0.701032 0.384098
Si Si7 0.356893 0.280054 0.814659
O O1 0.312582 0.500000 0.648541
O O2 0.173032 0.656360 0.760904
O O3 0.237548 0.650272 0.611260
O O4 0.434351 0.678351 0.596583
O O5 0.407498 0.335993 0.157360
O O6 0.508116 0.259287 0.210702
O O7 0.584602 0.180919 0.069792
O O8 0.850407 0.500000 0.417043
O O9 0.661145 0.631686 0.548991
O O10 0.929990 0.681162 0.401877
O O11 0.765572 0.866283 0.893300
O O12 0.588332 0.000000 0.023405
O O13 0.500000 0.844253 0.000000
O O14 0.265667 0.177402 0.850544
O O15 0.172015 0.000000 0.861715
O O16 0.000000 0.130858 0.000000
O O17 0.583490 0.672790 0.277235
#
# Coordination Sequence:
#
# PCOD8113039 Si02
#       7
#     8   8   8   8   8   8   8
#     4  11  22  40  68  96 123 161 210 255 308 371
#     4  12  22  41  62  92 126 166 206 255 304 367
#     4  10  23  43  67  95 123 160 209 257 312 375
#     4  11  22  38  61  90 126 163 204 259 314 362
#     4  11  24  43  63  87 125 171 211 251 303 365
#     4  11  22  40  67  93 126 160 203 263 310 362
#     4  12  23  40  63  91 125 166 208 255 308 367
#
# _framework density 20.526297
#
# number of rings (size 3 to 8) (size 9 to 14) (size 15 to 20)
#    0.000    0.857    5.714    1.714    0.000    5.714 
#    0.000    0.000    0.000    7.714    0.000    0.000 
#    0.000    0.000    0.000    0.000    0.000    0.000 
#
# Total GULP energy -347276.852277 kJ/mol
# GULP energy per Si atom -12402.744724 kJ/mol
# Density = 2.047958 g / cm^3
# Si number density = 20.526297 Si / 1000 Ang^3
#
#
#
# Elastic Constant Matrix: (Units=GPa)
#
#
# Indices 1 2 3 4 5 6 
#
# 1 112.2398 51.8650 8.8689 0.0000 -3.4989 0.0000
# 2 51.8650 94.7840 18.7513 0.0000 8.7275 0.0000
# 3 8.8689 18.7513 92.3587 -0.0001 -3.4763 0.0001
# 4 0.0000 0.0000 -0.0001 24.9504 0.0001 -0.1894
# 5 -3.4989 8.7275 -3.4763 0.0001 27.0040 0.0000
# 6 0.0000 0.0000 0.0001 -0.1894 0.0000 28.0020
#
#
#
# Elastic Compliance Matrix: (Units=1/GPa)
#
#
# Indices 1 2 3 4 5 6 
#
# 1 0.012324 -0.007194 0.000427 0.000000 0.003977 0.000000
# 2 -0.007194 0.015607 -0.002716 0.000000 -0.006326 0.000000
# 3 0.000427 -0.002716 0.011428 0.000000 0.002404 0.000000
# 4 0.000000 0.000000 0.000000 0.040082 0.000000 0.000271
# 5 0.003977 -0.006326 0.002404 0.000000 0.039901 0.000000
# 6 0.000000 0.000000 0.000000 0.000271 0.000000 0.035714
#
#
# Mechanical properties :
#
#
# Convention : Reuss Voigt Hill
#
# Bulk Modulus (GPa) = 49.03745 50.92811 49.98278
# Shear Modulus (GPa) = 27.65193 30.65109 29.15151
#
# Velocity S-wave (km/s) = 3.67433 3.86846 3.77265
# Velocity P-wave (km/s) = 6.47633 6.69465 6.58640
#
# Compressibility (1/GPa) = 0.02039258
#
# Stress axis : x y z
#
# Youngs Moduli (GPa) = 81.14131 64.07497 87.50258
#
# Poissons Ratio (x) = 0.46098 -0.03735
# Poissons Ratio (y) = 0.58376 0.23764
# Poissons Ratio (z) = -0.03464 0.17402
#
# Static dielectric constant tensor:
#      x y z
#    x 3.718440 0.000000 -0.038580 
#    y 0.000000 3.595120 0.000000 
#    z -0.038580 0.000000 3.827630 
# 
# 
# High freq. dielectric constant tensor:
#      x y z
#    x 1.799260 0.000000 -0.004110 
#    y 0.000000 1.792920 0.000000 
#    z -0.004110 0.000000 1.814360 
# 
# From -- ./inp_files/310758.got.cif
#   From: 2010.06.25/outbox.cif.g09.slc.cpg/sg12_156_cif.got.tgz:310758.got - 2010.06.28 00:19:55.
