data_PCOD8113556
_publ_section_title
;
Structure prediction by ZEFSAII (Michael W. Deem and Ramdas Pophale) SiO2 
 PCOD8113556
Probable space group: C 2/M
;
_chemical_formula_sum "Si O2"
_cell_formula_units_Z 48
_cell_length_a 11.115320
_cell_length_b 20.795077
_cell_length_c 12.642604
_cell_angle_alpha 90.000000
_cell_angle_beta 55.040593
_cell_angle_gamma 90.000000
_cell_volume 2394.963183
_symmetry_space_group_name_H-M "C 2/M"
_symmetry_group_IT_number 12
_symmetry_cell_setting 'monoclinic'
loop_
_space_group_symop_operation_xyz
x,y,z
-x,y,-z
-x,-y,-z
x,-y,z
1/2+x,1/2+y,z
1/2-x,1/2+y,-z
1/2-x,1/2-y,-z
1/2+x,1/2-y,z
loop_
_atom_site_type_symbol
_atom_site_label
_atom_site_fract_x
_atom_site_fract_y
_atom_site_fract_z
Si Si1 0.294587 0.500000 0.548204
Si Si2 0.933719 0.108616 0.868208
Si Si3 0.927792 0.000000 0.712636
Si Si4 0.936546 0.188599 0.679152
Si Si5 0.265796 0.641186 0.578520
Si Si6 0.028956 0.332340 0.366153
Si Si7 0.775691 0.076439 0.157644
O O1 0.367436 0.500000 0.625869
O O2 0.398431 0.500000 0.393306
O O3 0.210183 0.567783 0.582932
O O4 0.926880 0.177414 0.811288
O O5 0.097476 0.090370 0.821628
O O6 0.878710 0.061286 0.804169
O O7 0.822523 0.105712 0.021349
O O8 0.812094 0.148917 0.677524
O O9 0.896910 0.262265 0.672787
O O10 0.097057 0.164431 0.561388
O O11 0.121516 0.681015 0.621936
O O12 0.128143 0.387140 0.263473
O O13 0.000000 0.354943 0.500000
O O14 0.748562 0.000000 0.162384
#
# Coordination Sequence:
#
# PCOD8113556 Si02
#       7
#     4   8   4   8   8   8   8
#     4  11  20  32  61 106 117 149 215 259 319 362
#     4  11  20  40  69  91 123 163 213 262 300 370
#     4  11  16  33  62  95 121 154 204 260 300 352
#     4  11  22  40  69  90 118 166 211 256 310 368
#     4  11  22  38  62  97 126 156 205 259 312 383
#     4  12  27  41  62  90 134 168 200 260 321 374
#     4  11  25  41  63  96 127 168 213 252 316 377
#
# _framework density 20.042062000000001
#
# number of rings (size 3 to 8) (size 9 to 14) (size 15 to 20)
#    0.000    0.833    6.667    3.000    3.500    1.000 
#    0.000    0.833    0.000    2.000    0.000    0.000 
#    0.000    0.000    0.000    0.000    0.000    0.000 
#
# Total GULP energy -297429.270502 kJ/mol
# GULP energy per Si atom -12392.886271 kJ/mol
# Density = 1.999645 g / cm^3
# Si number density = 20.042062 Si / 1000 Ang^3
#
#
#
# Elastic Constant Matrix: (Units=GPa)
#
#
# Indices 1 2 3 4 5 6 
#
# 1 79.1688 25.0971 59.2804 0.0000 -3.8216 0.0000
# 2 25.0971 90.9458 39.0932 0.0000 -0.5539 0.0000
# 3 59.2804 39.0932 117.5503 0.0000 18.3180 0.0000
# 4 0.0000 0.0000 0.0000 21.7580 0.0000 4.6257
# 5 -3.8216 -0.5539 18.3180 0.0000 27.3918 0.0000
# 6 0.0000 0.0000 0.0000 4.6257 0.0000 22.9207
#
#
#
# Elastic Compliance Matrix: (Units=1/GPa)
#
#
# Indices 1 2 3 4 5 6 
#
# 1 0.023653 -0.000573 -0.013675 0.000000 0.012433 0.000000
# 2 -0.000573 0.013147 -0.004590 0.000000 0.003256 0.000000
# 3 -0.013675 -0.004590 0.019247 0.000000 -0.014872 0.000000
# 4 0.000000 0.000000 0.000000 0.048020 0.000000 -0.009691
# 5 0.012433 0.003256 -0.014872 0.000000 0.048253 0.000000
# 6 0.000000 0.000000 0.000000 -0.009691 0.000000 0.045585
#
#
# Mechanical properties :
#
#
# Convention : Reuss Voigt Hill
#
# Bulk Modulus (GPa) = 54.43719 59.40070 56.91894
# Shear Modulus (GPa) = 20.68634 25.36036 23.02335
#
# Velocity S-wave (km/s) = 3.21619 3.56104 3.39300
# Velocity P-wave (km/s) = 6.40408 6.82718 6.61901
#
# Compressibility (1/GPa) = 0.01836979
#
# Stress axis : x y z
#
# Youngs Moduli (GPa) = 42.27855 76.06432 51.95521
#
# Poissons Ratio (x) = 0.04360 0.71048
# Poissons Ratio (y) = 0.02424 0.23850
# Poissons Ratio (z) = 0.57815 0.34917
#
# Static dielectric constant tensor:
#      x y z
#    x 3.458810 0.000000 0.243100 
#    y 0.000000 3.897960 0.000000 
#    z 0.243100 0.000000 3.555750 
# 
# 
# High freq. dielectric constant tensor:
#      x y z
#    x 1.769210 0.000000 0.027430 
#    y 0.000000 1.793360 0.000000 
#    z 0.027430 0.000000 1.766340 
# 
# From -- ./inp_files/135226.got.cif
#   From: 2010.06.25/outbox.cif.g09.slc.cpg/sg12_68_cif.got.tgz:135226.got - 2010.06.28 00:19:55.
