data_PCOD8113128
_publ_section_title
;
Structure prediction by ZEFSAII (Michael W. Deem and Ramdas Pophale) SiO2 
 PCOD8113128
Probable space group: C 2/M
;
_chemical_formula_sum "Si O2"
_cell_formula_units_Z 40
_cell_length_a 13.487224
_cell_length_b 20.073338
_cell_length_c 18.185852
_cell_angle_alpha 90.000000
_cell_angle_beta 20.718314
_cell_angle_gamma 90.000000
_cell_volume 1741.812987
_symmetry_space_group_name_H-M "C 2/M"
_symmetry_group_IT_number 12
_symmetry_cell_setting 'monoclinic'
loop_
_space_group_symop_operation_xyz
x,y,z
-x,y,-z
-x,-y,-z
x,-y,z
1/2+x,1/2+y,z
1/2-x,1/2+y,-z
1/2-x,1/2-y,-z
1/2+x,1/2-y,z
loop_
_atom_site_type_symbol
_atom_site_label
_atom_site_fract_x
_atom_site_fract_y
_atom_site_fract_z
Si Si1 0.821706 0.155290 0.803456
Si Si2 0.245251 0.118726 0.981936
Si Si3 0.314728 0.197675 0.803287
Si Si4 0.660018 0.425673 0.457118
Si Si5 0.322249 0.924213 0.695519
O O1 0.946644 0.229209 0.699346
O O2 0.061886 0.111873 0.598439
O O3 0.500000 0.143095 0.000000
O O4 0.840848 0.135933 0.875812
O O5 0.337972 0.185629 0.874681
O O6 0.512471 0.070880 0.789917
O O7 0.001196 0.084708 0.102829
O O8 0.429241 0.132950 0.678384
O O9 0.000000 0.209920 0.000000
O O10 0.500000 0.390805 0.500000
O O11 0.549042 0.500000 0.544728
O O12 0.500000 0.913780 0.500000
O O13 0.363183 0.000000 0.699019
#
# Coordination Sequence:
#
# PCOD8113128 Si02
#       5
#     8   8   8   8   8
#     4  11  23  44  67  97 133 176 220 271 326 392
#     4  11  23  43  68  98 130 175 217 275 326 392
#     4   9  22  42  66  96 132 171 219 273 330 389
#     4  11  25  42  63  96 133 175 220 267 325 386
#     4  10  23  44  69 100 133 172 222 276 333 394
#
# _framework density 22.964579000000001
#
# number of rings (size 3 to 8) (size 9 to 14) (size 15 to 20)
#    0.000    1.600    2.000    1.200    2.800    8.000 
#    3.600    0.000    0.000    0.000    0.000    0.000 
#    0.000    0.000    0.000    0.000    0.000    0.000 
#
# Total GULP energy -247767.354742 kJ/mol
# GULP energy per Si atom -12388.367737 kJ/mol
# Density = 2.291231 g / cm^3
# Si number density = 22.964579 Si / 1000 Ang^3
#
#
#
# Elastic Constant Matrix: (Units=GPa)
#
#
# Indices 1 2 3 4 5 6 
#
# 1 125.8182 49.2822 25.7827 0.5425 30.8310 -1.6360
# 2 49.2822 155.6327 34.2283 -1.1917 35.2026 -2.1149
# 3 25.7827 34.2283 109.2328 8.0793 20.8222 -6.8927
# 4 0.5425 -1.1917 8.0793 -72.6054 0.3087 34.2098
# 5 30.8310 35.2026 20.8222 0.3087 38.3756 -1.2247
# 6 -1.6360 -2.1149 -6.8927 34.2098 -1.2247 -15.5337
#
#
#
# Elastic Compliance Matrix: (Units=1/GPa)
#
#
# Indices 1 2 3 4 5 6 
#
# 1 0.010307 -0.001653 -0.000658 0.000732 -0.006363 0.001545
# 2 -0.001653 0.008767 -0.000610 0.010294 -0.005752 0.022376
# 3 -0.000658 -0.000610 0.011526 0.024581 -0.003784 0.049470
# 4 0.000732 0.010294 0.024581 0.456388 0.004631 0.992348
# 5 -0.006363 -0.005752 -0.003784 0.004631 0.038791 0.010273
# 6 0.001545 0.022376 0.049470 0.992348 0.010273 2.095092
#
#
# Mechanical properties :
#
#
# Convention : Reuss Voigt Hill
#
# Bulk Modulus (GPa) = 40.39269 67.69668 54.04469
# Shear Modulus (GPa) = 1.89756 8.80666 5.35211
#
# Velocity S-wave (km/s) = 0.91000 1.96041 1.52828
# Velocity P-wave (km/s) = 4.32798 5.88787 5.16713
#
# Compressibility (1/GPa) = 0.02475695
#
# Stress axis : x y z
#
# Youngs Moduli (GPa) = 97.02544 114.06644 86.75855
#
# Poissons Ratio (x) = 0.18854 0.05712
# Poissons Ratio (y) = 0.16038 0.05293
# Poissons Ratio (z) = 0.06388 0.06958
#
# Static dielectric constant tensor:
#      x y z
#    x 4.218110 0.001260 0.084020 
#    y 0.001260 4.370950 -0.001580 
#    z 0.084020 -0.001580 3.718180 
# 
# 
# High freq. dielectric constant tensor:
#      x y z
#    x 1.914380 -0.000060 -0.001320 
#    y -0.000060 1.908910 0.000350 
#    z -0.001320 0.000350 1.909960 
# 
# From -- ./inp_files/311616.got.cif
#   From: 2010.06.25/outbox.cif.g09.slc.cpg/sg12_156_cif.got.tgz:311616.got - 2010.06.28 00:19:55.
