data_PCOD8113072
_publ_section_title
;
Structure prediction by ZEFSAII (Michael W. Deem and Ramdas Pophale) SiO2 
 PCOD8113072
Probable space group: C 2/M
;
_chemical_formula_sum "Si O2"
_cell_formula_units_Z 48
_cell_length_a 18.434372
_cell_length_b 13.642643
_cell_length_c 9.286937
_cell_angle_alpha 90.000000
_cell_angle_beta 99.488480
_cell_angle_gamma 90.000000
_cell_volume 2303.650857
_symmetry_space_group_name_H-M "C 2/M"
_symmetry_group_IT_number 12
_symmetry_cell_setting 'monoclinic'
loop_
_space_group_symop_operation_xyz
x,y,z
-x,y,-z
-x,-y,-z
x,-y,z
1/2+x,1/2+y,z
1/2-x,1/2+y,-z
1/2-x,1/2-y,-z
1/2+x,1/2-y,z
loop_
_atom_site_type_symbol
_atom_site_label
_atom_site_fract_x
_atom_site_fract_y
_atom_site_fract_z
Si Si1 0.163195 0.500000 0.440144
Si Si2 0.058074 0.301609 0.795803
Si Si3 0.826192 0.214105 0.957891
Si Si4 0.107125 0.298457 0.291252
Si Si5 0.136210 0.500000 0.769994
Si Si6 0.312781 0.500000 0.326611
Si Si7 0.579838 0.667047 0.543437
Si Si8 0.213655 0.000000 0.016540
O O1 0.123510 0.403420 0.366985
O O2 0.160471 0.500000 0.611891
O O3 0.247724 0.500000 0.420672
O O4 0.086556 0.410484 0.799151
O O5 0.066687 0.260269 0.639149
O O6 0.972434 0.301955 0.811521
O O7 0.103854 0.236785 0.921543
O O8 0.832494 0.271041 0.808804
O O9 0.750000 0.250000 0.000000
O O10 0.827309 0.096607 0.937339
O O11 0.111574 0.209358 0.405499
O O12 0.204727 0.500000 0.897809
O O13 0.361795 0.595347 0.366722
O O14 0.281848 0.500000 0.155156
O O15 0.500000 0.614015 0.500000
#
# Coordination Sequence:
#
# PCOD8113072 Si02
#       8
#     4   8   8   8   4   4   8   4
#     4  12  27  41  69 105 137 176 225 290 345 417
#     4  11  23  45  70  98 135 184 223 284 339 406
#     4  12  25  45  70  98 143 182 230 279 339 408
#     4  11  26  44  69 103 136 175 233 282 346 406
#     4  12  25  42  71 101 137 178 225 281 352 406
#     4  12  25  43  68  97 138 182 230 276 342 407
#     4  10  23  43  69  97 133 178 227 281 338 405
#     4  12  26  44  67 102 136 183 229 280 340 401
#
# _framework density 20.836490999999999
#
# number of rings (size 3 to 8) (size 9 to 14) (size 15 to 20)
#    0.000    0.667    5.000    2.250    2.333    1.333 
#    0.000    4.167    0.000    0.000    0.000    0.000 
#    0.000    0.000    0.000    0.000    0.000    0.000 
#
# Total GULP energy -297683.190379 kJ/mol
# GULP energy per Si atom -12403.466266 kJ/mol
# Density = 2.078907 g / cm^3
# Si number density = 20.836491 Si / 1000 Ang^3
#
#
#
# Elastic Constant Matrix: (Units=GPa)
#
#
# Indices 1 2 3 4 5 6 
#
# 1 120.1702 57.7339 51.6019 0.0000 2.7715 0.0000
# 2 57.7339 137.1401 38.0966 0.0000 7.2635 0.0000
# 3 51.6019 38.0966 115.2519 0.0000 0.8267 0.0000
# 4 0.0000 0.0000 0.0000 27.1682 0.0000 10.6105
# 5 2.7715 7.2635 0.8267 0.0000 39.0071 0.0000
# 6 0.0000 0.0000 0.0000 10.6105 0.0000 32.2956
#
#
#
# Elastic Compliance Matrix: (Units=1/GPa)
#
#
# Indices 1 2 3 4 5 6 
#
# 1 0.011936 -0.003896 -0.004056 0.000000 -0.000037 0.000000
# 2 -0.003896 0.009382 -0.001347 0.000000 -0.001442 0.000000
# 3 -0.004056 -0.001347 0.010936 0.000000 0.000307 0.000000
# 4 0.000000 0.000000 0.000000 0.042226 0.000000 -0.013873
# 5 -0.000037 -0.001442 0.000307 0.000000 0.025901 0.000000
# 6 0.000000 0.000000 0.000000 -0.013873 0.000000 0.035522
#
#
# Mechanical properties :
#
#
# Convention : Reuss Voigt Hill
#
# Bulk Modulus (GPa) = 73.22531 74.15857 73.69194
# Shear Modulus (GPa) = 31.43626 34.70283 33.06955
#
# Velocity S-wave (km/s) = 3.88843 4.08546 3.98816
# Velocity P-wave (km/s) = 7.44170 7.61069 7.52667
#
# Compressibility (1/GPa) = 0.01365648
#
# Stress axis : x y z
#
# Youngs Moduli (GPa) = 83.78110 106.58158 91.44504
#
# Poissons Ratio (x) = 0.41526 0.37089
# Poissons Ratio (y) = 0.32643 0.12314
# Poissons Ratio (z) = 0.33981 0.14352
#
# Static dielectric constant tensor:
#      x y z
#    x 3.928060 0.000000 0.131260 
#    y 0.000000 3.877100 0.000000 
#    z 0.131260 0.000000 3.868460 
# 
# 
# High freq. dielectric constant tensor:
#      x y z
#    x 1.824510 0.000000 0.008560 
#    y 0.000000 1.827240 0.000000 
#    z 0.008560 0.000000 1.825350 
# 
# From -- ./inp_files/73708.got.cif
#   From: 2010.06.25/outbox.cif.g09.slc.cpg/sg12_37_cif.got.tgz:73708.got - 2010.06.28 00:19:55.
