data_PCOD8113022
_publ_section_title
;
Structure prediction by ZEFSAII (Michael W. Deem and Ramdas Pophale) SiO2 
 PCOD8113022
Probable space group: C 2/M
;
_chemical_formula_sum "Si O2"
_cell_formula_units_Z 64
_cell_length_a 9.691488
_cell_length_b 14.469726
_cell_length_c 22.860607
_cell_angle_alpha 90.000000
_cell_angle_beta 94.560576
_cell_angle_gamma 90.000000
_cell_volume 3195.665352
_symmetry_space_group_name_H-M "C 2/M"
_symmetry_group_IT_number 12
_symmetry_cell_setting 'monoclinic'
loop_
_space_group_symop_operation_xyz
x,y,z
-x,y,-z
-x,-y,-z
x,-y,z
1/2+x,1/2+y,z
1/2-x,1/2+y,-z
1/2-x,1/2-y,-z
1/2+x,1/2-y,z
loop_
_atom_site_type_symbol
_atom_site_label
_atom_site_fract_x
_atom_site_fract_y
_atom_site_fract_z
Si Si1 0.278589 0.268315 0.227430
Si Si2 0.328612 0.109952 0.549134
Si Si3 0.601666 0.606671 0.054128
Si Si4 0.861951 0.390297 0.427431
Si Si5 0.211151 0.393705 0.327423
Si Si6 0.383032 0.894221 0.302174
Si Si7 0.419567 0.893421 0.055173
Si Si8 0.489030 0.743331 0.851076
O O1 0.298318 0.336167 0.283158
O O2 0.319383 0.164668 0.247467
O O3 0.377586 0.298369 0.177409
O O4 0.121347 0.273639 0.201072
O O5 0.483902 0.148529 0.558786
O O6 0.270905 0.141584 0.482145
O O7 0.247027 0.143048 0.605103
O O8 0.330056 0.000000 0.552839
O O9 0.571805 0.500000 0.067353
O O10 0.757598 0.622650 0.037580
O O11 0.574674 0.663143 0.111704
O O12 0.500000 0.643024 0.000000
O O13 0.869701 0.500000 0.427330
O O14 0.808964 0.360796 0.361035
O O15 0.254283 0.500000 0.320714
O O16 0.047406 0.381027 0.312782
O O17 0.346233 0.000000 0.286647
O O18 0.470882 0.833715 0.111124
O O19 0.451622 0.000000 0.071303
O O20 0.500000 0.861446 0.000000
#
# Coordination Sequence:
#
# PCOD8113022 Si02
#       8
#     8   8   8   8   8   8   8   8
#     4  12  24  38  55  85 114 152 201 234 271 328
#     4   7  10  20  43  73 102 132 177 235 287 334
#     4  10  23  43  66  93 122 149 182 230 283 329
#     4   7  10  20  43  74 100 132 181 232 284 339
#     4   9  18  34  54  77 109 149 190 238 288 335
#     4   9  18  34  55  76 108 151 191 236 287 339
#     4  10  23  43  67  93 119 150 187 227 277 334
#     4  12  25  40  61  85 119 157 191 233 273 328
#
# _framework density 20.027128000000001
#
# number of rings (size 3 to 8) (size 9 to 14) (size 15 to 20)
#    0.000    2.500    2.500    2.625    1.750    3.000 
#    0.000    0.625    0.000    0.000    0.000    0.000 
#    0.000    4.000    0.000    0.000    0.000    0.000 
#
# Total GULP energy -396476.909592 kJ/mol
# GULP energy per Si atom -12389.903425 kJ/mol
# Density = 1.998155 g / cm^3
# Si number density = 20.027128 Si / 1000 Ang^3
#
#
#
# Elastic Constant Matrix: (Units=GPa)
#
#
# Indices 1 2 3 4 5 6 
#
# 1 57.2328 24.9198 32.8911 0.0000 -8.0242 0.0000
# 2 24.9198 51.2862 38.3236 0.0000 -17.8623 0.0000
# 3 32.8911 38.3236 122.4689 0.0000 -29.3123 0.0000
# 4 0.0000 0.0000 0.0000 27.3844 0.0000 -8.4310
# 5 -8.0242 -17.8623 -29.3123 0.0000 28.0464 0.0000
# 6 0.0000 0.0000 0.0000 -8.4310 0.0000 16.5327
#
#
#
# Elastic Compliance Matrix: (Units=1/GPa)
#
#
# Indices 1 2 3 4 5 6 
#
# 1 0.023553 -0.009608 -0.004229 0.000000 -0.003800 0.000000
# 2 -0.009608 0.031928 -0.004270 0.000000 0.013123 0.000000
# 3 -0.004229 -0.004270 0.012931 0.000000 0.009586 0.000000
# 4 0.000000 0.000000 0.000000 0.043318 0.000000 0.022090
# 5 -0.003800 0.013123 0.009586 0.000000 0.052945 0.000000
# 6 0.000000 0.000000 0.000000 0.022090 0.000000 0.071751
#
#
# Mechanical properties :
#
#
# Convention : Reuss Voigt Hill
#
# Bulk Modulus (GPa) = 31.05585 47.02855 39.04220
# Shear Modulus (GPa) = 17.64455 23.38292 20.51373
#
# Velocity S-wave (km/s) = 2.97144 3.42067 3.20394
# Velocity P-wave (km/s) = 5.22620 6.25577 5.76402
#
# Compressibility (1/GPa) = 0.03220005
#
# Stress axis : x y z
#
# Youngs Moduli (GPa) = 42.45680 31.32025 77.33082
#
# Poissons Ratio (x) = 0.30093 0.32699
# Poissons Ratio (y) = 0.40794 0.33018
# Poissons Ratio (z) = 0.17953 0.13373
#
# Static dielectric constant tensor:
#      x y z
#    x 3.298140 0.000000 -0.157620 
#    y 0.000000 3.390720 0.000000 
#    z -0.157620 0.000000 4.103890 
# 
# 
# High freq. dielectric constant tensor:
#      x y z
#    x 1.740630 0.000000 -0.013460 
#    y 0.000000 1.764350 0.000000 
#    z -0.013460 0.000000 1.807240 
# 
# From -- ./inp_files/332953.got.cif
#   From: 2010.06.25/outbox.cif.g09.slc.cpg/sg12_167_cif.got.tgz:332953.got - 2010.06.28 00:19:55.
