data_PCOD8113444
_publ_section_title
;
Structure prediction by ZEFSAII (Michael W. Deem and Ramdas Pophale) SiO2 
 PCOD8113444
Probable space group: C 2/M
;
_chemical_formula_sum "Si O2"
_cell_formula_units_Z 36
_cell_length_a 14.347811
_cell_length_b 9.422418
_cell_length_c 26.815796
_cell_angle_alpha 90.000000
_cell_angle_beta 28.106566
_cell_angle_gamma 90.000000
_cell_volume 1707.905221
_symmetry_space_group_name_H-M "C 2/M"
_symmetry_group_IT_number 12
_symmetry_cell_setting 'monoclinic'
loop_
_space_group_symop_operation_xyz
x,y,z
-x,y,-z
-x,-y,-z
x,-y,z
1/2+x,1/2+y,z
1/2-x,1/2+y,-z
1/2-x,1/2-y,-z
1/2+x,1/2-y,z
loop_
_atom_site_type_symbol
_atom_site_label
_atom_site_fract_x
_atom_site_fract_y
_atom_site_fract_z
Si Si1 0.560179 0.341437 0.078462
Si Si2 0.440310 0.659848 0.398492
Si Si3 0.000000 0.241750 0.000000
Si Si4 0.165537 0.335754 0.740370
Si Si5 0.428068 0.339387 0.772906
O O1 0.579431 0.500000 0.091981
O O2 0.386045 0.254880 0.186406
O O3 0.750000 0.250000 0.000000
O O4 0.526147 0.357421 0.035653
O O5 0.364636 0.500000 0.429310
O O6 0.250000 0.750000 0.500000
O O7 0.595326 0.672265 0.371591
O O8 0.545572 0.705715 0.297054
O O9 0.801467 0.334402 0.101724
O O10 0.094360 0.500000 0.778690
O O11 0.067196 0.267631 0.738175
O O12 0.501091 0.500000 0.747583
#
# Coordination Sequence:
#
# PCOD8113444 Si02
#       5
#     8   8   4   8   8
#     4  12  25  40  62  95 134 174 217 262 321 387
#     4  10  24  46  68  95 128 169 218 270 327 386
#     4  12  24  40  66  98 138 168 218 256 328 378
#     4  11  24  43  65  95 132 168 217 270 325 386
#     4  11  24  42  67  98 132 173 217 264 323 388
#
# _framework density 21.078454000000001
#
# number of rings (size 3 to 8) (size 9 to 14) (size 15 to 20)
#    0.000    0.889    4.444    2.000    0.000    6.222 
#    0.000    4.444    0.000    0.000    0.000    0.000 
#    0.000    0.000    0.000    0.000    0.000    0.000 
#
# Total GULP energy -223104.627871 kJ/mol
# GULP energy per Si atom -12394.701548 kJ/mol
# Density = 2.103048 g / cm^3
# Si number density = 21.078454 Si / 1000 Ang^3
#
#
#
# Elastic Constant Matrix: (Units=GPa)
#
#
# Indices 1 2 3 4 5 6 
#
# 1 130.6067 61.4948 39.5560 0.0005 -11.4041 -0.0001
# 2 61.4948 159.1309 54.6114 0.0003 -14.0611 -0.0002
# 3 39.5560 54.6114 105.7419 0.0053 -14.3434 -0.0011
# 4 0.0005 0.0003 0.0053 31.5781 -0.0002 0.2531
# 5 -11.4041 -14.0611 -14.3434 -0.0002 29.9268 -0.0001
# 6 -0.0001 -0.0002 -0.0011 0.2531 -0.0001 29.5498
#
#
#
# Elastic Compliance Matrix: (Units=1/GPa)
#
#
# Indices 1 2 3 4 5 6 
#
# 1 0.009769 -0.002993 -0.001919 0.000000 0.001397 0.000000
# 2 -0.002993 0.008648 -0.003156 0.000001 0.001410 0.000000
# 3 -0.001919 -0.003156 0.012304 -0.000002 0.003683 0.000000
# 4 0.000000 0.000001 -0.000002 0.031670 0.000000 -0.000271
# 5 0.001397 0.001410 0.003683 0.000000 0.036375 0.000000
# 6 0.000000 0.000000 0.000000 -0.000271 0.000000 0.033844
#
#
# Mechanical properties :
#
#
# Convention : Reuss Voigt Hill
#
# Bulk Modulus (GPa) = 68.55888 78.53376 73.54632
# Shear Modulus (GPa) = 32.55048 34.19875 33.37461
#
# Velocity S-wave (km/s) = 3.93396 4.03234 3.98345
# Velocity P-wave (km/s) = 7.29595 7.68234 7.49164
#
# Compressibility (1/GPa) = 0.01458600
#
# Stress axis : x y z
#
# Youngs Moduli (GPa) = 102.36417 115.62867 81.27287
#
# Poissons Ratio (x) = 0.34609 0.15597
# Poissons Ratio (y) = 0.30639 0.25646
# Poissons Ratio (z) = 0.19645 0.36487
#
# Static dielectric constant tensor:
#      x y z
#    x 3.911250 0.000010 0.226670 
#    y 0.000010 3.642110 0.000010 
#    z 0.226670 0.000010 4.804820 
# 
# 
# High freq. dielectric constant tensor:
#      x y z
#    x 1.839990 0.000000 -0.004940 
#    y 0.000000 1.829460 0.000000 
#    z -0.004940 0.000000 1.812890 
# 
# From -- ./inp_files/244549.got.cif
#   From: 2010.06.25/outbox.cif.g09.slc.cpg/sg12_123_cif.got.tgz:244549.got - 2010.06.28 00:19:55.
