data_PCOD8113858
_publ_section_title
;
Structure prediction by ZEFSAII (Michael W. Deem and Ramdas Pophale) SiO2 
 PCOD8113858
Probable space group: C 2/M
;
_chemical_formula_sum "Si O2"
_cell_formula_units_Z 56
_cell_length_a 14.907526
_cell_length_b 17.471715
_cell_length_c 19.337832
_cell_angle_alpha 90.000000
_cell_angle_beta 139.866541
_cell_angle_gamma 90.000000
_cell_volume 3246.527797
_symmetry_space_group_name_H-M "C 2/M"
_symmetry_group_IT_number 12
_symmetry_cell_setting 'monoclinic'
loop_
_space_group_symop_operation_xyz
x,y,z
-x,y,-z
-x,-y,-z
x,-y,z
1/2+x,1/2+y,z
1/2-x,1/2+y,-z
1/2-x,1/2-y,-z
1/2+x,1/2-y,z
loop_
_atom_site_type_symbol
_atom_site_label
_atom_site_fract_x
_atom_site_fract_y
_atom_site_fract_z
Si Si1 0.023851 0.690788 0.194680
Si Si2 0.163441 0.918300 0.095294
Si Si3 0.636051 0.737396 0.127359
Si Si4 0.875833 0.819184 0.193703
Si Si5 0.726049 0.588536 0.625354
Si Si6 0.485695 0.411463 0.379309
Si Si7 0.723972 0.911580 0.990279
O O1 0.100913 0.744646 0.185404
O O2 0.136044 0.639281 0.300858
O O3 0.944656 0.742880 0.203564
O O4 0.919122 0.635914 0.090962
O O5 0.208959 0.847048 0.170126
O O6 0.209701 0.900126 0.045109
O O7 0.229885 0.000000 0.159308
O O8 0.000000 0.927819 0.000000
O O9 0.738650 0.799683 0.156284
O O10 0.500000 0.734047 0.000000
O O11 0.982835 0.860589 0.308547
O O12 0.834323 0.877949 0.109276
O O13 0.770100 0.500000 0.648448
O O14 0.647091 0.606141 0.650511
O O15 0.626535 0.609183 0.502730
O O16 0.484626 0.500000 0.357189
O O17 0.693276 0.000000 0.990212
#
# Coordination Sequence:
#
# PCOD8113858 Si02
#       7
#     8   8   8   8   8   8   8
#     4  12  22  34  54  82 109 138 175 219 267 307
#     4   9  18  33  51  69 101 148 186 210 242 301
#     4  11  20  34  51  74 112 143 171 214 260 311
#     4  12  21  34  53  81 110 138 173 216 267 310
#     4   9  19  37  58  78 103 137 177 217 262 319
#     4   9  19  37  58  78 103 138 176 215 264 320
#     4  11  22  35  51  79 111 141 178 213 257 320
#
# _framework density 17.249196999999999
#
# number of rings (size 3 to 8) (size 9 to 14) (size 15 to 20)
#    0.000    1.571    4.286    3.857    0.000    0.571 
#    0.000    1.429    0.000    0.000    0.000    0.000 
#    0.000    3.429    0.000    0.000    0.000    0.000 
#
# Total GULP energy -347165.538094 kJ/mol
# GULP energy per Si atom -12398.769218 kJ/mol
# Density = 1.720994 g / cm^3
# Si number density = 17.249197 Si / 1000 Ang^3
#
#
#
# Elastic Constant Matrix: (Units=GPa)
#
#
# Indices 1 2 3 4 5 6 
#
# 1 68.0847 36.0071 25.7735 -0.0001 -2.2644 0.0000
# 2 36.0071 115.3799 58.3628 -0.0001 -8.2980 -0.0001
# 3 25.7735 58.3628 94.8806 -0.0003 -1.9507 -0.0003
# 4 -0.0001 -0.0001 -0.0003 31.7723 -0.0002 1.0058
# 5 -2.2644 -8.2980 -1.9507 -0.0002 12.8432 -0.0001
# 6 0.0000 -0.0001 -0.0003 1.0058 -0.0001 18.0534
#
#
#
# Elastic Compliance Matrix: (Units=1/GPa)
#
#
# Indices 1 2 3 4 5 6 
#
# 1 0.017866 -0.004539 -0.002063 0.000000 -0.000096 0.000000
# 2 -0.004539 0.014390 -0.007467 0.000000 0.007363 0.000000
# 3 -0.002063 -0.007467 0.015636 0.000000 -0.002814 0.000000
# 4 0.000000 0.000000 0.000000 0.031530 0.000000 -0.001757
# 5 -0.000096 0.007363 -0.002814 0.000000 0.082176 0.000001
# 6 0.000000 0.000000 0.000000 -0.001757 0.000001 0.055489
#
#
# Mechanical properties :
#
#
# Convention : Reuss Voigt Hill
#
# Bulk Modulus (GPa) = 50.62562 57.62577 54.12569
# Shear Modulus (GPa) = 19.85635 23.08057 21.46846
#
# Velocity S-wave (km/s) = 3.39654 3.66193 3.53173
# Velocity P-wave (km/s) = 6.69292 7.16658 6.93380
#
# Compressibility (1/GPa) = 0.01975285
#
# Stress axis : x y z
#
# Youngs Moduli (GPa) = 55.97302 69.49153 63.95699
#
# Poissons Ratio (x) = 0.31540 0.13196
# Poissons Ratio (y) = 0.25404 0.47759
# Poissons Ratio (z) = 0.11548 0.51892
#
# Static dielectric constant tensor:
#      x y z
#    x 2.387280 0.000000 -0.406190 
#    y 0.000000 3.681260 0.000000 
#    z -0.406190 0.000000 2.750950 
# 
# 
# High freq. dielectric constant tensor:
#      x y z
#    x 1.664890 0.000000 0.001090 
#    y 0.000000 1.682750 0.000000 
#    z 0.001090 0.000000 1.636460 
# 
# From -- ./inp_files/177160.got.cif
#   From: 2010.06.25/outbox.cif.g09.slc.cpg/sg12_89_cif.got.tgz:177160.got - 2010.06.28 00:19:55.
