data_PCOD8113381
_publ_section_title
;
Structure prediction by ZEFSAII (Michael W. Deem and Ramdas Pophale) SiO2 
 PCOD8113381
Probable space group: C 2/M
;
_chemical_formula_sum "Si O2"
_cell_formula_units_Z 44
_cell_length_a 32.568524
_cell_length_b 10.809289
_cell_length_c 9.298263
_cell_angle_alpha 90.000000
_cell_angle_beta 43.146353
_cell_angle_gamma 90.000000
_cell_volume 2238.550720
_symmetry_space_group_name_H-M "C 2/M"
_symmetry_group_IT_number 12
_symmetry_cell_setting 'monoclinic'
loop_
_space_group_symop_operation_xyz
x,y,z
-x,y,-z
-x,-y,-z
x,-y,z
1/2+x,1/2+y,z
1/2-x,1/2+y,-z
1/2-x,1/2-y,-z
1/2+x,1/2-y,z
loop_
_atom_site_type_symbol
_atom_site_label
_atom_site_fract_x
_atom_site_fract_y
_atom_site_fract_z
Si Si1 0.206955 0.865856 0.616164
Si Si2 0.277704 0.637557 0.110270
Si Si3 0.345870 0.246228 0.497950
Si Si4 0.500000 0.800717 0.500000
Si Si5 0.907034 0.500000 0.258695
Si Si6 0.489080 0.000000 0.774517
Si Si7 0.606597 0.353136 0.350310
O O1 0.250000 0.750000 0.500000
O O2 0.184132 0.868551 0.838249
O O3 0.155179 0.844910 0.630304
O O4 0.237811 0.000000 0.503804
O O5 0.254527 0.500000 0.127636
O O6 0.220794 0.729669 0.262371
O O7 0.326707 0.684575 0.871859
O O8 0.394693 0.299350 0.484521
O O9 0.365069 0.117962 0.379157
O O10 0.442939 0.713656 0.619454
O O11 0.486747 0.881004 0.676448
O O12 0.951755 0.500000 0.279481
O O13 0.934928 0.500000 0.027348
O O14 0.595572 0.500000 0.375116
#
# Coordination Sequence:
#
# PCOD8113381 Si02
#       7
#     8   8   8   4   4   4   8
#     4   9  19  34  55  83 122 162 201 247 304 368
#     4   9  19  36  57  87 124 158 200 246 306 363
#     4  11  20  37  62  89 127 157 201 254 312 368
#     4  11  23  44  64  86 121 157 210 258 302 363
#     4  11  22  40  68  94 118 159 200 260 321 362
#     4  10  24  44  66  90 116 156 208 261 309 365
#     4  11  23  38  60  86 121 167 205 250 300 367
#
# _framework density 19.655574000000001
#
# number of rings (size 3 to 8) (size 9 to 14) (size 15 to 20)
#    0.000    1.818    2.727    1.364    3.818    0.000 
#    0.000    0.000    6.000    1.091    0.000    0.000 
#    0.000    0.000    0.000    0.000    0.000    0.000 
#
# Total GULP energy -272578.756543 kJ/mol
# GULP energy per Si atom -12389.943479 kJ/mol
# Density = 1.961084 g / cm^3
# Si number density = 19.655574 Si / 1000 Ang^3
#
#
#
# Elastic Constant Matrix: (Units=GPa)
#
#
# Indices 1 2 3 4 5 6 
#
# 1 106.0174 47.3234 30.0043 0.0000 13.4368 0.0000
# 2 47.3234 137.3521 41.5093 0.0000 6.5676 0.0000
# 3 30.0043 41.5093 69.8962 0.0000 4.6050 0.0000
# 4 0.0000 0.0000 0.0000 7.8702 0.0000 7.8036
# 5 13.4368 6.5676 4.6050 0.0000 28.6861 0.0000
# 6 0.0000 0.0000 0.0000 7.8036 0.0000 35.4388
#
#
#
# Elastic Compliance Matrix: (Units=1/GPa)
#
#
# Indices 1 2 3 4 5 6 
#
# 1 0.012263 -0.003056 -0.003150 0.000000 -0.004539 0.000000
# 2 -0.003056 0.009676 -0.004429 0.000000 -0.000073 0.000000
# 3 -0.003150 -0.004429 0.018319 0.000000 -0.000451 0.000000
# 4 0.000000 0.000000 0.000000 0.162552 0.000000 -0.035794
# 5 -0.004539 -0.000073 -0.000451 0.000000 0.037075 0.000000
# 6 0.000000 0.000000 0.000000 -0.035794 0.000000 0.036099
#
#
# Mechanical properties :
#
#
# Convention : Reuss Voigt Hill
#
# Bulk Modulus (GPa) = 52.66808 61.21551 56.94180
# Shear Modulus (GPa) = 16.46980 27.36093 21.91537
#
# Velocity S-wave (km/s) = 2.89783 3.73502 3.34274
# Velocity P-wave (km/s) = 6.16848 7.05778 6.62806
#
# Compressibility (1/GPa) = 0.01898683
#
# Stress axis : x y z
#
# Youngs Moduli (GPa) = 81.54307 103.35276 54.58682
#
# Poissons Ratio (x) = 0.31586 0.17197
# Poissons Ratio (y) = 0.24921 0.24178
# Poissons Ratio (z) = 0.25689 0.45779
#
# Static dielectric constant tensor:
#      x y z
#    x 3.959040 0.000000 0.411330 
#    y 0.000000 3.731190 0.000000 
#    z 0.411330 0.000000 3.482850 
# 
# 
# High freq. dielectric constant tensor:
#      x y z
#    x 1.774290 0.000000 0.025490 
#    y 0.000000 1.776230 0.000000 
#    z 0.025490 0.000000 1.741810 
# 
# From -- ./inp_files/109768.got.cif
#   From: 2010.06.25/outbox.cif.g09.slc.cpg/sg12_55_cif.got.tgz:109768.got - 2010.06.28 00:19:55.
