data_PCOD8113788
_publ_section_title
;
Structure prediction by ZEFSAII (Michael W. Deem and Ramdas Pophale) SiO2 
 PCOD8113788
Probable space group: C 2/M
;
_chemical_formula_sum "Si O2"
_cell_formula_units_Z 40
_cell_length_a 25.178305
_cell_length_b 8.747133
_cell_length_c 24.858683
_cell_angle_alpha 90.000000
_cell_angle_beta 23.820112
_cell_angle_gamma 90.000000
_cell_volume 2211.098571
_symmetry_space_group_name_H-M "C 2/M"
_symmetry_group_IT_number 12
_symmetry_cell_setting 'monoclinic'
loop_
_space_group_symop_operation_xyz
x,y,z
-x,y,-z
-x,-y,-z
x,-y,z
1/2+x,1/2+y,z
1/2-x,1/2+y,-z
1/2-x,1/2-y,-z
1/2+x,1/2-y,z
loop_
_atom_site_type_symbol
_atom_site_label
_atom_site_fract_x
_atom_site_fract_y
_atom_site_fract_z
Si Si1 0.351743 0.180408 0.863657
Si Si2 0.345201 0.331072 0.153244
Si Si3 0.568215 0.322682 0.816281
Si Si4 0.294442 0.822284 0.094713
Si Si5 0.624776 0.678141 0.643811
O O1 0.313750 0.229677 0.838603
O O2 0.497007 0.238177 0.740397
O O3 0.346440 0.000000 0.874150
O O4 0.250000 0.250000 0.000000
O O5 0.284965 0.500000 0.200294
O O6 0.329397 0.278502 0.230412
O O7 0.276470 0.217256 0.174708
O O8 0.500000 0.333638 0.000000
O O9 0.524498 0.500000 0.863372
O O10 0.640425 0.294434 0.693143
O O11 0.438386 0.219893 0.939470
O O12 0.270000 0.000000 0.108711
O O13 0.614351 0.500000 0.639588
O O14 0.750000 0.750000 0.500000
#
# Coordination Sequence:
#
# PCOD8113788 Si02
#       5
#     8   8   8   8   8
#     4  12  23  37  57  82 111 146 185 231 280 329
#     4   8  15  29  48  73 105 142 179 220 271 325
#     4   9  18  33  53  75 107 147 184 223 271 326
#     4  11  20  30  50  81 112 142 178 225 278 326
#     4  11  23  39  58  82 113 150 188 227 274 332
#
# _framework density 18.090554999999998
#
# number of rings (size 3 to 8) (size 9 to 14) (size 15 to 20)
#    0.000    1.800    2.000    5.400    0.000    4.400 
#    0.000    0.000    0.000    1.200    0.000    8.400 
#    0.000    0.000    0.000    0.000    0.000    0.000 
#
# Total GULP energy -247967.569372 kJ/mol
# GULP energy per Si atom -12398.378469 kJ/mol
# Density = 1.804938 g / cm^3
# Si number density = 18.090555 Si / 1000 Ang^3
#
#
#
# Elastic Constant Matrix: (Units=GPa)
#
#
# Indices 1 2 3 4 5 6 
#
# 1 159.4387 64.0014 58.8353 0.0021 7.6625 0.0019
# 2 64.0014 136.4064 48.5562 0.0165 -1.4441 -0.0052
# 3 58.8353 48.5562 87.7237 0.0222 -1.0955 -0.0049
# 4 0.0021 0.0165 0.0222 25.1769 0.0003 -1.2552
# 5 7.6625 -1.4441 -1.0955 0.0003 20.0185 0.0007
# 6 0.0019 -0.0052 -0.0049 -1.2552 0.0007 32.3042
#
#
#
# Elastic Compliance Matrix: (Units=1/GPa)
#
#
# Indices 1 2 3 4 5 6 
#
# 1 0.009326 -0.002707 -0.004807 0.000005 -0.004028 -0.000001
# 2 -0.002707 0.009919 -0.003655 -0.000003 0.001552 0.000001
# 3 -0.004807 -0.003655 0.016677 -0.000012 0.002489 0.000002
# 4 0.000005 -0.000003 -0.000012 0.039796 -0.000004 0.001546
# 5 -0.004028 0.001552 0.002489 -0.000004 0.051744 0.000000
# 6 -0.000001 0.000001 0.000002 0.001546 0.000000 0.031016
#
#
# Mechanical properties :
#
#
# Convention : Reuss Voigt Hill
#
# Bulk Modulus (GPa) = 73.61486 80.70607 77.16046
# Shear Modulus (GPa) = 26.97690 29.64501 28.31095
#
# Velocity S-wave (km/s) = 3.86581 4.05248 3.96025
# Velocity P-wave (km/s) = 7.79146 8.16124 7.97849
#
# Compressibility (1/GPa) = 0.01358421
#
# Stress axis : x y z
#
# Youngs Moduli (GPa) = 107.22590 100.81839 59.96162
#
# Poissons Ratio (x) = 0.27296 0.28821
# Poissons Ratio (y) = 0.29031 0.21916
# Poissons Ratio (z) = 0.51539 0.36849
#
# Static dielectric constant tensor:
#      x y z
#    x 4.062210 0.000010 0.045050 
#    y 0.000010 3.392250 -0.000070 
#    z 0.045050 -0.000070 3.881760 
# 
# 
# High freq. dielectric constant tensor:
#      x y z
#    x 1.727420 0.000000 0.008730 
#    y 0.000000 1.707540 0.000000 
#    z 0.008730 0.000000 1.643200 
# 
# From -- ./inp_files/92942.got.cif
#   From: 2010.06.25/outbox.cif.g09.slc.cpg/sg12_47_cif.got.tgz:92942.got - 2010.06.28 00:19:55.
