data_PCOD8113424
_publ_section_title
;
Structure prediction by ZEFSAII (Michael W. Deem and Ramdas Pophale) SiO2 
 PCOD8113424
Probable space group: C 2/M
;
_chemical_formula_sum "Si O2"
_cell_formula_units_Z 28
_cell_length_a 13.548273
_cell_length_b 13.718824
_cell_length_c 7.759060
_cell_angle_alpha 90.000000
_cell_angle_beta 62.901658
_cell_angle_gamma 90.000000
_cell_volume 1283.837927
_symmetry_space_group_name_H-M "C 2/M"
_symmetry_group_IT_number 12
_symmetry_cell_setting 'monoclinic'
loop_
_space_group_symop_operation_xyz
x,y,z
-x,y,-z
-x,-y,-z
x,-y,z
1/2+x,1/2+y,z
1/2-x,1/2+y,-z
1/2-x,1/2-y,-z
1/2+x,1/2-y,z
loop_
_atom_site_type_symbol
_atom_site_label
_atom_site_fract_x
_atom_site_fract_y
_atom_site_fract_z
Si Si1 0.614343 0.500000 0.598112
Si Si2 0.195591 0.500000 0.305130
Si Si3 0.000000 0.162658 0.500000
Si Si4 0.354756 0.794260 0.823853
Si Si5 0.000000 0.652785 0.000000
Si Si6 0.845378 0.500000 0.283669
O O1 0.673675 0.500000 0.739606
O O2 0.538614 0.595476 0.630333
O O3 0.711752 0.500000 0.373677
O O4 0.168625 0.405342 0.213432
O O5 0.120463 0.500000 0.539382
O O6 0.106416 0.229160 0.368184
O O7 0.457491 0.784620 0.873968
O O8 0.250000 0.750000 0.000000
O O9 0.893860 0.593027 0.149109
#
# Coordination Sequence:
#
# PCOD8113424 Si02
#       6
#     4   4   4   8   4   4
#     4   9  23  43  71  95 135 183 227 278 334 407
#     4  10  24  45  68  94 136 183 217 287 336 398
#     4  11  24  45  70 100 138 187 222 279 350 394
#     4  12  27  42  70 104 139 176 233 280 339 408
#     4  11  22  36  64 101 134 174 224 279 332 401
#     4   9  19  39  68  89 136 172 225 268 337 395
#
# _framework density 21.809605999999999
#
# number of rings (size 3 to 8) (size 9 to 14) (size 15 to 20)
#    0.857    0.571    0.000    5.143    4.000    5.143 
#    0.000    1.429    0.000    0.000    0.000    0.000 
#    0.000    0.000    0.000    0.000    0.000    0.000 
#
# Total GULP energy -173547.054618 kJ/mol
# GULP energy per Si atom -12396.218187 kJ/mol
# Density = 2.175997 g / cm^3
# Si number density = 21.809606 Si / 1000 Ang^3
#
#
#
# Elastic Constant Matrix: (Units=GPa)
#
#
# Indices 1 2 3 4 5 6 
#
# 1 107.0182 42.6040 4.7642 0.0000 14.2373 0.0000
# 2 42.6040 149.6671 45.0598 0.0000 -1.7857 0.0000
# 3 4.7642 45.0598 87.7386 0.0000 -12.3678 0.0000
# 4 0.0000 0.0000 0.0000 13.4370 0.0000 4.4478
# 5 14.2373 -1.7857 -12.3678 0.0000 47.7373 0.0000
# 6 0.0000 0.0000 0.0000 4.4478 0.0000 5.4707
#
#
#
# Elastic Compliance Matrix: (Units=1/GPa)
#
#
# Indices 1 2 3 4 5 6 
#
# 1 0.011104 -0.003406 0.000687 0.000000 -0.003261 0.000000
# 2 -0.003406 0.008977 -0.004395 0.000000 0.000213 0.000000
# 3 0.000687 -0.004395 0.014080 0.000000 0.003278 0.000000
# 4 0.000000 0.000000 0.000000 0.101824 0.000000 -0.082785
# 5 -0.003261 0.000213 0.003278 0.000000 0.022778 0.000000
# 6 0.000000 0.000000 0.000000 -0.082785 0.000000 0.250098
#
#
# Mechanical properties :
#
#
# Convention : Reuss Voigt Hill
#
# Bulk Modulus (GPa) = 50.17467 58.80890 54.49179
# Shear Modulus (GPa) = 11.63511 30.12872 20.88192
#
# Velocity S-wave (km/s) = 2.31224 3.72081 3.09765
# Velocity P-wave (km/s) = 5.49402 6.74407 6.15088
#
# Compressibility (1/GPa) = 0.01993038
#
# Stress axis : x y z
#
# Youngs Moduli (GPa) = 90.06126 111.39596 71.02461
#
# Poissons Ratio (x) = 0.37946 -0.04878
# Poissons Ratio (y) = 0.30679 0.31218
# Poissons Ratio (z) = -0.06186 0.48962
#
# Static dielectric constant tensor:
#      x y z
#    x 4.174910 0.000000 0.171680 
#    y 0.000000 3.809980 0.000000 
#    z 0.171680 0.000000 3.832810 
# 
# 
# High freq. dielectric constant tensor:
#      x y z
#    x 1.858710 0.000000 -0.002210 
#    y 0.000000 1.857170 0.000000 
#    z -0.002210 0.000000 1.848140 
# 
# From -- ./inp_files/56758.got.cif
#   From: 2010.06.25/outbox.cif.g09.slc.cpg/sg12_29_cif.got.tgz:56758.got - 2010.06.28 00:19:55.
