data_PCOD8113197
_publ_section_title
;
Structure prediction by ZEFSAII (Michael W. Deem and Ramdas Pophale) SiO2 
 PCOD8113197
Probable space group: C 2/M
;
_chemical_formula_sum "Si O2"
_cell_formula_units_Z 56
_cell_length_a 17.868229
_cell_length_b 14.187797
_cell_length_c 21.370925
_cell_angle_alpha 90.000000
_cell_angle_beta 152.401187
_cell_angle_gamma 90.000000
_cell_volume 2509.927453
_symmetry_space_group_name_H-M "C 2/M"
_symmetry_group_IT_number 12
_symmetry_cell_setting 'monoclinic'
loop_
_space_group_symop_operation_xyz
x,y,z
-x,y,-z
-x,-y,-z
x,-y,z
1/2+x,1/2+y,z
1/2-x,1/2+y,-z
1/2-x,1/2-y,-z
1/2+x,1/2-y,z
loop_
_atom_site_type_symbol
_atom_site_label
_atom_site_fract_x
_atom_site_fract_y
_atom_site_fract_z
Si Si1 0.738266 0.390383 0.220690
Si Si2 0.372951 0.709827 0.354673
Si Si3 0.765578 0.852052 0.037585
Si Si4 0.605002 0.602339 0.995907
Si Si5 0.401769 0.105080 0.785801
Si Si6 0.347845 0.111222 0.601207
Si Si7 0.992103 0.195051 0.676226
O O1 0.790002 0.500000 0.265699
O O2 0.874980 0.324259 0.352428
O O3 0.716542 0.350348 0.132467
O O4 0.577631 0.359964 0.141028
O O5 0.500000 0.674861 0.500000
O O6 0.193667 0.673829 0.238654
O O7 0.425117 0.666848 0.327308
O O8 0.900910 0.853350 0.190746
O O9 0.750000 0.750000 0.000000
O O10 0.817280 0.910540 0.014765
O O11 0.594549 0.885003 0.938165
O O12 0.585950 0.500000 0.012681
O O13 0.348054 0.126723 0.675434
O O14 0.351772 0.000000 0.767208
O O15 0.474168 0.190152 0.668855
O O16 0.177030 0.139446 0.444843
O O17 0.392799 0.000000 0.618210
#
# Coordination Sequence:
#
# PCOD8113197 Si02
#       7
#     8   8   8   8   8   8   8
#     4   9  20  37  62  97 133 174 217 269 339 416
#     4  12  25  44  65  92 132 182 228 278 334 409
#     4  12  22  38  66 101 133 170 220 288 341 395
#     4   9  19  38  62  91 131 170 209 263 343 415
#     4  11  25  45  70  96 132 182 231 278 338 408
#     4  10  23  46  71  99 135 179 230 279 335 411
#     4  11  25  43  70 104 135 176 229 283 348 401
#
# _framework density 22.311399999999999
#
# number of rings (size 3 to 8) (size 9 to 14) (size 15 to 20)
#    0.000    1.429    2.857    3.000    0.000    4.571 
#    0.000    2.143    0.000    0.000    0.000    0.000 
#    0.000    0.000    0.000    0.000    0.000    0.000 
#
# Total GULP energy -346895.593250 kJ/mol
# GULP energy per Si atom -12389.128330 kJ/mol
# Density = 2.226062 g / cm^3
# Si number density = 22.311400 Si / 1000 Ang^3
#
#
#
# Elastic Constant Matrix: (Units=GPa)
#
#
# Indices 1 2 3 4 5 6 
#
# 1 140.5233 24.4654 42.7984 0.0001 2.4490 0.0002
# 2 24.4654 89.6853 20.1954 0.0026 -6.0793 -0.0009
# 3 42.7984 20.1954 109.4208 0.0121 -0.4964 0.0025
# 4 0.0001 0.0026 0.0121 25.1411 0.0016 -1.4634
# 5 2.4490 -6.0793 -0.4964 0.0016 26.2025 -0.0002
# 6 0.0002 -0.0009 0.0025 -1.4634 -0.0002 24.5890
#
#
#
# Elastic Compliance Matrix: (Units=1/GPa)
#
#
# Indices 1 2 3 4 5 6 
#
# 1 0.008331 -0.001691 -0.002952 0.000002 -0.001227 0.000000
# 2 -0.001691 0.012165 -0.001570 -0.000001 0.002951 0.000001
# 3 -0.002952 -0.001570 0.010584 -0.000005 0.000112 -0.000001
# 4 0.000002 -0.000001 -0.000005 0.039914 -0.000003 0.002375
# 5 -0.001227 0.002951 0.000112 -0.000003 0.038966 0.000000
# 6 0.000000 0.000001 -0.000001 0.002375 0.000000 0.040810
#
#
# Mechanical properties :
#
#
# Convention : Reuss Voigt Hill
#
# Bulk Modulus (GPa) = 53.61039 57.17199 55.39119
# Shear Modulus (GPa) = 29.51342 31.99788 30.75565
#
# Velocity S-wave (km/s) = 3.64097 3.79112 3.71681
# Velocity P-wave (km/s) = 6.46189 6.69654 6.58026
#
# Compressibility (1/GPa) = 0.01865310
#
# Stress axis : x y z
#
# Youngs Moduli (GPa) = 120.03139 82.20260 94.48186
#
# Poissons Ratio (x) = 0.13901 0.27892
# Poissons Ratio (y) = 0.20298 0.14838
# Poissons Ratio (z) = 0.35434 0.12909
#
# Static dielectric constant tensor:
#      x y z
#    x 3.202650 0.000010 0.672090 
#    y 0.000010 3.943360 -0.000040 
#    z 0.672090 -0.000040 3.271360 
# 
# 
# High freq. dielectric constant tensor:
#      x y z
#    x 1.879330 0.000000 0.006240 
#    y 0.000000 1.876010 0.000000 
#    z 0.006240 0.000000 1.876360 
# 
# From -- ./inp_files/316797.got.cif
#   From: 2010.06.25/outbox.cif.g09.slc.cpg/sg12_159_cif.got.tgz:316797.got - 2010.06.28 00:19:55.
