data_PCOD8113775
_publ_section_title
;
Structure prediction by ZEFSAII (Michael W. Deem and Ramdas Pophale) SiO2 
 PCOD8113775
Probable space group: C 2/M
;
_chemical_formula_sum "Si O2"
_cell_formula_units_Z 48
_cell_length_a 23.888725
_cell_length_b 8.852886
_cell_length_c 20.788203
_cell_angle_alpha 90.000000
_cell_angle_beta 39.000431
_cell_angle_gamma 90.000000
_cell_volume 2766.754532
_symmetry_space_group_name_H-M "C 2/M"
_symmetry_group_IT_number 12
_symmetry_cell_setting 'monoclinic'
loop_
_space_group_symop_operation_xyz
x,y,z
-x,y,-z
-x,-y,-z
x,-y,z
1/2+x,1/2+y,z
1/2-x,1/2+y,-z
1/2-x,1/2-y,-z
1/2+x,1/2-y,z
loop_
_atom_site_type_symbol
_atom_site_label
_atom_site_fract_x
_atom_site_fract_y
_atom_site_fract_z
Si Si1 0.073983 0.320818 0.386371
Si Si2 0.919698 0.679097 0.764319
Si Si3 0.959135 0.821765 0.853646
Si Si4 0.226086 0.821414 0.781764
Si Si5 0.223886 0.177593 0.927118
Si Si6 0.944883 0.678535 0.111918
O O1 0.069626 0.500000 0.390900
O O2 0.053529 0.267572 0.331552
O O3 0.171929 0.272089 0.323667
O O4 0.000000 0.249990 0.500000
O O5 0.929190 0.500000 0.763567
O O6 0.982761 0.759288 0.761217
O O7 0.818698 0.738934 0.867056
O O8 0.018208 0.746893 0.855370
O O9 0.973171 0.000000 0.844300
O O10 0.856608 0.771550 0.955887
O O11 0.202827 0.765466 0.874237
O O12 0.157494 0.732326 0.798019
O O13 0.212800 0.000000 0.783783
O O14 0.234003 0.000000 0.913352
O O15 0.950052 0.500000 0.111601
O O16 0.000000 0.737390 0.000000
#
# Coordination Sequence:
#
# PCOD8113775 Si02
#       6
#     8   8   8   8   8   8
#     4   8  15  30  55  81 100 123 157 200 250 297
#     4   9  17  30  47  70 100 127 158 198 241 288
#     4  11  20  30  46  67  97 134 168 197 233 286
#     4   9  16  30  51  73  98 128 165 201 235 285
#     4   8  15  27  44  66  94 129 160 191 232 281
#     4  11  22  33  46  68  99 134 169 203 239 282
#
# _framework density 17.348846000000002
#
# number of rings (size 3 to 8) (size 9 to 14) (size 15 to 20)
#    0.000    2.667    1.667    3.500    0.000    0.667 
#    0.000    4.167    0.000    3.000    0.000    0.000 
#    0.000    0.000    0.000    0.000    0.000    0.000 
#
# Total GULP energy -297408.472708 kJ/mol
# GULP energy per Si atom -12392.019696 kJ/mol
# Density = 1.730936 g / cm^3
# Si number density = 17.348846 Si / 1000 Ang^3
#
#
#
# Elastic Constant Matrix: (Units=GPa)
#
#
# Indices 1 2 3 4 5 6 
#
# 1 151.6449 42.9054 64.1506 -0.0001 13.4624 -0.0008
# 2 42.9054 42.4792 30.7173 -0.0022 1.4151 -0.0027
# 3 64.1506 30.7173 94.5352 -0.0013 3.7965 0.0010
# 4 -0.0001 -0.0022 -0.0013 11.5586 0.0003 1.6029
# 5 13.4624 1.4151 3.7965 0.0003 15.7657 0.0005
# 6 -0.0008 -0.0027 0.0010 1.6029 0.0005 25.0464
#
#
#
# Elastic Compliance Matrix: (Units=1/GPa)
#
#
# Indices 1 2 3 4 5 6 
#
# 1 0.011666 -0.007875 -0.005035 -0.000002 -0.008043 0.000000
# 2 -0.007875 0.036088 -0.006586 0.000005 0.005071 0.000004
# 3 -0.005035 -0.006586 0.016094 0.000001 0.001015 -0.000002
# 4 -0.000002 0.000005 0.000001 0.087291 -0.000001 -0.005586
# 5 -0.008043 0.005071 0.001015 -0.000001 0.069597 -0.000001
# 6 0.000000 0.000004 -0.000002 -0.005586 -0.000001 0.040283
#
#
# Mechanical properties :
#
#
# Convention : Reuss Voigt Hill
#
# Bulk Modulus (GPa) = 40.23000 62.68955 51.45978
# Shear Modulus (GPa) = 16.21816 20.53319 18.37567
#
# Velocity S-wave (km/s) = 3.06081 3.44400 3.25805
# Velocity P-wave (km/s) = 5.97751 7.21305 6.62415
#
# Compressibility (1/GPa) = 0.02485707
#
# Stress axis : x y z
#
# Youngs Moduli (GPa) = 85.71732 27.70997 62.13495
#
# Poissons Ratio (x) = 0.21820 0.31285
# Poissons Ratio (y) = 0.67499 0.40923
# Poissons Ratio (z) = 0.43158 0.18250
#
# Static dielectric constant tensor:
#      x y z
#    x 3.301430 0.000000 -0.046360 
#    y 0.000000 2.857830 0.000000 
#    z -0.046360 0.000000 3.503560 
# 
# 
# High freq. dielectric constant tensor:
#      x y z
#    x 1.678180 0.000000 0.005210 
#    y 0.000000 1.642280 0.000000 
#    z 0.005210 0.000000 1.638860 
# 
# From -- ./inp_files/287269.got.cif
#   From: 2010.06.25/outbox.cif.g09.slc.cpg/sg12_144_cif.got.tgz:287269.got - 2010.06.28 00:19:55.
