data_PCOD8113218
_publ_section_title
;
Structure prediction by ZEFSAII (Michael W. Deem and Ramdas Pophale) SiO2 
 PCOD8113218
Probable space group: C 2/M
;
_chemical_formula_sum "Si O2"
_cell_formula_units_Z 44
_cell_length_a 13.966948
_cell_length_b 21.260361
_cell_length_c 8.688361
_cell_angle_alpha 90.000000
_cell_angle_beta 61.291331
_cell_angle_gamma 90.000000
_cell_volume 2262.799088
_symmetry_space_group_name_H-M "C 2/M"
_symmetry_group_IT_number 12
_symmetry_cell_setting 'monoclinic'
loop_
_space_group_symop_operation_xyz
x,y,z
-x,y,-z
-x,-y,-z
x,-y,z
1/2+x,1/2+y,z
1/2-x,1/2+y,-z
1/2-x,1/2-y,-z
1/2+x,1/2-y,z
loop_
_atom_site_type_symbol
_atom_site_label
_atom_site_fract_x
_atom_site_fract_y
_atom_site_fract_z
Si Si1 0.173999 0.750836 0.706609
Si Si2 0.235086 0.366334 0.170489
Si Si3 0.500000 0.599615 0.500000
Si Si4 0.041925 0.280972 0.298484
Si Si5 0.004304 0.000000 0.239381
Si Si6 0.683066 0.500000 0.862766
Si Si7 0.311509 0.329314 0.795913
O O1 0.250000 0.750000 0.500000
O O2 0.193805 0.818192 0.777060
O O3 0.202155 0.691824 0.793457
O O4 0.051055 0.732532 0.755088
O O5 0.105697 0.348210 0.256263
O O6 0.243753 0.437792 0.226118
O O7 0.285428 0.372809 0.960730
O O8 0.482799 0.560778 0.359011
O O9 0.608316 0.640529 0.392423
O O10 0.136368 0.233760 0.174924
O O11 0.000000 0.264853 0.500000
O O12 0.916177 0.000000 0.176369
O O13 0.127110 0.000000 0.075669
#
# Coordination Sequence:
#
# PCOD8113218 Si02
#       7
#     8   8   4   8   4   4   8
#     4  11  21  38  66  93 120 162 207 267 319 371
#     4  11  25  40  61  93 131 167 207 258 317 379
#     4  11  20  40  60  92 124 157 208 262 316 375
#     4  11  21  37  62  92 125 159 205 258 322 372
#     4  10  24  36  64  89 117 174 210 257 316 365
#     4  11  24  42  59  92 130 169 215 258 305 382
#     4  11  22  37  61  93 127 158 201 270 321 367
#
# _framework density 19.444945000000001
#
# number of rings (size 3 to 8) (size 9 to 14) (size 15 to 20)
#    0.000    1.091    6.364    2.182    5.091    2.909 
#    0.000    0.455    0.000    4.364    0.000    0.000 
#    0.000    0.000    0.000    0.000    0.000    0.000 
#
# Total GULP energy -272583.025048 kJ/mol
# GULP energy per Si atom -12390.137502 kJ/mol
# Density = 1.940069 g / cm^3
# Si number density = 19.444945 Si / 1000 Ang^3
#
#
#
# Elastic Constant Matrix: (Units=GPa)
#
#
# Indices 1 2 3 4 5 6 
#
# 1 149.0380 54.7202 24.8514 0.0000 -0.2722 0.0000
# 2 54.7202 123.4189 23.1332 0.0000 3.2449 0.0000
# 3 24.8514 23.1332 71.3117 0.0000 7.9634 0.0000
# 4 0.0000 0.0000 0.0000 32.1980 0.0000 11.7871
# 5 -0.2722 3.2449 7.9634 0.0000 24.9256 0.0000
# 6 0.0000 0.0000 0.0000 11.7871 0.0000 51.2310
#
#
#
# Elastic Compliance Matrix: (Units=1/GPa)
#
#
# Indices 1 2 3 4 5 6 
#
# 1 0.008255 -0.003329 -0.001924 0.000000 0.001138 0.000000
# 2 -0.003329 0.009971 -0.001997 0.000000 -0.000697 0.000000
# 3 -0.001924 -0.001997 0.015881 0.000000 -0.004835 0.000000
# 4 0.000000 0.000000 0.000000 0.033914 0.000000 -0.007803
# 5 0.001138 -0.000697 -0.004835 0.000000 0.041767 0.000000
# 6 0.000000 0.000000 0.000000 -0.007803 0.000000 0.021315
#
#
# Mechanical properties :
#
#
# Convention : Reuss Voigt Hill
#
# Bulk Modulus (GPa) = 51.00071 61.01982 56.01027
# Shear Modulus (GPa) = 32.86476 37.74184 35.30330
#
# Velocity S-wave (km/s) = 4.11560 4.41041 4.26555
# Velocity P-wave (km/s) = 6.99066 7.57526 7.28883
#
# Compressibility (1/GPa) = 0.01960757
#
# Stress axis : x y z
#
# Youngs Moduli (GPa) = 121.13936 100.28934 62.96841
#
# Poissons Ratio (x) = 0.33390 0.12114
# Poissons Ratio (y) = 0.40331 0.12572
# Poissons Ratio (z) = 0.23305 0.20024
#
# Static dielectric constant tensor:
#      x y z
#    x 3.963840 0.000000 0.117590 
#    y 0.000000 3.547830 0.000000 
#    z 0.117590 0.000000 3.625710 
# 
# 
# High freq. dielectric constant tensor:
#      x y z
#    x 1.751600 0.000000 0.008870 
#    y 0.000000 1.742550 0.000000 
#    z 0.008870 0.000000 1.768130 
# 
# From -- ./inp_files/64682.got.cif
#   From: 2010.06.25/outbox.cif.g09.slc.cpg/sg12_33_cif.got.tgz:64682.got - 2010.06.28 00:19:55.
