data_PCOD8113676
_publ_section_title
;
Structure prediction by ZEFSAII (Michael W. Deem and Ramdas Pophale) SiO2 
 PCOD8113676
Probable space group: C 2/M
;
_chemical_formula_sum "Si O2"
_cell_formula_units_Z 56
_cell_length_a 18.855249
_cell_length_b 19.694889
_cell_length_c 12.210915
_cell_angle_alpha 90.000000
_cell_angle_beta 44.769900
_cell_angle_gamma 90.000000
_cell_volume 3193.506973
_symmetry_space_group_name_H-M "C 2/M"
_symmetry_group_IT_number 12
_symmetry_cell_setting 'monoclinic'
loop_
_space_group_symop_operation_xyz
x,y,z
-x,y,-z
-x,-y,-z
x,-y,z
1/2+x,1/2+y,z
1/2-x,1/2+y,-z
1/2-x,1/2-y,-z
1/2+x,1/2-y,z
loop_
_atom_site_type_symbol
_atom_site_label
_atom_site_fract_x
_atom_site_fract_y
_atom_site_fract_z
Si Si1 0.522692 0.768459 0.595364
Si Si2 0.177810 0.576333 0.724144
Si Si3 0.486813 0.863734 0.824121
Si Si4 0.836561 0.194347 0.903658
Si Si5 0.734706 0.286240 0.402866
Si Si6 0.287945 0.075347 0.056103
Si Si7 0.597187 0.262910 0.950677
O O1 0.500000 0.798151 0.500000
O O2 0.540515 0.830661 0.659470
O O3 0.432308 0.719804 0.731247
O O4 0.623688 0.724095 0.477721
O O5 0.207344 0.500000 0.653187
O O6 0.251106 0.633045 0.592423
O O7 0.187888 0.582818 0.842716
O O8 0.063974 0.591643 0.810136
O O9 0.394540 0.909367 0.880067
O O10 0.438771 0.805662 0.951757
O O11 0.799544 0.125351 0.888292
O O12 0.750000 0.250000 0.000000
O O13 0.864691 0.182942 0.000687
O O14 0.750000 0.250000 0.500000
O O15 0.816120 0.255900 0.229749
O O16 0.251067 0.000000 0.066477
O O17 0.500000 0.296729 0.000000
#
# Coordination Sequence:
#
# PCOD8113676 Si02
#       7
#     8   8   8   8   8   8   8
#     4  11  22  33  56  84 113 146 185 233 279 321
#     4  11  21  35  55  84 118 148 180 228 285 339
#     4  11  19  35  56  86 115 143 183 232 279 337
#     4  11  20  37  57  81 113 146 191 232 272 332
#     4  12  21  35  55  85 114 146 185 230 276 332
#     4  11  21  34  58  86 112 143 186 236 281 328
#     4  11  19  34  59  83 112 143 190 234 277 323
#
# _framework density 17.535581000000001
#
# number of rings (size 3 to 8) (size 9 to 14) (size 15 to 20)
#    0.000    0.857    7.143    3.429    0.000    1.143 
#    0.000    0.714    0.000    7.286    0.000    0.000 
#    0.000    0.000    0.000    0.000    0.000    0.000 
#
# Total GULP energy -347125.572070 kJ/mol
# GULP energy per Si atom -12397.341860 kJ/mol
# Density = 1.749567 g / cm^3
# Si number density = 17.535581 Si / 1000 Ang^3
#
#
#
# Elastic Constant Matrix: (Units=GPa)
#
#
# Indices 1 2 3 4 5 6 
#
# 1 128.8271 53.7620 47.1787 0.0000 -1.4954 0.0000
# 2 53.7620 113.0367 34.6381 0.0000 4.0961 0.0000
# 3 47.1787 34.6381 102.0927 0.0000 -0.7526 0.0000
# 4 0.0000 0.0000 0.0000 16.6665 0.0000 1.0943
# 5 -1.4954 4.0961 -0.7526 0.0000 35.5240 0.0000
# 6 0.0000 0.0000 0.0000 1.0943 0.0000 26.8478
#
#
#
# Elastic Compliance Matrix: (Units=1/GPa)
#
#
# Indices 1 2 3 4 5 6 
#
# 1 0.010783 -0.004056 -0.003601 0.000000 0.000845 0.000000
# 2 -0.004056 0.011451 -0.002022 0.000000 -0.001534 0.000000
# 3 -0.003601 -0.002022 0.012148 0.000000 0.000339 0.000000
# 4 0.000000 0.000000 0.000000 0.060162 0.000000 -0.002452
# 5 0.000845 -0.001534 0.000339 0.000000 0.028370 0.000000
# 6 0.000000 0.000000 0.000000 -0.002452 0.000000 0.037347
#
#
# Mechanical properties :
#
#
# Convention : Reuss Voigt Hill
#
# Bulk Modulus (GPa) = 66.55931 68.34600 67.45266
# Shear Modulus (GPa) = 27.08173 29.69949 28.39061
#
# Velocity S-wave (km/s) = 3.93413 4.11989 4.02808
# Velocity P-wave (km/s) = 7.66000 7.85440 7.75781
#
# Compressibility (1/GPa) = 0.01502419
#
# Stress axis : x y z
#
# Youngs Moduli (GPa) = 92.73427 87.32863 82.32083
#
# Poissons Ratio (x) = 0.35421 0.29643
# Poissons Ratio (y) = 0.37613 0.16646
# Poissons Ratio (z) = 0.33392 0.17658
#
# Static dielectric constant tensor:
#      x y z
#    x 3.784590 0.000000 0.044060 
#    y 0.000000 3.305700 0.000000 
#    z 0.044060 0.000000 3.195100 
# 
# 
# High freq. dielectric constant tensor:
#      x y z
#    x 1.697390 0.000000 -0.003060 
#    y 0.000000 1.648910 0.000000 
#    z -0.003060 0.000000 1.669740 
# 
# From -- ./inp_files/169414.got.cif
#   From: 2010.06.25/outbox.cif.g09.slc.cpg/sg12_85_cif.got.tgz:169414.got - 2010.06.28 00:19:55.
