data_PCOD8113127
_publ_section_title
;
Structure prediction by ZEFSAII (Michael W. Deem and Ramdas Pophale) SiO2 
 PCOD8113127
Probable space group: C 2/M
;
_chemical_formula_sum "Si O2"
_cell_formula_units_Z 44
_cell_length_a 12.594510
_cell_length_b 24.818370
_cell_length_c 12.126573
_cell_angle_alpha 90.000000
_cell_angle_beta 33.198830
_cell_angle_gamma 90.000000
_cell_volume 2075.455064
_symmetry_space_group_name_H-M "C 2/M"
_symmetry_group_IT_number 12
_symmetry_cell_setting 'monoclinic'
loop_
_space_group_symop_operation_xyz
x,y,z
-x,y,-z
-x,-y,-z
x,-y,z
1/2+x,1/2+y,z
1/2-x,1/2+y,-z
1/2-x,1/2-y,-z
1/2+x,1/2-y,z
loop_
_atom_site_type_symbol
_atom_site_label
_atom_site_fract_x
_atom_site_fract_y
_atom_site_fract_z
Si Si1 0.298075 0.307650 0.717483
Si Si2 0.152870 0.127082 0.121237
Si Si3 0.768556 0.062298 0.438705
Si Si4 0.441024 0.102099 0.173362
Si Si5 0.688752 0.695031 0.892392
Si Si6 0.000000 0.374898 0.500000
O O1 0.500000 0.282895 0.500000
O O2 0.368006 0.356258 0.734177
O O3 0.148117 0.336713 0.762463
O O4 0.192071 0.259121 0.871318
O O5 0.982310 0.086907 0.235376
O O6 0.363939 0.100314 0.922761
O O7 0.155634 0.182527 0.049532
O O8 0.707199 0.068447 0.621539
O O9 0.624242 0.089080 0.476169
O O10 0.781756 0.000000 0.397861
O O11 0.500000 0.078356 0.000000
O O12 0.872557 0.664063 0.685704
O O13 0.500000 0.670150 0.000000
#
# Coordination Sequence:
#
# PCOD8113127 Si02
#       6
#     8   8   8   8   8   4
#     4  11  22  40  68 101 140 175 211 268 336 398
#     4  11  23  43  65  98 137 176 224 270 323 408
#     4  12  26  46  71  97 131 175 227 287 333 379
#     4  10  23  44  68  99 143 172 217 275 328 401
#     4  12  23  41  66  98 138 178 219 263 338 398
#     4  12  25  46  64 100 134 166 227 288 320 402
#
# _framework density 21.200171000000001
#
# number of rings (size 3 to 8) (size 9 to 14) (size 15 to 20)
#    0.000    0.727    6.364    2.455    0.000    1.091 
#    0.000   10.909    0.000    0.000    0.000    0.000 
#    0.000    0.000    0.000    0.000    0.000    0.000 
#
# Total GULP energy -272561.473962 kJ/mol
# GULP energy per Si atom -12389.157907 kJ/mol
# Density = 2.115192 g / cm^3
# Si number density = 21.200171 Si / 1000 Ang^3
#
#
#
# Elastic Constant Matrix: (Units=GPa)
#
#
# Indices 1 2 3 4 5 6 
#
# 1 107.9242 37.2273 34.8162 -0.0021 -24.8535 -0.0016
# 2 37.2273 112.6810 29.7918 0.0000 -15.7340 0.0001
# 3 34.8162 29.7918 91.9205 -0.0023 -18.9619 -0.0017
# 4 -0.0021 0.0000 -0.0023 -20.3806 0.0027 -38.0481
# 5 -24.8535 -15.7340 -18.9619 0.0027 40.5072 0.0022
# 6 -0.0016 0.0001 -0.0017 -38.0481 0.0022 -15.1453
#
#
#
# Elastic Compliance Matrix: (Units=1/GPa)
#
#
# Indices 1 2 3 4 5 6 
#
# 1 0.012242 -0.002596 -0.002716 0.000000 0.005231 0.000000
# 2 -0.002596 0.010499 -0.002111 0.000000 0.001497 0.000000
# 3 -0.002716 -0.002111 0.013370 0.000000 0.003772 0.000000
# 4 0.000000 0.000000 0.000000 0.013297 0.000001 -0.033405
# 5 0.005231 0.001497 0.003772 0.000001 0.030244 0.000001
# 6 0.000000 0.000000 0.000000 -0.033405 0.000001 0.017894
#
#
# Mechanical properties :
#
#
# Convention : Reuss Voigt Hill
#
# Bulk Modulus (GPa) = 47.02435 57.35514 52.18975
# Shear Modulus (GPa) = 41.84756 15.04228 28.44492
#
# Velocity S-wave (km/s) = 4.44771 2.66660 3.66694
# Velocity P-wave (km/s) = 6.97176 6.04928 6.52684
#
# Compressibility (1/GPa) = 0.02126558
#
# Stress axis : x y z
#
# Youngs Moduli (GPa) = 81.68456 95.24364 74.79381
#
# Poissons Ratio (x) = 0.24724 0.20317
# Poissons Ratio (y) = 0.21204 0.15787
# Poissons Ratio (z) = 0.22189 0.20104
#
# Static dielectric constant tensor:
#      x y z
#    x 4.076980 0.000000 -0.198670 
#    y 0.000000 3.428630 0.000000 
#    z -0.198670 0.000000 4.056400 
# 
# 
# High freq. dielectric constant tensor:
#      x y z
#    x 1.840370 0.000000 -0.012340 
#    y 0.000000 1.803170 0.000000 
#    z -0.012340 0.000000 1.847790 
# 
# From -- ./inp_files/136856.got.cif
#   From: 2010.06.25/outbox.cif.g09.slc.cpg/sg12_69_cif.got.tgz:136856.got - 2010.06.28 00:19:55.
