data_PCOD8113621
_publ_section_title
;
Structure prediction by ZEFSAII (Michael W. Deem and Ramdas Pophale) SiO2 
 PCOD8113621
Probable space group: C 2/M
;
_chemical_formula_sum "Si O2"
_cell_formula_units_Z 64
_cell_length_a 8.735533
_cell_length_b 18.796266
_cell_length_c 20.985961
_cell_angle_alpha 90.000000
_cell_angle_beta 88.365772
_cell_angle_gamma 90.000000
_cell_volume 3444.396745
_symmetry_space_group_name_H-M "C 2/M"
_symmetry_group_IT_number 12
_symmetry_cell_setting 'monoclinic'
loop_
_space_group_symop_operation_xyz
x,y,z
-x,y,-z
-x,-y,-z
x,-y,z
1/2+x,1/2+y,z
1/2-x,1/2+y,-z
1/2-x,1/2-y,-z
1/2+x,1/2-y,z
loop_
_atom_site_type_symbol
_atom_site_label
_atom_site_fract_x
_atom_site_fract_y
_atom_site_fract_z
Si Si1 0.625897 0.716440 0.455477
Si Si2 0.592530 0.917476 0.299319
Si Si3 0.854961 0.802273 0.959305
Si Si4 0.870160 0.578573 0.189116
Si Si5 0.678667 0.302032 0.735066
Si Si6 0.875476 0.200489 0.812162
Si Si7 0.875051 0.419997 0.047108
Si Si8 0.902910 0.691652 0.374014
O O1 0.500000 0.671811 0.500000
O O2 0.750000 0.750000 0.500000
O O3 0.732225 0.673044 0.404234
O O4 0.525659 0.777321 0.422420
O O5 0.516666 0.909637 0.231186
O O6 0.753035 0.874084 0.297455
O O7 0.471910 0.883107 0.350119
O O8 0.623081 0.000000 0.317343
O O9 0.888146 0.776922 0.886435
O O10 0.784229 0.880190 0.955423
O O11 0.750000 0.750000 0.000000
O O12 0.000000 0.812743 0.000000
O O13 0.797992 0.500000 0.201251
O O14 0.738107 0.635778 0.201859
O O15 0.939495 0.584554 0.117674
O O16 0.816637 0.268060 0.773688
O O17 0.542314 0.321572 0.784973
O O18 0.616757 0.249556 0.681424
O O19 0.844539 0.500000 0.024230
O O20 0.000000 0.382632 0.000000
#
# Coordination Sequence:
#
# PCOD8113621 Si02
#       8
#     8   8   8   8   8   8   8   8
#     4   9  19  33  60  96 118 148 195 241 267 316
#     4  11  23  37  57  88 125 158 192 241 298 345
#     4  11  23  36  51  76 107 142 184 244 297 353
#     4   9  19  36  54  78 111 147 188 237 299 360
#     4  12  21  35  58  87 111 150 197 239 283 343
#     4  11  21  35  56  78 108 147 192 244 297 351
#     4   9  19  36  57  75  99 142 190 236 291 358
#     4  11  18  36  60  89 120 151 193 234 276 338
#
# _framework density 18.580902999999999
#
# number of rings (size 3 to 8) (size 9 to 14) (size 15 to 20)
#    0.000    1.625    3.750    1.125    0.000    4.750 
#    0.000    0.000    0.000    3.750    0.000    0.000 
#    0.000    0.000    0.000    0.000    0.000    0.000 
#
# Total GULP energy -396566.430582 kJ/mol
# GULP energy per Si atom -12392.700956 kJ/mol
# Density = 1.853861 g / cm^3
# Si number density = 18.580903 Si / 1000 Ang^3
#
#
#
# Elastic Constant Matrix: (Units=GPa)
#
#
# Indices 1 2 3 4 5 6 
#
# 1 98.3169 29.4806 44.5369 0.0000 -21.9556 0.0000
# 2 29.4806 88.9267 31.6980 0.0000 -11.3707 0.0000
# 3 44.5369 31.6980 95.3613 0.0000 -9.3420 0.0000
# 4 0.0000 0.0000 0.0000 16.6891 0.0000 -3.6870
# 5 -21.9556 -11.3707 -9.3420 0.0000 49.1753 0.0000
# 6 0.0000 0.0000 0.0000 -3.6870 0.0000 21.5526
#
#
#
# Elastic Compliance Matrix: (Units=1/GPa)
#
#
# Indices 1 2 3 4 5 6 
#
# 1 0.014422 -0.002185 -0.005531 0.000000 0.004883 0.000000
# 2 -0.002185 0.013322 -0.003262 0.000000 0.001485 0.000000
# 3 -0.005531 -0.003262 0.014101 0.000000 -0.000545 0.000000
# 4 0.000000 0.000000 0.000000 0.062273 0.000000 0.010653
# 5 0.004883 0.001485 -0.000545 0.000000 0.022756 0.000000
# 6 0.000000 0.000000 0.000000 0.010653 0.000000 0.048221
#
#
# Mechanical properties :
#
#
# Convention : Reuss Voigt Hill
#
# Bulk Modulus (GPa) = 50.28083 54.89288 52.58685
# Shear Modulus (GPa) = 24.54818 29.27600 26.91209
#
# Velocity S-wave (km/s) = 3.63871 3.97368 3.80988
# Velocity P-wave (km/s) = 6.69125 7.11761 6.90772
#
# Compressibility (1/GPa) = 0.01988829
#
# Stress axis : x y z
#
# Youngs Moduli (GPa) = 69.33623 75.06145 70.91913
#
# Poissons Ratio (x) = 0.16404 0.39225
# Poissons Ratio (y) = 0.15152 0.23136
# Poissons Ratio (z) = 0.38350 0.24487
#
# Static dielectric constant tensor:
#      x y z
#    x 3.600150 0.000000 -0.222610 
#    y 0.000000 3.322140 0.000000 
#    z -0.222610 0.000000 3.869610 
# 
# 
# High freq. dielectric constant tensor:
#      x y z
#    x 1.727540 0.000000 -0.005310 
#    y 0.000000 1.695310 0.000000 
#    z -0.005310 0.000000 1.735710 
# 
# From -- ./inp_files/300788.got.cif
#   From: 2010.06.25/outbox.cif.g09.slc.cpg/sg12_151_cif.got.tgz:300788.got - 2010.06.28 00:19:55.
