data_PCOD8113473
_publ_section_title
;
Structure prediction by ZEFSAII (Michael W. Deem and Ramdas Pophale) SiO2 
 PCOD8113473
Probable space group: C 2/M
;
_chemical_formula_sum "Si O2"
_cell_formula_units_Z 40
_cell_length_a 9.134313
_cell_length_b 14.545369
_cell_length_c 13.683858
_cell_angle_alpha 90.000000
_cell_angle_beta 85.371344
_cell_angle_gamma 90.000000
_cell_volume 1812.134744
_symmetry_space_group_name_H-M "C 2/M"
_symmetry_group_IT_number 12
_symmetry_cell_setting 'monoclinic'
loop_
_space_group_symop_operation_xyz
x,y,z
-x,y,-z
-x,-y,-z
x,-y,z
1/2+x,1/2+y,z
1/2-x,1/2+y,-z
1/2-x,1/2-y,-z
1/2+x,1/2-y,z
loop_
_atom_site_type_symbol
_atom_site_label
_atom_site_fract_x
_atom_site_fract_y
_atom_site_fract_z
Si Si1 0.191340 0.192030 0.804529
Si Si2 0.235688 0.000000 0.044951
Si Si3 0.145421 0.500000 0.748151
Si Si4 0.000000 0.756455 0.500000
Si Si5 0.267589 0.178981 0.371009
Si Si6 0.824687 0.500000 0.827658
Si Si7 0.904090 0.805231 0.917835
O O1 0.242795 0.235156 0.700839
O O2 0.232894 0.086773 0.799150
O O3 0.264800 0.242442 0.895851
O O4 0.014500 0.196707 0.819195
O O5 0.136565 0.908499 0.047800
O O6 0.327117 0.000000 0.138435
O O7 0.343487 0.000000 0.944739
O O8 0.216153 0.587837 0.693579
O O9 0.970668 0.500000 0.754474
O O10 0.114466 0.823392 0.438295
O O11 0.092407 0.689414 0.565762
O O12 0.000000 0.760284 0.000000
#
# Coordination Sequence:
#
# PCOD8113473 Si02
#       7
#     8   4   4   4   8   4   8
#     4  12  25  43  69  97 137 184 229 281 333 404
#     4  12  25  44  63 100 144 187 233 278 318 393
#     4  12  25  43  72 104 137 179 230 280 331 407
#     4  10  24  48  74  98 136 166 220 288 358 418
#     4  11  24  47  72 103 133 174 222 285 351 412
#     4  12  26  42  64 100 145 188 232 273 326 386
#     4  12  24  42  64  96 137 186 231 277 325 385
#
# _framework density 22.073414
#
# number of rings (size 3 to 8) (size 9 to 14) (size 15 to 20)
#    0.000    0.400    4.000    5.400    0.000    0.800 
#    0.000    4.000    0.000    0.000    0.000    0.000 
#    0.000    0.000    0.000    0.000    0.000    0.000 
#
# Total GULP energy -248033.310855 kJ/mol
# GULP energy per Si atom -12401.665543 kJ/mol
# Density = 2.202317 g / cm^3
# Si number density = 22.073414 Si / 1000 Ang^3
#
#
#
# Elastic Constant Matrix: (Units=GPa)
#
#
# Indices 1 2 3 4 5 6 
#
# 1 109.6966 39.7316 20.2175 0.0000 -21.7258 0.0000
# 2 39.7316 147.9467 44.4498 0.0000 -9.5206 0.0000
# 3 20.2175 44.4498 103.4365 0.0000 -5.8485 0.0000
# 4 0.0000 0.0000 0.0000 80.0556 0.0000 -26.5765
# 5 -21.7258 -9.5206 -5.8485 0.0000 45.2309 0.0000
# 6 0.0000 0.0000 0.0000 -26.5765 0.0000 30.8260
#
#
#
# Elastic Compliance Matrix: (Units=1/GPa)
#
#
# Indices 1 2 3 4 5 6 
#
# 1 0.011081 -0.002414 -0.000863 0.000000 0.004703 0.000000
# 2 -0.002414 0.008354 -0.003107 0.000000 0.000197 0.000000
# 3 -0.000863 -0.003107 0.011193 0.000000 0.000379 0.000000
# 4 0.000000 0.000000 0.000000 0.017500 0.000000 0.015088
# 5 0.004703 0.000197 0.000379 0.000000 0.024458 0.000000
# 6 0.000000 0.000000 0.000000 0.015088 0.000000 0.045448
#
#
# Mechanical properties :
#
#
# Convention : Reuss Voigt Hill
#
# Bulk Modulus (GPa) = 55.98943 63.31971 59.65457
# Shear Modulus (GPa) = 36.56211 48.33455 42.44833
#
# Velocity S-wave (km/s) = 4.07429 4.68452 4.39002
# Velocity P-wave (km/s) = 6.89589 7.61629 7.26502
#
# Compressibility (1/GPa) = 0.01786052
#
# Stress axis : x y z
#
# Youngs Moduli (GPa) = 90.24650 119.70911 89.34248
#
# Poissons Ratio (x) = 0.28898 0.07706
# Poissons Ratio (y) = 0.21785 0.27757
# Poissons Ratio (z) = 0.07784 0.37191
#
# Static dielectric constant tensor:
#      x y z
#    x 4.147420 0.000000 -0.138730 
#    y 0.000000 3.825460 0.000000 
#    z -0.138730 0.000000 4.151790 
# 
# 
# High freq. dielectric constant tensor:
#      x y z
#    x 1.886360 0.000000 -0.010520 
#    y 0.000000 1.860210 0.000000 
#    z -0.010520 0.000000 1.875650 
# 
# From -- ./inp_files/194633.got.cif
#   From: 2010.06.25/outbox.cif.g09.slc.cpg/sg12_98_cif.got.tgz:194633.got - 2010.06.28 00:19:55.
