data_PCOD8113109
_publ_section_title
;
Structure prediction by ZEFSAII (Michael W. Deem and Ramdas Pophale) SiO2 
 PCOD8113109
Probable space group: C 2/M
;
_chemical_formula_sum "Si O2"
_cell_formula_units_Z 48
_cell_length_a 19.697755
_cell_length_b 8.780870
_cell_length_c 13.754286
_cell_angle_alpha 90.000000
_cell_angle_beta 90.251211
_cell_angle_gamma 90.000000
_cell_volume 2378.965562
_symmetry_space_group_name_H-M "C 2/M"
_symmetry_group_IT_number 12
_symmetry_cell_setting 'monoclinic'
loop_
_space_group_symop_operation_xyz
x,y,z
-x,y,-z
-x,-y,-z
x,-y,z
1/2+x,1/2+y,z
1/2-x,1/2+y,-z
1/2-x,1/2-y,-z
1/2+x,1/2-y,z
loop_
_atom_site_type_symbol
_atom_site_label
_atom_site_fract_x
_atom_site_fract_y
_atom_site_fract_z
Si Si1 0.021299 0.322690 0.290446
Si Si2 0.951562 0.823195 0.910374
Si Si3 0.203581 0.822757 0.081093
Si Si4 0.609890 0.674564 0.630628
Si Si5 0.359522 0.321643 0.588632
Si Si6 0.746249 0.174483 0.280535
O O1 0.037375 0.500000 0.304886
O O2 0.947242 0.286822 0.330991
O O3 0.023935 0.281041 0.177537
O O4 0.075503 0.222762 0.348108
O O5 0.874751 0.781252 0.939592
O O6 0.957484 0.000000 0.880011
O O7 0.000000 0.783736 0.000000
O O8 0.224478 0.769454 0.187526
O O9 0.215950 0.000000 0.075222
O O10 0.250000 0.750000 0.000000
O O11 0.583818 0.500000 0.631226
O O12 0.628856 0.725607 0.522308
O O13 0.674010 0.693577 0.701419
O O14 0.346108 0.500000 0.599730
O O15 0.293397 0.233070 0.625116
O O16 0.726669 0.000000 0.261888
#
# Coordination Sequence:
#
# PCOD8113109 Si02
#       6
#     8   8   8   8   8   8
#     4  12  25  40  63  95 129 164 207 262 313 365
#     4  10  23  44  68  91 121 165 209 252 310 374
#     4  11  24  42  66  94 126 165 205 256 312 371
#     4  10  24  42  63  91 127 170 212 254 308 372
#     4  11  22  41  66  91 124 169 213 256 310 371
#     4  11  23  41  65  94 128 165 207 260 314 370
#
# _framework density 20.176836999999999
#
# number of rings (size 3 to 8) (size 9 to 14) (size 15 to 20)
#    0.000    1.167    1.667    4.000    2.333    5.667 
#    0.000    0.000    0.000    0.000    0.000    0.000 
#    0.000    0.000    0.000    0.000    0.000    0.000 
#
# Total GULP energy -297767.770474 kJ/mol
# GULP energy per Si atom -12406.990436 kJ/mol
# Density = 2.013091 g / cm^3
# Si number density = 20.176837 Si / 1000 Ang^3
#
#
#
# Elastic Constant Matrix: (Units=GPa)
#
#
# Indices 1 2 3 4 5 6 
#
# 1 2311.1251 2336.1924 841.5328 0.0000 186.3921 0.0000
# 2 2336.1924 2425.9572 871.4597 0.0000 188.3144 0.0000
# 3 841.5328 871.4597 396.3764 0.0000 66.8482 0.0000
# 4 0.0000 0.0000 0.0000 32.9071 0.0000 -11.3937
# 5 186.3921 188.3144 66.8482 0.0000 56.1320 0.0000
# 6 0.0000 0.0000 0.0000 -11.3937 0.0000 22.9269
#
#
#
# Elastic Compliance Matrix: (Units=1/GPa)
#
#
# Indices 1 2 3 4 5 6 
#
# 1 0.016476 -0.015539 -0.000478 0.000000 -0.002012 0.000000
# 2 -0.015539 0.016774 -0.003879 0.000000 -0.000056 0.000000
# 3 -0.000478 -0.003879 0.012017 0.000000 0.000289 0.000000
# 4 0.000000 0.000000 0.000000 0.036704 0.000000 0.018241
# 5 -0.002012 -0.000056 0.000289 0.000000 0.024338 0.000000
# 6 0.000000 0.000000 0.000000 0.018241 0.000000 0.052682
#
#
# Mechanical properties :
#
#
# Convention : Reuss Voigt Hill
#
# Bulk Modulus (GPa) = 182.62835 1470.20318 826.41576
# Shear Modulus (GPa) = 24.92417 94.67810 59.80113
#
# Velocity S-wave (km/s) = 3.51848 6.85755 5.45003
# Velocity P-wave (km/s) = 10.35454 28.15923 21.21507
#
# Compressibility (1/GPa) = 0.00547560
#
# Stress axis : x y z
#
# Youngs Moduli (GPa) = 60.69263 59.61590 83.21656
#
# Poissons Ratio (x) = 0.92637 0.03976
# Poissons Ratio (y) = 0.94310 0.32280
# Poissons Ratio (z) = 0.02900 0.23126
#
# Static dielectric constant tensor:
#      x y z
#    x 3.792760 0.000000 -0.043090 
#    y 0.000000 3.688210 0.000000 
#    z -0.043090 0.000000 3.743800 
# 
# 
# High freq. dielectric constant tensor:
#      x y z
#    x 1.802250 0.000000 -0.000340 
#    y 0.000000 1.791810 0.000000 
#    z -0.000340 0.000000 1.798260 
# 
# From -- ./inp_files/221585.got.cif
#   From: 2010.06.25/outbox.cif.g09.slc.cpg/sg12_111_cif.got.tgz:221585.got - 2010.06.28 00:19:55.
