data_PCOD8113701
_publ_section_title
;
Structure prediction by ZEFSAII (Michael W. Deem and Ramdas Pophale) SiO2 
 PCOD8113701
Probable space group: C 2/M
;
_chemical_formula_sum "Si O2"
_cell_formula_units_Z 56
_cell_length_a 24.988595
_cell_length_b 17.662720
_cell_length_c 17.101277
_cell_angle_alpha 90.000000
_cell_angle_beta 20.845914
_cell_angle_gamma 90.000000
_cell_volume 2685.976582
_symmetry_space_group_name_H-M "C 2/M"
_symmetry_group_IT_number 12
_symmetry_cell_setting 'monoclinic'
loop_
_space_group_symop_operation_xyz
x,y,z
-x,y,-z
-x,-y,-z
x,-y,z
1/2+x,1/2+y,z
1/2-x,1/2+y,-z
1/2-x,1/2-y,-z
1/2+x,1/2-y,z
loop_
_atom_site_type_symbol
_atom_site_label
_atom_site_fract_x
_atom_site_fract_y
_atom_site_fract_z
Si Si1 0.107552 0.792691 0.921323
Si Si2 0.399347 0.884638 0.066541
Si Si3 0.109123 0.917087 0.537220
Si Si4 0.616062 0.708475 0.639068
Si Si5 0.058311 0.312759 0.573700
Si Si6 0.116801 0.587060 0.084320
Si Si7 0.585636 0.676051 0.305387
O O1 0.126032 0.703706 0.884850
O O2 0.276156 0.827405 0.689385
O O3 0.000000 0.826037 0.000000
O O4 0.027696 0.811369 0.111721
O O5 0.236689 0.923528 0.296481
O O6 0.462186 0.904504 0.893907
O O7 0.500000 0.917703 0.000000
O O8 0.173923 0.870616 0.523320
O O9 0.966346 0.873903 0.697164
O O10 0.058350 0.000000 0.634243
O O11 0.750000 0.750000 0.500000
O O12 0.565121 0.764177 0.642035
O O13 0.947291 0.265898 0.666332
O O14 0.993327 0.393622 0.692049
O O15 0.172374 0.500000 0.019312
O O16 0.242176 0.653382 0.916157
O O17 0.500000 0.651256 0.500000
#
# Coordination Sequence:
#
# PCOD8113701 Si02
#       7
#     8   8   8   8   8   8   8
#     4  11  19  36  64  91 124 164 212 255 296 363
#     4  11  21  36  59  93 128 160 199 252 320 380
#     4  11  23  38  60  92 125 159 203 259 320 376
#     4  11  20  38  62  89 125 166 205 248 304 370
#     4  11  23  39  62  93 121 162 216 255 302 378
#     4  12  25  40  61  89 131 170 202 259 320 369
#     4  11  22  42  65  91 118 161 211 265 317 369
#
# _framework density 20.849027
#
# number of rings (size 3 to 8) (size 9 to 14) (size 15 to 20)
#    0.000    0.857    7.143    2.143    0.000    1.714 
#    0.000    0.714    0.000    1.286    0.000    0.000 
#    0.000    0.000    0.000    0.000    0.000    0.000 
#
# Total GULP energy -347018.202989 kJ/mol
# GULP energy per Si atom -12393.507250 kJ/mol
# Density = 2.080157 g / cm^3
# Si number density = 20.849027 Si / 1000 Ang^3
#
#
#
# Elastic Constant Matrix: (Units=GPa)
#
#
# Indices 1 2 3 4 5 6 
#
# 1 85.5342 36.7484 25.8903 -0.0004 0.8450 0.0002
# 2 36.7484 78.7108 22.7259 0.0018 1.3816 0.0009
# 3 25.8903 22.7259 119.3567 0.0016 16.5839 0.0008
# 4 -0.0004 0.0018 0.0016 8.5536 0.0007 -5.8725
# 5 0.8450 1.3816 16.5839 0.0007 31.7073 -0.0007
# 6 0.0002 0.0009 0.0008 -5.8725 -0.0007 9.4807
#
#
#
# Elastic Compliance Matrix: (Units=1/GPa)
#
#
# Indices 1 2 3 4 5 6 
#
# 1 0.015112 -0.006440 -0.002194 0.000005 0.001026 0.000004
# 2 -0.006440 0.016208 -0.001741 -0.000008 0.000376 -0.000006
# 3 -0.002194 -0.001741 0.009886 -0.000003 -0.005036 -0.000003
# 4 0.000005 -0.000008 -0.000003 0.203415 0.000000 0.126000
# 5 0.001026 0.000376 -0.005036 0.000000 0.034129 0.000003
# 6 0.000004 -0.000006 -0.000003 0.126000 0.000003 0.183525
#
#
# Mechanical properties :
#
#
# Convention : Reuss Voigt Hill
#
# Bulk Modulus (GPa) = 48.89028 50.48119 49.68573
# Shear Modulus (GPa) = 10.20735 23.16414 16.68575
#
# Velocity S-wave (km/s) = 2.21506 3.33685 2.83205
# Velocity P-wave (km/s) = 5.48111 6.25391 5.88022
#
# Compressibility (1/GPa) = 0.02045396
#
# Stress axis : x y z
#
# Youngs Moduli (GPa) = 66.17200 61.69952 101.15803
#
# Poissons Ratio (x) = 0.39734 0.22198
# Poissons Ratio (y) = 0.42615 0.17615
# Poissons Ratio (z) = 0.14521 0.10744
#
# Static dielectric constant tensor:
#      x y z
#    x 3.046700 0.000000 0.388840 
#    y 0.000000 3.755680 0.000010 
#    z 0.388840 0.000010 3.795890 
# 
# 
# High freq. dielectric constant tensor:
#      x y z
#    x 1.818960 0.000000 0.001500 
#    y 0.000000 1.782700 0.000000 
#    z 0.001500 0.000000 1.810050 
# 
# From -- ./inp_files/293865.got.cif
#   From: 2010.06.25/outbox.cif.g09.slc.cpg/sg12_147_cif.got.tgz:293865.got - 2010.06.28 00:19:55.
