data_PCOD8113583
_publ_section_title
;
Structure prediction by ZEFSAII (Michael W. Deem and Ramdas Pophale) SiO2 
 PCOD8113583
Probable space group: C 2/M
;
_chemical_formula_sum "Si O2"
_cell_formula_units_Z 64
_cell_length_a 12.165920
_cell_length_b 18.276401
_cell_length_c 14.513324
_cell_angle_alpha 90.000000
_cell_angle_beta 87.085145
_cell_angle_gamma 90.000000
_cell_volume 3222.851346
_symmetry_space_group_name_H-M "C 2/M"
_symmetry_group_IT_number 12
_symmetry_cell_setting 'monoclinic'
loop_
_space_group_symop_operation_xyz
x,y,z
-x,y,-z
-x,-y,-z
x,-y,z
1/2+x,1/2+y,z
1/2-x,1/2+y,-z
1/2-x,1/2-y,-z
1/2+x,1/2-y,z
loop_
_atom_site_type_symbol
_atom_site_label
_atom_site_fract_x
_atom_site_fract_y
_atom_site_fract_z
Si Si1 0.900950 0.155470 0.688512
Si Si2 0.128982 0.414879 0.989426
Si Si3 0.393972 0.815857 0.449600
Si Si4 0.214649 0.308411 0.833117
Si Si5 0.704354 0.151160 0.168740
Si Si6 0.493100 0.195377 0.266243
Si Si7 0.383912 0.583027 0.292989
Si Si8 0.336198 0.649642 0.485041
O O1 0.785268 0.153724 0.747741
O O2 0.891013 0.131698 0.581610
O O3 0.947316 0.237403 0.686067
O O4 0.989464 0.103522 0.735817
O O5 0.136942 0.500000 0.962308
O O6 0.197764 0.368120 0.912911
O O7 0.194783 0.401647 0.081661
O O8 0.000000 0.390952 0.000000
O O9 0.500000 0.837983 0.500000
O O10 0.416976 0.844372 0.345326
O O11 0.368255 0.729724 0.448616
O O12 0.293984 0.859420 0.498254
O O13 0.279059 0.235687 0.864890
O O14 0.092728 0.281760 0.809148
O O15 0.587031 0.141887 0.224460
O O16 0.801270 0.130823 0.234936
O O17 0.361763 0.500000 0.267268
O O18 0.369530 0.594010 0.403326
#
# Coordination Sequence:
#
# PCOD8113583 Si02
#       8
#     8   8   8   8   8   8   8   8
#     4  11  22  37  59  94 128 167 210 256 317 370
#     4  11  24  44  68  94 125 166 209 261 332 394
#     4  11  18  30  55  87 122 153 204 269 309 350
#     4  11  22  41  68  99 126 155 215 275 312 377
#     4  11  23  42  68  95 126 163 214 266 322 375
#     4  11  19  36  62  96 126 155 208 273 316 357
#     4  12  25  41  59  88 134 176 212 253 313 392
#     4  11  21  33  56  88 124 167 213 252 308 368
#
# _framework density 19.858191999999999
#
# number of rings (size 3 to 8) (size 9 to 14) (size 15 to 20)
#    0.000    0.875    6.250    1.875    3.500    1.500 
#    0.000    0.625    0.000    5.625    0.000    0.000 
#    0.000    0.000    0.000    0.000    0.000    0.000 
#
# Total GULP energy -396677.230501 kJ/mol
# GULP energy per Si atom -12396.163453 kJ/mol
# Density = 1.981299 g / cm^3
# Si number density = 19.858192 Si / 1000 Ang^3
#
#
#
# Elastic Constant Matrix: (Units=GPa)
#
#
# Indices 1 2 3 4 5 6 
#
# 1 134.3037 23.8891 43.0962 0.0000 3.1021 0.0000
# 2 23.8891 67.8650 28.7373 0.0000 -9.8029 0.0000
# 3 43.0962 28.7373 105.2612 0.0000 0.6470 0.0000
# 4 0.0000 0.0000 0.0000 37.8896 0.0000 14.0917
# 5 3.1021 -9.8029 0.6470 0.0000 34.1241 0.0000
# 6 0.0000 0.0000 0.0000 14.0917 0.0000 30.6028
#
#
#
# Elastic Compliance Matrix: (Units=1/GPa)
#
#
# Indices 1 2 3 4 5 6 
#
# 1 0.008812 -0.001999 -0.003054 0.000000 -0.001317 0.000000
# 2 -0.001999 0.017966 -0.004120 0.000000 0.005421 0.000000
# 3 -0.003054 -0.004120 0.011882 0.000000 -0.001131 0.000000
# 4 0.000000 0.000000 0.000000 0.031846 0.000000 -0.014664
# 5 -0.001317 0.005421 -0.001131 0.000000 0.031003 0.000000
# 6 0.000000 0.000000 0.000000 -0.014664 0.000000 0.039429
#
#
# Mechanical properties :
#
#
# Convention : Reuss Voigt Hill
#
# Bulk Modulus (GPa) = 49.22497 55.43059 52.32778
# Shear Modulus (GPa) = 30.11022 34.63712 32.37367
#
# Velocity S-wave (km/s) = 3.89815 4.18092 4.04201
# Velocity P-wave (km/s) = 6.71586 7.16105 6.94202
#
# Compressibility (1/GPa) = 0.02031489
#
# Stress axis : x y z
#
# Youngs Moduli (GPa) = 113.48484 55.65939 84.15929
#
# Poissons Ratio (x) = 0.11126 0.25701
# Poissons Ratio (y) = 0.22685 0.34673
# Poissons Ratio (z) = 0.34657 0.22931
#
# Static dielectric constant tensor:
#      x y z
#    x 3.950520 0.000000 -0.101380 
#    y 0.000000 3.206160 0.000000 
#    z -0.101380 0.000000 3.691880 
# 
# 
# High freq. dielectric constant tensor:
#      x y z
#    x 1.798870 0.000000 0.000510 
#    y 0.000000 1.727850 0.000000 
#    z 0.000510 0.000000 1.774520 
# 
# From -- ./inp_files/206690.got.cif
#   From: 2010.06.25/outbox.cif.g09.slc.cpg/sg12_104_cif.got.tgz:206690.got - 2010.06.28 00:19:55.
