data_PCOD8113275
_publ_section_title
;
Structure prediction by ZEFSAII (Michael W. Deem and Ramdas Pophale) SiO2 
 PCOD8113275
Probable space group: C 2/M
;
_chemical_formula_sum "Si O2"
_cell_formula_units_Z 32
_cell_length_a 15.432216
_cell_length_b 17.285130
_cell_length_c 12.672883
_cell_angle_alpha 90.000000
_cell_angle_beta 25.287678
_cell_angle_gamma 90.000000
_cell_volume 1444.010748
_symmetry_space_group_name_H-M "C 2/M"
_symmetry_group_IT_number 12
_symmetry_cell_setting 'monoclinic'
loop_
_space_group_symop_operation_xyz
x,y,z
-x,y,-z
-x,-y,-z
x,-y,z
1/2+x,1/2+y,z
1/2-x,1/2+y,-z
1/2-x,1/2-y,-z
1/2+x,1/2-y,z
loop_
_atom_site_type_symbol
_atom_site_label
_atom_site_fract_x
_atom_site_fract_y
_atom_site_fract_z
Si Si1 0.748032 0.131067 0.932873
Si Si2 0.818403 0.295275 0.776826
Si Si3 0.536075 0.500000 0.584967
Si Si4 0.667000 0.000000 0.410233
Si Si5 0.500000 0.375759 0.000000
Si Si6 0.533226 0.000000 0.793720
O O1 0.820356 0.202671 0.782584
O O2 0.642073 0.162846 0.155503
O O3 0.941797 0.076424 0.743733
O O4 0.590306 0.077865 0.041246
O O5 0.594374 0.320675 0.985741
O O6 0.000000 0.321876 0.500000
O O7 0.500000 0.500000 0.500000
O O8 0.771228 0.500000 0.350281
O O9 0.500000 0.000000 0.500000
O O10 0.552279 0.000000 0.646540
O O11 0.812538 0.074211 0.248213
#
# Coordination Sequence:
#
# PCOD8113275 Si02
#       6
#     8   8   4   4   4   4
#     4  10  24  41  62  92 123 161 213 254 307 379
#     4  11  23  41  62  91 128 162 201 260 314 367
#     4  11  24  43  65  90 123 166 212 262 308 364
#     4  11  22  39  64  96 128 160 201 254 312 374
#     4  11  22  36  64  93 120 162 204 243 312 380
#     4  11  22  41  64  88 123 165 207 258 309 367
#
# _framework density 22.160499999999999
#
# number of rings (size 3 to 8) (size 9 to 14) (size 15 to 20)
#    0.000    1.250    0.000    6.000    0.000   10.000 
#    0.000    8.125    0.000    0.000    0.000    0.000 
#    0.000    0.000    0.000    0.000    0.000    0.000 
#
# Total GULP energy -198397.545023 kJ/mol
# GULP energy per Si atom -12399.846564 kJ/mol
# Density = 2.211006 g / cm^3
# Si number density = 22.160500 Si / 1000 Ang^3
#
#
#
# Elastic Constant Matrix: (Units=GPa)
#
#
# Indices 1 2 3 4 5 6 
#
# 1 109.7883 37.1085 37.3473 -0.0054 -28.7756 -0.0108
# 2 37.1085 162.5237 34.3719 0.0227 -23.0587 -0.0102
# 3 37.3473 34.3719 94.7719 0.0238 -16.0717 -0.0104
# 4 -0.0054 0.0227 0.0238 12.1611 0.0180 -3.2689
# 5 -28.7756 -23.0587 -16.0717 0.0180 51.3707 -0.0020
# 6 -0.0108 -0.0102 -0.0104 -3.2689 -0.0020 15.1858
#
#
#
# Elastic Compliance Matrix: (Units=1/GPa)
#
#
# Indices 1 2 3 4 5 6 
#
# 1 0.012045 -0.001306 -0.003409 0.000009 0.005094 0.000008
# 2 -0.001306 0.007088 -0.001732 -0.000013 0.001908 0.000000
# 3 -0.003409 -0.001732 0.012744 -0.000025 0.001300 0.000000
# 4 0.000009 -0.000013 -0.000025 0.087280 -0.000039 0.018788
# 5 0.005094 0.001908 0.001300 -0.000039 0.023583 0.000001
# 6 0.000008 0.000000 0.000000 0.018788 0.000001 0.069895
#
#
# Mechanical properties :
#
#
# Convention : Reuss Voigt Hill
#
# Bulk Modulus (GPa) = 52.68319 64.97104 58.82711
# Shear Modulus (GPa) = 21.56492 32.96058 27.26275
#
# Velocity S-wave (km/s) = 3.12288 3.86081 3.51128
# Velocity P-wave (km/s) = 6.06863 7.01830 6.56067
#
# Compressibility (1/GPa) = 0.01898139
#
# Stress axis : x y z
#
# Youngs Moduli (GPa) = 83.02346 141.07695 78.46978
#
# Poissons Ratio (x) = 0.18431 0.26749
# Poissons Ratio (y) = 0.10847 0.13594
# Poissons Ratio (z) = 0.28302 0.24440
#
# Static dielectric constant tensor:
#      x y z
#    x 3.750280 -0.000090 -0.070620 
#    y -0.000090 4.335860 0.000110 
#    z -0.070620 0.000110 4.010450 
# 
# 
# High freq. dielectric constant tensor:
#      x y z
#    x 1.857030 0.000000 -0.004130 
#    y 0.000000 1.893750 0.000010 
#    z -0.004130 0.000010 1.879310 
# 
# From -- ./inp_files/10206.got.cif
#   From: 2010.06.25/outbox.cif.g09.slc.cpg/sg12_6_cif.got.tgz:10206.got - 2010.06.28 00:19:55.
