data_PCOD8113539
_publ_section_title
;
Structure prediction by ZEFSAII (Michael W. Deem and Ramdas Pophale) SiO2 
 PCOD8113539
Probable space group: C 2/M
;
_chemical_formula_sum "Si O2"
_cell_formula_units_Z 44
_cell_length_a 11.575592
_cell_length_b 26.309081
_cell_length_c 8.259394
_cell_angle_alpha 90.000000
_cell_angle_beta 129.101509
_cell_angle_gamma 90.000000
_cell_volume 1951.980477
_symmetry_space_group_name_H-M "C 2/M"
_symmetry_group_IT_number 12
_symmetry_cell_setting 'monoclinic'
loop_
_space_group_symop_operation_xyz
x,y,z
-x,y,-z
-x,-y,-z
x,-y,z
1/2+x,1/2+y,z
1/2-x,1/2+y,-z
1/2-x,1/2-y,-z
1/2+x,1/2-y,z
loop_
_atom_site_type_symbol
_atom_site_label
_atom_site_fract_x
_atom_site_fract_y
_atom_site_fract_z
Si Si1 0.984105 0.811586 0.180770
Si Si2 0.975194 0.407934 0.805893
Si Si3 0.746522 0.500000 0.637145
Si Si4 0.441259 0.500000 0.199361
Si Si5 0.000000 0.739721 0.500000
Si Si6 0.786557 0.905559 0.949521
Si Si7 0.293340 0.154816 0.417615
O O1 0.959624 0.768827 0.296039
O O2 0.141834 0.834153 0.378886
O O3 0.000000 0.795642 0.000000
O O4 0.855500 0.853957 0.088775
O O5 0.852056 0.451741 0.705771
O O6 0.926080 0.361750 0.651035
O O7 0.137674 0.427934 0.899369
O O8 0.000000 0.382198 0.000000
O O9 0.616955 0.500000 0.389304
O O10 0.663841 0.500000 0.735701
O O11 0.408744 0.449908 0.064575
O O12 0.148830 0.705923 0.616702
O O13 0.741364 0.892777 0.727767
#
# Coordination Sequence:
#
# PCOD8113539 Si02
#       7
#     8   8   4   4   4   8   8
#     4  10  26  45  71 102 141 184 238 293 354 415
#     4  12  23  41  69  98 141 180 233 284 348 412
#     4  11  24  40  65 106 141 180 235 285 344 418
#     4  11  23  43  70 104 141 185 231 280 350 424
#     4  12  24  46  74 100 140 188 240 292 356 416
#     4  11  23  45  69 101 140 181 230 286 346 419
#     4  11  25  48  64 104 139 180 234 295 348 421
#
# _framework density 22.541207
#
# number of rings (size 3 to 8) (size 9 to 14) (size 15 to 20)
#    0.000    0.909    3.636    2.455    2.545    5.818 
#    0.000    6.818    0.000    0.000    0.000    0.000 
#    0.000    0.000    0.000    0.000    0.000    0.000 
#
# Total GULP energy -272582.766936 kJ/mol
# GULP energy per Si atom -12390.125770 kJ/mol
# Density = 2.248990 g / cm^3
# Si number density = 22.541207 Si / 1000 Ang^3
#
#
#
# Elastic Constant Matrix: (Units=GPa)
#
#
# Indices 1 2 3 4 5 6 
#
# 1 106.4981 47.4558 46.3640 0.0000 21.0784 0.0000
# 2 47.4558 119.8961 80.0663 0.0000 -11.1628 0.0000
# 3 46.3640 80.0663 156.6311 0.0000 3.2091 0.0000
# 4 0.0000 0.0000 0.0000 9.0182 0.0000 13.0585
# 5 21.0784 -11.1628 3.2091 0.0000 45.3531 0.0000
# 6 0.0000 0.0000 0.0000 13.0585 0.0000 9.8572
#
#
#
# Elastic Compliance Matrix: (Units=1/GPa)
#
#
# Indices 1 2 3 4 5 6 
#
# 1 0.013827 -0.005404 -0.001174 0.000000 -0.007673 0.000000
# 2 -0.005404 0.015383 -0.006402 0.000000 0.006751 0.000000
# 3 -0.001174 -0.006402 0.010040 0.000000 -0.001741 0.000000
# 4 0.000000 0.000000 0.000000 -0.120754 0.000000 0.159971
# 5 -0.007673 0.006751 -0.001741 0.000000 0.027400 0.000000
# 6 0.000000 0.000000 0.000000 0.159971 0.000000 -0.110476
#
#
# Mechanical properties :
#
#
# Convention : Reuss Voigt Hill
#
# Bulk Modulus (GPa) = 75.23499 81.19973 78.21736
# Shear Modulus (GPa) = -37.26105 26.78832 -5.23636
#
# Velocity S-wave (km/s) = -4.07014 3.45108 -1.52580
# Velocity P-wave (km/s) = 3.37061 7.20978 5.62770
#
# Compressibility (1/GPa) = 0.01329169
#
# Stress axis : x y z
#
# Youngs Moduli (GPa) = 72.32020 65.00490 99.59902
#
# Poissons Ratio (x) = 0.35127 0.11688
# Poissons Ratio (y) = 0.39080 0.63768
# Poissons Ratio (z) = 0.08487 0.41619
#
# Static dielectric constant tensor:
#      x y z
#    x 4.428230 0.000000 0.192920 
#    y 0.000000 3.872440 0.000000 
#    z 0.192920 0.000000 4.336890 
# 
# 
# High freq. dielectric constant tensor:
#      x y z
#    x 1.898280 0.000000 0.016460 
#    y 0.000000 1.876110 0.000000 
#    z 0.016460 0.000000 1.906690 
# 
# From -- ./inp_files/53439.got.cif
#   From: 2010.06.25/outbox.cif.g09.slc.cpg/sg12_27_cif.got.tgz:53439.got - 2010.06.28 00:19:55.
