data_PCOD8113908
_publ_section_title
;
Structure prediction by ZEFSAII (Michael W. Deem and Ramdas Pophale) SiO2 
 PCOD8113908
Probable space group: C 2/M
;
_chemical_formula_sum "Si O2"
_cell_formula_units_Z 56
_cell_length_a 23.847220
_cell_length_b 10.222847
_cell_length_c 12.371095
_cell_angle_alpha 90.000000
_cell_angle_beta 108.499827
_cell_angle_gamma 90.000000
_cell_volume 2860.057627
_symmetry_space_group_name_H-M "C 2/M"
_symmetry_group_IT_number 12
_symmetry_cell_setting 'monoclinic'
loop_
_space_group_symop_operation_xyz
x,y,z
-x,y,-z
-x,-y,-z
x,-y,z
1/2+x,1/2+y,z
1/2-x,1/2+y,-z
1/2-x,1/2-y,-z
1/2+x,1/2-y,z
loop_
_atom_site_type_symbol
_atom_site_label
_atom_site_fract_x
_atom_site_fract_y
_atom_site_fract_z
Si Si1 0.297236 0.150064 0.252484
Si Si2 0.805826 0.349445 0.868502
Si Si3 0.574441 0.500000 0.168297
Si Si4 0.698313 0.149486 0.496237
Si Si5 0.622504 0.231021 0.886039
Si Si6 0.565214 0.500000 0.907731
Si Si7 0.611625 0.767096 0.264889
Si Si8 0.996983 0.356713 0.114412
O O1 0.244497 0.252370 0.204313
O O2 0.318243 0.157801 0.388684
O O3 0.352937 0.196509 0.216446
O O4 0.278460 0.000000 0.211818
O O5 0.783209 0.500000 0.865789
O O6 0.859175 0.347607 0.815631
O O7 0.825526 0.294478 0.996464
O O8 0.505157 0.500000 0.161030
O O9 0.614803 0.614405 0.242024
O O10 0.578597 0.500000 0.042267
O O11 0.750000 0.250000 0.500000
O O12 0.640371 0.193606 0.395582
O O13 0.716360 0.000000 0.475828
O O14 0.596751 0.376737 0.872451
O O15 0.568484 0.134903 0.878735
O O16 0.541422 0.794293 0.227669
O O17 0.021339 0.500000 0.105499
O O18 0.000000 0.277944 0.000000
#
# Coordination Sequence:
#
# PCOD8113908 Si02
#       8
#     8   8   4   8   8   4   8   8
#     4  11  27  46  65  92 130 176 219 264 321 382
#     4  12  24  39  65  97 130 168 213 266 324 386
#     4  11  22  40  65 103 131 167 212 260 325 384
#     4  11  25  45  68  93 125 169 221 270 316 374
#     4  12  24  41  63  94 137 168 211 260 326 392
#     4  11  22  40  65  99 135 171 206 258 324 391
#     4  12  23  39  65  98 131 161 214 270 320 379
#     4  11  20  35  62  94 125 162 205 265 323 381
#
# _framework density 19.580024999999999
#
# number of rings (size 3 to 8) (size 9 to 14) (size 15 to 20)
#    0.000    0.571    5.714    3.000    4.000    0.000 
#    0.000    0.714    0.000    3.429    0.000    0.000 
#    0.000    0.000    0.000    0.000    0.000    0.000 
#
# Total GULP energy -347145.673275 kJ/mol
# GULP energy per Si atom -12398.059760 kJ/mol
# Density = 1.953546 g / cm^3
# Si number density = 19.580025 Si / 1000 Ang^3
#
#
#
# Elastic Constant Matrix: (Units=GPa)
#
#
# Indices 1 2 3 4 5 6 
#
# 1 80.3916 38.9348 47.6078 0.0000 -1.9281 0.0000
# 2 38.9348 149.1466 47.8153 0.0000 3.1984 0.0000
# 3 47.6078 47.8153 123.3428 0.0000 5.9442 0.0000
# 4 0.0000 0.0000 0.0000 29.5538 0.0000 3.7229
# 5 -1.9281 3.1984 5.9442 0.0000 33.6625 0.0000
# 6 0.0000 0.0000 0.0000 3.7229 0.0000 33.6862
#
#
#
# Elastic Compliance Matrix: (Units=1/GPa)
#
#
# Indices 1 2 3 4 5 6 
#
# 1 0.017172 -0.002708 -0.005686 0.000000 0.002245 0.000000
# 2 -0.002708 0.008085 -0.002062 0.000000 -0.000559 0.000000
# 3 -0.005686 -0.002062 0.011203 0.000000 -0.002108 0.000000
# 4 0.000000 0.000000 0.000000 0.034314 0.000000 -0.003792
# 5 0.002245 -0.000559 -0.002108 0.000000 0.030261 0.000000
# 6 0.000000 0.000000 0.000000 -0.003792 0.000000 0.030105
#
#
# Mechanical properties :
#
#
# Convention : Reuss Voigt Hill
#
# Bulk Modulus (GPa) = 64.31988 69.06632 66.69310
# Shear Modulus (GPa) = 31.79955 33.94870 32.87412
#
# Velocity S-wave (km/s) = 4.03436 4.16846 4.10196
# Velocity P-wave (km/s) = 7.39070 7.64974 7.52134
#
# Compressibility (1/GPa) = 0.01554729
#
# Stress axis : x y z
#
# Youngs Moduli (GPa) = 58.23464 123.68953 89.25928
#
# Poissons Ratio (x) = 0.33493 0.50757
# Poissons Ratio (y) = 0.15769 0.18406
# Poissons Ratio (z) = 0.33115 0.25505
#
# Static dielectric constant tensor:
#      x y z
#    x 3.462000 0.000000 0.069660 
#    y 0.000000 3.908570 0.000000 
#    z 0.069660 0.000000 3.699510 
# 
# 
# High freq. dielectric constant tensor:
#      x y z
#    x 1.753240 0.000000 0.010610 
#    y 0.000000 1.789890 0.000000 
#    z 0.010610 0.000000 1.746690 
# 
# From -- ./inp_files/165747.got.cif
#   From: 2010.06.25/outbox.cif.g09.slc.cpg/sg12_83_cif.got.tgz:165747.got - 2010.06.28 00:19:55.
