data_PCOD8113041
_publ_section_title
;
Structure prediction by ZEFSAII (Michael W. Deem and Ramdas Pophale) SiO2 
 PCOD8113041
Probable space group: C 2/M
;
_chemical_formula_sum "Si O2"
_cell_formula_units_Z 48
_cell_length_a 19.427654
_cell_length_b 8.589430
_cell_length_c 20.098683
_cell_angle_alpha 90.000000
_cell_angle_beta 43.487304
_cell_angle_gamma 90.000000
_cell_volume 2308.144941
_symmetry_space_group_name_H-M "C 2/M"
_symmetry_group_IT_number 12
_symmetry_cell_setting 'monoclinic'
loop_
_space_group_symop_operation_xyz
x,y,z
-x,y,-z
-x,-y,-z
x,-y,z
1/2+x,1/2+y,z
1/2-x,1/2+y,-z
1/2-x,1/2-y,-z
1/2+x,1/2-y,z
loop_
_atom_site_type_symbol
_atom_site_label
_atom_site_fract_x
_atom_site_fract_y
_atom_site_fract_z
Si Si1 0.818036 0.317270 0.393843
Si Si2 0.729108 0.185149 0.087324
Si Si3 0.388665 0.317252 0.083911
Si Si4 0.768376 0.678934 0.280918
Si Si5 0.564101 0.178887 0.389792
Si Si6 0.521806 0.315913 0.285759
O O1 0.833410 0.500000 0.395050
O O2 0.750000 0.250000 0.500000
O O3 0.764484 0.280351 0.361573
O O4 0.924707 0.232642 0.312155
O O5 0.813469 0.249170 0.079718
O O6 0.620718 0.242744 0.185422
O O7 0.729402 0.000000 0.085398
O O8 0.750000 0.250000 0.000000
O O9 0.394346 0.500000 0.070572
O O10 0.351311 0.278048 0.184101
O O11 0.500000 0.244538 0.000000
O O12 0.794152 0.500000 0.250737
O O13 0.662017 0.717059 0.324197
O O14 0.500000 0.200015 0.500000
O O15 0.500047 0.245131 0.373834
O O16 0.594669 0.000000 0.356308
O O17 0.532639 0.500000 0.280460
#
# Coordination Sequence:
#
# PCOD8113041 Si02
#       6
#     8   8   8   8   8   8
#     4  11  25  44  65  96 133 173 220 269 323 385
#     4  11  24  43  67  97 132 169 213 267 325 388
#     4  10  23  43  67  95 127 167 214 261 318 386
#     4  11  24  41  64  95 129 166 212 264 319 383
#     4  11  23  40  65  94 126 167 212 263 322 384
#     4  12  25  42  66  95 130 172 217 268 323 383
#
# _framework density 20.795919999999999
#
# number of rings (size 3 to 8) (size 9 to 14) (size 15 to 20)
#    0.000    1.000    1.667    4.500    2.333    7.667 
#    0.000    0.000    0.000    0.000    0.000    0.000 
#    0.000    0.000    0.000    0.000    0.000    0.000 
#
# Total GULP energy -297699.570618 kJ/mol
# GULP energy per Si atom -12404.148776 kJ/mol
# Density = 2.074859 g / cm^3
# Si number density = 20.795920 Si / 1000 Ang^3
#
#
#
# Elastic Constant Matrix: (Units=GPa)
#
#
# Indices 1 2 3 4 5 6 
#
# 1 56.1940 26.4720 47.0413 -0.0001 -4.0479 0.0000
# 2 26.4720 57.0676 51.0362 -0.0002 9.2631 0.0003
# 3 47.0413 51.0362 101.2637 0.0000 -5.7737 0.0000
# 4 -0.0001 -0.0002 0.0000 19.7636 0.0000 7.1403
# 5 -4.0479 9.2631 -5.7737 0.0000 42.4799 0.0000
# 6 0.0000 0.0003 0.0000 7.1403 0.0000 29.3203
#
#
#
# Elastic Compliance Matrix: (Units=1/GPa)
#
#
# Indices 1 2 3 4 5 6 
#
# 1 0.029465 -0.003343 -0.011893 0.000000 0.001920 0.000000
# 2 -0.003343 0.036312 -0.017352 0.000001 -0.010595 -0.000001
# 3 -0.011893 -0.017352 0.024486 0.000000 0.005978 0.000000
# 4 0.000000 0.000001 0.000000 0.055479 0.000000 -0.013511
# 5 0.001920 -0.010595 0.005978 0.000000 0.026846 0.000000
# 6 0.000000 -0.000001 0.000000 -0.013511 0.000000 0.037396
#
#
# Mechanical properties :
#
#
# Convention : Reuss Voigt Hill
#
# Bulk Modulus (GPa) = 39.86286 51.51380 45.68833
# Shear Modulus (GPa) = 17.63525 24.31116 20.97320
#
# Velocity S-wave (km/s) = 2.91523 3.42282 3.17917
# Velocity P-wave (km/s) = 5.52645 6.35971 5.95766
#
# Compressibility (1/GPa) = 0.02508601
#
# Stress axis : x y z
#
# Youngs Moduli (GPa) = 33.93873 27.53945 40.83951
#
# Poissons Ratio (x) = 0.09207 0.48571
# Poissons Ratio (y) = 0.11347 0.70864
# Poissons Ratio (z) = 0.40364 0.47786
#
# Static dielectric constant tensor:
#      x y z
#    x 2.136510 0.000000 2.161340 
#    y 0.000000 3.816580 0.000000 
#    z 2.161340 0.000000 1.513420 
# 
# 
# High freq. dielectric constant tensor:
#      x y z
#    x 1.826750 0.000000 0.000680 
#    y 0.000000 1.817800 0.000000 
#    z 0.000680 0.000000 1.825880 
# 
# From -- ./inp_files/319575.got.cif
#   From: 2010.06.25/outbox.cif.g09.slc.cpg/sg12_160_cif.got.tgz:319575.got - 2010.06.28 00:19:55.
