data_PCOD8113351
_publ_section_title
;
Structure prediction by ZEFSAII (Michael W. Deem and Ramdas Pophale) SiO2 
 PCOD8113351
Probable space group: C 2/M
;
_chemical_formula_sum "Si O2"
_cell_formula_units_Z 32
_cell_length_a 26.518533
_cell_length_b 7.652017
_cell_length_c 20.982793
_cell_angle_alpha 90.000000
_cell_angle_beta 21.395715
_cell_angle_gamma 90.000000
_cell_volume 1553.288268
_symmetry_space_group_name_H-M "C 2/M"
_symmetry_group_IT_number 12
_symmetry_cell_setting 'monoclinic'
loop_
_space_group_symop_operation_xyz
x,y,z
-x,y,-z
-x,-y,-z
x,-y,z
1/2+x,1/2+y,z
1/2-x,1/2+y,-z
1/2-x,1/2-y,-z
1/2+x,1/2-y,z
loop_
_atom_site_type_symbol
_atom_site_label
_atom_site_fract_x
_atom_site_fract_y
_atom_site_fract_z
Si Si1 0.092957 0.199427 0.196075
Si Si2 0.989965 0.000000 0.117390
Si Si3 0.592904 0.804811 0.695417
Si Si4 0.224686 0.000000 0.742154
Si Si5 0.060234 0.201041 0.497149
O O1 0.988596 0.310672 0.275612
O O2 0.058957 0.231983 0.310238
O O3 0.069064 0.000000 0.204780
O O4 0.250000 0.250000 0.000000
O O5 0.983524 0.174453 0.166921
O O6 0.865362 0.000000 0.214944
O O7 0.136173 0.000000 0.910514
O O8 0.750000 0.750000 0.500000
O O9 0.589402 0.000000 0.728653
O O10 0.311584 0.176995 0.637587
O O11 0.000000 0.256233 0.500000
O O12 0.111274 0.000000 0.437013
#
# Coordination Sequence:
#
# PCOD8113351 Si02
#       5
#     8   4   8   4   8
#     4  11  24  41  67 104 137 171 227 282 332 400
#     4  11  26  44  66 104 127 174 232 266 335 405
#     4  12  24  43  69  97 137 176 221 281 335 396
#     4  11  25  44  70  92 137 176 220 276 325 409
#     4  10  24  43  67  96 134 178 220 268 337 401
#
# _framework density 20.601458000000001
#
# number of rings (size 3 to 8) (size 9 to 14) (size 15 to 20)
#    0.000    1.000    2.500    2.625    7.000    4.000 
#    0.000    2.500    0.000    0.000    0.000    0.000 
#    0.000    0.000    0.000    0.000    0.000    0.000 
#
# Total GULP energy -198489.173817 kJ/mol
# GULP energy per Si atom -12405.573364 kJ/mol
# Density = 2.055457 g / cm^3
# Si number density = 20.601458 Si / 1000 Ang^3
#
#
#
# Elastic Constant Matrix: (Units=GPa)
#
#
# Indices 1 2 3 4 5 6 
#
# 1 102.0046 33.5229 58.4408 -0.0009 11.1815 0.0001
# 2 33.5229 141.9579 51.0106 0.0026 11.3952 -0.0002
# 3 58.4408 51.0106 140.0204 0.0036 1.1038 -0.0001
# 4 -0.0009 0.0026 0.0036 30.0758 0.0000 -4.5586
# 5 11.1815 11.3952 1.1038 0.0000 37.9604 -0.0002
# 6 0.0001 -0.0002 -0.0001 -4.5586 -0.0002 25.1044
#
#
#
# Elastic Compliance Matrix: (Units=1/GPa)
#
#
# Indices 1 2 3 4 5 6 
#
# 1 0.013533 -0.001028 -0.005246 0.000001 -0.003525 0.000000
# 2 -0.001028 0.008398 -0.002614 0.000000 -0.002142 0.000000
# 3 -0.005246 -0.002614 0.010268 -0.000001 0.002031 0.000000
# 4 0.000001 0.000000 -0.000001 0.034190 0.000000 0.006208
# 5 -0.003525 -0.002142 0.002031 0.000000 0.027966 0.000000
# 6 0.000000 0.000000 0.000000 0.006208 0.000000 0.040961
#
#
# Mechanical properties :
#
#
# Convention : Reuss Voigt Hill
#
# Bulk Modulus (GPa) = 69.32966 74.43685 71.88325
# Shear Modulus (GPa) = 31.66570 34.69537 33.18054
#
# Velocity S-wave (km/s) = 3.92479 4.10826 4.01757
# Velocity P-wave (km/s) = 7.36644 7.66251 7.51593
#
# Compressibility (1/GPa) = 0.01442384
#
# Stress axis : x y z
#
# Youngs Moduli (GPa) = 73.89137 119.07319 97.39310
#
# Poissons Ratio (x) = 0.12237 0.51095
# Poissons Ratio (y) = 0.07594 0.25456
# Poissons Ratio (z) = 0.38766 0.31122
#
# Static dielectric constant tensor:
#      x y z
#    x 3.857600 -0.000020 0.096720 
#    y -0.000020 4.083630 -0.000020 
#    z 0.096720 -0.000020 3.715290 
# 
# 
# High freq. dielectric constant tensor:
#      x y z
#    x 1.816360 0.000000 0.003270 
#    y 0.000000 1.823330 0.000000 
#    z 0.003270 0.000000 1.807470 
# 
# From -- ./inp_files/81727.got.cif
#   From: 2010.06.25/outbox.cif.g09.slc.cpg/sg12_41_cif.got.tgz:81727.got - 2010.06.28 00:19:55.
