data_PCOD8113575
_publ_section_title
;
Structure prediction by ZEFSAII (Michael W. Deem and Ramdas Pophale) SiO2 
 PCOD8113575
Probable space group: C 2/M
;
_chemical_formula_sum "Si O2"
_cell_formula_units_Z 40
_cell_length_a 14.271960
_cell_length_b 9.754361
_cell_length_c 17.385894
_cell_angle_alpha 90.000000
_cell_angle_beta 88.419131
_cell_angle_gamma 90.000000
_cell_volume 2419.436009
_symmetry_space_group_name_H-M "C 2/M"
_symmetry_group_IT_number 12
_symmetry_cell_setting 'monoclinic'
loop_
_space_group_symop_operation_xyz
x,y,z
-x,y,-z
-x,-y,-z
x,-y,z
1/2+x,1/2+y,z
1/2-x,1/2+y,-z
1/2-x,1/2-y,-z
1/2+x,1/2-y,z
loop_
_atom_site_type_symbol
_atom_site_label
_atom_site_fract_x
_atom_site_fract_y
_atom_site_fract_z
Si Si1 0.563062 0.778731 0.073406
Si Si2 0.262302 0.650524 0.601599
Si Si3 0.681486 0.000000 0.000036
Si Si4 0.054222 0.500000 0.853601
Si Si5 0.606441 0.159989 0.485723
Si Si6 0.277880 0.000000 0.253907
Si Si7 0.349597 0.500000 0.892468
O O1 0.508815 0.863492 0.140592
O O2 0.586347 0.633723 0.110333
O O3 0.500000 0.756032 0.000000
O O4 0.657338 0.863175 0.049194
O O5 0.292626 0.500000 0.568468
O O6 0.346060 0.758051 0.586208
O O7 0.166365 0.695398 0.560775
O O8 0.240909 0.636117 0.693593
O O9 0.619509 0.000000 0.925925
O O10 0.789888 0.000000 0.973148
O O11 0.113467 0.500000 0.773895
O O12 0.500000 0.211100 0.500000
O O13 0.607369 0.000000 0.464521
O O14 0.212510 0.000000 0.181882
#
# Coordination Sequence:
#
# PCOD8113575 Si02
#       7
#     8   8   4   4   8   4   4
#     4   9  17  30  48  73  89 120 164 203 227 267
#     4   8  17  33  49  68 101 125 153 193 233 291
#     4   8  16  30  50  69  87 125 156 189 239 279
#     4   8  16  33  51  59  97 126 157 184 235 294
#     4   9  16  30  54  79  91 116 161 202 237 270
#     4   9  19  35  45  63  97 141 147 176 252 298
#     4  11  18  28  48  69 100 118 155 200 237 282
#
# _framework density 16.532779999999999
#
# number of rings (size 3 to 8) (size 9 to 14) (size 15 to 20)
#    0.600    2.600    0.000    2.100    0.000    0.400 
#    3.600    0.000    4.400    0.000    0.000    0.000 
#    0.000    0.000    0.000    0.000    0.000    0.000 
#
# Total GULP energy -247844.670718 kJ/mol
# GULP energy per Si atom -12392.233536 kJ/mol
# Density = 1.649515 g / cm^3
# Si number density = 16.532780 Si / 1000 Ang^3
#
#
#
# Elastic Constant Matrix: (Units=GPa)
#
#
# Indices 1 2 3 4 5 6 
#
# 1 111.3134 58.3545 45.2187 0.0000 -21.6700 0.0000
# 2 58.3545 104.3139 40.7002 0.0000 -13.4402 0.0000
# 3 45.2187 40.7002 85.4038 0.0000 -21.0185 0.0000
# 4 0.0000 0.0000 0.0000 1.0568 0.0000 6.7717
# 5 -21.6700 -13.4402 -21.0185 0.0000 24.9634 0.0000
# 6 0.0000 0.0000 0.0000 6.7717 0.0000 18.6879
#
#
#
# Elastic Compliance Matrix: (Units=1/GPa)
#
#
# Indices 1 2 3 4 5 6 
#
# 1 0.014871 -0.006169 -0.003247 0.000000 0.006854 0.000000
# 2 -0.006169 0.014418 -0.003800 0.000000 -0.000792 0.000000
# 3 -0.003247 -0.003800 0.017712 0.000000 0.010049 0.000000
# 4 0.000000 0.000000 0.000000 -0.715849 0.000000 0.259393
# 5 0.006854 -0.000792 0.010049 0.000000 0.054043 0.000000
# 6 0.000000 0.000000 0.000000 0.259393 0.000000 -0.040482
#
#
# Mechanical properties :
#
#
# Convention : Reuss Voigt Hill
#
# Bulk Modulus (GPa) = 48.61515 65.50864 57.06190
# Shear Modulus (GPa) = -8.03860 19.39212 5.67676
#
# Velocity S-wave (km/s) = -2.20744 3.42855 1.85502
# Velocity P-wave (km/s) = 4.79292 7.44196 6.25919
#
# Compressibility (1/GPa) = 0.02056972
#
# Stress axis : x y z
#
# Youngs Moduli (GPa) = 67.24507 69.35786 56.45856
#
# Poissons Ratio (x) = 0.42787 0.18332
# Poissons Ratio (y) = 0.41484 0.21452
# Poissons Ratio (z) = 0.21835 0.26353
#
# Static dielectric constant tensor:
#      x y z
#    x 3.194100 0.000000 -0.210440 
#    y 0.000000 3.056290 0.000000 
#    z -0.210440 0.000000 2.902700 
# 
# 
# High freq. dielectric constant tensor:
#      x y z
#    x 1.633750 0.000000 -0.007770 
#    y 0.000000 1.630880 0.000000 
#    z -0.007770 0.000000 1.607880 
# 
# From -- ./inp_files/307848.got.cif
#   From: 2010.06.25/outbox.cif.g09.slc.cpg/sg12_154_cif.got.tgz:307848.got - 2010.06.28 00:19:55.
