data_PCOD8113506
_publ_section_title
;
Structure prediction by ZEFSAII (Michael W. Deem and Ramdas Pophale) SiO2 
 PCOD8113506
Probable space group: C 2/M
;
_chemical_formula_sum "Si O2"
_cell_formula_units_Z 52
_cell_length_a 27.580674
_cell_length_b 15.202677
_cell_length_c 6.489084
_cell_angle_alpha 90.000000
_cell_angle_beta 69.221052
_cell_angle_gamma 90.000000
_cell_volume 2543.897180
_symmetry_space_group_name_H-M "C 2/M"
_symmetry_group_IT_number 12
_symmetry_cell_setting 'monoclinic'
loop_
_space_group_symop_operation_xyz
x,y,z
-x,y,-z
-x,-y,-z
x,-y,z
1/2+x,1/2+y,z
1/2-x,1/2+y,-z
1/2-x,1/2-y,-z
1/2+x,1/2-y,z
loop_
_atom_site_type_symbol
_atom_site_label
_atom_site_fract_x
_atom_site_fract_y
_atom_site_fract_z
Si Si1 0.339436 0.320361 0.693455
Si Si2 0.645913 0.099258 0.903478
Si Si3 0.585667 0.730140 0.074154
Si Si4 0.788228 0.320231 0.540020
Si Si5 0.500000 0.677014 0.500000
Si Si6 0.922549 0.100031 0.296302
Si Si7 0.757919 0.401798 0.980635
O O1 0.366490 0.313022 0.875288
O O2 0.336759 0.227537 0.579697
O O3 0.368503 0.388502 0.499458
O O4 0.279501 0.345010 0.818414
O O5 0.685651 0.112409 0.656220
O O6 0.681698 0.110337 0.051250
O O7 0.622414 0.000000 0.926816
O O8 0.599899 0.171414 0.975602
O O9 0.537616 0.738491 0.305540
O O10 0.572034 0.667326 0.902593
O O11 0.750000 0.250000 0.500000
O O12 0.752924 0.375132 0.750693
O O13 0.468353 0.615856 0.390791
O O14 0.926234 0.000000 0.207642
O O15 0.737969 0.500000 0.038141
#
# Coordination Sequence:
#
# PCOD8113506 Si02
#       7
#     8   8   8   8   4   8   8
#     4  11  22  38  59  89 129 166 208 250 301 361
#     4  11  23  40  63  92 126 168 214 255 304 364
#     4  11  23  43  65  92 122 162 203 257 319 373
#     4  12  21  37  59  85 124 174 214 255 302 348
#     4  10  25  44  69  92 122 152 203 256 323 380
#     4  11  24  42  67  95 126 162 200 251 313 379
#     4  11  23  37  56  89 129 169 212 253 297 355
#
# _framework density 20.441078000000001
#
# number of rings (size 3 to 8) (size 9 to 14) (size 15 to 20)
#    0.000    0.923    4.615    3.000    0.000    4.308 
#    0.000    0.385    0.000    1.846    0.000    0.000 
#    0.000    0.000    0.000    0.000    0.000    0.000 
#
# Total GULP energy -322367.001242 kJ/mol
# GULP energy per Si atom -12398.730817 kJ/mol
# Density = 2.039455 g / cm^3
# Si number density = 20.441078 Si / 1000 Ang^3
#
#
#
# Elastic Constant Matrix: (Units=GPa)
#
#
# Indices 1 2 3 4 5 6 
#
# 1 72.5505 41.6051 34.2084 0.0000 0.5618 0.0000
# 2 41.6051 133.0680 59.8008 0.0000 -4.4495 0.0000
# 3 34.2084 59.8008 116.7502 0.0000 -3.4486 0.0000
# 4 0.0000 0.0000 0.0000 28.3687 0.0000 4.4849
# 5 0.5618 -4.4495 -3.4486 0.0000 41.5307 0.0000
# 6 0.0000 0.0000 0.0000 4.4849 0.0000 21.1410
#
#
#
# Elastic Compliance Matrix: (Units=1/GPa)
#
#
# Indices 1 2 3 4 5 6 
#
# 1 0.017622 -0.004168 -0.003056 0.000000 -0.000939 0.000000
# 2 -0.004168 0.010764 -0.004267 0.000000 0.000855 0.000000
# 3 -0.003056 -0.004267 0.011663 0.000000 0.000553 0.000000
# 4 0.000000 0.000000 0.000000 0.036473 0.000000 -0.007738
# 5 -0.000939 0.000855 0.000553 0.000000 0.024229 0.000000
# 6 0.000000 0.000000 0.000000 -0.007738 0.000000 0.048943
#
#
# Mechanical properties :
#
#
# Convention : Reuss Voigt Hill
#
# Bulk Modulus (GPa) = 58.59340 65.95526 62.27433
# Shear Modulus (GPa) = 28.03238 30.65836 29.34537
#
# Velocity S-wave (km/s) = 3.70723 3.87698 3.79305
# Velocity P-wave (km/s) = 6.85941 7.23722 7.05085
#
# Compressibility (1/GPa) = 0.01706677
#
# Stress axis : x y z
#
# Youngs Moduli (GPa) = 56.74795 92.90008 85.74225
#
# Poissons Ratio (x) = 0.38716 0.26206
# Poissons Ratio (y) = 0.23650 0.36588
# Poissons Ratio (z) = 0.17344 0.39642
#
# Static dielectric constant tensor:
#      x y z
#    x 3.714500 0.000000 0.076240 
#    y 0.000000 3.616940 0.000000 
#    z 0.076240 0.000000 3.846940 
# 
# 
# High freq. dielectric constant tensor:
#      x y z
#    x 1.783980 0.000000 0.008770 
#    y 0.000000 1.789720 0.000000 
#    z 0.008770 0.000000 1.816070 
# 
# From -- ./inp_files/31443.got.cif
#   From: 2010.06.25/outbox.cif.g09.slc.cpg/sg12_16_cif.got.tgz:31443.got - 2010.06.28 00:19:55.
