data_PCOD8113440
_publ_section_title
;
Structure prediction by ZEFSAII (Michael W. Deem and Ramdas Pophale) SiO2 
 PCOD8113440
Probable space group: C 2/M
;
_chemical_formula_sum "Si O2"
_cell_formula_units_Z 56
_cell_length_a 15.531447
_cell_length_b 16.452059
_cell_length_c 11.393695
_cell_angle_alpha 90.000000
_cell_angle_beta 117.707352
_cell_angle_gamma 90.000000
_cell_volume 2577.530992
_symmetry_space_group_name_H-M "C 2/M"
_symmetry_group_IT_number 12
_symmetry_cell_setting 'monoclinic'
loop_
_space_group_symop_operation_xyz
x,y,z
-x,y,-z
-x,-y,-z
x,-y,z
1/2+x,1/2+y,z
1/2-x,1/2+y,-z
1/2-x,1/2-y,-z
1/2+x,1/2-y,z
loop_
_atom_site_type_symbol
_atom_site_label
_atom_site_fract_x
_atom_site_fract_y
_atom_site_fract_z
Si Si1 0.296974 0.640891 0.758535
Si Si2 0.890287 0.300280 0.444033
Si Si3 0.445010 0.500000 0.342798
Si Si4 0.055179 0.000000 0.164655
Si Si5 0.932215 0.748119 0.719084
Si Si6 0.119838 0.831608 0.759511
Si Si7 0.984865 0.408634 0.124133
Si Si8 0.258482 0.093676 0.020910
O O1 0.195052 0.631986 0.620098
O O2 0.374801 0.575169 0.770998
O O3 0.351070 0.725701 0.762080
O O4 0.275073 0.632388 0.879943
O O5 0.883986 0.249424 0.559708
O O6 0.863070 0.240010 0.320991
O O7 0.000000 0.336917 0.500000
O O8 0.500000 0.500000 0.500000
O O9 0.488210 0.500000 0.237232
O O10 0.387276 0.416061 0.315180
O O11 0.000000 0.000000 0.000000
O O12 0.958501 0.654222 0.758640
O O13 0.025881 0.808313 0.780201
O O14 0.214206 0.844032 0.899322
O O15 0.025310 0.500000 0.171710
O O16 0.873054 0.404246 0.086361
O O17 0.000000 0.382636 0.000000
O O18 0.220428 0.000000 0.983382
#
# Coordination Sequence:
#
# PCOD8113440 Si02
#       8
#     8   8   4   4   8   8   8   8
#     4  12  25  42  72 101 138 180 222 281 347 405
#     4  10  24  46  65  97 135 179 232 282 327 400
#     4  12  22  42  68  99 141 190 229 275 348 414
#     4  12  26  46  69 109 149 176 225 291 350 413
#     4  11  24  42  68  98 138 174 224 281 335 410
#     4  11  23  40  68  99 139 182 221 281 341 404
#     4  10  25  47  67  94 134 178 228 286 344 403
#     4  11  23  42  65 101 138 174 229 282 337 410
#
# _framework density 21.726217999999999
#
# number of rings (size 3 to 8) (size 9 to 14) (size 15 to 20)
#    0.000    1.000    2.857    4.286    4.000    1.143 
#    1.286    0.357    0.000    0.000    0.000    0.000 
#    0.000    0.000    0.000    0.000    0.000    0.000 
#
# Total GULP energy -346976.726703 kJ/mol
# GULP energy per Si atom -12392.025954 kJ/mol
# Density = 2.167677 g / cm^3
# Si number density = 21.726218 Si / 1000 Ang^3
#
#
#
# Elastic Constant Matrix: (Units=GPa)
#
#
# Indices 1 2 3 4 5 6 
#
# 1 86.5561 25.3427 33.0350 0.0000 -5.2943 0.0000
# 2 25.3427 74.9520 36.1276 0.0000 16.2058 0.0000
# 3 33.0350 36.1276 91.5169 0.0000 3.7443 0.0000
# 4 0.0000 0.0000 0.0000 28.4384 0.0000 -1.9234
# 5 -5.2943 16.2058 3.7443 0.0000 42.2143 0.0000
# 6 0.0000 0.0000 0.0000 -1.9234 0.0000 8.6166
#
#
#
# Elastic Compliance Matrix: (Units=1/GPa)
#
#
# Indices 1 2 3 4 5 6 
#
# 1 0.014341 -0.003778 -0.003832 0.000000 0.003589 0.000000
# 2 -0.003778 0.019002 -0.005841 0.000000 -0.007251 0.000000
# 3 -0.003832 -0.005841 0.014597 0.000000 0.000467 0.000000
# 4 0.000000 0.000000 0.000000 0.035703 0.000000 0.007970
# 5 0.003589 -0.007251 0.000467 0.000000 0.026881 0.000000
# 6 0.000000 0.000000 0.000000 0.007970 0.000000 0.117833
#
#
# Mechanical properties :
#
#
# Convention : Reuss Voigt Hill
#
# Bulk Modulus (GPa) = 47.53231 49.11506 48.32368
# Shear Modulus (GPa) = 19.06408 26.42185 22.74297
#
# Velocity S-wave (km/s) = 2.96542 3.49109 3.23894
# Velocity P-wave (km/s) = 5.80089 6.23744 6.02312
#
# Compressibility (1/GPa) = 0.02103832
#
# Stress axis : x y z
#
# Youngs Moduli (GPa) = 69.72778 52.62491 68.50698
#
# Poissons Ratio (x) = 0.19881 0.26254
# Poissons Ratio (y) = 0.26342 0.40016
# Poissons Ratio (z) = 0.26722 0.30739
#
# Static dielectric constant tensor:
#      x y z
#    x 3.758770 0.000000 -0.073320 
#    y 0.000000 4.291600 0.000000 
#    z -0.073320 0.000000 3.992920 
# 
# 
# High freq. dielectric constant tensor:
#      x y z
#    x 1.861490 0.000000 -0.003000 
#    y 0.000000 1.852780 0.000000 
#    z -0.003000 0.000000 1.855590 
# 
# From -- ./inp_files/146277.got.cif
#   From: 2010.06.25/outbox.cif.g09.slc.cpg/sg12_74_cif.got.tgz:146277.got - 2010.06.28 00:19:55.
