data_PCOD8113465
_publ_section_title
;
Structure prediction by ZEFSAII (Michael W. Deem and Ramdas Pophale) SiO2 
 PCOD8113465
Probable space group: C 2/M
;
_chemical_formula_sum "Si O2"
_cell_formula_units_Z 44
_cell_length_a 17.090592
_cell_length_b 21.437321
_cell_length_c 13.709055
_cell_angle_alpha 90.000000
_cell_angle_beta 156.902077
_cell_angle_gamma 90.000000
_cell_volume 1970.414618
_symmetry_space_group_name_H-M "C 2/M"
_symmetry_group_IT_number 12
_symmetry_cell_setting 'monoclinic'
loop_
_space_group_symop_operation_xyz
x,y,z
-x,y,-z
-x,-y,-z
x,-y,z
1/2+x,1/2+y,z
1/2-x,1/2+y,-z
1/2-x,1/2-y,-z
1/2+x,1/2-y,z
loop_
_atom_site_type_symbol
_atom_site_label
_atom_site_fract_x
_atom_site_fract_y
_atom_site_fract_z
Si Si1 0.000000 0.401404 0.500000
Si Si2 0.500000 0.224190 0.000000
Si Si3 0.801370 0.196271 0.629405
Si Si4 0.681148 0.371765 0.989868
Si Si5 0.547913 0.865902 0.869260
Si Si6 0.563552 0.000000 0.182486
Si Si7 0.769916 0.000000 0.707406
Si Si8 0.545275 0.500000 0.277164
O O1 0.839928 0.439719 0.378792
O O2 0.872840 0.361033 0.278662
O O3 0.322377 0.272230 0.761689
O O4 0.556588 0.179856 0.973295
O O5 0.750000 0.250000 0.500000
O O6 0.631789 0.144830 0.415692
O O7 0.015766 0.173314 0.840878
O O8 0.602813 0.442342 0.901999
O O9 0.745493 0.355287 0.952747
O O10 0.529944 0.937957 0.877387
O O11 0.808740 0.000000 0.461420
O O12 0.500000 0.000000 0.000000
O O13 0.775272 0.000000 0.596955
O O14 0.000000 0.000000 0.000000
#
# Coordination Sequence:
#
# PCOD8113465 Si02
#       8
#     4   4   8   8   8   4   4   4
#     4  11  24  36  64 110 142 194 238 283 358 442
#     4  10  24  47  74  97 138 192 250 300 354 420
#     4  10  25  47  70  99 136 192 246 300 365 418
#     4  12  25  41  71 109 148 187 243 298 370 438
#     4  11  24  48  73 106 147 187 242 306 359 438
#     4  12  23  44  77 104 145 193 235 290 371 432
#     4  11  20  40  61  95 157 193 224 280 356 438
#     4  12  23  43  70 104 154 193 229 300 365 450
#
# _framework density 22.330325999999999
#
# number of rings (size 3 to 8) (size 9 to 14) (size 15 to 20)
#    0.000    0.909    4.545    2.182    2.545    2.909 
#    0.000   12.727    0.000    0.000    0.000    0.000 
#    0.000    0.000    0.000    0.000    0.000    0.000 
#
# Total GULP energy -272540.473258 kJ/mol
# GULP energy per Si atom -12388.203330 kJ/mol
# Density = 2.227950 g / cm^3
# Si number density = 22.330326 Si / 1000 Ang^3
#
#
#
# Elastic Constant Matrix: (Units=GPa)
#
#
# Indices 1 2 3 4 5 6 
#
# 1 135.9168 55.2152 54.5082 0.0000 4.5411 0.0000
# 2 55.2152 113.6755 45.4059 0.0000 -10.0808 0.0000
# 3 54.5082 45.4059 130.8627 0.0001 -8.9763 0.0003
# 4 0.0000 0.0000 0.0001 25.2905 0.0000 -22.2093
# 5 4.5411 -10.0808 -8.9763 0.0000 45.2536 0.0001
# 6 0.0000 0.0000 0.0003 -22.2093 0.0001 26.1807
#
#
#
# Elastic Compliance Matrix: (Units=1/GPa)
#
#
# Indices 1 2 3 4 5 6 
#
# 1 0.010301 -0.003999 -0.003077 0.000000 -0.002535 0.000000
# 2 -0.003999 0.011880 -0.002278 0.000000 0.002596 0.000000
# 3 -0.003077 -0.002278 0.009834 -0.000001 0.001752 -0.000001
# 4 0.000000 0.000000 -0.000001 0.155037 0.000000 0.131519
# 5 -0.002535 0.002596 0.001752 0.000000 0.023278 0.000000
# 6 0.000000 0.000000 -0.000001 0.131519 0.000000 0.149765
#
#
# Mechanical properties :
#
#
# Convention : Reuss Voigt Hill
#
# Bulk Modulus (GPa) = 75.15417 76.74596 75.95007
# Shear Modulus (GPa) = 13.04677 34.36667 23.70672
#
# Velocity S-wave (km/s) = 2.41977 3.92728 3.26181
# Velocity P-wave (km/s) = 6.44483 7.41673 6.94779
#
# Compressibility (1/GPa) = 0.01330598
#
# Stress axis : x y z
#
# Youngs Moduli (GPa) = 97.08107 84.17799 101.69018
#
# Poissons Ratio (x) = 0.33664 0.31288
# Poissons Ratio (y) = 0.38824 0.23166
# Poissons Ratio (z) = 0.29870 0.19177
#
# Static dielectric constant tensor:
#      x y z
#    x 4.145720 0.000000 0.336020 
#    y 0.000000 4.174590 0.000000 
#    z 0.336020 0.000000 2.868050 
# 
# 
# High freq. dielectric constant tensor:
#      x y z
#    x 1.881670 0.000000 -0.013360 
#    y 0.000000 1.888530 0.000000 
#    z -0.013360 0.000000 1.885880 
# 
# From -- ./inp_files/228244.got.cif
#   From: 2010.06.25/outbox.cif.g09.slc.cpg/sg12_115_cif.got.tgz:228244.got - 2010.06.28 00:19:55.
