data_PCOD8113058
_publ_section_title
;
Structure prediction by ZEFSAII (Michael W. Deem and Ramdas Pophale) SiO2 
 PCOD8113058
Probable space group: C 2/M
;
_chemical_formula_sum "Si O2"
_cell_formula_units_Z 48
_cell_length_a 11.920918
_cell_length_b 14.414686
_cell_length_c 14.778470
_cell_angle_alpha 90.000000
_cell_angle_beta 120.119985
_cell_angle_gamma 90.000000
_cell_volume 2196.588165
_symmetry_space_group_name_H-M "C 2/M"
_symmetry_group_IT_number 12
_symmetry_cell_setting 'monoclinic'
loop_
_space_group_symop_operation_xyz
x,y,z
-x,y,-z
-x,-y,-z
x,-y,z
1/2+x,1/2+y,z
1/2-x,1/2+y,-z
1/2-x,1/2-y,-z
1/2+x,1/2-y,z
loop_
_atom_site_type_symbol
_atom_site_label
_atom_site_fract_x
_atom_site_fract_y
_atom_site_fract_z
Si Si1 0.859389 0.899720 0.795371
Si Si2 0.367867 0.862241 0.426252
Si Si3 0.396001 0.294835 0.150756
Si Si4 0.733543 0.107958 0.933796
Si Si5 0.187377 0.104842 0.504758
Si Si6 0.905412 0.172122 0.355544
O O1 0.728936 0.909607 0.683632
O O2 0.826589 0.879627 0.885903
O O3 0.951430 0.817854 0.796647
O O4 0.930210 0.000000 0.817612
O O5 0.500000 0.921921 0.500000
O O6 0.289926 0.835875 0.487021
O O7 0.430111 0.773139 0.404093
O O8 0.381249 0.184744 0.122733
O O9 0.346369 0.320304 0.231367
O O10 0.315617 0.363273 0.054226
O O11 0.683750 0.000000 0.921685
O O12 0.196688 0.123610 0.616547
O O13 0.041240 0.118183 0.409733
O O14 0.228747 0.000000 0.501180
#
# Coordination Sequence:
#
# PCOD8113058 Si02
#       6
#     8   8   8   8   8   8
#     4  11  23  41  67  98 131 172 226 274 325 398
#     4  12  24  40  66  94 132 178 218 274 327 392
#     4  11  22  40  70 100 131 176 219 274 337 399
#     4  10  23  43  68 102 133 167 221 280 334 398
#     4  11  24  41  63  94 131 171 225 277 327 394
#     4  11  22  39  64  94 128 176 222 266 333 402
#
# _framework density 21.852070999999999
#
# number of rings (size 3 to 8) (size 9 to 14) (size 15 to 20)
#    0.000    1.000    5.000    3.000    0.000    4.667 
#    0.000    0.000    0.000   10.000    0.000    0.000 
#    0.000    0.000    0.000    0.000    0.000    0.000 
#
# Total GULP energy -297388.350713 kJ/mol
# GULP energy per Si atom -12391.181280 kJ/mol
# Density = 2.180233 g / cm^3
# Si number density = 21.852071 Si / 1000 Ang^3
#
#
#
# Elastic Constant Matrix: (Units=GPa)
#
#
# Indices 1 2 3 4 5 6 
#
# 1 110.9317 33.4531 68.1516 0.0000 -16.2759 0.0000
# 2 33.4531 126.1587 42.6131 0.0000 -0.9762 0.0000
# 3 68.1516 42.6131 163.7237 0.0000 -25.8781 0.0000
# 4 0.0000 0.0000 0.0000 16.5282 0.0000 -4.6803
# 5 -16.2759 -0.9762 -25.8781 0.0000 35.3615 0.0000
# 6 0.0000 0.0000 0.0000 -4.6803 0.0000 12.2781
#
#
#
# Elastic Compliance Matrix: (Units=1/GPa)
#
#
# Indices 1 2 3 4 5 6 
#
# 1 0.012636 -0.001854 -0.004372 0.000000 0.002565 0.000000
# 2 -0.001854 0.009043 -0.001897 0.000000 -0.001992 0.000000
# 3 -0.004372 -0.001897 0.009154 0.000000 0.004634 0.000000
# 4 0.000000 0.000000 0.000000 0.067823 0.000000 0.025853
# 5 0.002565 -0.001992 0.004634 0.000000 0.032797 0.000000
# 6 0.000000 0.000000 0.000000 0.025853 0.000000 0.091301
#
#
# Mechanical properties :
#
#
# Convention : Reuss Voigt Hill
#
# Bulk Modulus (GPa) = 68.55026 76.58330 72.56678
# Shear Modulus (GPa) = 20.50340 29.93998 25.22169
#
# Velocity S-wave (km/s) = 3.06646 3.70553 3.40104
# Velocity P-wave (km/s) = 6.63143 7.30960 6.97876
#
# Compressibility (1/GPa) = 0.01458784
#
# Stress axis : x y z
#
# Youngs Moduli (GPa) = 79.13956 110.57715 109.24385
#
# Poissons Ratio (x) = 0.20502 0.47759
# Poissons Ratio (y) = 0.14673 0.20722
# Poissons Ratio (z) = 0.34598 0.20975
#
# Static dielectric constant tensor:
#      x y z
#    x 3.818070 0.000000 -0.270780 
#    y 0.000000 4.064740 0.000000 
#    z -0.270780 0.000000 4.167540 
# 
# 
# High freq. dielectric constant tensor:
#      x y z
#    x 1.843170 0.000000 -0.021540 
#    y 0.000000 1.865690 0.000000 
#    z -0.021540 0.000000 1.865230 
# 
# From -- ./inp_files/205139.got.cif
#   From: 2010.06.25/outbox.cif.g09.slc.cpg/sg12_103_cif.got.tgz:205139.got - 2010.06.28 00:19:55.
