data_PCOD8113925
_publ_section_title
;
Structure prediction by ZEFSAII (Michael W. Deem and Ramdas Pophale) SiO2 
 PCOD8113925
Probable space group: C 2/M
;
_chemical_formula_sum "Si O2"
_cell_formula_units_Z 64
_cell_length_a 26.496961
_cell_length_b 19.506532
_cell_length_c 11.865963
_cell_angle_alpha 90.000000
_cell_angle_beta 148.350395
_cell_angle_gamma 90.000000
_cell_volume 3218.172449
_symmetry_space_group_name_H-M "C 2/M"
_symmetry_group_IT_number 12
_symmetry_cell_setting 'monoclinic'
loop_
_space_group_symop_operation_xyz
x,y,z
-x,y,-z
-x,-y,-z
x,-y,z
1/2+x,1/2+y,z
1/2-x,1/2+y,-z
1/2-x,1/2-y,-z
1/2+x,1/2-y,z
loop_
_atom_site_type_symbol
_atom_site_label
_atom_site_fract_x
_atom_site_fract_y
_atom_site_fract_z
Si Si1 0.638559 0.250227 0.258761
Si Si2 0.109581 0.789401 0.962181
Si Si3 0.965535 0.581489 0.615055
Si Si4 0.398215 0.303329 0.575011
Si Si5 0.139239 0.655111 0.884945
Si Si6 0.306768 0.182077 0.255326
Si Si7 0.756729 0.075918 0.275815
Si Si8 0.068220 0.394178 0.038908
O O1 0.750000 0.250000 0.500000
O O2 0.581755 0.275867 0.260866
O O3 0.595095 0.177303 0.146652
O O4 0.624516 0.299295 0.124350
O O5 0.119259 0.709487 0.946592
O O6 0.004197 0.816238 0.723562
O O7 0.193596 0.831809 0.059306
O O8 0.959864 0.500000 0.597524
O O9 0.860780 0.613101 0.395475
O O10 0.043010 0.611528 0.672472
O O11 0.002722 0.610172 0.804135
O O12 0.339636 0.249173 0.387278
O O13 0.340598 0.374013 0.477414
O O14 0.175235 0.694950 0.842919
O O15 0.219200 0.602506 0.083432
O O16 0.668933 0.069610 0.198749
O O17 0.800436 0.000000 0.343655
O O18 0.000000 0.434062 0.000000
#
# Coordination Sequence:
#
# PCOD8113925 Si02
#       8
#     8   8   8   8   8   8   8   8
#     4  12  19  36  64  92 129 156 197 255 319 370
#     4  12  23  38  62  98 123 158 209 266 306 365
#     4  11  24  40  60  95 133 169 206 250 325 396
#     4  12  24  40  65  98 125 168 214 259 313 376
#     4  11  21  40  63  95 124 160 209 263 317 371
#     4  12  23  39  64  92 131 161 207 267 315 360
#     4  11  24  43  62  88 130 173 213 255 314 381
#     4  11  20  36  61  93 126 158 206 259 311 374
#
# _framework density 19.887063000000001
#
# number of rings (size 3 to 8) (size 9 to 14) (size 15 to 20)
#    0.000    0.500    7.500    4.125    0.000    2.500 
#    0.000    0.625    0.000    2.250    0.000    0.000 
#    0.000    0.000    0.000    0.000    0.000    0.000 
#
# Total GULP energy -396666.177993 kJ/mol
# GULP energy per Si atom -12395.818062 kJ/mol
# Density = 1.984180 g / cm^3
# Si number density = 19.887063 Si / 1000 Ang^3
#
#
#
# Elastic Constant Matrix: (Units=GPa)
#
#
# Indices 1 2 3 4 5 6 
#
# 1 124.0334 38.1233 49.9542 0.0000 6.5809 0.0000
# 2 38.1233 114.0588 39.8205 0.0000 1.4995 0.0000
# 3 49.9542 39.8205 93.9124 0.0000 24.7172 0.0000
# 4 0.0000 0.0000 0.0000 11.5204 0.0000 5.1535
# 5 6.5809 1.4995 24.7172 0.0000 40.3282 0.0000
# 6 0.0000 0.0000 0.0000 5.1535 0.0000 9.1304
#
#
#
# Elastic Compliance Matrix: (Units=1/GPa)
#
#
# Indices 1 2 3 4 5 6 
#
# 1 0.010667 -0.001710 -0.005374 0.000000 0.001617 0.000000
# 2 -0.001710 0.010824 -0.004349 0.000000 0.002542 0.000000
# 3 -0.005374 -0.004349 0.017977 0.000000 -0.009980 0.000000
# 4 0.000000 0.000000 0.000000 0.116122 0.000000 -0.065542
# 5 0.001617 0.002542 -0.009980 0.000000 0.030555 0.000000
# 6 0.000000 0.000000 0.000000 -0.065542 0.000000 0.146518
#
#
# Mechanical properties :
#
#
# Convention : Reuss Voigt Hill
#
# Bulk Modulus (GPa) = 60.23579 65.31120 62.77349
# Shear Modulus (GPa) = 13.84798 25.80291 19.82545
#
# Velocity S-wave (km/s) = 2.64167 3.60595 3.16080
# Velocity P-wave (km/s) = 6.29756 7.08869 6.70480
#
# Compressibility (1/GPa) = 0.01660143
#
# Stress axis : x y z
#
# Youngs Moduli (GPa) = 93.74982 92.38810 55.62513
#
# Poissons Ratio (x) = 0.15801 0.29894
# Poissons Ratio (y) = 0.16034 0.24191
# Poissons Ratio (z) = 0.50383 0.40178
#
# Static dielectric constant tensor:
#      x y z
#    x 3.978180 0.000000 0.040400 
#    y 0.000000 3.305540 0.000000 
#    z 0.040400 0.000000 3.569500 
# 
# 
# High freq. dielectric constant tensor:
#      x y z
#    x 1.786110 0.000000 0.000580 
#    y 0.000000 1.740470 0.000000 
#    z 0.000580 0.000000 1.784010 
# 
# From -- ./inp_files/184725.got.cif
#   From: 2010.06.25/outbox.cif.g09.slc.cpg/sg12_93_cif.got.tgz:184725.got - 2010.06.28 00:19:55.
