data_PCOD8113866
_publ_section_title
;
Structure prediction by ZEFSAII (Michael W. Deem and Ramdas Pophale) SiO2 
 PCOD8113866
Probable space group: C 2/M
;
_chemical_formula_sum "Si O2"
_cell_formula_units_Z 40
_cell_length_a 13.594271
_cell_length_b 13.857990
_cell_length_c 17.574466
_cell_angle_alpha 90.000000
_cell_angle_beta 37.948957
_cell_angle_gamma 90.000000
_cell_volume 2036.032096
_symmetry_space_group_name_H-M "C 2/M"
_symmetry_group_IT_number 12
_symmetry_cell_setting 'monoclinic'
loop_
_space_group_symop_operation_xyz
x,y,z
-x,y,-z
-x,-y,-z
x,-y,z
1/2+x,1/2+y,z
1/2-x,1/2+y,-z
1/2-x,1/2-y,-z
1/2+x,1/2-y,z
loop_
_atom_site_type_symbol
_atom_site_label
_atom_site_fract_x
_atom_site_fract_y
_atom_site_fract_z
Si Si1 0.868167 0.196095 0.325740
Si Si2 0.493398 0.500000 0.732433
Si Si3 0.510365 0.207873 0.605424
Si Si4 0.173573 0.500000 0.859069
Si Si5 0.498256 0.000000 0.409477
Si Si6 0.234958 0.154930 0.316506
Si Si7 0.708835 0.500000 0.464579
O O1 0.938287 0.091509 0.263911
O O2 0.686633 0.185264 0.465982
O O3 0.868894 0.263099 0.250650
O O4 0.984061 0.248071 0.314628
O O5 0.300842 0.500000 0.850481
O O6 0.539825 0.500000 0.613132
O O7 0.427316 0.288457 0.604064
O O8 0.418238 0.102929 0.663211
O O9 0.197278 0.594295 0.793853
O O10 0.000000 0.500000 0.000000
O O11 0.500000 0.000000 0.500000
O O12 0.334997 0.000000 0.457148
O O13 0.213371 0.094208 0.408261
#
# Coordination Sequence:
#
# PCOD8113866 Si02
#       7
#     8   4   8   4   4   8   4
#     4  11  20  34  55  94 123 158 199 233 305 373
#     4  12  22  38  60  88 132 155 193 259 287 371
#     4  11  21  33  53  91 135 159 190 236 296 378
#     4  11  27  46  64  86 111 157 220 265 303 343
#     4  12  21  33  50  86 145 172 184 226 296 383
#     4  11  23  38  64  86 126 161 199 253 299 367
#     4  11  22  36  55  96 123 161 205 238 302 373
#
# _framework density 19.646056999999999
#
# number of rings (size 3 to 8) (size 9 to 14) (size 15 to 20)
#    0.000    0.800    6.000    3.000    2.800    0.800 
#    0.000    1.000    0.000    0.000    0.000    1.400 
#    0.000    0.000    0.000    0.000    0.000    0.000 
#
# Total GULP energy -247761.322111 kJ/mol
# GULP energy per Si atom -12388.066106 kJ/mol
# Density = 1.960134 g / cm^3
# Si number density = 19.646057 Si / 1000 Ang^3
#
#
#
# Elastic Constant Matrix: (Units=GPa)
#
#
# Indices 1 2 3 4 5 6 
#
# 1 129.1618 65.5750 18.7967 -0.0002 -10.5888 0.0001
# 2 65.5750 189.6102 28.0884 -0.0003 -7.3854 0.0002
# 3 18.7967 28.0884 45.2649 -0.0009 -15.2407 0.0006
# 4 -0.0002 -0.0003 -0.0009 1.0988 0.0004 -1.5791
# 5 -10.5888 -7.3854 -15.2407 0.0004 15.8140 -0.0003
# 6 0.0001 0.0002 0.0006 -1.5791 -0.0003 47.0006
#
#
#
# Elastic Compliance Matrix: (Units=1/GPa)
#
#
# Indices 1 2 3 4 5 6 
#
# 1 0.009783 -0.003117 -0.000611 -0.000001 0.004506 0.000000
# 2 -0.003117 0.006815 -0.003798 -0.000001 -0.002565 0.000000
# 3 -0.000611 -0.003798 0.035481 0.000014 0.032012 0.000000
# 4 -0.000001 -0.000001 0.000014 0.956215 -0.000013 0.032126
# 5 0.004506 -0.002565 0.032012 -0.000013 0.095906 0.000000
# 6 0.000000 0.000000 0.000000 0.032126 0.000000 0.022356
#
#
# Mechanical properties :
#
#
# Convention : Reuss Voigt Hill
#
# Bulk Modulus (GPa) = 27.00767 65.43970 46.22368
# Shear Modulus (GPa) = 4.33294 29.55448 16.94371
#
# Velocity S-wave (km/s) = 1.48670 3.88280 2.93993
# Velocity P-wave (km/s) = 4.08950 7.31322 5.92483
#
# Compressibility (1/GPa) = 0.03702651
#
# Stress axis : x y z
#
# Youngs Moduli (GPa) = 102.21539 146.73897 28.18409
#
# Poissons Ratio (x) = 0.45745 0.01722
# Poissons Ratio (y) = 0.31865 0.10704
# Poissons Ratio (z) = 0.06245 0.55730
#
# Static dielectric constant tensor:
#      x y z
#    x 4.123490 0.000000 -0.030740 
#    y 0.000000 4.540360 0.000000 
#    z -0.030740 0.000000 2.710190 
# 
# 
# High freq. dielectric constant tensor:
#      x y z
#    x 1.795930 0.000000 -0.005310 
#    y 0.000000 1.810680 0.000000 
#    z -0.005310 0.000000 1.648230 
# 
# From -- ./inp_files/270563.got.cif
#   From: 2010.06.25/outbox.cif.g09.slc.cpg/sg12_136_cif.got.tgz:270563.got - 2010.06.28 00:19:55.
