data_PCOD8113304
_publ_section_title
;
Structure prediction by ZEFSAII (Michael W. Deem and Ramdas Pophale) SiO2 
 PCOD8113304
Probable space group: C 2/M
;
_chemical_formula_sum "Si O2"
_cell_formula_units_Z 36
_cell_length_a 8.789665
_cell_length_b 19.580367
_cell_length_c 15.632291
_cell_angle_alpha 90.000000
_cell_angle_beta 144.190573
_cell_angle_gamma 90.000000
_cell_volume 1574.125243
_symmetry_space_group_name_H-M "C 2/M"
_symmetry_group_IT_number 12
_symmetry_cell_setting 'monoclinic'
loop_
_space_group_symop_operation_xyz
x,y,z
-x,y,-z
-x,-y,-z
x,-y,z
1/2+x,1/2+y,z
1/2-x,1/2+y,-z
1/2-x,1/2-y,-z
1/2+x,1/2-y,z
loop_
_atom_site_type_symbol
_atom_site_label
_atom_site_fract_x
_atom_site_fract_y
_atom_site_fract_z
Si Si1 0.500000 0.739047 0.000000
Si Si2 0.036758 0.725463 0.202901
Si Si3 0.080684 0.500000 0.853336
Si Si4 0.796631 0.128453 0.655443
Si Si5 0.635325 0.395628 0.645131
Si Si6 0.622224 0.500000 0.188241
O O1 0.500913 0.785515 0.915778
O O2 0.230690 0.695739 0.876093
O O3 0.069111 0.804325 0.244148
O O4 0.282497 0.681371 0.344403
O O5 0.193146 0.500000 0.809533
O O6 0.899423 0.434750 0.788906
O O7 0.316600 0.500000 0.027737
O O8 0.500000 0.146390 0.500000
O O9 0.810314 0.067566 0.728735
O O10 0.937993 0.104066 0.633734
O O11 0.500000 0.428955 0.500000
#
# Coordination Sequence:
#
# PCOD8113304 Si02
#       6
#     4   8   4   8   8   4
#     4  10  24  42  66 108 144 174 224 286 344 398
#     4  11  25  42  74 102 142 178 230 280 344 402
#     4  11  28  47  74 101 135 179 228 281 342 409
#     4  12  27  46  70 101 140 183 227 282 341 405
#     4  12  27  46  70 101 140 183 227 282 341 405
#     4  11  28  47  74 101 135 179 228 281 342 409
#
# _framework density 22.869842999999999
#
# number of rings (size 3 to 8) (size 9 to 14) (size 15 to 20)
#    0.000    0.667    2.222    3.333   12.444    3.556 
#    0.000    0.000    0.000    0.000    0.000    0.000 
#    0.000    0.000    0.000    0.000    0.000    0.000 
#
# Total GULP energy -223172.693782 kJ/mol
# GULP energy per Si atom -12398.482988 kJ/mol
# Density = 2.281779 g / cm^3
# Si number density = 22.869843 Si / 1000 Ang^3
#
#
#
# Elastic Constant Matrix: (Units=GPa)
#
#
# Indices 1 2 3 4 5 6 
#
# 1 163.6395 22.1883 49.3609 -0.0010 17.0067 -0.0002
# 2 22.1883 92.3993 24.7209 -0.0040 -1.5564 -0.0019
# 3 49.3609 24.7209 120.2098 -0.0095 11.5009 -0.0074
# 4 -0.0010 -0.0040 -0.0095 11.4564 -0.0048 4.9455
# 5 17.0067 -1.5564 11.5009 -0.0048 42.8305 -0.0037
# 6 -0.0002 -0.0019 -0.0074 4.9455 -0.0037 21.0815
#
#
#
# Elastic Compliance Matrix: (Units=1/GPa)
#
#
# Indices 1 2 3 4 5 6 
#
# 1 0.007259 -0.001101 -0.002540 -0.000002 -0.002240 -0.000001
# 2 -0.001101 0.011668 -0.002083 0.000003 0.001421 0.000000
# 3 -0.002540 -0.002083 0.009957 0.000006 -0.001741 0.000002
# 4 -0.000002 0.000003 0.000006 0.097124 0.000009 -0.022784
# 5 -0.002240 0.001421 -0.001741 0.000009 0.024756 0.000002
# 6 -0.000001 0.000000 0.000002 -0.022784 0.000002 0.052780
#
#
# Mechanical properties :
#
#
# Convention : Reuss Voigt Hill
#
# Bulk Modulus (GPa) = 57.35535 63.19873 60.27704
# Shear Modulus (GPa) = 22.64435 33.73891 28.19163
#
# Velocity S-wave (km/s) = 3.15006 3.84508 3.51479
# Velocity P-wave (km/s) = 6.19387 6.88527 6.54870
#
# Compressibility (1/GPa) = 0.01743516
#
# Stress axis : x y z
#
# Youngs Moduli (GPa) = 137.75322 85.70184 100.43462
#
# Poissons Ratio (x) = 0.09439 0.25510
# Poissons Ratio (y) = 0.15172 0.20923
# Poissons Ratio (z) = 0.34989 0.17854
#
# Static dielectric constant tensor:
#      x y z
#    x 4.472820 0.000000 0.207410 
#    y 0.000000 3.936970 -0.000010 
#    z 0.207410 -0.000010 4.204250 
# 
# 
# High freq. dielectric constant tensor:
#      x y z
#    x 1.928620 0.000000 0.011130 
#    y 0.000000 1.890080 0.000000 
#    z 0.011130 0.000000 1.917470 
# 
# From -- ./inp_files/197628.got.cif
#   From: 2010.06.25/outbox.cif.g09.slc.cpg/sg12_99_cif.got.tgz:197628.got - 2010.06.28 00:19:55.
