data_PCOD8113129
_publ_section_title
;
Structure prediction by ZEFSAII (Michael W. Deem and Ramdas Pophale) SiO2 
 PCOD8113129
Probable space group: C 2/M
;
_chemical_formula_sum "Si O2"
_cell_formula_units_Z 44
_cell_length_a 22.633652
_cell_length_b 18.145329
_cell_length_c 5.302201
_cell_angle_alpha 90.000000
_cell_angle_beta 127.121764
_cell_angle_gamma 90.000000
_cell_volume 1736.309930
_symmetry_space_group_name_H-M "C 2/M"
_symmetry_group_IT_number 12
_symmetry_cell_setting 'monoclinic'
loop_
_space_group_symop_operation_xyz
x,y,z
-x,y,-z
-x,-y,-z
x,-y,z
1/2+x,1/2+y,z
1/2-x,1/2+y,-z
1/2-x,1/2-y,-z
1/2+x,1/2-y,z
loop_
_atom_site_type_symbol
_atom_site_label
_atom_site_fract_x
_atom_site_fract_y
_atom_site_fract_z
Si Si1 0.575870 0.688853 0.770063
Si Si2 0.951258 0.500000 0.125315
Si Si3 0.200283 0.081554 0.191443
Si Si4 0.795868 0.418024 0.937971
Si Si5 0.077624 0.338428 0.064260
Si Si6 0.329858 0.782934 0.265110
O O1 0.500000 0.647052 0.500000
O O2 0.615177 0.713661 0.611670
O O3 0.630574 0.635016 0.060550
O O4 0.556703 0.765353 0.857461
O O5 0.000000 0.500000 0.500000
O O6 0.902232 0.422531 0.001983
O O7 0.000000 0.500000 0.000000
O O8 0.244958 0.083491 0.564864
O O9 0.168860 0.000000 0.061769
O O10 0.248950 0.103698 0.072801
O O11 0.832057 0.500000 0.074784
O O12 0.848690 0.343989 0.086977
O O13 0.151307 0.321770 0.421306
O O14 0.000000 0.357533 0.000000
O O15 0.250000 0.750000 0.000000
#
# Coordination Sequence:
#
# PCOD8113129 Si02
#       6
#     8   4   8   8   8   8
#     4  12  25  43  71 100 144 184 236 292 356 423
#     4  10  24  46  74 102 148 194 244 291 354 439
#     4  10  23  45  71 101 139 182 233 293 355 426
#     4  10  23  44  69 100 139 178 231 290 356 416
#     4  11  25  45  70 102 146 189 238 294 360 426
#     4  12  25  43  69 104 137 188 238 294 356 427
#
# _framework density 25.341099
#
# number of rings (size 3 to 8) (size 9 to 14) (size 15 to 20)
#    0.000    1.091    3.636    1.636    6.364    1.818 
#    1.636    0.000    0.000    3.818    0.000    0.000 
#    0.000    0.000    0.000    0.000    0.000    0.000 
#
# Total GULP energy -272541.308717 kJ/mol
# GULP energy per Si atom -12388.241305 kJ/mol
# Density = 2.528342 g / cm^3
# Si number density = 25.341099 Si / 1000 Ang^3
#
#
#
# Elastic Constant Matrix: (Units=GPa)
#
#
# Indices 1 2 3 4 5 6 
#
# 1 54.9801 22.0914 27.5366 0.0000 4.8173 0.0000
# 2 22.0914 123.5114 39.3814 0.0000 7.1965 0.0000
# 3 27.5366 39.3814 165.1878 0.0000 2.1188 0.0000
# 4 0.0000 0.0000 0.0000 50.4341 0.0000 5.2677
# 5 4.8173 7.1965 2.1188 0.0000 42.9261 0.0000
# 6 0.0000 0.0000 0.0000 5.2677 0.0000 35.6451
#
#
#
# Elastic Compliance Matrix: (Units=1/GPa)
#
#
# Indices 1 2 3 4 5 6 
#
# 1 0.020842 -0.002733 -0.002800 0.000000 -0.001742 0.000000
# 2 -0.002733 0.009202 -0.001723 0.000000 -0.001151 0.000000
# 3 -0.002800 -0.001723 0.006928 0.000000 0.000261 0.000000
# 4 0.000000 0.000000 0.000000 0.020139 0.000000 -0.002976
# 5 -0.001742 -0.001151 0.000261 0.000000 0.023671 0.000000
# 6 0.000000 0.000000 0.000000 -0.002976 0.000000 0.028494
#
#
# Mechanical properties :
#
#
# Convention : Reuss Voigt Hill
#
# Bulk Modulus (GPa) = 44.52819 57.96643 51.24731
# Shear Modulus (GPa) = 38.08765 42.77905 40.43335
#
# Velocity S-wave (km/s) = 3.88106 4.11314 3.99878
# Velocity P-wave (km/s) = 6.13948 6.74399 6.44882
#
# Compressibility (1/GPa) = 0.02245768
#
# Stress axis : x y z
#
# Youngs Moduli (GPa) = 47.98023 108.67371 144.34126
#
# Poissons Ratio (x) = 0.29705 0.40420
# Poissons Ratio (y) = 0.13115 0.24875
# Poissons Ratio (z) = 0.13436 0.18728
#
# Static dielectric constant tensor:
#      x y z
#    x 5.323580 0.000000 -0.170220 
#    y 0.000000 5.416260 0.000000 
#    z -0.170220 0.000000 4.315600 
# 
# 
# High freq. dielectric constant tensor:
#      x y z
#    x 2.045970 0.000000 -0.003800 
#    y 0.000000 2.050100 0.000000 
#    z -0.003800 0.000000 1.999190 
# 
# From -- ./inp_files/32379.got.cif
#   From: 2010.06.25/outbox.cif.g09.slc.cpg/sg12_17_cif.got.tgz:32379.got - 2010.06.28 00:19:55.
