data_PCOD8113654
_publ_section_title
;
Structure prediction by ZEFSAII (Michael W. Deem and Ramdas Pophale) SiO2 
 PCOD8113654
Probable space group: C 2/M
;
_chemical_formula_sum "Si O2"
_cell_formula_units_Z 48
_cell_length_a 12.906240
_cell_length_b 18.181101
_cell_length_c 12.828043
_cell_angle_alpha 90.000000
_cell_angle_beta 115.996640
_cell_angle_gamma 90.000000
_cell_volume 2705.533595
_symmetry_space_group_name_H-M "C 2/M"
_symmetry_group_IT_number 12
_symmetry_cell_setting 'monoclinic'
loop_
_space_group_symop_operation_xyz
x,y,z
-x,y,-z
-x,-y,-z
x,-y,z
1/2+x,1/2+y,z
1/2-x,1/2+y,-z
1/2-x,1/2-y,-z
1/2+x,1/2-y,z
loop_
_atom_site_type_symbol
_atom_site_label
_atom_site_fract_x
_atom_site_fract_y
_atom_site_fract_z
Si Si1 0.062679 0.191896 0.178050
Si Si2 0.632591 0.083751 0.976238
Si Si3 0.323561 0.584558 0.372237
Si Si4 0.552523 0.585806 0.359424
Si Si5 0.405023 0.143709 0.818776
Si Si6 0.683598 0.318451 0.021984
O O1 0.097948 0.138548 0.288043
O O2 0.053017 0.277264 0.203850
O O3 0.938539 0.165680 0.084702
O O4 0.163494 0.190322 0.136219
O O5 0.516144 0.090411 0.855422
O O6 0.647082 0.000000 0.021132
O O7 0.628529 0.139355 0.073471
O O8 0.741911 0.107419 0.956794
O O9 0.302449 0.500000 0.340300
O O10 0.424338 0.611207 0.338088
O O11 0.360174 0.598152 0.506921
O O12 0.203385 0.624546 0.300204
O O13 0.553143 0.500000 0.325393
O O14 0.750000 0.250000 0.000000
#
# Coordination Sequence:
#
# PCOD8113654 Si02
#       6
#     8   8   8   8   8   8
#     4  11  22  33  58  78 107 148 173 223 275 323
#     4  11  21  33  54  82 109 141 183 224 265 327
#     4   9  18  35  58  79 108 143 180 234 276 307
#     4   9  20  37  55  80 108 142 188 228 269 322
#     4  11  19  32  54  81 110 139 180 228 272 322
#     4  11  20  38  51  76 114 143 172 212 278 326
#
# _framework density 17.741416000000001
#
# number of rings (size 3 to 8) (size 9 to 14) (size 15 to 20)
#    0.000    1.667    3.333    5.000    0.000    3.333 
#    0.000    1.667    0.000    1.000    0.000    3.500 
#    0.000    0.000    0.000    0.000    0.000    0.000 
#
# Total GULP energy -297503.533679 kJ/mol
# GULP energy per Si atom -12395.980570 kJ/mol
# Density = 1.770104 g / cm^3
# Si number density = 17.741416 Si / 1000 Ang^3
#
#
#
# Elastic Constant Matrix: (Units=GPa)
#
#
# Indices 1 2 3 4 5 6 
#
# 1 109.5672 39.3041 42.4139 0.0000 5.6703 0.0000
# 2 39.3041 94.2629 45.2134 0.0000 -5.5845 0.0000
# 3 42.4139 45.2134 79.0811 0.0000 0.1115 0.0000
# 4 0.0000 0.0000 0.0000 25.9399 0.0000 -8.1743
# 5 5.6703 -5.5845 0.1115 0.0000 34.2673 0.0000
# 6 0.0000 0.0000 0.0000 -8.1743 0.0000 26.0829
#
#
#
# Elastic Compliance Matrix: (Units=1/GPa)
#
#
# Indices 1 2 3 4 5 6 
#
# 1 0.012178 -0.002884 -0.004879 0.000000 -0.002469 0.000000
# 2 -0.002884 0.015502 -0.007320 0.000000 0.003027 0.000000
# 3 -0.004879 -0.007320 0.019448 0.000000 -0.000449 0.000000
# 4 0.000000 0.000000 0.000000 0.042775 0.000000 0.013406
# 5 -0.002469 0.003027 -0.000449 0.000000 0.030086 0.000000
# 6 0.000000 0.000000 0.000000 0.013406 0.000000 0.042541
#
#
# Mechanical properties :
#
#
# Convention : Reuss Voigt Hill
#
# Bulk Modulus (GPa) = 58.95920 59.64156 59.30038
# Shear Modulus (GPa) = 25.20806 27.65667 26.43236
#
# Velocity S-wave (km/s) = 3.77352 3.95254 3.86407
# Velocity P-wave (km/s) = 7.23122 7.38378 7.30790
#
# Compressibility (1/GPa) = 0.01696088
#
# Stress axis : x y z
#
# Youngs Moduli (GPa) = 82.11679 64.50931 51.41885
#
# Poissons Ratio (x) = 0.18602 0.25088
# Poissons Ratio (y) = 0.23680 0.37641
# Poissons Ratio (z) = 0.40066 0.47224
#
# Static dielectric constant tensor:
#      x y z
#    x 3.447070 0.000000 0.072060 
#    y 0.000000 3.191430 0.000000 
#    z 0.072060 0.000000 3.103630 
# 
# 
# High freq. dielectric constant tensor:
#      x y z
#    x 1.690210 0.000000 0.012350 
#    y 0.000000 1.683710 0.000000 
#    z 0.012350 0.000000 1.662720 
# 
# From -- ./inp_files/131221.got.cif
#   From: 2010.06.25/outbox.cif.g09.slc.cpg/sg12_66_cif.got.tgz:131221.got - 2010.06.28 00:19:55.
