data_PCOD8113368
_publ_section_title
;
Structure prediction by ZEFSAII (Michael W. Deem and Ramdas Pophale) SiO2 
 PCOD8113368
Probable space group: C 2/M
;
_chemical_formula_sum "Si O2"
_cell_formula_units_Z 48
_cell_length_a 18.120465
_cell_length_b 17.756554
_cell_length_c 14.336777
_cell_angle_alpha 90.000000
_cell_angle_beta 149.692102
_cell_angle_gamma 90.000000
_cell_volume 2327.914022
_symmetry_space_group_name_H-M "C 2/M"
_symmetry_group_IT_number 12
_symmetry_cell_setting 'monoclinic'
loop_
_space_group_symop_operation_xyz
x,y,z
-x,y,-z
-x,-y,-z
x,-y,z
1/2+x,1/2+y,z
1/2-x,1/2+y,-z
1/2-x,1/2-y,-z
1/2+x,1/2-y,z
loop_
_atom_site_type_symbol
_atom_site_label
_atom_site_fract_x
_atom_site_fract_y
_atom_site_fract_z
Si Si1 0.630131 0.587176 0.073180
Si Si2 0.544826 0.913163 0.805207
Si Si3 0.826647 0.831111 0.075042
Si Si4 0.893166 0.650491 0.464437
Si Si5 0.913020 0.815380 0.501194
Si Si6 0.872075 0.411502 0.789211
O O1 0.617931 0.500000 0.026283
O O2 0.768737 0.596095 0.291116
O O3 0.500000 0.610634 0.000000
O O4 0.640469 0.643061 0.995786
O O5 0.485443 0.896563 0.638634
O O6 0.430862 0.878511 0.754963
O O7 0.552773 0.000000 0.835424
O O8 0.710745 0.885762 0.997708
O O9 0.978975 0.834741 0.295549
O O10 0.750000 0.750000 0.000000
O O11 0.842453 0.732750 0.445244
O O12 0.000000 0.674330 0.500000
O O13 0.779896 0.873012 0.351216
O O14 0.000000 0.822455 0.500000
O O15 0.839785 0.500000 0.751926
O O16 0.000000 0.390575 0.000000
#
# Coordination Sequence:
#
# PCOD8113368 Si02
#       6
#     8   8   8   8   8   8
#     4  11  26  44  67 100 139 178 221 278 340 407
#     4  11  23  40  67  93 127 176 220 272 330 398
#     4  12  23  43  66  97 138 174 224 279 334 406
#     4  11  22  42  65  96 130 170 220 267 329 404
#     4  11  24  42  68  97 132 175 221 280 343 397
#     4  10  24  44  64  93 129 172 227 276 330 399
#
# _framework density 20.619318
#
# number of rings (size 3 to 8) (size 9 to 14) (size 15 to 20)
#    0.000    1.000    3.333    3.000    2.333    5.000 
#    0.000    0.000    0.000    0.000    0.000    0.000 
#    0.000    0.000    0.000    0.000    0.000    0.000 
#
# Total GULP energy -297526.552180 kJ/mol
# GULP energy per Si atom -12396.939674 kJ/mol
# Density = 2.057239 g / cm^3
# Si number density = 20.619318 Si / 1000 Ang^3
#
#
#
# Elastic Constant Matrix: (Units=GPa)
#
#
# Indices 1 2 3 4 5 6 
#
# 1 109.2261 51.2209 31.3606 0.0000 15.6011 0.0000
# 2 51.2209 83.0345 34.4806 0.0000 9.2143 0.0000
# 3 31.3606 34.4806 116.3738 0.0000 9.1038 0.0000
# 4 0.0000 0.0000 0.0000 31.4057 0.0000 -2.6956
# 5 15.6011 9.2143 9.1038 0.0000 32.2972 0.0000
# 6 0.0000 0.0000 0.0000 -2.6956 0.0000 30.6409
#
#
#
# Elastic Compliance Matrix: (Units=1/GPa)
#
#
# Indices 1 2 3 4 5 6 
#
# 1 0.013553 -0.007436 -0.001128 0.000000 -0.004107 0.000000
# 2 -0.007436 0.018071 -0.003301 0.000000 -0.000633 0.000000
# 3 -0.001128 -0.003301 0.009979 0.000000 -0.001326 0.000000
# 4 0.000000 0.000000 0.000000 0.032084 0.000000 0.002823
# 5 -0.004107 -0.000633 -0.001326 0.000000 0.033501 0.000000
# 6 0.000000 0.000000 0.000000 0.002823 0.000000 0.032884
#
#
# Mechanical properties :
#
#
# Convention : Reuss Voigt Hill
#
# Bulk Modulus (GPa) = 55.94943 60.30653 58.12798
# Shear Modulus (GPa) = 29.45346 31.64025 30.54686
#
# Velocity S-wave (km/s) = 3.78357 3.92151 3.85316
# Velocity P-wave (km/s) = 6.80298 7.05801 6.93167
#
# Compressibility (1/GPa) = 0.01787328
#
# Stress axis : x y z
#
# Youngs Moduli (GPa) = 73.78468 55.33630 100.21378
#
# Poissons Ratio (x) = 0.41150 0.11301
# Poissons Ratio (y) = 0.54868 0.33080
# Poissons Ratio (z) = 0.08320 0.18266
#
# Static dielectric constant tensor:
#      x y z
#    x 4.287550 0.000000 0.603870 
#    y 0.000000 3.801500 0.000000 
#    z 0.603870 0.000000 5.012320 
# 
# 
# High freq. dielectric constant tensor:
#      x y z
#    x 1.816900 0.000000 -0.000850 
#    y 0.000000 1.813020 0.000000 
#    z -0.000850 0.000000 1.813550 
# 
# From -- ./inp_files/226738.got.cif
#   From: 2010.06.25/outbox.cif.g09.slc.cpg/sg12_114_cif.got.tgz:226738.got - 2010.06.28 00:19:55.
