data_PCOD8113140
_publ_section_title
;
Structure prediction by ZEFSAII (Michael W. Deem and Ramdas Pophale) SiO2 
 PCOD8113140
Probable space group: C 2/M
;
_chemical_formula_sum "Si O2"
_cell_formula_units_Z 48
_cell_length_a 29.016306
_cell_length_b 8.488413
_cell_length_c 16.140390
_cell_angle_alpha 90.000000
_cell_angle_beta 35.334899
_cell_angle_gamma 90.000000
_cell_volume 2299.200601
_symmetry_space_group_name_H-M "C 2/M"
_symmetry_group_IT_number 12
_symmetry_cell_setting 'monoclinic'
loop_
_space_group_symop_operation_xyz
x,y,z
-x,y,-z
-x,-y,-z
x,-y,z
1/2+x,1/2+y,z
1/2-x,1/2+y,-z
1/2-x,1/2-y,-z
1/2+x,1/2-y,z
loop_
_atom_site_type_symbol
_atom_site_label
_atom_site_fract_x
_atom_site_fract_y
_atom_site_fract_z
Si Si1 0.609789 0.816867 0.039990
Si Si2 0.953380 0.815720 0.341141
Si Si3 0.088830 0.173991 0.895310
Si Si4 0.920933 0.686284 0.566001
Si Si5 0.235589 0.683140 0.111124
Si Si6 0.662044 0.184534 0.629095
O O1 0.537293 0.773275 0.207076
O O2 0.628253 0.000000 0.023243
O O3 0.586248 0.774918 0.981966
O O4 0.689028 0.720326 0.942993
O O5 0.918173 0.772378 0.481906
O O6 0.890348 0.770386 0.363240
O O7 0.970268 0.000000 0.309585
O O8 0.131266 0.281108 0.765693
O O9 0.129822 0.000000 0.845644
O O10 0.000000 0.141332 0.000000
O O11 0.916768 0.500000 0.556637
O O12 0.844972 0.750622 0.728963
O O13 0.000000 0.734333 0.500000
O O14 0.223741 0.500000 0.118641
O O15 0.250000 0.750000 0.000000
O O16 0.750000 0.250000 0.500000
O O17 0.660056 0.000000 0.613434
#
# Coordination Sequence:
#
# PCOD8113140 Si02
#       6
#     8   8   8   8   8   8
#     4  12  25  42  67  96 132 175 223 270 326 391
#     4  12  25  43  67  97 132 171 220 272 329 390
#     4  11  23  42  68  97 132 171 220 273 327 385
#     4  10  23  44  69  97 131 171 214 264 327 393
#     4  11  24  43  69 100 135 170 215 269 328 390
#     4  12  26  44  67  95 133 176 221 270 327 389
#
# _framework density 20.876822000000001
#
# number of rings (size 3 to 8) (size 9 to 14) (size 15 to 20)
#    0.000    0.667    1.667    6.500    2.333    3.667 
#    0.000    0.000    0.000    0.000    0.000    0.000 
#    0.000    0.000    0.000    0.000    0.000    0.000 
#
# Total GULP energy -297717.247816 kJ/mol
# GULP energy per Si atom -12404.885326 kJ/mol
# Density = 2.082931 g / cm^3
# Si number density = 20.876822 Si / 1000 Ang^3
#
#
#
# Elastic Constant Matrix: (Units=GPa)
#
#
# Indices 1 2 3 4 5 6 
#
# 1 78.2590 15.3954 63.8526 0.0020 -6.4103 0.0000
# 2 15.3954 61.6040 23.3922 0.0032 10.8001 0.0021
# 3 63.8526 23.3922 159.8728 -0.0007 3.5164 0.0016
# 4 0.0020 0.0032 -0.0007 34.3699 0.0010 3.7782
# 5 -6.4103 10.8001 3.5164 0.0010 44.9205 -0.0012
# 6 0.0000 0.0021 0.0016 3.7782 -0.0012 36.7895
#
#
#
# Elastic Compliance Matrix: (Units=1/GPa)
#
#
# Indices 1 2 3 4 5 6 
#
# 1 0.019884 -0.002794 -0.007623 -0.000001 0.004106 0.000001
# 2 -0.002794 0.018307 -0.001459 -0.000001 -0.004686 -0.000001
# 3 -0.007623 -0.001459 0.009546 0.000001 -0.001484 0.000000
# 4 -0.000001 -0.000001 0.000001 0.029427 -0.000001 -0.003022
# 5 0.004106 -0.004686 -0.001484 -0.000001 0.024090 0.000001
# 6 0.000001 -0.000001 0.000000 -0.003022 0.000001 0.027492
#
#
# Mechanical properties :
#
#
# Convention : Reuss Voigt Hill
#
# Bulk Modulus (GPa) = 41.69683 56.11292 48.90487
# Shear Modulus (GPa) = 31.15379 36.35568 33.75473
#
# Velocity S-wave (km/s) = 3.86718 4.17758 4.02537
# Velocity P-wave (km/s) = 6.32109 7.08562 6.71425
#
# Compressibility (1/GPa) = 0.02398264
#
# Stress axis : x y z
#
# Youngs Moduli (GPa) = 50.29210 54.62461 104.75870
#
# Poissons Ratio (x) = 0.15265 0.79857
# Poissons Ratio (y) = 0.14054 0.15289
# Poissons Ratio (z) = 0.38338 0.07972
#
# Static dielectric constant tensor:
#      x y z
#    x 3.497230 0.000020 0.459310 
#    y 0.000020 3.949250 -0.000040 
#    z 0.459310 -0.000040 3.199630 
# 
# 
# High freq. dielectric constant tensor:
#      x y z
#    x 1.827290 0.000000 0.002030 
#    y 0.000000 1.827360 0.000000 
#    z 0.002030 0.000000 1.834140 
# 
# From -- ./inp_files/248791.got.cif
#   From: 2010.06.25/outbox.cif.g09.slc.cpg/sg12_125_cif.got.tgz:248791.got - 2010.06.28 00:19:55.
