data_PCOD8113166
_publ_section_title
;
Structure prediction by ZEFSAII (Michael W. Deem and Ramdas Pophale) SiO2 
 PCOD8113166
Probable space group: C 2/M
;
_chemical_formula_sum "Si O2"
_cell_formula_units_Z 48
_cell_length_a 19.751432
_cell_length_b 9.642997
_cell_length_c 30.250032
_cell_angle_alpha 90.000000
_cell_angle_beta 25.428764
_cell_angle_gamma 90.000000
_cell_volume 2473.927370
_symmetry_space_group_name_H-M "C 2/M"
_symmetry_group_IT_number 12
_symmetry_cell_setting 'monoclinic'
loop_
_space_group_symop_operation_xyz
x,y,z
-x,y,-z
-x,-y,-z
x,-y,z
1/2+x,1/2+y,z
1/2-x,1/2+y,-z
1/2-x,1/2-y,-z
1/2+x,1/2-y,z
loop_
_atom_site_type_symbol
_atom_site_label
_atom_site_fract_x
_atom_site_fract_y
_atom_site_fract_z
Si Si1 0.800465 0.329418 0.426155
Si Si2 0.376410 0.760516 0.804871
Si Si3 0.661645 0.840585 0.428882
Si Si4 0.845372 0.500000 0.060337
Si Si5 0.027710 0.500000 0.113664
Si Si6 0.134711 0.000000 0.049906
Si Si7 0.350611 0.500000 0.059205
Si Si8 0.041756 0.760018 0.798168
O O1 0.788169 0.500000 0.435769
O O2 0.750000 0.250000 0.500000
O O3 0.691694 0.269862 0.450428
O O4 0.978735 0.275951 0.314371
O O5 0.278575 0.620863 0.857980
O O6 0.442939 0.790050 0.814272
O O7 0.248413 0.870384 0.867727
O O8 0.500000 0.801628 0.500000
O O9 0.795721 0.829510 0.312471
O O10 0.659541 0.000000 0.448085
O O11 0.918083 0.500000 0.968702
O O12 0.000000 0.500000 0.000000
O O13 0.923785 0.633645 0.188378
O O14 0.178610 0.500000 0.056202
O O15 0.067020 0.134904 0.112130
O O16 0.088495 0.000000 0.026453
O O17 0.500000 0.500000 0.000000
#
# Coordination Sequence:
#
# PCOD8113166 Si02
#       8
#     8   8   8   4   4   4   4   8
#     4  11  25  45  72  99 126 173 225 272 330 402
#     4  11  22  42  66  91 126 167 216 265 319 389
#     4  10  23  45  68  97 135 166 212 280 340 387
#     4  12  26  42  61  94 136 174 211 262 332 378
#     4  12  22  38  63  92 128 162 217 260 300 394
#     4  12  20  38  63  90 120 162 217 248 304 382
#     4  12  24  40  59  92 132 168 205 264 322 376
#     4  11  21  38  66  95 117 168 214 259 313 377
#
# _framework density 19.402346999999999
#
# number of rings (size 3 to 8) (size 9 to 14) (size 15 to 20)
#    0.000    0.833    5.000    2.500    8.167    0.333 
#    6.000    0.000    0.000    0.000    0.000    0.000 
#    0.000    0.000    0.000    0.000    0.000    0.000 
#
# Total GULP energy -297459.239273 kJ/mol
# GULP energy per Si atom -12394.134970 kJ/mol
# Density = 1.935819 g / cm^3
# Si number density = 19.402347 Si / 1000 Ang^3
#
#
#
# Elastic Constant Matrix: (Units=GPa)
#
#
# Indices 1 2 3 4 5 6 
#
# 1 96.0968 39.6522 72.9193 0.0007 -0.3985 0.0003
# 2 39.6522 149.9921 50.7057 -0.0001 5.6469 -0.0015
# 3 72.9193 50.7057 116.8120 0.0090 1.4216 0.0005
# 4 0.0007 -0.0001 0.0090 40.7058 0.0007 2.5719
# 5 -0.3985 5.6469 1.4216 0.0007 40.8067 0.0010
# 6 0.0003 -0.0015 0.0005 2.5719 0.0010 28.8116
#
#
#
# Elastic Compliance Matrix: (Units=1/GPa)
#
#
# Indices 1 2 3 4 5 6 
#
# 1 0.019994 -0.001281 -0.011935 0.000002 0.000788 0.000000
# 2 -0.001281 0.007934 -0.002632 0.000001 -0.001019 0.000000
# 3 -0.011935 -0.002632 0.017158 -0.000004 -0.000350 0.000000
# 4 0.000002 0.000001 -0.000004 0.024706 0.000000 -0.002205
# 5 0.000788 -0.001019 -0.000350 0.000000 0.024667 -0.000001
# 6 0.000000 0.000000 0.000000 -0.002205 -0.000001 0.034905
#
#
# Mechanical properties :
#
#
# Convention : Reuss Voigt Hill
#
# Bulk Modulus (GPa) = 74.67986 76.60613 75.64300
# Shear Modulus (GPa) = 30.20739 35.37307 32.79023
#
# Velocity S-wave (km/s) = 3.95003 4.27445 4.11544
# Velocity P-wave (km/s) = 7.70567 7.99561 7.85198
#
# Compressibility (1/GPa) = 0.01339049
#
# Stress axis : x y z
#
# Youngs Moduli (GPa) = 50.01417 126.04456 58.28221
#
# Poissons Ratio (x) = 0.16143 0.69560
# Poissons Ratio (y) = 0.06405 0.15340
# Poissons Ratio (z) = 0.59692 0.33175
#
# Static dielectric constant tensor:
#      x y z
#    x 3.477050 -0.000010 0.123700 
#    y -0.000010 3.808400 -0.000010 
#    z 0.123700 -0.000010 3.853870 
# 
# 
# High freq. dielectric constant tensor:
#      x y z
#    x 1.741420 0.000000 0.006740 
#    y 0.000000 1.777320 0.000000 
#    z 0.006740 0.000000 1.766970 
# 
# From -- ./inp_files/377950.got.cif
#   From: 2010.06.25/outbox.cif.g09.slc.cpg/sg12_189_cif.got.tgz:377950.got - 2010.06.28 00:19:55.
