data_PCOD8113698
_publ_section_title
;
Structure prediction by ZEFSAII (Michael W. Deem and Ramdas Pophale) SiO2 
 PCOD8113698
Probable space group: C 2/M
;
_chemical_formula_sum "Si O2"
_cell_formula_units_Z 64
_cell_length_a 21.938208
_cell_length_b 16.632461
_cell_length_c 12.233616
_cell_angle_alpha 90.000000
_cell_angle_beta 45.428061
_cell_angle_gamma 90.000000
_cell_volume 3179.933479
_symmetry_space_group_name_H-M "C 2/M"
_symmetry_group_IT_number 12
_symmetry_cell_setting 'monoclinic'
loop_
_space_group_symop_operation_xyz
x,y,z
-x,y,-z
-x,-y,-z
x,-y,z
1/2+x,1/2+y,z
1/2-x,1/2+y,-z
1/2-x,1/2-y,-z
1/2+x,1/2-y,z
loop_
_atom_site_type_symbol
_atom_site_label
_atom_site_fract_x
_atom_site_fract_y
_atom_site_fract_z
Si Si1 0.386200 0.315772 0.202875
Si Si2 0.263453 0.180693 0.282739
Si Si3 0.234056 0.406132 0.507341
Si Si4 0.522599 0.732779 0.203295
Si Si5 0.695114 0.182633 0.005006
Si Si6 0.309107 0.909286 0.781566
Si Si7 0.622795 0.803836 0.489789
Si Si8 0.608746 0.408170 0.010339
O O1 0.337109 0.246674 0.199951
O O2 0.323694 0.367105 0.359019
O O3 0.458264 0.270489 0.182003
O O4 0.426979 0.375003 0.060287
O O5 0.278674 0.106626 0.346525
O O6 0.174886 0.221586 0.427650
O O7 0.256850 0.151866 0.164848
O O8 0.234180 0.500000 0.478569
O O9 0.155313 0.364336 0.543286
O O10 0.603492 0.788286 0.077771
O O11 0.474117 0.772534 0.368047
O O12 0.562766 0.642196 0.166667
O O13 0.680189 0.107462 0.103582
O O14 0.750000 0.250000 0.000000
O O15 0.368636 0.848822 0.637294
O O16 0.338030 0.000000 0.720264
O O17 0.210503 0.895313 0.874724
O O18 0.582959 0.500000 0.061400
#
# Coordination Sequence:
#
# PCOD8113698 Si02
#       8
#     8   8   8   8   8   8   8   8
#     4  11  19  36  61  96 129 162 206 260 319 385
#     4  11  20  39  64  87 126 168 213 246 315 399
#     4  11  21  36  61  94 132 167 203 256 325 388
#     4  12  23  36  63  95 129 165 206 267 320 381
#     4  12  23  43  64  88 121 173 220 259 311 388
#     4  11  23  44  70  94 123 167 225 272 315 375
#     4  11  20  39  63  95 125 168 208 260 320 383
#     4  11  22  37  64  99 133 167 206 267 330 377
#
# _framework density 20.126207999999998
#
# number of rings (size 3 to 8) (size 9 to 14) (size 15 to 20)
#    0.000    0.750    8.750    1.875    0.000    2.500 
#    0.000    1.875    0.000    0.750    0.000    3.500 
#    0.000    0.000    0.000    0.000    0.000    0.000 
#
# Total GULP energy -396615.880552 kJ/mol
# GULP energy per Si atom -12394.246267 kJ/mol
# Density = 2.008040 g / cm^3
# Si number density = 20.126208 Si / 1000 Ang^3
#
#
#
# Elastic Constant Matrix: (Units=GPa)
#
#
# Indices 1 2 3 4 5 6 
#
# 1 48.4865 21.3506 37.8071 0.0000 8.3676 0.0000
# 2 21.3506 85.4355 49.7031 0.0000 5.0987 0.0000
# 3 37.8071 49.7031 103.7429 0.0000 13.1637 0.0000
# 4 0.0000 0.0000 0.0000 30.0862 0.0000 2.7370
# 5 8.3676 5.0987 13.1637 0.0000 40.3889 0.0000
# 6 0.0000 0.0000 0.0000 2.7370 0.0000 26.5012
#
#
#
# Elastic Compliance Matrix: (Units=1/GPa)
#
#
# Indices 1 2 3 4 5 6 
#
# 1 0.029242 -0.001590 -0.009547 0.000000 -0.002746 0.000000
# 2 -0.001590 0.016324 -0.007325 0.000000 0.000656 0.000000
# 3 -0.009547 -0.007325 0.016961 0.000000 -0.002625 0.000000
# 4 0.000000 0.000000 0.000000 0.033553 0.000000 -0.003465
# 5 -0.002746 0.000656 -0.002625 0.000000 0.026101 0.000000
# 6 0.000000 0.000000 0.000000 -0.003465 0.000000 0.038092
#
#
# Mechanical properties :
#
#
# Convention : Reuss Voigt Hill
#
# Bulk Modulus (GPa) = 39.05550 50.59849 44.82700
# Shear Modulus (GPa) = 24.30362 27.98218 26.14290
#
# Velocity S-wave (km/s) = 3.47877 3.73277 3.60800
# Velocity P-wave (km/s) = 5.96516 6.61613 6.29906
#
# Compressibility (1/GPa) = 0.02560459
#
# Stress axis : x y z
#
# Youngs Moduli (GPa) = 34.19710 61.25888 58.96006
#
# Poissons Ratio (x) = 0.09740 0.56286
# Poissons Ratio (y) = 0.05437 0.43186
# Poissons Ratio (z) = 0.32646 0.44870
#
# Static dielectric constant tensor:
#      x y z
#    x 3.646510 0.000000 -0.009080 
#    y 0.000000 3.564350 0.000000 
#    z -0.009080 0.000000 3.835920 
# 
# 
# High freq. dielectric constant tensor:
#      x y z
#    x 1.776880 0.000000 0.001370 
#    y 0.000000 1.766060 0.000000 
#    z 0.001370 0.000000 1.787780 
# 
# From -- ./inp_files/168758.got.cif
#   From: 2010.06.25/outbox.cif.g09.slc.cpg/sg12_85_cif.got.tgz:168758.got - 2010.06.28 00:19:55.
