data_PCOD8113693
_publ_section_title
;
Structure prediction by ZEFSAII (Michael W. Deem and Ramdas Pophale) SiO2 
 PCOD8113693
Probable space group: C 2/M
;
_chemical_formula_sum "Si O2"
_cell_formula_units_Z 64
_cell_length_a 24.717548
_cell_length_b 18.280698
_cell_length_c 15.305728
_cell_angle_alpha 90.000000
_cell_angle_beta 149.919228
_cell_angle_gamma 90.000000
_cell_volume 3466.417473
_symmetry_space_group_name_H-M "C 2/M"
_symmetry_group_IT_number 12
_symmetry_cell_setting 'monoclinic'
loop_
_space_group_symop_operation_xyz
x,y,z
-x,y,-z
-x,-y,-z
x,-y,z
1/2+x,1/2+y,z
1/2-x,1/2+y,-z
1/2-x,1/2-y,-z
1/2+x,1/2-y,z
loop_
_atom_site_type_symbol
_atom_site_label
_atom_site_fract_x
_atom_site_fract_y
_atom_site_fract_z
Si Si1 0.563800 0.083775 0.221743
Si Si2 0.463930 0.166522 0.647992
Si Si3 0.134548 0.866795 0.633806
Si Si4 0.324566 0.208753 0.295254
Si Si5 0.085836 0.918260 0.746251
Si Si6 0.665415 0.916628 0.184212
Si Si7 0.156242 0.778511 0.934385
Si Si8 0.409468 0.921418 0.304166
O O1 0.587405 0.139903 0.333037
O O2 0.641286 0.106829 0.250064
O O3 0.587857 0.000000 0.282736
O O4 0.440216 0.092231 0.021593
O O5 0.358815 0.181259 0.439170
O O6 0.542065 0.236583 0.766941
O O7 0.536643 0.100449 0.712447
O O8 0.107046 0.783222 0.624110
O O9 0.150478 0.912726 0.744745
O O10 0.241729 0.865392 0.724893
O O11 0.039143 0.900264 0.443751
O O12 0.343787 0.147949 0.247167
O O13 0.199036 0.227630 0.095839
O O14 0.135698 0.863855 0.886492
O O15 0.097588 0.000000 0.799823
O O16 0.706178 0.000000 0.238518
O O17 0.250000 0.750000 0.000000
O O18 0.500000 0.937538 0.500000
O O19 0.346322 0.000000 0.203070
#
# Coordination Sequence:
#
# PCOD8113693 Si02
#       8
#     8   8   8   8   8   8   8   8
#     4   9  19  34  55  85 113 140 183 232 284 341
#     4  11  20  36  54  75 108 147 184 225 277 335
#     4  11  19  36  57  81 111 148 187 231 288 336
#     4  11  22  34  54  76 108 151 185 226 277 338
#     4  11  23  35  54  85 114 146 193 234 272 340
#     4   9  18  34  56  84 114 140 176 235 292 335
#     4  12  22  36  53  79 111 153 188 228 285 331
#     4   9  18  30  47  74 107 142 180 218 263 326
#
# _framework density 18.462865000000001
#
# number of rings (size 3 to 8) (size 9 to 14) (size 15 to 20)
#    0.000    1.625    3.750    3.375    3.500    1.000 
#    0.000    0.625    0.000    0.000    0.000    0.000 
#    0.000    3.000    0.000    0.125    0.000    0.000 
#
# Total GULP energy -396436.790992 kJ/mol
# GULP energy per Si atom -12388.649719 kJ/mol
# Density = 1.842084 g / cm^3
# Si number density = 18.462865 Si / 1000 Ang^3
#
#
#
# Elastic Constant Matrix: (Units=GPa)
#
#
# Indices 1 2 3 4 5 6 
#
# 1 84.4483 30.9211 45.3026 0.0000 1.1932 0.0000
# 2 30.9211 129.0199 31.6480 0.0000 -4.7829 0.0000
# 3 45.3026 31.6480 94.2387 0.0000 -18.8428 0.0000
# 4 0.0000 0.0000 0.0000 25.8289 0.0000 -6.2166
# 5 1.1932 -4.7829 -18.8428 0.0000 26.6577 0.0000
# 6 0.0000 0.0000 0.0000 -6.2166 0.0000 21.1619
#
#
#
# Elastic Compliance Matrix: (Units=1/GPa)
#
#
# Indices 1 2 3 4 5 6 
#
# 1 0.017802 -0.002260 -0.009363 0.000000 -0.007820 0.000000
# 2 -0.002260 0.008741 -0.001765 0.000000 0.000422 0.000000
# 3 -0.009363 -0.001765 0.018314 0.000000 0.013047 0.000000
# 4 0.000000 0.000000 0.000000 0.041662 0.000000 0.012239
# 5 -0.007820 0.000422 0.013047 0.000000 0.047161 0.000000
# 6 0.000000 0.000000 0.000000 0.012239 0.000000 0.050850
#
#
# Mechanical properties :
#
#
# Convention : Reuss Voigt Hill
#
# Bulk Modulus (GPa) = 55.30253 58.16115 56.73184
# Shear Modulus (GPa) = 23.00639 28.05203 25.52921
#
# Velocity S-wave (km/s) = 3.53383 3.90215 3.72255
# Velocity P-wave (km/s) = 6.83147 7.20225 7.01931
#
# Compressibility (1/GPa) = 0.01808236
#
# Stress axis : x y z
#
# Youngs Moduli (GPa) = 56.17319 114.40536 54.60434
#
# Poissons Ratio (x) = 0.25853 0.51124
# Poissons Ratio (y) = 0.12694 0.09636
# Poissons Ratio (z) = 0.52593 0.20189
#
# Static dielectric constant tensor:
#      x y z
#    x 3.080210 0.000000 -0.113100 
#    y 0.000000 3.942250 0.000000 
#    z -0.113100 0.000000 3.475880 
# 
# 
# High freq. dielectric constant tensor:
#      x y z
#    x 1.670310 0.000000 -0.015630 
#    y 0.000000 1.729130 0.000000 
#    z -0.015630 0.000000 1.715100 
# 
# From -- ./inp_files/241517.got.cif
#   From: 2010.06.25/outbox.cif.g09.slc.cpg/sg12_121_cif.got.tgz:241517.got - 2010.06.28 00:19:55.
