data_PCOD8113519
_publ_section_title
;
Structure prediction by ZEFSAII (Michael W. Deem and Ramdas Pophale) SiO2 
 PCOD8113519
Probable space group: C 2/M
;
_chemical_formula_sum "Si O2"
_cell_formula_units_Z 48
_cell_length_a 17.507731
_cell_length_b 22.910231
_cell_length_c 6.821401
_cell_angle_alpha 90.000000
_cell_angle_beta 121.442311
_cell_angle_gamma 90.000000
_cell_volume 2334.352085
_symmetry_space_group_name_H-M "C 2/M"
_symmetry_group_IT_number 12
_symmetry_cell_setting 'monoclinic'
loop_
_space_group_symop_operation_xyz
x,y,z
-x,y,-z
-x,-y,-z
x,-y,z
1/2+x,1/2+y,z
1/2-x,1/2+y,-z
1/2-x,1/2-y,-z
1/2+x,1/2-y,z
loop_
_atom_site_type_symbol
_atom_site_label
_atom_site_fract_x
_atom_site_fract_y
_atom_site_fract_z
Si Si1 0.898246 0.500000 0.428529
Si Si2 0.203429 0.221552 0.751582
Si Si3 0.638363 0.210318 0.324776
Si Si4 0.593816 0.918438 0.212913
Si Si5 0.206726 0.500000 0.112450
Si Si6 0.000000 0.800655 0.000000
Si Si7 0.074173 0.125454 0.753574
Si Si8 0.096861 0.000000 0.733916
O O1 0.883733 0.443059 0.542576
O O2 0.000000 0.500000 0.500000
O O3 0.825918 0.500000 0.157416
O O4 0.268419 0.200783 0.663723
O O5 0.145028 0.272129 0.564955
O O6 0.149866 0.165337 0.754820
O O7 0.250000 0.250000 0.000000
O O8 0.585617 0.150500 0.230677
O O9 0.586729 0.261851 0.148255
O O10 0.669932 0.940991 0.165726
O O11 0.500000 0.941497 0.000000
O O12 0.314329 0.500000 0.285339
O O13 0.022850 0.841472 0.852488
O O14 0.000000 0.109091 0.500000
O O15 0.108743 0.061120 0.872701
O O16 0.000000 0.000000 0.500000
#
# Coordination Sequence:
#
# PCOD8113519 Si02
#       8
#     4   8   8   8   4   4   8   4
#     4  11  21  41  61  95 135 182 209 263 327 407
#     4  11  23  42  64  94 137 170 214 270 332 401
#     4  11  24  39  63  99 127 174 214 266 333 405
#     4  11  22  39  66  97 137 172 220 270 337 408
#     4  11  22  45  67  94 136 177 219 287 329 404
#     4  12  22  41  66  91 132 166 214 270 330 386
#     4  11  23  44  66  93 128 171 219 279 329 390
#     4  10  25  46  71  94 121 177 237 283 341 379
#
# _framework density 20.562452
#
# number of rings (size 3 to 8) (size 9 to 14) (size 15 to 20)
#    0.000    1.000    5.833    1.500    0.000    3.000 
#    3.000    3.333    0.000    0.000    0.000    0.000 
#    0.000    0.000    0.000    0.000    0.000    0.000 
#
# Total GULP energy -297384.000368 kJ/mol
# GULP energy per Si atom -12391.000015 kJ/mol
# Density = 2.051565 g / cm^3
# Si number density = 20.562452 Si / 1000 Ang^3
#
#
#
# Elastic Constant Matrix: (Units=GPa)
#
#
# Indices 1 2 3 4 5 6 
#
# 1 105.1494 36.7310 14.5002 0.0000 4.4021 0.0000
# 2 36.7310 168.4166 31.5527 0.0000 -8.7450 0.0000
# 3 14.5002 31.5527 99.1720 0.0000 -3.0472 0.0000
# 4 0.0000 0.0000 0.0000 14.9473 0.0000 -0.4873
# 5 4.4021 -8.7450 -3.0472 0.0000 33.0646 0.0000
# 6 0.0000 0.0000 0.0000 -0.4873 0.0000 34.3240
#
#
#
# Elastic Compliance Matrix: (Units=1/GPa)
#
#
# Indices 1 2 3 4 5 6 
#
# 1 0.010499 -0.002231 -0.000889 0.000000 -0.002070 0.000000
# 2 -0.002231 0.006862 -0.001797 0.000000 0.001946 0.000000
# 3 -0.000889 -0.001797 0.010805 0.000000 0.000639 0.000000
# 4 0.000000 0.000000 0.000000 0.066933 0.000000 0.000950
# 5 -0.002070 0.001946 0.000639 0.000000 0.031093 0.000000
# 6 0.000000 0.000000 0.000000 0.000950 0.000000 0.029148
#
#
# Mechanical properties :
#
#
# Convention : Reuss Voigt Hill
#
# Bulk Modulus (GPa) = 54.54977 59.81176 57.18076
# Shear Modulus (GPa) = 29.19141 35.79745 32.49443
#
# Velocity S-wave (km/s) = 3.77191 4.17695 3.97959
# Velocity P-wave (km/s) = 6.74953 7.23972 6.99892
#
# Compressibility (1/GPa) = 0.01833188
#
# Stress axis : x y z
#
# Youngs Moduli (GPa) = 95.24964 145.73172 92.55058
#
# Poissons Ratio (x) = 0.32508 0.08227
# Poissons Ratio (y) = 0.21247 0.16634
# Poissons Ratio (z) = 0.08467 0.26192
#
# Static dielectric constant tensor:
#      x y z
#    x 3.525060 0.000000 0.207990 
#    y 0.000000 3.778880 0.000000 
#    z 0.207990 0.000000 3.591010 
# 
# 
# High freq. dielectric constant tensor:
#      x y z
#    x 1.807920 0.000000 0.003390 
#    y 0.000000 1.821720 0.000000 
#    z 0.003390 0.000000 1.794800 
# 
# From -- ./inp_files/16990.got.cif
#   From: 2010.06.25/outbox.cif.g09.slc.cpg/sg12_9_cif.got.tgz:16990.got - 2010.06.28 00:19:55.
