data_PCOD8113004
_publ_section_title
;
Structure prediction by ZEFSAII (Michael W. Deem and Ramdas Pophale) SiO2 
 PCOD8113004
Probable space group: C 2/M
;
_chemical_formula_sum "Si O2"
_cell_formula_units_Z 48
_cell_length_a 23.987628
_cell_length_b 17.648550
_cell_length_c 11.196508
_cell_angle_alpha 90.000000
_cell_angle_beta 152.144180
_cell_angle_gamma 90.000000
_cell_volume 2214.759540
_symmetry_space_group_name_H-M "C 2/M"
_symmetry_group_IT_number 12
_symmetry_cell_setting 'monoclinic'
loop_
_space_group_symop_operation_xyz
x,y,z
-x,y,-z
-x,-y,-z
x,-y,z
1/2+x,1/2+y,z
1/2-x,1/2+y,-z
1/2-x,1/2-y,-z
1/2+x,1/2-y,z
loop_
_atom_site_type_symbol
_atom_site_label
_atom_site_fract_x
_atom_site_fract_y
_atom_site_fract_z
Si Si1 0.049414 0.826139 0.831383
Si Si2 0.347053 0.588930 0.577340
Si Si3 0.263513 0.685404 0.621793
Si Si4 0.324861 0.913303 0.952045
Si Si5 0.067681 0.326056 0.432961
Si Si6 0.259345 0.411584 0.949084
O O1 0.971347 0.875842 0.772883
O O2 0.970642 0.761535 0.616395
O O3 0.150252 0.788137 0.107092
O O4 0.113572 0.880149 0.855905
O O5 0.360800 0.500000 0.596081
O O6 0.314172 0.611458 0.650384
O O7 0.245553 0.619923 0.294771
O O8 0.250000 0.750000 0.500000
O O9 0.134234 0.666824 0.431878
O O10 0.449019 0.873497 0.204330
O O11 0.240799 0.903160 0.908660
O O12 0.355592 0.000000 0.987562
O O13 0.151104 0.359791 0.694914
O O14 0.243332 0.500000 0.880455
#
# Coordination Sequence:
#
# PCOD8113004 Si02
#       6
#     8   8   8   8   8   8
#     4  11  24  40  65  96 129 166 211 271 323 384
#     4  11  24  41  64  95 128 171 219 260 318 394
#     4  11  23  41  63  89 128 171 206 263 329 380
#     4  10  23  43  65  91 131 172 213 268 323 383
#     4  11  23  39  67  96 127 165 218 269 323 385
#     4  10  23  45  68  93 130 175 219 267 326 388
#
# _framework density 21.672782000000002
#
# number of rings (size 3 to 8) (size 9 to 14) (size 15 to 20)
#    0.000    1.333    1.667    3.000    2.333    9.333 
#    3.000    4.167    0.000    0.000    0.000    0.000 
#    0.000    0.000    0.000    0.000    0.000    0.000 
#
# Total GULP energy -297630.894426 kJ/mol
# GULP energy per Si atom -12401.287268 kJ/mol
# Density = 2.162345 g / cm^3
# Si number density = 21.672782 Si / 1000 Ang^3
#
#
#
# Elastic Constant Matrix: (Units=GPa)
#
#
# Indices 1 2 3 4 5 6 
#
# 1 91.9759 28.9317 19.8609 0.0000 21.6726 0.0000
# 2 28.9317 95.4503 35.5458 0.0000 5.9099 0.0000
# 3 19.8609 35.5458 42.9432 0.0000 15.6129 0.0000
# 4 0.0000 0.0000 0.0000 33.5199 0.0000 4.9906
# 5 21.6726 5.9099 15.6129 0.0000 39.8629 0.0000
# 6 0.0000 0.0000 0.0000 4.9906 0.0000 39.2255
#
#
#
# Elastic Compliance Matrix: (Units=1/GPa)
#
#
# Indices 1 2 3 4 5 6 
#
# 1 0.013702 -0.003279 -0.001272 0.000000 -0.006465 0.000000
# 2 -0.003279 0.016267 -0.013666 0.000000 0.004723 0.000000
# 3 -0.001272 -0.013666 0.039877 0.000000 -0.012901 0.000000
# 4 0.000000 0.000000 0.000000 0.030409 0.000000 -0.003869
# 5 -0.006465 0.004723 -0.012901 0.000000 0.032953 0.000000
# 6 0.000000 0.000000 0.000000 -0.003869 0.000000 0.025986
#
#
# Mechanical properties :
#
#
# Convention : Reuss Voigt Hill
#
# Bulk Modulus (GPa) = 29.92956 44.33847 37.13402
# Shear Modulus (GPa) = 24.18188 32.25705 28.21947
#
# Velocity S-wave (km/s) = 3.34394 3.86212 3.61233
# Velocity P-wave (km/s) = 5.36181 6.35535 5.87960
#
# Compressibility (1/GPa) = 0.03341178
#
# Stress axis : x y z
#
# Youngs Moduli (GPa) = 72.98215 61.47308 25.07707
#
# Poissons Ratio (x) = 0.20157 0.03191
# Poissons Ratio (y) = 0.23931 0.34270
# Poissons Ratio (z) = 0.09286 0.84008
#
# Static dielectric constant tensor:
#      x y z
#    x 4.463990 0.000000 -0.029620 
#    y 0.000000 3.453790 0.000000 
#    z -0.029620 0.000000 3.995450 
# 
# 
# High freq. dielectric constant tensor:
#      x y z
#    x 1.861070 0.000000 0.008870 
#    y 0.000000 1.857240 0.000000 
#    z 0.008870 0.000000 1.854000 
# 
# From -- ./inp_files/177426.got.cif
#   From: 2010.06.25/outbox.cif.g09.slc.cpg/sg12_89_cif.got.tgz:177426.got - 2010.06.28 00:19:55.
