data_PCOD8113602
_publ_section_title
;
Structure prediction by ZEFSAII (Michael W. Deem and Ramdas Pophale) SiO2 
 PCOD8113602
Probable space group: C 2/M
;
_chemical_formula_sum "Si O2"
_cell_formula_units_Z 52
_cell_length_a 14.256443
_cell_length_b 17.744975
_cell_length_c 16.939776
_cell_angle_alpha 90.000000
_cell_angle_beta 138.512503
_cell_angle_gamma 90.000000
_cell_volume 2838.910271
_symmetry_space_group_name_H-M "C 2/M"
_symmetry_group_IT_number 12
_symmetry_cell_setting 'monoclinic'
loop_
_space_group_symop_operation_xyz
x,y,z
-x,y,-z
-x,-y,-z
x,-y,z
1/2+x,1/2+y,z
1/2-x,1/2+y,-z
1/2-x,1/2-y,-z
1/2+x,1/2-y,z
loop_
_atom_site_type_symbol
_atom_site_label
_atom_site_fract_x
_atom_site_fract_y
_atom_site_fract_z
Si Si1 0.673716 0.171601 0.475717
Si Si2 0.879075 0.086779 0.988618
Si Si3 0.722303 0.235852 0.662067
Si Si4 0.031289 0.195745 0.815382
Si Si5 0.000000 0.138411 0.500000
Si Si6 0.635653 0.817837 0.777140
Si Si7 0.565947 0.416721 0.378173
O O1 0.750000 0.250000 0.500000
O O2 0.657222 0.172893 0.561107
O O3 0.526112 0.159531 0.339123
O O4 0.766964 0.100195 0.509326
O O5 0.727430 0.108591 0.855950
O O6 0.874039 0.000000 0.014150
O O7 0.906628 0.143100 0.077765
O O8 0.000000 0.098116 0.000000
O O9 0.644420 0.313095 0.589555
O O10 0.696814 0.218276 0.736672
O O11 0.891349 0.240021 0.756012
O O12 0.143384 0.258112 0.854812
O O13 0.002488 0.144138 0.721850
O O14 0.995008 0.086993 0.419432
O O15 0.543070 0.500000 0.328972
#
# Coordination Sequence:
#
# PCOD8113602 Si02
#       7
#     8   8   8   8   4   8   8
#     4  11  18  35  56  84 117 148 186 237 286 341
#     4  11  25  41  57  82 119 156 197 250 292 332
#     4  11  18  32  59  87 112 144 192 239 284 337
#     4  11  21  39  60  85 111 152 199 241 281 339
#     4  12  17  34  54  88 123 146 184 240 289 348
#     4  12  20  37  63  85 110 153 199 234 291 347
#     4  11  22  33  55  87 121 154 184 230 295 354
#
# _framework density 18.316887999999999
#
# number of rings (size 3 to 8) (size 9 to 14) (size 15 to 20)
#    0.000    0.769    9.231    1.154    0.000    0.615 
#    0.000    0.000    0.000    2.769    0.000    1.077 
#    0.000    0.000    0.000    0.000    0.000    0.000 
#
# Total GULP energy -322295.654118 kJ/mol
# GULP energy per Si atom -12395.986697 kJ/mol
# Density = 1.827520 g / cm^3
# Si number density = 18.316888 Si / 1000 Ang^3
#
#
#
# Elastic Constant Matrix: (Units=GPa)
#
#
# Indices 1 2 3 4 5 6 
#
# 1 91.3345 29.5048 31.1674 0.0000 -5.2965 0.0000
# 2 29.5048 74.5802 21.4112 0.0000 9.7948 0.0000
# 3 31.1674 21.4112 85.1954 -0.0004 6.9601 -0.0001
# 4 0.0000 0.0000 -0.0004 7.6130 -0.0003 -6.5344
# 5 -5.2965 9.7948 6.9601 -0.0003 30.3173 -0.0001
# 6 0.0000 0.0000 -0.0001 -6.5344 -0.0001 14.8629
#
#
#
# Elastic Compliance Matrix: (Units=1/GPa)
#
#
# Indices 1 2 3 4 5 6 
#
# 1 0.014405 -0.005114 -0.004408 0.000000 0.005181 0.000000
# 2 -0.005114 0.016736 -0.001855 0.000000 -0.005874 0.000000
# 3 -0.004408 -0.001855 0.014095 0.000001 -0.003407 0.000001
# 4 0.000000 0.000000 0.000001 0.210964 0.000002 0.092750
# 5 0.005181 -0.005874 -0.003407 0.000002 0.036570 0.000001
# 6 0.000000 0.000000 0.000001 0.092750 0.000001 0.108059
#
#
# Mechanical properties :
#
#
# Convention : Reuss Voigt Hill
#
# Bulk Modulus (GPa) = 44.48075 46.14190 45.31132
# Shear Modulus (GPa) = 11.59888 21.82708 16.71298
#
# Velocity S-wave (km/s) = 2.51915 3.45575 3.02393
# Velocity P-wave (km/s) = 5.72697 6.41627 6.08140
#
# Compressibility (1/GPa) = 0.02248164
#
# Stress axis : x y z
#
# Youngs Moduli (GPa) = 69.41840 59.75284 70.94773
#
# Poissons Ratio (x) = 0.30557 0.31274
# Poissons Ratio (y) = 0.35500 0.13163
# Poissons Ratio (z) = 0.30600 0.11086
#
# Static dielectric constant tensor:
#      x y z
#    x 3.663500 0.000000 -0.082640 
#    y 0.000000 3.210350 0.000000 
#    z -0.082640 0.000000 3.461490 
# 
# 
# High freq. dielectric constant tensor:
#      x y z
#    x 1.727230 0.000000 -0.010040 
#    y 0.000000 1.684980 0.000000 
#    z -0.010040 0.000000 1.705810 
# 
# From -- ./inp_files/271218.got.cif
#   From: 2010.06.25/outbox.cif.g09.slc.cpg/sg12_136_cif.got.tgz:271218.got - 2010.06.28 00:19:55.
