data_PCOD8113106
_publ_section_title
;
Structure prediction by ZEFSAII (Michael W. Deem and Ramdas Pophale) SiO2 
 PCOD8113106
Probable space group: C 2/M
;
_chemical_formula_sum "Si O2"
_cell_formula_units_Z 40
_cell_length_a 17.899668
_cell_length_b 24.691567
_cell_length_c 9.207022
_cell_angle_alpha 90.000000
_cell_angle_beta 151.942601
_cell_angle_gamma 90.000000
_cell_volume 1913.988717
_symmetry_space_group_name_H-M "C 2/M"
_symmetry_group_IT_number 12
_symmetry_cell_setting 'monoclinic'
loop_
_space_group_symop_operation_xyz
x,y,z
-x,y,-z
-x,-y,-z
x,-y,z
1/2+x,1/2+y,z
1/2-x,1/2+y,-z
1/2-x,1/2-y,-z
1/2+x,1/2-y,z
loop_
_atom_site_type_symbol
_atom_site_label
_atom_site_fract_x
_atom_site_fract_y
_atom_site_fract_z
Si Si1 0.047092 0.638343 0.239492
Si Si2 0.328750 0.436912 0.778996
Si Si3 0.907435 0.148090 0.123023
Si Si4 0.231594 0.161574 0.812323
Si Si5 0.257763 0.269519 0.679203
O O1 0.175633 0.590147 0.436636
O O2 0.112204 0.688561 0.445794
O O3 0.000000 0.660332 0.000000
O O4 0.884274 0.622853 0.044441
O O5 0.294008 0.500000 0.732735
O O6 0.500000 0.424923 0.000000
O O7 0.335548 0.409300 0.948245
O O8 0.798672 0.168697 0.068923
O O9 0.084122 0.134256 0.477686
O O10 0.907942 0.193222 0.992506
O O11 0.250387 0.221024 0.778311
O O12 0.250000 0.250000 0.500000
#
# Coordination Sequence:
#
# PCOD8113106 Si02
#       5
#     8   8   8   8   8
#     4  11  22  38  63  93 125 162 215 256 306 376
#     4  10  23  44  68  90 119 161 210 271 329 374
#     4  10  24  40  61  90 130 168 212 254 315 375
#     4  11  22  39  59  93 132 170 202 255 308 372
#     4  11  22  36  60  92 132 170 209 251 305 373
#
# _framework density 20.898765999999998
#
# number of rings (size 3 to 8) (size 9 to 14) (size 15 to 20)
#    0.000    1.400    2.000    3.000    2.800    5.200 
#    0.000    5.000    0.000    0.000    0.000    0.000 
#    0.000    0.000    0.000    0.000    0.000    0.000 
#
# Total GULP energy -247771.055097 kJ/mol
# GULP energy per Si atom -12388.552755 kJ/mol
# Density = 2.085120 g / cm^3
# Si number density = 20.898766 Si / 1000 Ang^3
#
#
#
# Elastic Constant Matrix: (Units=GPa)
#
#
# Indices 1 2 3 4 5 6 
#
# 1 110.6426 47.1790 56.8204 0.0000 6.7217 0.0000
# 2 47.1790 110.0671 45.3187 0.0000 -0.0273 0.0000
# 3 56.8204 45.3187 118.8390 0.0000 6.2910 0.0000
# 4 0.0000 0.0000 0.0000 17.1348 0.0000 1.5181
# 5 6.7217 -0.0273 6.2910 0.0000 40.8970 0.0000
# 6 0.0000 0.0000 0.0000 1.5181 0.0000 26.5314
#
#
#
# Elastic Compliance Matrix: (Units=1/GPa)
#
#
# Indices 1 2 3 4 5 6 
#
# 1 0.013160 -0.003656 -0.004823 0.000000 -0.001424 0.000000
# 2 -0.003656 0.011810 -0.002811 0.000000 0.001041 0.000000
# 3 -0.004823 -0.002811 0.011847 0.000000 -0.001032 0.000000
# 4 0.000000 0.000000 0.000000 0.058658 0.000000 -0.003356
# 5 -0.001424 0.001041 -0.001032 0.000000 0.024845 0.000000
# 6 0.000000 0.000000 0.000000 -0.003356 0.000000 0.037883
#
#
# Mechanical properties :
#
#
# Convention : Reuss Voigt Hill
#
# Bulk Modulus (GPa) = 70.23168 70.90943 70.57055
# Shear Modulus (GPa) = 26.95000 29.59466 28.27233
#
# Velocity S-wave (km/s) = 3.59493 3.76719 3.68206
# Velocity P-wave (km/s) = 7.13512 7.27502 7.20541
#
# Compressibility (1/GPa) = 0.01423859
#
# Stress axis : x y z
#
# Youngs Moduli (GPa) = 75.98714 84.67471 84.40784
#
# Poissons Ratio (x) = 0.30953 0.40709
# Poissons Ratio (y) = 0.27777 0.23727
# Poissons Ratio (z) = 0.36648 0.23802
#
# Static dielectric constant tensor:
#      x y z
#    x 3.810860 0.000000 0.018820 
#    y 0.000000 3.512590 0.000000 
#    z 0.018820 0.000000 4.373730 
# 
# 
# High freq. dielectric constant tensor:
#      x y z
#    x 1.806060 0.000000 -0.001640 
#    y 0.000000 1.785870 0.000000 
#    z -0.001640 0.000000 1.848370 
# 
# From -- ./inp_files/79318.got.cif
#   From: 2010.06.25/outbox.cif.g09.slc.cpg/sg12_40_cif.got.tgz:79318.got - 2010.06.28 00:19:55.
