data_PCOD8113361
_publ_section_title
;
Structure prediction by ZEFSAII (Michael W. Deem and Ramdas Pophale) SiO2 
 PCOD8113361
Probable space group: C 2/M
;
_chemical_formula_sum "Si O2"
_cell_formula_units_Z 32
_cell_length_a 9.309346
_cell_length_b 21.544522
_cell_length_c 8.823480
_cell_angle_alpha 90.000000
_cell_angle_beta 124.131862
_cell_angle_gamma 90.000000
_cell_volume 1464.853894
_symmetry_space_group_name_H-M "C 2/M"
_symmetry_group_IT_number 12
_symmetry_cell_setting 'monoclinic'
loop_
_space_group_symop_operation_xyz
x,y,z
-x,y,-z
-x,-y,-z
x,-y,z
1/2+x,1/2+y,z
1/2-x,1/2+y,-z
1/2-x,1/2-y,-z
1/2+x,1/2-y,z
loop_
_atom_site_type_symbol
_atom_site_label
_atom_site_fract_x
_atom_site_fract_y
_atom_site_fract_z
Si Si1 0.846044 0.829802 0.632340
Si Si2 0.500000 0.610072 0.000000
Si Si3 0.500000 0.767089 0.500000
Si Si4 0.182035 0.569048 0.967241
Si Si5 0.805365 0.573744 0.690084
O O1 0.980340 0.849344 0.839604
O O2 0.671835 0.809247 0.620080
O O3 0.808565 0.886253 0.494015
O O4 0.952356 0.774481 0.617010
O O5 0.329140 0.569002 0.926043
O O6 0.122145 0.500000 0.969380
O O7 0.249059 0.594110 0.170525
O O8 0.005277 0.598291 0.794307
O O9 0.776060 0.500000 0.637367
#
# Coordination Sequence:
#
# PCOD8113361 Si02
#       5
#     8   4   4   8   8
#     4  11  23  41  61  86 116 153 195 239 289 341
#     4  12  23  34  56  88 120 148 191 244 286 336
#     4  10  24  44  62  78 112 156 200 242 284 342
#     4   9  19  35  57  88 122 154 187 230 287 348
#     4   9  19  39  64  86 116 156 192 231 288 350
#
# _framework density 21.845179999999999
#
# number of rings (size 3 to 8) (size 9 to 14) (size 15 to 20)
#    0.000    2.000    0.000    4.875    0.000    3.000 
#    0.000   16.250    0.000    0.000    0.000    0.000 
#    0.000    0.000    0.000    0.000    0.000    0.000 
#
# Total GULP energy -198216.301035 kJ/mol
# GULP energy per Si atom -12388.518815 kJ/mol
# Density = 2.179546 g / cm^3
# Si number density = 21.845180 Si / 1000 Ang^3
#
#
#
# Elastic Constant Matrix: (Units=GPa)
#
#
# Indices 1 2 3 4 5 6 
#
# 1 122.4351 2.4283 -14.9367 0.0000 0.8351 0.0000
# 2 2.4283 61.4970 17.4756 0.0000 -2.7120 0.0000
# 3 -14.9367 17.4756 99.9236 0.0000 -13.1699 0.0000
# 4 0.0000 0.0000 0.0000 5.8682 0.0000 -2.8639
# 5 0.8351 -2.7120 -13.1699 0.0000 17.8561 0.0000
# 6 0.0000 0.0000 0.0000 -2.8639 0.0000 27.9114
#
#
#
# Elastic Compliance Matrix: (Units=1/GPa)
#
#
# Indices 1 2 3 4 5 6 
#
# 1 0.008355 -0.000717 0.001449 0.000000 0.000569 0.000000
# 2 -0.000717 0.017176 -0.003060 0.000000 0.000385 0.000000
# 3 0.001449 -0.003060 0.011840 0.000000 0.008200 0.000000
# 4 0.000000 0.000000 0.000000 0.179392 0.000000 0.018407
# 5 0.000569 0.000385 0.008200 0.000000 0.062083 0.000000
# 6 0.000000 0.000000 0.000000 0.018407 0.000000 0.037716
#
#
# Mechanical properties :
#
#
# Convention : Reuss Voigt Hill
#
# Bulk Modulus (GPa) = 30.56645 32.64337 31.60491
# Shear Modulus (GPa) = 15.05467 28.91970 21.98718
#
# Velocity S-wave (km/s) = 2.62802 3.64242 3.17598
# Velocity P-wave (km/s) = 4.81989 5.71534 5.28661
#
# Compressibility (1/GPa) = 0.03271561
#
# Stress axis : x y z
#
# Youngs Moduli (GPa) = 119.69277 58.22125 84.45740
#
# Poissons Ratio (x) = 0.04172 -0.12240
# Poissons Ratio (y) = 0.08577 0.25846
# Poissons Ratio (z) = -0.17346 0.17817
#
# Static dielectric constant tensor:
#      x y z
#    x 4.207840 0.000000 0.041490 
#    y 0.000000 3.742880 0.000000 
#    z 0.041490 0.000000 3.736840 
# 
# 
# High freq. dielectric constant tensor:
#      x y z
#    x 1.883700 0.000000 0.004820 
#    y 0.000000 1.837310 0.000000 
#    z 0.004820 0.000000 1.848280 
# 
# From -- ./inp_files/40730.got.cif
#   From: 2010.06.25/outbox.cif.g09.slc.cpg/sg12_21_cif.got.tgz:40730.got - 2010.06.28 00:19:55.
