data_PCOD8113298
_publ_section_title
;
Structure prediction by ZEFSAII (Michael W. Deem and Ramdas Pophale) SiO2 
 PCOD8113298
Probable space group: C 2/M
;
_chemical_formula_sum "Si O2"
_cell_formula_units_Z 56
_cell_length_a 15.463853
_cell_length_b 21.293619
_cell_length_c 9.232815
_cell_angle_alpha 90.000000
_cell_angle_beta 119.396757
_cell_angle_gamma 90.000000
_cell_volume 2648.743640
_symmetry_space_group_name_H-M "C 2/M"
_symmetry_group_IT_number 12
_symmetry_cell_setting 'monoclinic'
loop_
_space_group_symop_operation_xyz
x,y,z
-x,y,-z
-x,-y,-z
x,-y,z
1/2+x,1/2+y,z
1/2-x,1/2+y,-z
1/2-x,1/2-y,-z
1/2+x,1/2-y,z
loop_
_atom_site_type_symbol
_atom_site_label
_atom_site_fract_x
_atom_site_fract_y
_atom_site_fract_z
Si Si1 0.655187 0.570395 0.458788
Si Si2 0.214312 0.314421 0.537904
Si Si3 0.962065 0.927969 0.121808
Si Si4 0.003280 0.340133 0.669970
Si Si5 0.694557 0.617179 0.794761
Si Si6 0.678429 0.756158 0.804271
Si Si7 0.088820 0.572721 0.962950
O O1 0.691800 0.500000 0.443739
O O2 0.722371 0.623803 0.443027
O O3 0.543971 0.581021 0.312745
O O4 0.655748 0.573054 0.633784
O O5 0.250000 0.250000 0.500000
O O6 0.213773 0.306345 0.712156
O O7 0.108514 0.325791 0.373754
O O8 0.861615 0.895984 0.099404
O O9 0.935209 0.000000 0.070116
O O10 0.000000 0.897984 0.000000
O O11 0.069709 0.279140 0.766192
O O12 0.049353 0.402263 0.778251
O O13 0.000000 0.355274 0.500000
O O14 0.670951 0.688015 0.724686
O O15 0.812342 0.609634 0.910640
O O16 0.750000 0.750000 0.000000
O O17 0.115641 0.500000 0.972286
O O18 0.000000 0.586255 0.000000
#
# Coordination Sequence:
#
# PCOD8113298 Si02
#       7
#     8   8   8   8   8   8   8
#     4  11  24  43  68  99 135 180 231 283 349 419
#     4  11  24  43  66  99 133 175 227 283 342 407
#     4  10  24  42  63  98 137 176 227 283 344 412
#     4  10  24  42  63  93 132 173 222 280 338 407
#     4  12  23  42  71  98 136 183 231 286 351 413
#     4  11  24  43  66  97 133 175 230 280 343 412
#     4  11  24  42  67 100 134 177 231 285 343 414
#
# _framework density 21.142099000000002
#
# number of rings (size 3 to 8) (size 9 to 14) (size 15 to 20)
#    0.000    1.143    2.857    2.571    4.000    4.286 
#    0.000    4.286    0.000    0.000    0.000    0.000 
#    0.000    0.000    0.000    0.000    0.000    0.000 
#
# Total GULP energy -347172.252377 kJ/mol
# GULP energy per Si atom -12399.009013 kJ/mol
# Density = 2.109398 g / cm^3
# Si number density = 21.142099 Si / 1000 Ang^3
#
#
#
# Elastic Constant Matrix: (Units=GPa)
#
#
# Indices 1 2 3 4 5 6 
#
# 1 118.5939 54.2589 31.1931 0.0000 6.1303 0.0000
# 2 54.2589 114.4939 17.6770 0.0000 -1.8225 0.0000
# 3 31.1931 17.6770 118.7873 0.0000 -1.5276 0.0000
# 4 0.0000 0.0000 0.0000 35.5403 0.0000 -1.8011
# 5 6.1303 -1.8225 -1.5276 0.0000 24.7607 0.0000
# 6 0.0000 0.0000 0.0000 -1.8011 0.0000 32.7392
#
#
#
# Elastic Compliance Matrix: (Units=1/GPa)
#
#
# Indices 1 2 3 4 5 6 
#
# 1 0.011591 -0.005190 -0.002315 0.000000 -0.003394 0.000000
# 2 -0.005190 0.011271 -0.000288 0.000000 0.002097 0.000000
# 3 -0.002315 -0.000288 0.009083 0.000000 0.001112 0.000000
# 4 0.000000 0.000000 0.000000 0.028216 0.000000 0.001552
# 5 -0.003394 0.002097 0.001112 0.000000 0.041450 0.000000
# 6 0.000000 0.000000 0.000000 0.001552 0.000000 0.030630
#
#
# Mechanical properties :
#
#
# Convention : Reuss Voigt Hill
#
# Bulk Modulus (GPa) = 61.12070 62.01481 61.56776
# Shear Modulus (GPa) = 32.62029 35.19115 33.90572
#
# Velocity S-wave (km/s) = 3.93225 4.08426 4.00897
# Velocity P-wave (km/s) = 7.04194 7.18593 7.11430
#
# Compressibility (1/GPa) = 0.01636107
#
# Stress axis : x y z
#
# Youngs Moduli (GPa) = 86.27517 88.72187 110.09042
#
# Poissons Ratio (x) = 0.46042 0.25487
# Poissons Ratio (y) = 0.44773 0.03166
# Poissons Ratio (z) = 0.19974 0.02551
#
# Static dielectric constant tensor:
#      x y z
#    x 2.108700 0.000000 -1.463470 
#    y 0.000000 3.927170 0.000000 
#    z -1.463470 0.000000 2.687530 
# 
# 
# High freq. dielectric constant tensor:
#      x y z
#    x 1.832380 0.000000 0.003800 
#    y 0.000000 1.830710 0.000000 
#    z 0.003800 0.000000 1.836620 
# 
# From -- ./inp_files/65938.got.cif
#   From: 2010.06.25/outbox.cif.g09.slc.cpg/sg12_33_cif.got.tgz:65938.got - 2010.06.28 00:19:55.
