data_PCOD8113487
_publ_section_title
;
Structure prediction by ZEFSAII (Michael W. Deem and Ramdas Pophale) SiO2 
 PCOD8113487
Probable space group: C 2/M
;
_chemical_formula_sum "Si O2"
_cell_formula_units_Z 36
_cell_length_a 20.836026
_cell_length_b 16.216569
_cell_length_c 12.249591
_cell_angle_alpha 90.000000
_cell_angle_beta 23.199662
_cell_angle_gamma 90.000000
_cell_volume 1630.503222
_symmetry_space_group_name_H-M "C 2/M"
_symmetry_group_IT_number 12
_symmetry_cell_setting 'monoclinic'
loop_
_space_group_symop_operation_xyz
x,y,z
-x,y,-z
-x,-y,-z
x,-y,z
1/2+x,1/2+y,z
1/2-x,1/2+y,-z
1/2-x,1/2-y,-z
1/2+x,1/2-y,z
loop_
_atom_site_type_symbol
_atom_site_label
_atom_site_fract_x
_atom_site_fract_y
_atom_site_fract_z
Si Si1 0.913278 0.713069 0.932204
Si Si2 0.181529 0.906260 0.231300
Si Si3 0.688198 0.154442 0.194360
Si Si4 0.188769 0.592940 0.424040
Si Si5 0.500000 0.676728 0.000000
O O1 0.057680 0.663982 0.649164
O O2 0.774237 0.645329 0.182105
O O3 0.817216 0.769466 0.993647
O O4 0.982648 0.763594 0.923961
O O5 0.000000 0.871866 0.500000
O O6 0.177062 0.000000 0.277477
O O7 0.285362 0.897709 0.957017
O O8 0.500000 0.183156 0.500000
O O9 0.733522 0.095647 0.226044
O O10 0.131870 0.500000 0.544759
O O11 0.344852 0.617101 0.253395
#
# Coordination Sequence:
#
# PCOD8113487 Si02
#       5
#     8   8   8   8   4
#     4  11  23  40  66  91 126 171 213 264 310 383
#     4  11  24  40  63  98 138 167 204 262 326 384
#     4  11  23  39  68  98 130 165 213 258 320 388
#     4  11  23  42  67  94 126 166 217 271 318 372
#     4  10  25  42  63  90 126 170 224 262 315 370
#
# _framework density 22.079075
#
# number of rings (size 3 to 8) (size 9 to 14) (size 15 to 20)
#    0.000    1.111    2.222    3.667    6.222    0.889 
#    0.000    2.222    0.000    0.000    0.000    0.000 
#    0.000    0.000    0.000    0.000    0.000    0.000 
#
# Total GULP energy -223090.753679 kJ/mol
# GULP energy per Si atom -12393.930760 kJ/mol
# Density = 2.202882 g / cm^3
# Si number density = 22.079075 Si / 1000 Ang^3
#
#
#
# Elastic Constant Matrix: (Units=GPa)
#
#
# Indices 1 2 3 4 5 6 
#
# 1 90.3385 32.7596 20.2374 -0.0005 -22.1175 -0.0008
# 2 32.7596 113.5663 33.1550 -0.0017 -12.5265 -0.0011
# 3 20.2374 33.1550 115.9864 -0.0016 -21.5023 -0.0010
# 4 -0.0005 -0.0017 -0.0016 37.2713 -0.0002 -1.3893
# 5 -22.1175 -12.5265 -21.5023 -0.0002 36.9679 0.0005
# 6 -0.0008 -0.0011 -0.0010 -1.3893 0.0005 3.6703
#
#
#
# Elastic Compliance Matrix: (Units=1/GPa)
#
#
# Indices 1 2 3 4 5 6 
#
# 1 0.014036 -0.003196 -0.000201 0.000000 0.007197 0.000001
# 2 -0.003196 0.010450 -0.002385 0.000000 0.000242 0.000002
# 3 -0.000201 -0.002385 0.010274 0.000000 0.005048 0.000001
# 4 0.000000 0.000000 0.000000 0.027214 0.000000 0.010301
# 5 0.007197 0.000242 0.005048 0.000000 0.034375 -0.000002
# 6 0.000001 0.000002 0.000001 0.010301 -0.000002 0.276354
#
#
# Mechanical properties :
#
#
# Convention : Reuss Voigt Hill
#
# Bulk Modulus (GPa) = 43.11029 54.68835 48.89932
# Shear Modulus (GPa) = 12.75514 31.16453 21.95983
#
# Velocity S-wave (km/s) = 2.40615 3.76106 3.15715
# Velocity P-wave (km/s) = 5.22372 6.60938 5.95697
#
# Compressibility (1/GPa) = 0.02319632
#
# Stress axis : x y z
#
# Youngs Moduli (GPa) = 71.24689 95.69120 97.33092
#
# Poissons Ratio (x) = 0.30585 0.01956
# Poissons Ratio (y) = 0.22772 0.23211
# Poissons Ratio (z) = 0.01432 0.22820
#
# Static dielectric constant tensor:
#      x y z
#    x 4.045600 0.000000 -0.466450 
#    y 0.000000 4.073650 0.000000 
#    z -0.466450 0.000000 4.158390 
# 
# 
# High freq. dielectric constant tensor:
#      x y z
#    x 1.851660 0.000000 -0.031660 
#    y 0.000000 1.878640 0.000000 
#    z -0.031660 0.000000 1.874860 
# 
# From -- ./inp_files/241110.got.cif
#   From: 2010.06.25/outbox.cif.g09.slc.cpg/sg12_121_cif.got.tgz:241110.got - 2010.06.28 00:19:55.
