data_PCOD8113853
_publ_section_title
;
Structure prediction by ZEFSAII (Michael W. Deem and Ramdas Pophale) SiO2 
 PCOD8113853
Probable space group: C 2/M
;
_chemical_formula_sum "Si O2"
_cell_formula_units_Z 48
_cell_length_a 9.451891
_cell_length_b 22.481894
_cell_length_c 11.229787
_cell_angle_alpha 90.000000
_cell_angle_beta 71.448435
_cell_angle_gamma 90.000000
_cell_volume 2262.292361
_symmetry_space_group_name_H-M "C 2/M"
_symmetry_group_IT_number 12
_symmetry_cell_setting 'monoclinic'
loop_
_space_group_symop_operation_xyz
x,y,z
-x,y,-z
-x,-y,-z
x,-y,z
1/2+x,1/2+y,z
1/2-x,1/2+y,-z
1/2-x,1/2-y,-z
1/2+x,1/2-y,z
loop_
_atom_site_type_symbol
_atom_site_label
_atom_site_fract_x
_atom_site_fract_y
_atom_site_fract_z
Si Si1 0.103930 0.192717 0.223263
Si Si2 0.814307 0.189459 0.435842
Si Si3 0.822297 0.625737 0.319147
Si Si4 0.915066 0.000000 0.329571
Si Si5 0.151815 0.674326 0.232131
Si Si6 0.773684 0.000000 0.617698
Si Si7 0.581692 0.397755 0.866449
O O1 0.252595 0.157550 0.221981
O O2 0.147298 0.260090 0.173731
O O3 0.991670 0.195631 0.366986
O O4 0.023742 0.158480 0.137708
O O5 0.750000 0.250000 0.500000
O O6 0.781462 0.137913 0.538552
O O7 0.729840 0.174891 0.338206
O O8 0.823567 0.554971 0.308476
O O9 0.987870 0.649015 0.290491
O O10 0.898839 0.058347 0.251200
O O11 0.791912 0.000000 0.468302
O O12 0.071737 0.000000 0.353526
O O13 0.257871 0.628267 0.131130
O O14 0.500000 0.430149 0.000000
#
# Coordination Sequence:
#
# PCOD8113853 Si02
#       7
#     8   8   8   4   8   4   8
#     4  11  21  38  61  94 128 165 213 251 312 381
#     4  11  20  33  58  93 131 172 197 243 311 385
#     4  12  22  36  59  95 137 164 201 252 318 388
#     4  11  23  45  66  94 120 167 218 255 310 387
#     4  11  23  38  60  98 130 159 214 258 316 373
#     4  11  24  39  66  96 137 160 193 261 326 391
#     4  11  25  46  68  86 119 173 225 266 306 364
#
# _framework density 21.217417000000001
#
# number of rings (size 3 to 8) (size 9 to 14) (size 15 to 20)
#    0.000    0.833    5.000    4.250    2.333    1.333 
#    0.000    3.333    0.000    1.000    0.000    0.000 
#    0.000    0.000    0.000    0.000    0.000    0.000 
#
# Total GULP energy -297568.019349 kJ/mol
# GULP energy per Si atom -12398.667473 kJ/mol
# Density = 2.116913 g / cm^3
# Si number density = 21.217417 Si / 1000 Ang^3
#
#
#
# Elastic Constant Matrix: (Units=GPa)
#
#
# Indices 1 2 3 4 5 6 
#
# 1 86.0392 32.1429 12.5838 0.0000 -9.2513 0.0000
# 2 32.1429 142.1688 13.9353 0.0000 -5.2731 0.0000
# 3 12.5838 13.9353 58.4786 0.0000 -11.1678 0.0000
# 4 0.0000 0.0000 0.0000 15.8749 0.0000 0.0041
# 5 -9.2513 -5.2731 -11.1678 0.0000 18.4453 0.0000
# 6 0.0000 0.0000 0.0000 0.0041 0.0000 29.4150
#
#
#
# Elastic Compliance Matrix: (Units=1/GPa)
#
#
# Indices 1 2 3 4 5 6 
#
# 1 0.013374 -0.002710 -0.001243 0.000000 0.005181 0.000000
# 2 -0.002710 0.007773 -0.001249 0.000000 0.000107 0.000000
# 3 -0.001243 -0.001249 0.019763 0.000000 0.010985 0.000000
# 4 0.000000 0.000000 0.000000 0.062993 0.000000 -0.000009
# 5 0.005181 0.000107 0.010985 0.000000 0.063495 0.000000
# 6 0.000000 0.000000 0.000000 -0.000009 0.000000 0.033996
#
#
# Mechanical properties :
#
#
# Convention : Reuss Voigt Hill
#
# Bulk Modulus (GPa) = 32.77900 44.89007 38.83454
# Shear Modulus (GPa) = 22.52610 27.94867 25.23739
#
# Velocity S-wave (km/s) = 3.26188 3.63333 3.45260
# Velocity P-wave (km/s) = 5.44694 6.22933 5.85123
#
# Compressibility (1/GPa) = 0.03050734
#
# Stress axis : x y z
#
# Youngs Moduli (GPa) = 74.77356 128.65216 50.59909
#
# Poissons Ratio (x) = 0.34861 0.06288
# Poissons Ratio (y) = 0.20261 0.06319
# Poissons Ratio (z) = 0.09293 0.16065
#
# Static dielectric constant tensor:
#      x y z
#    x 3.855640 0.000000 -0.033460 
#    y 0.000000 4.187700 0.000000 
#    z -0.033460 0.000000 3.520170 
# 
# 
# High freq. dielectric constant tensor:
#      x y z
#    x 1.835530 0.000000 0.000280 
#    y 0.000000 1.841610 0.000000 
#    z 0.000280 0.000000 1.803760 
# 
# From -- ./inp_files/122491.got.cif
#   From: 2010.06.25/outbox.cif.g09.slc.cpg/sg12_62_cif.got.tgz:122491.got - 2010.06.28 00:19:55.
