data_PCOD8113285
_publ_section_title
;
Structure prediction by ZEFSAII (Michael W. Deem and Ramdas Pophale) SiO2 
 PCOD8113285
Probable space group: C 2/M
;
_chemical_formula_sum "Si O2"
_cell_formula_units_Z 48
_cell_length_a 19.576673
_cell_length_b 14.612106
_cell_length_c 8.401214
_cell_angle_alpha 90.000000
_cell_angle_beta 106.745019
_cell_angle_gamma 90.000000
_cell_volume 2301.316006
_symmetry_space_group_name_H-M "C 2/M"
_symmetry_group_IT_number 12
_symmetry_cell_setting 'monoclinic'
loop_
_space_group_symop_operation_xyz
x,y,z
-x,y,-z
-x,-y,-z
x,-y,z
1/2+x,1/2+y,z
1/2-x,1/2+y,-z
1/2-x,1/2-y,-z
1/2+x,1/2-y,z
loop_
_atom_site_type_symbol
_atom_site_label
_atom_site_fract_x
_atom_site_fract_y
_atom_site_fract_z
Si Si1 0.197659 0.688911 0.236681
Si Si2 0.424030 0.299053 0.036653
Si Si3 0.581611 0.500000 0.011332
Si Si4 0.193989 0.666238 0.597442
Si Si5 0.277336 0.500000 0.761750
Si Si6 0.202868 0.500000 0.052451
Si Si7 0.039037 0.500000 0.859671
Si Si8 0.947835 0.669496 0.328790
O O1 0.137281 0.745859 0.102230
O O2 0.170109 0.678559 0.398870
O O3 0.272804 0.742983 0.298280
O O4 0.214173 0.591537 0.165085
O O5 0.402028 0.403676 0.064668
O O6 0.500000 0.292773 0.000000
O O7 0.431445 0.256786 0.213590
O O8 0.636588 0.500000 0.196630
O O9 0.500000 0.500000 0.000000
O O10 0.252683 0.587936 0.648640
O O11 0.125674 0.632201 0.648377
O O12 0.254900 0.500000 0.934347
O O13 0.122878 0.500000 0.937294
O O14 0.014527 0.589165 0.746538
O O15 0.000000 0.500000 0.000000
O O16 0.000000 0.703946 0.500000
#
# Coordination Sequence:
#
# PCOD8113285 Si02
#       8
#     8   8   4   8   4   4   4   8
#     4  11  24  42  65  94 131 167 212 268 323 385
#     4  11  22  42  67  94 124 170 213 261 324 384
#     4  10  24  41  68  96 124 168 216 268 318 380
#     4  11  24  41  64  97 127 170 216 268 322 379
#     4  12  21  42  68  96 128 167 219 267 319 380
#     4  12  25  39  68  96 127 173 210 264 318 388
#     4  12  25  40  64  99 132 174 214 257 326 391
#     4  12  25  42  64  95 131 172 214 266 321 385
#
# _framework density 20.857631000000001
#
# number of rings (size 3 to 8) (size 9 to 14) (size 15 to 20)
#    0.000    0.667    5.000    2.250    4.667    1.333 
#    0.000    0.417    0.000    0.000    0.000    0.000 
#    0.000    0.000    0.000    0.000    0.000    0.000 
#
# Total GULP energy -297519.281993 kJ/mol
# GULP energy per Si atom -12396.636750 kJ/mol
# Density = 2.081016 g / cm^3
# Si number density = 20.857631 Si / 1000 Ang^3
#
#
#
# Elastic Constant Matrix: (Units=GPa)
#
#
# Indices 1 2 3 4 5 6 
#
# 1 81.0668 17.0809 40.8373 0.0000 6.8641 0.0000
# 2 17.0809 174.4476 77.5708 0.0000 6.4016 0.0000
# 3 40.8373 77.5708 159.7876 0.0000 14.3168 0.0000
# 4 0.0000 0.0000 0.0000 28.4392 0.0000 -6.5655
# 5 6.8641 6.4016 14.3168 0.0000 29.4258 0.0000
# 6 0.0000 0.0000 0.0000 -6.5655 0.0000 55.7699
#
#
#
# Elastic Compliance Matrix: (Units=1/GPa)
#
#
# Indices 1 2 3 4 5 6 
#
# 1 0.014243 0.000279 -0.003631 0.000000 -0.001617 0.000000
# 2 0.000279 0.007317 -0.003633 0.000000 0.000111 0.000000
# 3 -0.003631 -0.003633 0.009205 0.000000 -0.002841 0.000000
# 4 0.000000 0.000000 0.000000 0.036145 0.000000 0.004255
# 5 -0.001617 0.000111 -0.002841 0.000000 0.035719 0.000000
# 6 0.000000 0.000000 0.000000 0.004255 0.000000 0.018432
#
#
# Mechanical properties :
#
#
# Convention : Reuss Voigt Hill
#
# Bulk Modulus (GPa) = 59.54420 76.25335 67.89877
# Shear Modulus (GPa) = 35.55508 41.38119 38.46814
#
# Velocity S-wave (km/s) = 4.13323 4.45902 4.29921
# Velocity P-wave (km/s) = 7.16854 7.94663 7.56759
#
# Compressibility (1/GPa) = 0.01679425
#
# Stress axis : x y z
#
# Youngs Moduli (GPa) = 70.21237 136.67686 108.64193
#
# Poissons Ratio (x) = -0.03816 0.39445
# Poissons Ratio (y) = -0.01961 0.39472
# Poissons Ratio (z) = 0.25492 0.49657
#
# Static dielectric constant tensor:
#      x y z
#    x 4.381410 0.000000 0.095770 
#    y 0.000000 4.337060 0.000000 
#    z 0.095770 0.000000 3.824870 
# 
# 
# High freq. dielectric constant tensor:
#      x y z
#    x 1.815460 0.000000 0.015380 
#    y 0.000000 1.834610 0.000000 
#    z 0.015380 0.000000 1.818900 
# 
# From -- ./inp_files/86022.got.cif
#   From: 2010.06.25/outbox.cif.g09.slc.cpg/sg12_44_cif.got.tgz:86022.got - 2010.06.28 00:19:55.
