data_PCOD8113674
_publ_section_title
;
Structure prediction by ZEFSAII (Michael W. Deem and Ramdas Pophale) SiO2 
 PCOD8113674
Probable space group: C 2/M
;
_chemical_formula_sum "Si O2"
_cell_formula_units_Z 64
_cell_length_a 11.062934
_cell_length_b 20.757287
_cell_length_c 20.538211
_cell_angle_alpha 90.000000
_cell_angle_beta 138.970610
_cell_angle_gamma 90.000000
_cell_volume 3096.011586
_symmetry_space_group_name_H-M "C 2/M"
_symmetry_group_IT_number 12
_symmetry_cell_setting 'monoclinic'
loop_
_space_group_symop_operation_xyz
x,y,z
-x,y,-z
-x,-y,-z
x,-y,z
1/2+x,1/2+y,z
1/2-x,1/2+y,-z
1/2-x,1/2-y,-z
1/2+x,1/2-y,z
loop_
_atom_site_type_symbol
_atom_site_label
_atom_site_fract_x
_atom_site_fract_y
_atom_site_fract_z
Si Si1 0.053542 0.641243 0.254994
Si Si2 0.504374 0.661875 0.691121
Si Si3 0.544993 0.257319 0.947720
Si Si4 0.805556 0.293783 0.250938
Si Si5 0.186711 0.738435 0.609247
Si Si6 0.202037 0.927877 0.863129
Si Si7 0.404343 0.573334 0.394310
Si Si8 0.463850 0.882187 0.074338
O O1 0.189167 0.703346 0.312288
O O2 0.184843 0.579543 0.317813
O O3 0.900953 0.649169 0.248579
O O4 0.942017 0.629169 0.142724
O O5 0.639497 0.722637 0.751764
O O6 0.297476 0.690831 0.606207
O O7 0.540446 0.617625 0.769427
O O8 0.530418 0.621249 0.636007
O O9 0.416986 0.297389 0.845513
O O10 0.471722 0.185434 0.928724
O O11 0.500000 0.290324 0.000000
O O12 0.750000 0.250000 0.000000
O O13 0.869580 0.303978 0.350942
O O14 0.000000 0.764223 0.500000
O O15 0.370279 0.929676 0.878838
O O16 0.123393 0.000000 0.837294
O O17 0.272329 0.905481 0.963489
O O18 0.500000 0.593801 0.500000
O O19 0.451557 0.500000 0.393845
#
# Coordination Sequence:
#
# PCOD8113674 Si02
#       8
#     8   8   8   8   8   8   8   8
#     4  11  22  38  63  89 131 162 209 262 325 382
#     4  11  22  39  63  89 130 161 210 267 319 375
#     4  12  22  34  58  85 125 165 197 250 316 390
#     4  11  23  39  58  95 126 170 205 255 322 390
#     4  11  24  39  61  93 126 169 208 258 323 391
#     4  11  21  35  60  89 119 158 209 264 315 362
#     4  11  23  39  63  93 124 165 218 276 325 370
#     4  11  19  34  53  86 121 152 199 252 313 373
#
# _framework density 20.671756999999999
#
# number of rings (size 3 to 8) (size 9 to 14) (size 15 to 20)
#    0.000    0.875    6.250    2.250    5.250    1.500 
#    0.000    0.000    0.000    3.000    0.000    0.875 
#    0.000    0.000    0.000    0.000    0.000    0.000 
#
# Total GULP energy -396432.653274 kJ/mol
# GULP energy per Si atom -12388.520415 kJ/mol
# Density = 2.062471 g / cm^3
# Si number density = 20.671757 Si / 1000 Ang^3
#
#
#
# Elastic Constant Matrix: (Units=GPa)
#
#
# Indices 1 2 3 4 5 6 
#
# 1 100.2908 11.3609 41.4387 0.0000 -0.8081 0.0000
# 2 11.3609 58.9049 15.6383 0.0000 0.1136 0.0000
# 3 41.4387 15.6383 108.4743 0.0000 -6.3546 0.0000
# 4 0.0000 0.0000 0.0000 24.5102 0.0000 -2.0867
# 5 -0.8081 0.1136 -6.3546 0.0000 34.0587 0.0000
# 6 0.0000 0.0000 0.0000 -2.0867 0.0000 21.1875
#
#
#
# Elastic Compliance Matrix: (Units=1/GPa)
#
#
# Indices 1 2 3 4 5 6 
#
# 1 0.011922 -0.001124 -0.004424 0.000000 -0.000539 0.000000
# 2 -0.001124 0.017768 -0.002161 0.000000 -0.000489 0.000000
# 3 -0.004424 -0.002161 0.011338 0.000000 0.002018 0.000000
# 4 0.000000 0.000000 0.000000 0.041144 0.000000 0.004052
# 5 -0.000539 -0.000489 0.002018 0.000000 0.029726 0.000000
# 6 0.000000 0.000000 0.000000 0.004052 0.000000 0.047597
#
#
# Mechanical properties :
#
#
# Convention : Reuss Voigt Hill
#
# Bulk Modulus (GPa) = 39.04559 44.94955 41.99757
# Shear Modulus (GPa) = 27.25542 29.23342 28.24442
#
# Velocity S-wave (km/s) = 3.63504 3.76463 3.70040
# Velocity P-wave (km/s) = 6.04544 6.37873 6.21432
#
# Compressibility (1/GPa) = 0.02561108
#
# Stress axis : x y z
#
# Youngs Moduli (GPa) = 83.87961 56.28132 88.19526
#
# Poissons Ratio (x) = 0.06325 0.39016
# Poissons Ratio (y) = 0.09427 0.19058
# Poissons Ratio (z) = 0.37107 0.12162
#
# Static dielectric constant tensor:
#      x y z
#    x 3.604790 0.000000 -0.079730 
#    y 0.000000 3.581850 0.000000 
#    z -0.079730 0.000000 3.990320 
# 
# 
# High freq. dielectric constant tensor:
#      x y z
#    x 1.786680 0.000000 -0.016130 
#    y 0.000000 1.776500 0.000000 
#    z -0.016130 0.000000 1.821770 
# 
# From -- ./inp_files/306803.got.cif
#   From: 2010.06.25/outbox.cif.g09.slc.cpg/sg12_154_cif.got.tgz:306803.got - 2010.06.28 00:19:55.
