data_PCOD8113860
_publ_section_title
;
Structure prediction by ZEFSAII (Michael W. Deem and Ramdas Pophale) SiO2 
 PCOD8113860
Probable space group: C 2/M
;
_chemical_formula_sum "Si O2"
_cell_formula_units_Z 64
_cell_length_a 23.730236
_cell_length_b 26.730196
_cell_length_c 17.039747
_cell_angle_alpha 90.000000
_cell_angle_beta 160.810848
_cell_angle_gamma 90.000000
_cell_volume 3552.638180
_symmetry_space_group_name_H-M "C 2/M"
_symmetry_group_IT_number 12
_symmetry_cell_setting 'monoclinic'
loop_
_space_group_symop_operation_xyz
x,y,z
-x,y,-z
-x,-y,-z
x,-y,z
1/2+x,1/2+y,z
1/2-x,1/2+y,-z
1/2-x,1/2-y,-z
1/2+x,1/2-y,z
loop_
_atom_site_type_symbol
_atom_site_label
_atom_site_fract_x
_atom_site_fract_y
_atom_site_fract_z
Si Si1 0.656206 0.676579 0.656440
Si Si2 0.340672 0.210284 0.340371
Si Si3 0.443133 0.622330 0.615803
Si Si4 0.127184 0.296123 0.431519
Si Si5 0.442011 0.883418 0.107849
Si Si6 0.871348 0.057304 0.256788
Si Si7 0.024609 0.803084 0.206500
Si Si8 0.640461 0.943996 0.251850
O O1 0.500000 0.650928 0.500000
O O2 0.670635 0.732951 0.702247
O O3 0.623783 0.670161 0.521480
O O4 0.835315 0.650385 0.907928
O O5 0.500000 0.185658 0.500000
O O6 0.370757 0.207565 0.472375
O O7 0.154365 0.188830 0.074206
O O8 0.600930 0.596447 0.778389
O O9 0.475358 0.645716 0.742969
O O10 0.314238 0.575905 0.443674
O O11 0.033735 0.247411 0.271165
O O12 0.319008 0.301922 0.649469
O O13 0.017551 0.346492 0.273001
O O14 0.600649 0.907356 0.271171
O O15 0.324962 0.929863 0.980634
O O16 0.000000 0.064548 0.500000
O O17 0.879720 0.000000 0.238817
O O18 0.667500 0.000000 0.318971
O O19 0.500000 0.942812 0.000000
#
# Coordination Sequence:
#
# PCOD8113860 Si02
#       8
#     8   8   8   8   8   8   8   8
#     4  11  20  34  53  85 121 154 192 235 283 337
#     4  11  25  39  59  86 117 155 200 244 279 332
#     4  12  20  36  56  83 117 163 191 232 291 342
#     4  11  24  39  58  86 120 158 196 236 288 349
#     4  12  20  36  56  83 117 163 191 232 291 342
#     4  11  22  36  57  85 121 159 197 240 289 345
#     4  11  24  39  58  86 120 158 196 236 288 349
#     4  11  22  34  53  85 121 151 195 242 285 347
#
# _framework density 18.014782
#
# number of rings (size 3 to 8) (size 9 to 14) (size 15 to 20)
#    0.000    0.750    7.500    1.125    1.750    2.500 
#    2.250    0.000    0.000    0.000    0.000    5.250 
#    0.000    0.000    0.000    0.000    0.000    0.000 
#
# Total GULP energy -396556.625772 kJ/mol
# GULP energy per Si atom -12392.394555 kJ/mol
# Density = 1.797378 g / cm^3
# Si number density = 18.014782 Si / 1000 Ang^3
#
#
#
# Elastic Constant Matrix: (Units=GPa)
#
#
# Indices 1 2 3 4 5 6 
#
# 1 95.2528 18.3313 24.5858 -0.0001 -2.1633 0.0000
# 2 18.3313 76.7630 17.8287 0.0000 -3.4971 0.0000
# 3 24.5858 17.8287 77.4485 -0.0002 1.9714 0.0000
# 4 -0.0001 0.0000 -0.0002 23.4531 -0.0001 8.3970
# 5 -2.1633 -3.4971 1.9714 -0.0001 21.8429 0.0000
# 6 0.0000 0.0000 0.0000 8.3970 0.0000 33.5712
#
#
#
# Elastic Compliance Matrix: (Units=1/GPa)
#
#
# Indices 1 2 3 4 5 6 
#
# 1 0.011760 -0.001989 -0.003305 0.000000 0.001145 0.000000
# 2 -0.001989 0.014236 -0.002705 0.000000 0.002326 0.000000
# 3 -0.003305 -0.002705 0.014637 0.000000 -0.002081 0.000000
# 4 0.000000 0.000000 0.000000 0.046832 0.000000 -0.011714
# 5 0.001145 0.002326 -0.002081 0.000000 0.046455 0.000000
# 6 0.000000 0.000000 0.000000 -0.011714 0.000000 0.032717
#
#
# Mechanical properties :
#
#
# Convention : Reuss Voigt Hill
#
# Bulk Modulus (GPa) = 40.59074 41.21732 40.90403
# Shear Modulus (GPa) = 26.19911 28.35468 27.27690
#
# Velocity S-wave (km/s) = 3.81768 3.97163 3.89542
# Velocity P-wave (km/s) = 6.48180 6.63032 6.55648
#
# Compressibility (1/GPa) = 0.02463616
#
# Stress axis : x y z
#
# Youngs Moduli (GPa) = 85.03380 70.24310 68.32226
#
# Poissons Ratio (x) = 0.13969 0.22577
# Poissons Ratio (y) = 0.16911 0.18482
# Poissons Ratio (z) = 0.28100 0.19002
#
# Static dielectric constant tensor:
#      x y z
#    x 3.210370 0.000000 0.153760 
#    y 0.000000 3.323090 0.000000 
#    z 0.153760 0.000000 3.181510 
# 
# 
# High freq. dielectric constant tensor:
#      x y z
#    x 1.697370 0.000000 0.023620 
#    y 0.000000 1.694820 0.000000 
#    z 0.023620 0.000000 1.680530 
# 
# From -- ./inp_files/67855.got.cif
#   From: 2010.06.25/outbox.cif.g09.slc.cpg/sg12_34_cif.got.tgz:67855.got - 2010.06.28 00:19:55.
