data_PCOD8113366
_publ_section_title
;
Structure prediction by ZEFSAII (Michael W. Deem and Ramdas Pophale) SiO2 
 PCOD8113366
Probable space group: C 2/M
;
_chemical_formula_sum "Si O2"
_cell_formula_units_Z 64
_cell_length_a 14.117620
_cell_length_b 19.196245
_cell_length_c 23.069472
_cell_angle_alpha 90.000000
_cell_angle_beta 150.023113
_cell_angle_gamma 90.000000
_cell_volume 3123.790111
_symmetry_space_group_name_H-M "C 2/M"
_symmetry_group_IT_number 12
_symmetry_cell_setting 'monoclinic'
loop_
_space_group_symop_operation_xyz
x,y,z
-x,y,-z
-x,-y,-z
x,-y,z
1/2+x,1/2+y,z
1/2-x,1/2+y,-z
1/2-x,1/2-y,-z
1/2+x,1/2-y,z
loop_
_atom_site_type_symbol
_atom_site_label
_atom_site_fract_x
_atom_site_fract_y
_atom_site_fract_z
Si Si1 0.808424 0.421025 0.926372
Si Si2 0.306015 0.739251 0.294306
Si Si3 0.581554 0.143308 0.483917
Si Si4 0.451460 0.823926 0.746827
Si Si5 0.998224 0.579379 0.322228
Si Si6 0.595770 0.648534 0.111635
Si Si7 0.984782 0.817093 0.279187
Si Si8 0.237655 0.578692 0.964542
O O1 0.776600 0.500000 0.887841
O O2 0.626020 0.377887 0.811447
O O3 0.833934 0.417517 0.008190
O O4 0.000000 0.389670 0.000000
O O5 0.461115 0.788569 0.405164
O O6 0.215639 0.692968 0.297186
O O7 0.144496 0.782410 0.174424
O O8 0.413086 0.687999 0.307054
O O9 0.500000 0.109890 0.500000
O O10 0.564661 0.087239 0.423773
O O11 0.795703 0.165492 0.606843
O O12 0.373914 0.870954 0.651870
O O13 0.550401 0.755030 0.773398
O O14 0.614781 0.867875 0.863270
O O15 0.025156 0.500000 0.317554
O O16 0.780915 0.602286 0.198284
O O17 0.500000 0.670149 0.000000
O O18 0.456511 0.601227 0.076323
O O19 0.214501 0.500000 0.928199
#
# Coordination Sequence:
#
# PCOD8113366 Si02
#       8
#     8   8   8   8   8   8   8   8
#     4  10  24  44  64  92 133 177 218 265 321 394
#     4  11  24  39  63  98 128 170 218 273 333 396
#     4  11  24  44  69  95 129 168 219 277 339 387
#     4  12  23  39  65  97 127 173 211 274 330 389
#     4  11  25  44  64  95 135 173 220 270 334 402
#     4  11  21  39  62  94 131 173 216 268 334 387
#     4  12  23  42  69  95 130 171 220 280 328 389
#     4  11  23  38  60  91 132 176 216 263 330 398
#
# _framework density 20.487932000000001
#
# number of rings (size 3 to 8) (size 9 to 14) (size 15 to 20)
#    0.000    0.875    5.000    2.625    1.750    5.750 
#    0.000    0.625    0.000    0.750    0.000    0.000 
#    0.000    0.000    0.000    0.000    0.000    0.000 
#
# Total GULP energy -396919.035312 kJ/mol
# GULP energy per Si atom -12403.719854 kJ/mol
# Density = 2.044130 g / cm^3
# Si number density = 20.487932 Si / 1000 Ang^3
#
#
#
# Elastic Constant Matrix: (Units=GPa)
#
#
# Indices 1 2 3 4 5 6 
#
# 1 151.2544 55.1838 36.5682 -0.0002 -2.9510 -0.0001
# 2 55.1838 110.0239 52.4947 -0.0006 1.7821 -0.0002
# 3 36.5682 52.4947 114.3576 -0.0002 -2.9942 -0.0011
# 4 -0.0002 -0.0006 -0.0002 12.5909 -0.0002 -8.7189
# 5 -2.9510 1.7821 -2.9942 -0.0002 30.5546 -0.0002
# 6 -0.0001 -0.0002 -0.0011 -8.7189 -0.0002 30.6139
#
#
#
# Elastic Compliance Matrix: (Units=1/GPa)
#
#
# Indices 1 2 3 4 5 6 
#
# 1 0.008195 -0.003696 -0.000900 0.000000 0.000919 0.000000
# 2 -0.003696 0.013349 -0.004988 0.000001 -0.001624 0.000000
# 3 -0.000900 -0.004988 0.011357 0.000000 0.001317 0.000000
# 4 0.000000 0.000001 0.000000 0.098934 0.000001 0.028177
# 5 0.000919 -0.001624 0.001317 0.000001 0.033041 0.000001
# 6 0.000000 0.000000 0.000000 0.028177 0.000001 0.040690
#
#
# Mechanical properties :
#
#
# Convention : Reuss Voigt Hill
#
# Bulk Modulus (GPa) = 72.82079 73.79213 73.30646
# Shear Modulus (GPa) = 21.80436 30.17783 25.99110
#
# Velocity S-wave (km/s) = 3.26583 3.84207 3.56561
# Velocity P-wave (km/s) = 7.05984 7.46844 7.26701
#
# Compressibility (1/GPa) = 0.01373234
#
# Stress axis : x y z
#
# Youngs Moduli (GPa) = 122.02086 74.91153 88.05404
#
# Poissons Ratio (x) = 0.27687 0.07925
# Poissons Ratio (y) = 0.45098 0.43925
# Poissons Ratio (z) = 0.10982 0.37369
#
# Static dielectric constant tensor:
#      x y z
#    x 4.314720 0.000000 -0.153770 
#    y 0.000000 3.711940 0.000000 
#    z -0.153770 0.000000 3.657430 
# 
# 
# High freq. dielectric constant tensor:
#      x y z
#    x 1.824630 0.000000 -0.009180 
#    y 0.000000 1.793010 0.000000 
#    z -0.009180 0.000000 1.793820 
# 
# From -- ./inp_files/340835.got.cif
#   From: 2010.06.25/outbox.cif.g09.slc.cpg/sg12_171_cif.got.tgz:340835.got - 2010.06.28 00:19:55.
