data_PCOD8113714
_publ_section_title
;
Structure prediction by ZEFSAII (Michael W. Deem and Ramdas Pophale) SiO2 
 PCOD8113714
Probable space group: C 2/M
;
_chemical_formula_sum "Si O2"
_cell_formula_units_Z 56
_cell_length_a 16.574148
_cell_length_b 23.494393
_cell_length_c 9.585713
_cell_angle_alpha 90.000000
_cell_angle_beta 127.196485
_cell_angle_gamma 90.000000
_cell_volume 2973.323603
_symmetry_space_group_name_H-M "C 2/M"
_symmetry_group_IT_number 12
_symmetry_cell_setting 'monoclinic'
loop_
_space_group_symop_operation_xyz
x,y,z
-x,y,-z
-x,-y,-z
x,-y,z
1/2+x,1/2+y,z
1/2-x,1/2+y,-z
1/2-x,1/2-y,-z
1/2+x,1/2-y,z
loop_
_atom_site_type_symbol
_atom_site_label
_atom_site_fract_x
_atom_site_fract_y
_atom_site_fract_z
Si Si1 0.206977 0.612601 0.215755
Si Si2 0.576815 0.699607 0.963905
Si Si3 0.044186 0.500000 0.396682
Si Si4 0.875771 0.619464 0.580579
Si Si5 0.401801 0.000000 0.991836
Si Si6 0.396984 0.328513 0.314377
Si Si7 0.308267 0.796412 0.264964
Si Si8 0.074604 0.322297 0.881101
O O1 0.207027 0.618654 0.383217
O O2 0.320301 0.622540 0.281753
O O3 0.169103 0.553068 0.115789
O O4 0.130887 0.660659 0.080841
O O5 0.687381 0.707134 0.147147
O O6 0.500000 0.673564 0.000000
O O7 0.585320 0.662152 0.832907
O O8 0.531012 0.759497 0.862493
O O9 0.116844 0.554767 0.462589
O O10 0.000000 0.500000 0.500000
O O11 0.945776 0.500000 0.193554
O O12 0.847416 0.664889 0.432654
O O13 0.985401 0.634498 0.755530
O O14 0.500000 0.000000 0.000000
O O15 0.500000 0.340672 0.500000
O O16 0.355092 0.266701 0.317740
O O17 0.342911 0.824918 0.156834
#
# Coordination Sequence:
#
# PCOD8113714 Si02
#       8
#     8   8   4   8   4   8   8   8
#     4  12  22  39  63  88 122 160 205 251 305 365
#     4  11  22  38  60  87 124 163 208 251 306 372
#     4  12  24  38  60  94 129 160 201 252 310 366
#     4  12  24  35  62  92 126 163 202 249 310 375
#     4  12  22  44  65  94 124 160 206 252 310 372
#     4  11  24  41  60  88 124 164 209 258 302 366
#     4  11  22  39  57  89 129 161 203 252 310 371
#     4  11  19  38  57  87 121 163 198 245 306 368
#
# _framework density 18.834142
#
# number of rings (size 3 to 8) (size 9 to 14) (size 15 to 20)
#    0.000    0.571    5.714    5.143    2.000    0.571 
#    0.000    0.357    0.000    0.000    0.000    1.000 
#    0.000    0.000    0.000    0.000    0.000    0.000 
#
# Total GULP energy -347204.625893 kJ/mol
# GULP energy per Si atom -12400.165210 kJ/mol
# Density = 1.879127 g / cm^3
# Si number density = 18.834142 Si / 1000 Ang^3
#
#
#
# Elastic Constant Matrix: (Units=GPa)
#
#
# Indices 1 2 3 4 5 6 
#
# 1 148.7055 58.9482 55.7268 0.0000 -13.9087 0.0000
# 2 58.9482 72.3759 38.4746 0.0000 -4.9358 0.0000
# 3 55.7268 38.4746 103.6391 0.0000 -10.4656 0.0000
# 4 0.0000 0.0000 0.0000 26.7401 0.0000 0.1339
# 5 -13.9087 -4.9358 -10.4656 0.0000 45.4912 0.0000
# 6 0.0000 0.0000 0.0000 0.1339 0.0000 23.7731
#
#
#
# Elastic Compliance Matrix: (Units=1/GPa)
#
#
# Indices 1 2 3 4 5 6 
#
# 1 0.010841 -0.007106 -0.003004 0.000000 0.001852 0.000000
# 2 -0.007106 0.021879 -0.004383 0.000000 -0.000807 0.000000
# 3 -0.003004 -0.004383 0.013054 0.000000 0.001609 0.000000
# 4 0.000000 0.000000 0.000000 0.037398 0.000000 -0.000211
# 5 0.001852 -0.000807 0.001609 0.000000 0.022831 0.000000
# 6 0.000000 0.000000 0.000000 -0.000211 0.000000 0.042066
#
#
# Mechanical properties :
#
#
# Convention : Reuss Voigt Hill
#
# Bulk Modulus (GPa) = 59.56745 70.11329 64.84037
# Shear Modulus (GPa) = 27.37469 30.63895 29.00682
#
# Velocity S-wave (km/s) = 3.81656 4.03771 3.92869
# Velocity P-wave (km/s) = 7.14966 7.68407 7.42168
#
# Compressibility (1/GPa) = 0.01678769
#
# Stress axis : x y z
#
# Youngs Moduli (GPa) = 92.24577 45.70499 76.60699
#
# Poissons Ratio (x) = 0.32479 0.23012
# Poissons Ratio (y) = 0.65552 0.33576
# Poissons Ratio (z) = 0.27709 0.20032
#
# Static dielectric constant tensor:
#      x y z
#    x 3.591690 0.000000 -0.180650 
#    y 0.000000 3.488790 0.000000 
#    z -0.180650 0.000000 3.452460 
# 
# 
# High freq. dielectric constant tensor:
#      x y z
#    x 1.735950 0.000000 -0.014990 
#    y 0.000000 1.712070 0.000000 
#    z -0.014990 0.000000 1.735180 
# 
# From -- ./inp_files/65819.got.cif
#   From: 2010.06.25/outbox.cif.g09.slc.cpg/sg12_33_cif.got.tgz:65819.got - 2010.06.28 00:19:55.
