data_PCOD8113712
_publ_section_title
;
Structure prediction by ZEFSAII (Michael W. Deem and Ramdas Pophale) SiO2 
 PCOD8113712
Probable space group: C 2/M
;
_chemical_formula_sum "Si O2"
_cell_formula_units_Z 40
_cell_length_a 15.313445
_cell_length_b 12.780852
_cell_length_c 12.578787
_cell_angle_alpha 90.000000
_cell_angle_beta 128.633928
_cell_angle_gamma 90.000000
_cell_volume 1923.120115
_symmetry_space_group_name_H-M "C 2/M"
_symmetry_group_IT_number 12
_symmetry_cell_setting 'monoclinic'
loop_
_space_group_symop_operation_xyz
x,y,z
-x,y,-z
-x,-y,-z
x,-y,z
1/2+x,1/2+y,z
1/2-x,1/2+y,-z
1/2-x,1/2-y,-z
1/2+x,1/2-y,z
loop_
_atom_site_type_symbol
_atom_site_label
_atom_site_fract_x
_atom_site_fract_y
_atom_site_fract_z
Si Si1 0.669328 0.500000 0.483924
Si Si2 0.474981 0.174367 0.865774
Si Si3 0.199338 0.500000 0.226110
Si Si4 0.179146 0.000000 0.892727
Si Si5 0.000000 0.684573 0.500000
Si Si6 0.101273 0.500000 0.856494
Si Si7 0.401780 0.000000 0.536653
Si Si8 0.503187 0.672526 0.703062
O O1 0.683464 0.500000 0.621793
O O2 0.792281 0.500000 0.525251
O O3 0.601972 0.602990 0.406054
O O4 0.365713 0.103430 0.788615
O O5 0.578961 0.103497 0.909037
O O6 0.454730 0.262248 0.763628
O O7 0.500000 0.225093 0.000000
O O8 0.225317 0.500000 0.123241
O O9 0.106055 0.104470 0.825743
O O10 0.261842 0.000000 0.060645
O O11 0.099156 0.606131 0.535510
O O12 0.959574 0.756764 0.370019
O O13 0.019901 0.500000 0.691889
#
# Coordination Sequence:
#
# PCOD8113712 Si02
#       8
#     4   8   4   4   4   4   4   8
#     4  11  23  42  61  90 131 167 203 254 305 377
#     4  11  21  41  66  92 116 164 217 254 296 371
#     4  11  19  37  68  89 117 162 215 255 297 364
#     4  11  24  40  62  92 128 164 203 264 307 359
#     4  11  22  43  64  98 128 159 206 257 314 372
#     4  11  19  44  64  87 123 158 212 258 295 361
#     4  11  23  41  67  94 128 159 205 262 311 359
#     4  11  25  41  61  94 131 162 204 251 319 370
#
# _framework density 20.799531999999999
#
# number of rings (size 3 to 8) (size 9 to 14) (size 15 to 20)
#    0.000    1.000    6.000    1.800    0.000    7.200 
#    0.000    4.000    0.000    0.000    0.000    0.000 
#    0.000    0.000    0.000    0.000    0.000    0.000 
#
# Total GULP energy -247840.392286 kJ/mol
# GULP energy per Si atom -12392.019614 kJ/mol
# Density = 2.075219 g / cm^3
# Si number density = 20.799532 Si / 1000 Ang^3
#
#
#
# Elastic Constant Matrix: (Units=GPa)
#
#
# Indices 1 2 3 4 5 6 
#
# 1 69.2306 35.8403 40.4911 0.0000 -3.5202 0.0000
# 2 35.8403 116.1158 49.0876 0.0000 -5.0417 0.0000
# 3 40.4911 49.0876 134.3934 0.0000 2.1829 0.0000
# 4 0.0000 0.0000 0.0000 -8.7688 0.0000 -23.5375
# 5 -3.5202 -5.0417 2.1829 0.0000 42.4592 0.0000
# 6 0.0000 0.0000 0.0000 -23.5375 0.0000 29.2888
#
#
#
# Elastic Compliance Matrix: (Units=1/GPa)
#
#
# Indices 1 2 3 4 5 6 
#
# 1 0.019115 -0.004019 -0.004313 0.000000 0.001329 0.000000
# 2 -0.004019 0.011114 -0.002867 0.000000 0.001134 0.000000
# 3 -0.004313 -0.002867 0.009807 0.000000 -0.001202 0.000000
# 4 0.000000 0.000000 0.000000 -0.036121 0.000000 -0.029029
# 5 0.001329 0.001134 -0.001202 0.000000 0.023859 0.000000
# 6 0.000000 0.000000 0.000000 -0.029029 0.000000 0.010814
#
#
# Mechanical properties :
#
#
# Convention : Reuss Voigt Hill
#
# Bulk Modulus (GPa) = 56.69469 63.39755 60.04612
# Shear Modulus (GPa) = 74.77814 25.55057 50.16436
#
# Velocity S-wave (km/s) = 6.00249 3.50869 4.91634
# Velocity P-wave (km/s) = 8.68082 6.85281 7.82041
#
# Compressibility (1/GPa) = 0.01763834
#
# Stress axis : x y z
#
# Youngs Moduli (GPa) = 52.31447 89.97799 101.96927
#
# Poissons Ratio (x) = 0.36164 0.43977
# Poissons Ratio (y) = 0.21026 0.29233
# Poissons Ratio (z) = 0.22562 0.25795
#
# Static dielectric constant tensor:
#      x y z
#    x 3.696950 0.000000 -0.188880 
#    y 0.000000 3.815180 0.000000 
#    z -0.188880 0.000000 3.906110 
# 
# 
# High freq. dielectric constant tensor:
#      x y z
#    x 1.799450 0.000000 -0.011010 
#    y 0.000000 1.817590 0.000000 
#    z -0.011010 0.000000 1.821080 
# 
# From -- ./inp_files/223604.got.cif
#   From: 2010.06.25/outbox.cif.g09.slc.cpg/sg12_112_cif.got.tgz:223604.got - 2010.06.28 00:19:55.
