data_PCOD8113915
_publ_section_title
;
Structure prediction by ZEFSAII (Michael W. Deem and Ramdas Pophale) SiO2 
 PCOD8113915
Probable space group: C 2/M
;
_chemical_formula_sum "Si O2"
_cell_formula_units_Z 24
_cell_length_a 8.489575
_cell_length_b 12.636677
_cell_length_c 10.172409
_cell_angle_alpha 90.000000
_cell_angle_beta 92.504446
_cell_angle_gamma 90.000000
_cell_volume 1090.253843
_symmetry_space_group_name_H-M "C 2/M"
_symmetry_group_IT_number 12
_symmetry_cell_setting 'monoclinic'
loop_
_space_group_symop_operation_xyz
x,y,z
-x,y,-z
-x,-y,-z
x,-y,z
1/2+x,1/2+y,z
1/2-x,1/2+y,-z
1/2-x,1/2-y,-z
1/2+x,1/2-y,z
loop_
_atom_site_type_symbol
_atom_site_label
_atom_site_fract_x
_atom_site_fract_y
_atom_site_fract_z
Si Si1 0.958040 0.194352 0.849467
Si Si2 0.922053 0.000000 0.289679
Si Si3 0.626196 0.117491 0.749235
Si Si4 0.257740 0.500000 0.538738
O O1 0.777424 0.160772 0.833533
O O2 0.983598 0.301284 0.765082
O O3 0.076817 0.103576 0.801227
O O4 0.000000 0.219672 0.000000
O O5 0.767189 0.000000 0.380470
O O6 0.071314 0.000000 0.389653
O O7 0.666873 0.104114 0.593774
O O8 0.584381 0.000000 0.804270
#
# Coordination Sequence:
#
# PCOD8113915 Si02
#       4
#     8   4   8   4
#     4  11  20  36  57  82 110 144 176 221 272 317
#     4   9  17  32  59  77 105 146 180 214 266 326
#     4   9  21  38  55  81 109 142 180 223 265 318
#     4   7  16  36  52  79 105 141 180 218 270 305
#
# _framework density 22.013218999999999
#
# number of rings (size 3 to 8) (size 9 to 14) (size 15 to 20)
#    1.000    1.667    1.667    1.500    0.000    2.000 
#    3.000    0.000    0.000    2.000    0.000    0.000 
#    0.000    0.000    0.000    0.000    0.000    0.000 
#
# Total GULP energy -148667.634610 kJ/mol
# GULP energy per Si atom -12388.969551 kJ/mol
# Density = 2.196312 g / cm^3
# Si number density = 22.013219 Si / 1000 Ang^3
#
#
#
# Elastic Constant Matrix: (Units=GPa)
#
#
# Indices 1 2 3 4 5 6 
#
# 1 10.6211 29.6895 7.8785 0.0000 -4.4613 0.0000
# 2 29.6895 169.3588 24.6424 0.0000 -22.5395 0.0000
# 3 7.8785 24.6424 77.4592 0.0000 -30.8930 0.0000
# 4 0.0000 0.0000 0.0000 25.3088 0.0000 -7.2402
# 5 -4.4613 -22.5395 -30.8930 0.0000 23.4277 0.0000
# 6 0.0000 0.0000 0.0000 -7.2402 0.0000 13.9728
#
#
#
# Elastic Compliance Matrix: (Units=1/GPa)
#
#
# Indices 1 2 3 4 5 6 
#
# 1 0.193109 -0.033733 -0.015160 0.000000 -0.015671 0.000000
# 2 -0.033733 0.012697 0.003589 0.000000 0.010525 0.000000
# 3 -0.015160 0.003589 0.028552 0.000000 0.038216 0.000000
# 4 0.000000 0.000000 0.000000 0.046388 0.000000 0.024037
# 5 -0.015671 0.010525 0.038216 0.000000 0.100220 0.000000
# 6 0.000000 0.000000 0.000000 0.024037 0.000000 0.084022
#
#
# Mechanical properties :
#
#
# Convention : Reuss Voigt Hill
#
# Bulk Modulus (GPa) = 6.95651 42.42890 24.69270
# Shear Modulus (GPa) = 8.28484 25.55711 16.92098
#
# Velocity S-wave (km/s) = 1.94210 3.41103 2.77550
# Velocity P-wave (km/s) = 2.86287 5.90166 4.63819
#
# Compressibility (1/GPa) = 0.14375030
#
# Stress axis : x y z
#
# Youngs Moduli (GPa) = 5.17842 78.76142 35.02399
#
# Poissons Ratio (x) = 2.65684 0.53097
# Poissons Ratio (y) = 0.17468 -0.12571
# Poissons Ratio (z) = 0.07851 -0.28270
#
# Static dielectric constant tensor:
#      x y z
#    x 3.866080 0.000000 -0.512510 
#    y 0.000000 4.015180 0.000000 
#    z -0.512510 0.000000 3.874110 
# 
# 
# High freq. dielectric constant tensor:
#      x y z
#    x 1.847650 0.000000 -0.018890 
#    y 0.000000 1.863790 0.000000 
#    z -0.018890 0.000000 1.848300 
# 
# From -- ./inp_files/35875.got.cif
#   From: 2010.06.25/outbox.cif.g09.slc.cpg/sg12_18_cif.got.tgz:35875.got - 2010.06.28 00:19:55.
