data_PCOD8113630
_publ_section_title
;
Structure prediction by ZEFSAII (Michael W. Deem and Ramdas Pophale) SiO2 
 PCOD8113630
Probable space group: C 2/M
;
_chemical_formula_sum "Si O2"
_cell_formula_units_Z 40
_cell_length_a 16.579355
_cell_length_b 18.335664
_cell_length_c 11.296845
_cell_angle_alpha 90.000000
_cell_angle_beta 31.189489
_cell_angle_gamma 90.000000
_cell_volume 1778.452480
_symmetry_space_group_name_H-M "C 2/M"
_symmetry_group_IT_number 12
_symmetry_cell_setting 'monoclinic'
loop_
_space_group_symop_operation_xyz
x,y,z
-x,y,-z
-x,-y,-z
x,-y,z
1/2+x,1/2+y,z
1/2-x,1/2+y,-z
1/2-x,1/2-y,-z
1/2+x,1/2-y,z
loop_
_atom_site_type_symbol
_atom_site_label
_atom_site_fract_x
_atom_site_fract_y
_atom_site_fract_z
Si Si1 0.959442 0.157915 0.835977
Si Si2 0.771968 0.082523 0.604185
Si Si3 0.940247 0.682854 0.269123
Si Si4 0.712929 0.334728 0.190347
Si Si5 0.834953 0.323570 0.654583
O O1 0.901509 0.173367 0.775780
O O2 0.084380 0.092893 0.668051
O O3 0.051307 0.230157 0.766980
O O4 0.814495 0.134210 0.101198
O O5 0.632334 0.139261 0.750613
O O6 0.826769 0.098975 0.670386
O O7 0.711511 0.000000 0.669567
O O8 0.834906 0.663139 0.514638
O O9 0.113861 0.654605 0.077096
O O10 0.693675 0.261277 0.288373
O O11 0.000000 0.350964 0.500000
#
# Coordination Sequence:
#
# PCOD8113630 Si02
#       5
#     8   8   8   8   8
#     4  11  22  39  68 101 126 166 222 270 319 379
#     4  12  27  44  61  93 141 178 212 259 325 394
#     4  11  22  40  66  97 133 169 214 267 325 385
#     4  11  21  38  68 100 129 161 216 271 327 380
#     4  11  18  37  68 100 125 159 211 282 323 367
#
# _framework density 22.491464000000001
#
# number of rings (size 3 to 8) (size 9 to 14) (size 15 to 20)
#    0.000    0.800    6.000    3.000    0.000    4.000 
#    0.000    2.000    0.000    1.200    0.000    0.000 
#    0.000    0.000    0.000    0.000    0.000    0.000 
#
# Total GULP energy -247958.382837 kJ/mol
# GULP energy per Si atom -12397.919142 kJ/mol
# Density = 2.244027 g / cm^3
# Si number density = 22.491464 Si / 1000 Ang^3
#
#
#
# Elastic Constant Matrix: (Units=GPa)
#
#
# Indices 1 2 3 4 5 6 
#
# 1 44.3129 18.5819 17.1175 -0.0049 -2.1045 0.0044
# 2 18.5819 67.6550 21.7296 -0.0020 -4.7419 0.0014
# 3 17.1175 21.7296 121.4969 -0.0019 8.2005 0.0008
# 4 -0.0049 -0.0020 -0.0019 16.6693 0.0032 2.4180
# 5 -2.1045 -4.7419 8.2005 0.0032 30.6952 -0.0031
# 6 0.0044 0.0014 0.0008 2.4180 -0.0031 15.5963
#
#
#
# Elastic Compliance Matrix: (Units=1/GPa)
#
#
# Indices 1 2 3 4 5 6 
#
# 1 0.026302 -0.006250 -0.002693 0.000007 0.001557 -0.000008
# 2 -0.006250 0.017488 -0.002445 -0.000001 0.002926 0.000001
# 3 -0.002693 -0.002445 0.009252 0.000001 -0.003034 0.000000
# 4 0.000007 -0.000001 0.000001 0.061371 -0.000007 -0.009515
# 5 0.001557 0.002926 -0.003034 -0.000007 0.033948 0.000007
# 6 -0.000008 0.000001 0.000000 -0.009515 0.000007 0.065593
#
#
# Mechanical properties :
#
#
# Convention : Reuss Voigt Hill
#
# Bulk Modulus (GPa) = 33.03966 38.70255 35.87110
# Shear Modulus (GPa) = 20.25793 24.32787 22.29290
#
# Velocity S-wave (km/s) = 3.00441 3.29241 3.15170
# Velocity P-wave (km/s) = 5.17273 5.63013 5.40626
#
# Compressibility (1/GPa) = 0.03026665
#
# Stress axis : x y z
#
# Youngs Moduli (GPa) = 38.02028 57.18304 108.08381
#
# Poissons Ratio (x) = 0.35739 0.29106
# Poissons Ratio (y) = 0.23762 0.26423
# Poissons Ratio (z) = 0.10239 0.13979
#
# Static dielectric constant tensor:
#      x y z
#    x 3.974010 0.000000 -0.137020 
#    y 0.000000 3.396340 0.000010 
#    z -0.137020 0.000010 4.716060 
# 
# 
# High freq. dielectric constant tensor:
#      x y z
#    x 1.888820 0.000000 -0.006360 
#    y 0.000000 1.811610 0.000000 
#    z -0.006360 0.000000 1.919640 
# 
# From -- ./inp_files/77187.got.cif
#   From: 2010.06.25/outbox.cif.g09.slc.cpg/sg12_39_cif.got.tgz:77187.got - 2010.06.28 00:19:55.
