data_PCOD8113510
_publ_section_title
;
Structure prediction by ZEFSAII (Michael W. Deem and Ramdas Pophale) SiO2 
 PCOD8113510
Probable space group: C 2/M
;
_chemical_formula_sum "Si O2"
_cell_formula_units_Z 40
_cell_length_a 10.430195
_cell_length_b 8.042210
_cell_length_c 21.964801
_cell_angle_alpha 90.000000
_cell_angle_beta 96.225516
_cell_angle_gamma 90.000000
_cell_volume 1831.582114
_symmetry_space_group_name_H-M "C 2/M"
_symmetry_group_IT_number 12
_symmetry_cell_setting 'monoclinic'
loop_
_space_group_symop_operation_xyz
x,y,z
-x,y,-z
-x,-y,-z
x,-y,z
1/2+x,1/2+y,z
1/2-x,1/2+y,-z
1/2-x,1/2-y,-z
1/2+x,1/2-y,z
loop_
_atom_site_type_symbol
_atom_site_label
_atom_site_fract_x
_atom_site_fract_y
_atom_site_fract_z
Si Si1 0.603549 0.000000 0.451806
Si Si2 0.927332 0.316606 0.372795
Si Si3 0.380038 0.500000 0.448261
Si Si4 0.675786 0.308785 0.172851
Si Si5 0.634944 0.805308 0.037170
Si Si6 0.564180 0.309504 0.760508
O O1 0.500000 0.000000 0.500000
O O2 0.572819 0.163436 0.408132
O O3 0.750109 0.000000 0.482616
O O4 0.858564 0.500000 0.380672
O O5 0.865583 0.161735 0.404911
O O6 0.931071 0.292104 0.301243
O O7 0.500000 0.500000 0.500000
O O8 0.702358 0.500000 0.189841
O O9 0.645321 0.292470 0.100470
O O10 0.553343 0.240339 0.204569
O O11 0.802585 0.205473 0.196110
O O12 0.642459 0.000000 0.050867
O O13 0.500000 0.754735 0.000000
O O14 0.750000 0.750000 0.000000
O O15 0.539317 0.500000 0.742882
#
# Coordination Sequence:
#
# PCOD8113510 Si02
#       6
#     4   8   4   8   8   8
#     4  10  26  50  70 108 140 182 234 284 350 414
#     4  10  25  45  68 104 139 181 230 289 344 417
#     4  12  26  48  78 102 140 190 228 289 350 416
#     4  11  25  42  67 100 135 179 229 285 342 410
#     4  11  24  42  66  97 135 179 226 281 342 409
#     4  11  24  44  68  99 136 181 230 282 349 409
#
# _framework density 21.839043
#
# number of rings (size 3 to 8) (size 9 to 14) (size 15 to 20)
#    0.600    0.600    1.000    3.600    2.800   11.200 
#    1.800    0.000    0.000    0.000    0.000    0.000 
#    0.000    0.000    0.000    0.000    0.000    0.000 
#
# Total GULP energy -247853.018118 kJ/mol
# GULP energy per Si atom -12392.650906 kJ/mol
# Density = 2.178934 g / cm^3
# Si number density = 21.839043 Si / 1000 Ang^3
#
#
#
# Elastic Constant Matrix: (Units=GPa)
#
#
# Indices 1 2 3 4 5 6 
#
# 1 166.5213 26.4281 57.9662 0.0000 -5.0805 0.0000
# 2 26.4281 106.9384 29.9068 0.0000 -9.9973 0.0000
# 3 57.9662 29.9068 143.0763 0.0000 -3.2487 0.0000
# 4 0.0000 0.0000 0.0000 34.1918 0.0000 6.9898
# 5 -5.0805 -9.9973 -3.2487 0.0000 34.4225 0.0000
# 6 0.0000 0.0000 0.0000 6.9898 0.0000 20.6965
#
#
#
# Elastic Compliance Matrix: (Units=1/GPa)
#
#
# Indices 1 2 3 4 5 6 
#
# 1 0.007101 -0.000961 -0.002664 0.000000 0.000517 0.000000
# 2 -0.000961 0.010318 -0.001706 0.000000 0.002694 0.000000
# 3 -0.002664 -0.001706 0.008423 0.000000 -0.000094 0.000000
# 4 0.000000 0.000000 0.000000 0.031416 0.000000 -0.010610
# 5 0.000517 0.002694 -0.000094 0.000000 0.029901 0.000000
# 6 0.000000 0.000000 0.000000 -0.010610 0.000000 0.051901
#
#
# Mechanical properties :
#
#
# Convention : Reuss Voigt Hill
#
# Bulk Modulus (GPa) = 65.88240 71.68202 68.78221
# Shear Modulus (GPa) = 32.30357 38.01116 35.15736
#
# Velocity S-wave (km/s) = 3.85017 4.17647 4.01663
# Velocity P-wave (km/s) = 7.07091 7.49342 7.28523
#
# Compressibility (1/GPa) = 0.01517856
#
# Stress axis : x y z
#
# Youngs Moduli (GPa) = 140.82474 96.92075 118.72068
#
# Poissons Ratio (x) = 0.09318 0.31630
# Poissons Ratio (y) = 0.13540 0.20254
# Poissons Ratio (z) = 0.37519 0.16535
#
# Static dielectric constant tensor:
#      x y z
#    x 4.026420 0.000000 0.084250 
#    y 0.000000 4.051140 0.000000 
#    z 0.084250 0.000000 3.956680 
# 
# 
# High freq. dielectric constant tensor:
#      x y z
#    x 1.851160 0.000000 0.005020 
#    y 0.000000 1.868430 0.000000 
#    z 0.005020 0.000000 1.872670 
# 
# From -- ./inp_files/331790.got.cif
#   From: 2010.06.25/outbox.cif.g09.slc.cpg/sg12_166_cif.got.tgz:331790.got - 2010.06.28 00:19:55.
