data_PCOD8113494
_publ_section_title
;
Structure prediction by ZEFSAII (Michael W. Deem and Ramdas Pophale) SiO2 
 PCOD8113494
Probable space group: C 2/M
;
_chemical_formula_sum "Si O2"
_cell_formula_units_Z 48
_cell_length_a 12.625582
_cell_length_b 19.616773
_cell_length_c 12.060180
_cell_angle_alpha 90.000000
_cell_angle_beta 48.614705
_cell_angle_gamma 90.000000
_cell_volume 2241.075972
_symmetry_space_group_name_H-M "C 2/M"
_symmetry_group_IT_number 12
_symmetry_cell_setting 'monoclinic'
loop_
_space_group_symop_operation_xyz
x,y,z
-x,y,-z
-x,-y,-z
x,-y,z
1/2+x,1/2+y,z
1/2-x,1/2+y,-z
1/2-x,1/2-y,-z
1/2+x,1/2-y,z
loop_
_atom_site_type_symbol
_atom_site_label
_atom_site_fract_x
_atom_site_fract_y
_atom_site_fract_z
Si Si1 0.822710 0.424006 0.291646
Si Si2 0.157920 0.670439 0.914577
Si Si3 0.666486 0.923654 0.365122
Si Si4 0.101368 0.627250 0.189147
Si Si5 0.195761 0.172698 0.553462
Si Si6 0.060014 0.237703 0.334625
O O1 0.760870 0.500000 0.341656
O O2 0.826761 0.400818 0.161155
O O3 0.724406 0.372246 0.425468
O O4 0.979902 0.424017 0.233204
O O5 0.272113 0.724465 0.789864
O O6 0.187477 0.655740 0.023853
O O7 0.000000 0.700312 0.000000
O O8 0.500000 0.916320 0.500000
O O9 0.699486 0.911417 0.211335
O O10 0.748362 0.865465 0.376202
O O11 0.717008 0.000000 0.364332
O O12 0.024668 0.689396 0.305357
O O13 0.250000 0.250000 0.500000
O O14 0.025059 0.179985 0.676269
O O15 0.000000 0.239345 0.500000
#
# Coordination Sequence:
#
# PCOD8113494 Si02
#       6
#     8   8   8   8   8   8
#     4  11  22  40  66  97 132 174 221 273 327 391
#     4  10  25  43  64  99 136 176 220 274 337 395
#     4  11  22  37  62  96 132 171 217 268 322 393
#     4  11  22  39  65  97 134 173 219 270 331 391
#     4  12  22  39  65  98 132 167 221 278 328 380
#     4  12  23  42  68  99 134 173 226 277 332 390
#
# _framework density 21.418282999999999
#
# number of rings (size 3 to 8) (size 9 to 14) (size 15 to 20)
#    0.000    0.833    5.000    3.000    0.000    3.667 
#    0.000    3.333    0.000    1.000    0.000    0.000 
#    0.000    0.000    0.000    0.000    0.000    0.000 
#
# Total GULP energy -297502.878670 kJ/mol
# GULP energy per Si atom -12395.953278 kJ/mol
# Density = 2.136953 g / cm^3
# Si number density = 21.418283 Si / 1000 Ang^3
#
#
#
# Elastic Constant Matrix: (Units=GPa)
#
#
# Indices 1 2 3 4 5 6 
#
# 1 88.6730 42.1107 43.2513 0.0000 16.5001 0.0000
# 2 42.1107 140.1669 37.2123 0.0000 7.9177 0.0000
# 3 43.2513 37.2123 109.1489 0.0000 16.6285 0.0001
# 4 0.0000 0.0000 0.0000 18.7266 0.0000 4.9041
# 5 16.5001 7.9177 16.6285 0.0000 45.1340 0.0000
# 6 0.0000 0.0000 0.0001 4.9041 0.0000 32.6463
#
#
#
# Elastic Compliance Matrix: (Units=1/GPa)
#
#
# Indices 1 2 3 4 5 6 
#
# 1 0.015730 -0.003315 -0.004572 0.000000 -0.003485 0.000000
# 2 -0.003315 0.008550 -0.001650 0.000000 0.000320 0.000000
# 3 -0.004572 -0.001650 0.011906 0.000000 -0.002425 0.000000
# 4 0.000000 0.000000 0.000000 0.055587 0.000000 -0.008350
# 5 -0.003485 0.000320 -0.002425 0.000000 0.024268 0.000000
# 6 0.000000 0.000000 0.000000 -0.008350 0.000000 0.031886
#
#
# Mechanical properties :
#
#
# Convention : Reuss Voigt Hill
#
# Bulk Modulus (GPa) = 58.44097 64.79302 61.61700
# Shear Modulus (GPa) = 28.95109 33.66236 31.30672
#
# Velocity S-wave (km/s) = 3.68054 3.96872 3.82734
# Velocity P-wave (km/s) = 6.73844 7.16366 6.95430
#
# Compressibility (1/GPa) = 0.01711128
#
# Stress axis : x y z
#
# Youngs Moduli (GPa) = 63.57149 116.95401 83.99383
#
# Poissons Ratio (x) = 0.38773 0.38403
# Poissons Ratio (y) = 0.21075 0.13860
# Poissons Ratio (z) = 0.29066 0.19299
#
# Static dielectric constant tensor:
#      x y z
#    x 4.158370 0.000000 0.214280 
#    y 0.000000 3.824360 0.000000 
#    z 0.214280 0.000000 3.906320 
# 
# 
# High freq. dielectric constant tensor:
#      x y z
#    x 1.832080 0.000000 0.028510 
#    y 0.000000 1.837150 0.000000 
#    z 0.028510 0.000000 1.830120 
# 
# From -- ./inp_files/132972.got.cif
#   From: 2010.06.25/outbox.cif.g09.slc.cpg/sg12_67_cif.got.tgz:132972.got - 2010.06.28 00:19:55.
