data_PCOD8113071
_publ_section_title
;
Structure prediction by ZEFSAII (Michael W. Deem and Ramdas Pophale) SiO2 
 PCOD8113071
Probable space group: C 2/M
;
_chemical_formula_sum "Si O2"
_cell_formula_units_Z 56
_cell_length_a 9.575624
_cell_length_b 25.648399
_cell_length_c 20.151841
_cell_angle_alpha 90.000000
_cell_angle_beta 34.059882
_cell_angle_gamma 90.000000
_cell_volume 2771.889403
_symmetry_space_group_name_H-M "C 2/M"
_symmetry_group_IT_number 12
_symmetry_cell_setting 'monoclinic'
loop_
_space_group_symop_operation_xyz
x,y,z
-x,y,-z
-x,-y,-z
x,-y,z
1/2+x,1/2+y,z
1/2-x,1/2+y,-z
1/2-x,1/2-y,-z
1/2+x,1/2-y,z
loop_
_atom_site_type_symbol
_atom_site_label
_atom_site_fract_x
_atom_site_fract_y
_atom_site_fract_z
Si Si1 0.450640 0.336961 0.094494
Si Si2 0.846992 0.439060 0.496327
Si Si3 0.973693 0.629989 0.935669
Si Si4 0.748782 0.230063 0.781861
Si Si5 0.940142 0.615934 0.324923
Si Si6 0.728084 0.439025 0.283877
Si Si7 0.246486 0.725750 0.629476
O O1 0.395039 0.284831 0.157822
O O2 0.218060 0.376339 0.187247
O O3 0.500000 0.319328 0.000000
O O4 0.682686 0.367039 0.033825
O O5 0.887580 0.500000 0.468636
O O6 0.958721 0.410066 0.389065
O O7 0.557340 0.425549 0.620604
O O8 0.000000 0.419395 0.500000
O O9 0.097356 0.686778 0.881341
O O10 0.099646 0.589075 0.837231
O O11 0.000000 0.609183 0.000000
O O12 0.770184 0.212925 0.697459
O O13 0.024788 0.233448 0.704153
O O14 0.785255 0.579711 0.335898
O O15 0.806257 0.671544 0.387121
O O16 0.782741 0.500000 0.258005
O O17 0.500000 0.750206 0.500000
#
# Coordination Sequence:
#
# PCOD8113071 Si02
#       7
#     8   8   8   8   8   8   8
#     4  11  22  42  64  94 125 168 220 266 312 382
#     4  10  23  43  69  97 127 163 212 268 321 385
#     4  12  24  40  63  91 128 169 217 265 317 376
#     4  11  22  40  62  90 124 173 215 258 318 380
#     4  11  22  41  68  96 127 170 211 264 321 384
#     4  11  23  43  67  94 128 170 214 260 322 385
#     4  11  22  39  60  94 133 165 208 265 320 383
#
# _framework density 20.202826000000002
#
# number of rings (size 3 to 8) (size 9 to 14) (size 15 to 20)
#    0.000    1.000    2.857    4.714    2.000    1.429 
#    0.000    2.143    0.000    0.000    0.000    0.000 
#    0.000    0.000    0.000    0.000    0.000    0.000 
#
# Total GULP energy -347414.531287 kJ/mol
# GULP energy per Si atom -12407.661832 kJ/mol
# Density = 2.015684 g / cm^3
# Si number density = 20.202826 Si / 1000 Ang^3
#
#
#
# Elastic Constant Matrix: (Units=GPa)
#
#
# Indices 1 2 3 4 5 6 
#
# 1 131.4453 33.8166 45.5485 -0.0038 0.3118 0.0059
# 2 33.8166 69.7324 28.9649 0.0019 -7.8159 -0.0065
# 3 45.5485 28.9649 98.3462 -0.0102 -6.6197 -0.0417
# 4 -0.0038 0.0019 -0.0102 27.1436 -0.0011 8.2996
# 5 0.3118 -7.8159 -6.6197 -0.0011 50.9654 0.0028
# 6 0.0059 -0.0065 -0.0417 8.2996 0.0028 20.2119
#
#
#
# Elastic Compliance Matrix: (Units=1/GPa)
#
#
# Indices 1 2 3 4 5 6 
#
# 1 0.009711 -0.003336 -0.003585 0.000004 -0.001037 -0.000013
# 2 -0.003336 0.017670 -0.003506 -0.000003 0.002275 0.000000
# 3 -0.003585 -0.003506 0.012939 -0.000004 0.001165 0.000028
# 4 0.000004 -0.000003 -0.000004 0.042131 0.000001 -0.017300
# 5 -0.001037 0.002275 0.001165 0.000001 0.020128 0.000000
# 6 -0.000013 0.000000 0.000028 -0.017300 0.000000 0.056580
#
#
# Mechanical properties :
#
#
# Convention : Reuss Voigt Hill
#
# Bulk Modulus (GPa) = 51.37112 57.35376 54.36244
# Shear Modulus (GPa) = 26.80960 32.41044 29.61002
#
# Velocity S-wave (km/s) = 3.64678 4.00966 3.83252
# Velocity P-wave (km/s) = 6.57381 7.06308 6.82283
#
# Compressibility (1/GPa) = 0.01946619
#
# Stress axis : x y z
#
# Youngs Moduli (GPa) = 102.97943 56.59410 77.28414
#
# Poissons Ratio (x) = 0.18882 0.27703
# Poissons Ratio (y) = 0.34358 0.27094
# Poissons Ratio (z) = 0.36914 0.19840
#
# Static dielectric constant tensor:
#      x y z
#    x 3.880030 0.000010 -0.120760 
#    y 0.000010 3.517110 0.000000 
#    z -0.120760 0.000000 3.732130 
# 
# 
# High freq. dielectric constant tensor:
#      x y z
#    x 1.803800 0.000000 -0.003340 
#    y 0.000000 1.776690 0.000000 
#    z -0.003340 0.000000 1.801160 
# 
# From -- ./inp_files/124261.got.cif
#   From: 2010.06.25/outbox.cif.g09.slc.cpg/sg12_63_cif.got.tgz:124261.got - 2010.06.28 00:19:55.
