data_PCOD8113521
_publ_section_title
;
Structure prediction by ZEFSAII (Michael W. Deem and Ramdas Pophale) SiO2 
 PCOD8113521
Probable space group: C 2/M
;
_chemical_formula_sum "Si O2"
_cell_formula_units_Z 28
_cell_length_a 17.620163
_cell_length_b 14.472651
_cell_length_c 6.932107
_cell_angle_alpha 90.000000
_cell_angle_beta 146.401312
_cell_angle_gamma 90.000000
_cell_volume 978.229652
_symmetry_space_group_name_H-M "C 2/M"
_symmetry_group_IT_number 12
_symmetry_cell_setting 'monoclinic'
loop_
_space_group_symop_operation_xyz
x,y,z
-x,y,-z
-x,-y,-z
x,-y,z
1/2+x,1/2+y,z
1/2-x,1/2+y,-z
1/2-x,1/2-y,-z
1/2+x,1/2-y,z
loop_
_atom_site_type_symbol
_atom_site_label
_atom_site_fract_x
_atom_site_fract_y
_atom_site_fract_z
Si Si1 0.409991 0.500000 0.501718
Si Si2 0.371622 0.000000 0.364688
Si Si3 0.296878 0.156783 0.436658
Si Si4 0.995657 0.804069 0.261096
Si Si5 0.860440 0.500000 0.857368
O O1 0.500000 0.500000 0.500000
O O2 0.453583 0.405927 0.700977
O O3 0.235051 0.500000 0.130100
O O4 0.500000 0.000000 0.500000
O O5 0.283505 0.907223 0.212838
O O6 0.474369 0.000000 0.777731
O O7 0.420565 0.226691 0.672101
O O8 0.306951 0.093700 0.647979
O O9 0.156499 0.214421 0.144120
O O10 0.000000 0.790232 0.500000
#
# Coordination Sequence:
#
# PCOD8113521 Si02
#       5
#     4   4   8   8   4
#     4  10  25  46  77 102 151 192 255 308 373 439
#     4  11  26  47  80 106 153 200 250 312 378 459
#     4  11  25  47  75 113 154 196 251 313 376 440
#     4  11  25  45  77 112 155 203 258 303 373 448
#     4  11  27  51  74 112 153 195 254 308 391 445
#
# _framework density 28.623134
#
# number of rings (size 3 to 8) (size 9 to 14) (size 15 to 20)
#    0.000    1.143    0.000    5.143   12.000    3.429 
#    5.143    0.000    0.000    0.000    0.000    0.000 
#    0.000    0.000    0.000    0.000    0.000    0.000 
#
# Total GULP energy -173499.054684 kJ/mol
# GULP energy per Si atom -12392.789620 kJ/mol
# Density = 2.855799 g / cm^3
# Si number density = 28.623134 Si / 1000 Ang^3
#
#
#
# Elastic Constant Matrix: (Units=GPa)
#
#
# Indices 1 2 3 4 5 6 
#
# 1 127.9280 62.3663 11.8598 0.0000 26.0286 0.0000
# 2 62.3663 193.6182 12.4311 0.0000 31.7708 0.0000
# 3 11.8598 12.4311 146.2185 0.0000 58.6370 0.0000
# 4 0.0000 0.0000 0.0000 36.7314 0.0000 23.3040
# 5 26.0286 31.7708 58.6370 0.0000 62.7745 0.0000
# 6 0.0000 0.0000 0.0000 23.3040 0.0000 9.7499
#
#
#
# Elastic Compliance Matrix: (Units=1/GPa)
#
#
# Indices 1 2 3 4 5 6 
#
# 1 0.009723 -0.002613 0.000831 0.000000 -0.003485 0.000000
# 2 -0.002613 0.006440 0.000859 0.000000 -0.002978 0.000000
# 3 0.000831 0.000859 0.011211 0.000000 -0.011251 0.000000
# 4 0.000000 0.000000 0.000000 -0.052717 0.000000 0.126003
# 5 -0.003485 -0.002978 -0.011251 0.000000 0.029392 0.000000
# 6 0.000000 0.000000 0.000000 0.126003 0.000000 -0.198605
#
#
# Mechanical properties :
#
#
# Convention : Reuss Voigt Hill
#
# Bulk Modulus (GPa) = 39.17460 71.23098 55.20279
# Shear Modulus (GPa) = -27.14430 47.25834 10.05702
#
# Velocity S-wave (km/s) = -3.08284 4.06772 1.87649
# Velocity P-wave (km/s) = 1.02184 6.85578 4.90132
#
# Compressibility (1/GPa) = 0.02552674
#
# Stress axis : x y z
#
# Youngs Moduli (GPa) = 102.84889 155.27732 89.20188
#
# Poissons Ratio (x) = 0.40579 -0.07415
# Poissons Ratio (y) = 0.26878 -0.07659
# Poissons Ratio (z) = -0.08549 -0.13333
#
# Static dielectric constant tensor:
#      x y z
#    x 5.454900 0.000000 0.994290 
#    y 0.000000 5.678670 0.000000 
#    z 0.994290 0.000000 3.992370 
# 
# 
# High freq. dielectric constant tensor:
#      x y z
#    x 2.204140 0.000000 0.007060 
#    y 0.000000 2.166600 0.000000 
#    z 0.007060 0.000000 2.176830 
# 
# From -- ./inp_files/86198.got.cif
#   From: 2010.06.25/outbox.cif.g09.slc.cpg/sg12_44_cif.got.tgz:86198.got - 2010.06.28 00:19:55.
