data_PCOD8113912
_publ_section_title
;
Structure prediction by ZEFSAII (Michael W. Deem and Ramdas Pophale) SiO2 
 PCOD8113912
Probable space group: C 2/M
;
_chemical_formula_sum "Si O2"
_cell_formula_units_Z 56
_cell_length_a 28.565629
_cell_length_b 11.265985
_cell_length_c 15.725805
_cell_angle_alpha 90.000000
_cell_angle_beta 37.803720
_cell_angle_gamma 90.000000
_cell_volume 3102.107293
_symmetry_space_group_name_H-M "C 2/M"
_symmetry_group_IT_number 12
_symmetry_cell_setting 'monoclinic'
loop_
_space_group_symop_operation_xyz
x,y,z
-x,y,-z
-x,-y,-z
x,-y,z
1/2+x,1/2+y,z
1/2-x,1/2+y,-z
1/2-x,1/2-y,-z
1/2+x,1/2-y,z
loop_
_atom_site_type_symbol
_atom_site_label
_atom_site_fract_x
_atom_site_fract_y
_atom_site_fract_z
Si Si1 0.091939 0.242729 0.569181
Si Si2 0.538279 0.500000 0.568402
Si Si3 0.315388 0.253252 0.837393
Si Si4 0.470165 0.138024 0.634168
Si Si5 0.447042 0.358462 0.201426
Si Si6 0.383515 0.500000 0.719100
Si Si7 0.392014 0.639468 0.097853
Si Si8 0.773002 0.358470 0.720540
O O1 0.074270 0.114118 0.558975
O O2 0.088118 0.227248 0.676179
O O3 0.174728 0.290337 0.422932
O O4 0.030586 0.336448 0.621519
O O5 0.444805 0.500000 0.709950
O O6 0.561551 0.500000 0.438632
O O7 0.392214 0.203619 0.769679
O O8 0.327011 0.389466 0.797279
O O9 0.295611 0.175024 0.783640
O O10 0.250000 0.250000 0.000000
O O11 0.500000 0.186948 0.500000
O O12 0.453841 0.000000 0.651252
O O13 0.437600 0.500000 0.234339
O O14 0.403516 0.318511 0.178354
O O15 0.536600 0.324016 0.063725
O O16 0.388552 0.500000 0.105577
O O17 0.312981 0.688253 0.172733
O O18 0.781971 0.500000 0.696241
#
# Coordination Sequence:
#
# PCOD8113912 Si02
#       8
#     8   4   8   8   8   4   8   8
#     4  12  21  34  58  89 110 147 191 231 285 334
#     4  11  20  36  56  81 112 144 188 239 278 328
#     4  12  26  38  56  84 117 152 189 235 284 328
#     4  11  22  40  58  79 114 156 195 227 269 338
#     4   9  18  35  60  87 113 142 182 238 291 340
#     4  11  22  40  56  78 115 150 194 232 281 334
#     4   8  18  37  58  83 114 146 184 231 289 344
#     4  11  23  39  57  81 116 154 192 234 282 339
#
# _framework density 18.052244999999999
#
# number of rings (size 3 to 8) (size 9 to 14) (size 15 to 20)
#    0.000    1.429    5.000    1.714    4.000    0.571 
#    0.000    0.000    0.000    0.000    1.857    4.000 
#    0.000    0.000    0.000    0.000    0.000    0.000 
#
# Total GULP energy -347138.121548 kJ/mol
# GULP energy per Si atom -12397.790055 kJ/mol
# Density = 1.801116 g / cm^3
# Si number density = 18.052245 Si / 1000 Ang^3
#
#
#
# Elastic Constant Matrix: (Units=GPa)
#
#
# Indices 1 2 3 4 5 6 
#
# 1 59.6382 10.2534 25.3354 0.0000 -6.4261 0.0000
# 2 10.2534 54.1147 15.4987 0.0000 2.6957 0.0000
# 3 25.3354 15.4987 106.5067 0.0000 4.1324 0.0000
# 4 0.0000 0.0000 0.0000 31.2218 0.0000 -2.6096
# 5 -6.4261 2.6957 4.1324 0.0000 34.2949 0.0000
# 6 0.0000 0.0000 0.0000 -2.6096 0.0000 20.8515
#
#
#
# Elastic Compliance Matrix: (Units=1/GPa)
#
#
# Indices 1 2 3 4 5 6 
#
# 1 0.019588 -0.002659 -0.004444 0.000000 0.004415 0.000000
# 2 -0.002659 0.019692 -0.002164 0.000000 -0.001785 0.000000
# 3 -0.004444 -0.002164 0.010837 0.000000 -0.001969 0.000000
# 4 0.000000 0.000000 0.000000 0.032367 0.000000 0.004051
# 5 0.004415 -0.001785 -0.001969 0.000000 0.030364 0.000000
# 6 0.000000 0.000000 0.000000 0.004051 0.000000 0.048465
#
#
# Mechanical properties :
#
#
# Convention : Reuss Voigt Hill
#
# Bulk Modulus (GPa) = 31.66100 35.82606 33.74353
# Shear Modulus (GPa) = 26.26394 28.55179 27.40786
#
# Velocity S-wave (km/s) = 3.81843 3.98127 3.90070
# Velocity P-wave (km/s) = 6.08418 6.40491 6.24660
#
# Compressibility (1/GPa) = 0.03158460
#
# Stress axis : x y z
#
# Youngs Moduli (GPa) = 51.05039 50.78288 92.27257
#
# Poissons Ratio (x) = 0.13502 0.41006
# Poissons Ratio (y) = 0.13573 0.19966
# Poissons Ratio (z) = 0.22687 0.10988
#
# Static dielectric constant tensor:
#      x y z
#    x 3.793610 0.000000 -0.237690 
#    y 0.000000 3.278400 0.000000 
#    z -0.237690 0.000000 3.545390 
# 
# 
# High freq. dielectric constant tensor:
#      x y z
#    x 1.697130 0.000000 -0.006840 
#    y 0.000000 1.685620 0.000000 
#    z -0.006840 0.000000 1.701930 
# 
# From -- ./inp_files/245649.got.cif
#   From: 2010.06.25/outbox.cif.g09.slc.cpg/sg12_123_cif.got.tgz:245649.got - 2010.06.28 00:19:55.
