data_PCOD8113096
_publ_section_title
;
Structure prediction by ZEFSAII (Michael W. Deem and Ramdas Pophale) SiO2 
 PCOD8113096
Probable space group: C 2/M
;
_chemical_formula_sum "Si O2"
_cell_formula_units_Z 56
_cell_length_a 24.664952
_cell_length_b 13.718909
_cell_length_c 11.404951
_cell_angle_alpha 90.000000
_cell_angle_beta 40.600530
_cell_angle_gamma 90.000000
_cell_volume 2511.471761
_symmetry_space_group_name_H-M "C 2/M"
_symmetry_group_IT_number 12
_symmetry_cell_setting 'monoclinic'
loop_
_space_group_symop_operation_xyz
x,y,z
-x,y,-z
-x,-y,-z
x,-y,z
1/2+x,1/2+y,z
1/2-x,1/2+y,-z
1/2-x,1/2-y,-z
1/2+x,1/2-y,z
loop_
_atom_site_type_symbol
_atom_site_label
_atom_site_fract_x
_atom_site_fract_y
_atom_site_fract_z
Si Si1 0.386981 0.613778 0.503607
Si Si2 0.805352 0.885190 0.401519
Si Si3 0.946357 0.222458 0.740083
Si Si4 0.810177 0.256211 0.790655
Si Si5 0.686369 0.615832 0.877155
Si Si6 0.519016 0.886776 0.152204
Si Si7 0.870201 0.614036 0.236980
O O1 0.378997 0.500000 0.541218
O O2 0.375865 0.638538 0.382934
O O3 0.476664 0.649178 0.401754
O O4 0.311094 0.663082 0.701669
O O5 0.831510 0.850847 0.228244
O O6 0.717650 0.835347 0.586340
O O7 0.790020 0.000000 0.421760
O O8 0.904663 0.256278 0.685692
O O9 0.978621 0.325004 0.734696
O O10 0.881530 0.168358 0.931564
O O11 0.779506 0.349595 0.764787
O O12 0.750000 0.250000 0.000000
O O13 0.680364 0.500000 0.902732
O O14 0.440832 0.846012 0.207600
O O15 0.510348 0.000000 0.198880
O O16 0.603804 0.866070 0.939963
O O17 0.865299 0.500000 0.265810
#
# Coordination Sequence:
#
# PCOD8113096 Si02
#       7
#     8   8   8   8   8   8   8
#     4  11  25  45  70  97 131 175 215 271 331 388
#     4   9  20  37  64  97 127 167 220 267 330 405
#     4  11  24  42  64  99 134 173 230 264 311 408
#     4  10  25  44  63  94 125 165 229 268 306 389
#     4  10  23  44  66  94 137 175 211 278 337 379
#     4   9  19  35  58  89 130 174 214 270 325 373
#     4   8  16  33  55  88 129 171 220 261 318 396
#
# _framework density 22.297684
#
# number of rings (size 3 to 8) (size 9 to 14) (size 15 to 20)
#    0.000    2.286    0.000    1.714    6.000    7.429 
#    0.000    2.143    0.000    1.714    0.000    0.000 
#    0.000    0.000    0.000    0.000    0.000    0.000 
#
# Total GULP energy -346962.823365 kJ/mol
# GULP energy per Si atom -12391.529406 kJ/mol
# Density = 2.224693 g / cm^3
# Si number density = 22.297684 Si / 1000 Ang^3
#
#
#
# Elastic Constant Matrix: (Units=GPa)
#
#
# Indices 1 2 3 4 5 6 
#
# 1 101.8092 20.1276 17.7287 0.0000 8.2958 0.0000
# 2 20.1276 84.3861 21.3721 0.0000 7.4657 0.0000
# 3 17.7287 21.3721 67.9667 0.0000 0.2936 0.0000
# 4 0.0000 0.0000 0.0000 25.3284 0.0000 3.0375
# 5 8.2958 7.4657 0.2936 0.0000 37.9560 0.0000
# 6 0.0000 0.0000 0.0000 3.0375 0.0000 32.3084
#
#
#
# Elastic Compliance Matrix: (Units=1/GPa)
#
#
# Indices 1 2 3 4 5 6 
#
# 1 0.010729 -0.001823 -0.002217 0.000000 -0.001969 0.000000
# 2 -0.001823 0.013428 -0.003737 0.000000 -0.002214 0.000000
# 3 -0.002217 -0.003737 0.016462 0.000000 0.001092 0.000000
# 4 0.000000 0.000000 0.000000 0.039932 0.000000 -0.003754
# 5 -0.001969 -0.002214 0.001092 0.000000 0.027204 0.000000
# 6 0.000000 0.000000 0.000000 -0.003754 0.000000 0.031305
#
#
# Mechanical properties :
#
#
# Convention : Reuss Voigt Hill
#
# Bulk Modulus (GPa) = 39.89802 41.40209 40.65006
# Shear Modulus (GPa) = 30.68092 32.11414 31.39753
#
# Velocity S-wave (km/s) = 3.71343 3.79917 3.75655
# Velocity P-wave (km/s) = 6.02646 6.15249 6.08980
#
# Compressibility (1/GPa) = 0.02506390
#
# Stress axis : x y z
#
# Youngs Moduli (GPa) = 93.20293 74.47376 60.74694
#
# Poissons Ratio (x) = 0.13580 0.13466
# Poissons Ratio (y) = 0.16995 0.22702
# Poissons Ratio (z) = 0.20661 0.27832
#
# Static dielectric constant tensor:
#      x y z
#    x 4.432540 0.000000 -0.089340 
#    y 0.000000 3.845280 0.000000 
#    z -0.089340 0.000000 4.157040 
# 
# 
# High freq. dielectric constant tensor:
#      x y z
#    x 1.885230 0.000000 0.003260 
#    y 0.000000 1.872970 0.000000 
#    z 0.003260 0.000000 1.876740 
# 
# From -- ./inp_files/183451.got.cif
#   From: 2010.06.25/outbox.cif.g09.slc.cpg/sg12_92_cif.got.tgz:183451.got - 2010.06.28 00:19:55.
