data_PCOD8113784
_publ_section_title
;
Structure prediction by ZEFSAII (Michael W. Deem and Ramdas Pophale) SiO2 
 PCOD8113784
Probable space group: C 2/M
;
_chemical_formula_sum "Si O2"
_cell_formula_units_Z 64
_cell_length_a 24.608100
_cell_length_b 8.571490
_cell_length_c 23.656840
_cell_angle_alpha 90.000000
_cell_angle_beta 46.155671
_cell_angle_gamma 90.000000
_cell_volume 3598.832349
_symmetry_space_group_name_H-M "C 2/M"
_symmetry_group_IT_number 12
_symmetry_cell_setting 'monoclinic'
loop_
_space_group_symop_operation_xyz
x,y,z
-x,y,-z
-x,-y,-z
x,-y,z
1/2+x,1/2+y,z
1/2-x,1/2+y,-z
1/2-x,1/2-y,-z
1/2+x,1/2-y,z
loop_
_atom_site_type_symbol
_atom_site_label
_atom_site_fract_x
_atom_site_fract_y
_atom_site_fract_z
Si Si1 0.597121 0.181695 0.577482
Si Si2 0.320625 0.182081 0.673713
Si Si3 0.115421 0.180630 0.682318
Si Si4 0.837260 0.181460 0.162847
Si Si5 0.723567 0.317902 0.413695
Si Si6 0.546588 0.179416 0.835734
Si Si7 0.060882 0.172495 0.005624
Si Si8 0.976596 0.181363 0.580970
O O1 0.582019 0.277064 0.645530
O O2 0.678929 0.225330 0.494218
O O3 0.532657 0.222869 0.579662
O O4 0.595388 0.000000 0.592840
O O5 0.251270 0.211392 0.766271
O O6 0.306956 0.269927 0.625195
O O7 0.393020 0.254200 0.652191
O O8 0.332293 0.000000 0.652410
O O9 0.188737 0.282459 0.643533
O O10 0.052112 0.219836 0.774592
O O11 0.137345 0.000000 0.669643
O O12 0.882379 0.283116 0.175695
O O13 0.858071 0.000000 0.158796
O O14 0.861507 0.228580 0.081008
O O15 0.708152 0.500000 0.433269
O O16 0.466965 0.215203 0.924149
O O17 0.548446 0.000000 0.817607
O O18 0.070853 0.000000 0.024419
O O19 0.000000 0.170531 0.000000
O O20 0.000000 0.213267 0.500000
O O21 0.981011 0.000000 0.593403
#
# Coordination Sequence:
#
# PCOD8113784 Si02
#       8
#     8   8   8   8   8   8   8   8
#     4  12  25  41  59  79 104 139 183 227 270 319
#     4  11  21  34  56  82 107 143 184 223 269 317
#     4  12  24  39  56  77 108 145 182 221 267 322
#     4   9  18  32  50  74 107 142 179 218 264 319
#     4  12  23  37  55  80 110 142 179 221 268 320
#     4  11  20  30  48  76 108 141 178 218 263 316
#     4   8  15  29  47  69 102 143 177 211 259 317
#     4  11  23  39  58  79 107 140 180 227 272 317
#
# _framework density 17.783546000000001
#
# number of rings (size 3 to 8) (size 9 to 14) (size 15 to 20)
#    0.000    1.250    2.500    6.375    0.000    3.250 
#    0.000    0.000    0.000    0.000    0.000    0.875 
#    0.000    0.000    0.000    0.000    0.000    0.000 
#
# Total GULP energy -396884.476457 kJ/mol
# GULP energy per Si atom -12402.639889 kJ/mol
# Density = 1.774307 g / cm^3
# Si number density = 17.783546 Si / 1000 Ang^3
#
#
#
# Elastic Constant Matrix: (Units=GPa)
#
#
# Indices 1 2 3 4 5 6 
#
# 1 46.6101 20.0098 28.2809 0.0002 3.9194 -0.0010
# 2 20.0098 81.9075 32.1451 -0.0002 -2.6474 0.0030
# 3 28.2809 32.1451 124.7410 0.0001 -2.1516 -0.0001
# 4 0.0002 -0.0002 0.0001 26.3868 -0.0005 1.1489
# 5 3.9194 -2.6474 -2.1516 -0.0005 19.9230 0.0002
# 6 -0.0010 0.0030 -0.0001 1.1489 0.0002 25.4112
#
#
#
# Elastic Compliance Matrix: (Units=1/GPa)
#
#
# Indices 1 2 3 4 5 6 
#
# 1 0.027135 -0.004874 -0.005008 0.000000 -0.006527 0.000002
# 2 -0.004874 0.014499 -0.002586 0.000000 0.002606 -0.000002
# 3 -0.005008 -0.002586 0.009848 0.000000 0.001705 0.000000
# 4 0.000000 0.000000 0.000000 0.037973 0.000001 -0.001717
# 5 -0.006527 0.002606 0.001705 0.000001 0.052008 -0.000001
# 6 0.000002 -0.000002 0.000000 -0.001717 -0.000001 0.039430
#
#
# Mechanical properties :
#
#
# Convention : Reuss Voigt Hill
#
# Bulk Modulus (GPa) = 37.67370 46.01447 41.84408
# Shear Modulus (GPa) = 23.29066 25.86571 24.57819
#
# Velocity S-wave (km/s) = 3.62287 3.81789 3.72166
# Velocity P-wave (km/s) = 6.22341 6.73543 6.48447
#
# Compressibility (1/GPa) = 0.02654372
#
# Stress axis : x y z
#
# Youngs Moduli (GPa) = 36.85297 68.97064 101.54379
#
# Poissons Ratio (x) = 0.33619 0.50857
# Poissons Ratio (y) = 0.17964 0.26262
# Poissons Ratio (z) = 0.18457 0.17837
#
# Static dielectric constant tensor:
#      x y z
#    x 3.011410 0.000000 -0.097540 
#    y 0.000000 3.343420 0.000000 
#    z -0.097540 0.000000 3.768650 
# 
# 
# High freq. dielectric constant tensor:
#      x y z
#    x 1.643080 0.000000 -0.004920 
#    y 0.000000 1.700270 0.000000 
#    z -0.004920 0.000000 1.699130 
# 
# From -- ./inp_files/324105.got.cif
#   From: 2010.06.25/outbox.cif.g09.slc.cpg/sg12_163_cif.got.tgz:324105.got - 2010.06.28 00:19:55.
