data_PCOD8113605
_publ_section_title
;
Structure prediction by ZEFSAII (Michael W. Deem and Ramdas Pophale) SiO2 
 PCOD8113605
Probable space group: C 2/M
;
_chemical_formula_sum "Si O2"
_cell_formula_units_Z 48
_cell_length_a 21.261673
_cell_length_b 9.936223
_cell_length_c 20.573765
_cell_angle_alpha 90.000000
_cell_angle_beta 142.403787
_cell_angle_gamma 90.000000
_cell_volume 2651.724712
_symmetry_space_group_name_H-M "C 2/M"
_symmetry_group_IT_number 12
_symmetry_cell_setting 'monoclinic'
loop_
_space_group_symop_operation_xyz
x,y,z
-x,y,-z
-x,-y,-z
x,-y,z
1/2+x,1/2+y,z
1/2-x,1/2+y,-z
1/2-x,1/2-y,-z
1/2+x,1/2-y,z
loop_
_atom_site_type_symbol
_atom_site_label
_atom_site_fract_x
_atom_site_fract_y
_atom_site_fract_z
Si Si1 0.619720 0.500000 0.018607
Si Si2 0.448880 0.153354 0.528419
Si Si3 0.746806 0.752911 0.696270
Si Si4 0.605775 0.000000 0.009161
Si Si5 0.382266 0.340582 0.287515
Si Si6 0.273676 0.763793 0.944360
Si Si7 0.389511 0.500000 0.836230
Si Si8 0.636907 0.000000 0.182181
O O1 0.687298 0.624978 0.052299
O O2 0.603348 0.500000 0.081218
O O3 0.502730 0.500000 0.894703
O O4 0.500000 0.148601 0.500000
O O5 0.334198 0.215056 0.427332
O O6 0.510488 0.256974 0.625146
O O7 0.446323 0.000000 0.554793
O O8 0.689488 0.728566 0.717351
O O9 0.827515 0.871591 0.763326
O O10 0.816269 0.623303 0.739401
O O11 0.484793 0.000000 0.917523
O O12 0.635373 0.130304 0.992406
O O13 0.666341 0.000000 0.128749
O O14 0.402123 0.500000 0.317505
O O15 0.329978 0.317702 0.174998
O O16 0.250000 0.750000 0.000000
#
# Coordination Sequence:
#
# PCOD8113605 Si02
#       8
#     4   8   8   4   8   8   4   4
#     4  11  23  34  55  83 107 148 184 221 273 329
#     4   9  20  31  50  76 113 143 176 221 276 334
#     4  11  18  33  52  82 112 144 173 221 285 328
#     4  11  21  40  51  83 113 148 190 221 273 323
#     4  11  21  35  51  78 111 145 186 225 265 326
#     4  12  23  38  56  78 113 149 186 225 266 319
#     4  11  20  34  54  82 115 140 177 226 277 330
#     4  11  20  32  62  78 115 150 175 228 273 334
#
# _framework density 18.101427000000001
#
# number of rings (size 3 to 8) (size 9 to 14) (size 15 to 20)
#    0.000    1.167    5.833    1.500    3.500    3.667 
#    0.000    0.000    0.000    0.000    0.000    7.000 
#    0.000    0.000    0.000    0.000    0.000    0.000 
#
# Total GULP energy -297519.563510 kJ/mol
# GULP energy per Si atom -12396.648480 kJ/mol
# Density = 1.806023 g / cm^3
# Si number density = 18.101427 Si / 1000 Ang^3
#
#
#
# Elastic Constant Matrix: (Units=GPa)
#
#
# Indices 1 2 3 4 5 6 
#
# 1 43.2369 23.0712 19.6117 0.0000 0.0057 0.0000
# 2 23.0712 155.7944 48.0349 0.0000 15.8639 0.0000
# 3 19.6117 48.0349 108.4014 0.0000 19.9211 0.0000
# 4 0.0000 0.0000 0.0000 40.7870 0.0000 -0.9875
# 5 0.0057 15.8639 19.9211 0.0000 22.4974 0.0000
# 6 0.0000 0.0000 0.0000 -0.9875 0.0000 -31.8055
#
#
#
# Elastic Compliance Matrix: (Units=1/GPa)
#
#
# Indices 1 2 3 4 5 6 
#
# 1 0.026935 -0.003212 -0.004616 0.000000 0.006345 0.000000
# 2 -0.003212 0.007966 -0.002289 0.000000 -0.003589 0.000000
# 3 -0.004616 -0.002289 0.012872 0.000000 -0.009783 0.000000
# 4 0.000000 0.000000 0.000000 0.024499 0.000000 -0.000761
# 5 0.006345 -0.003589 -0.009783 0.000000 0.055641 0.000000
# 6 0.000000 0.000000 0.000000 -0.000761 0.000000 -0.031417
#
#
# Mechanical properties :
#
#
# Convention : Reuss Voigt Hill
#
# Bulk Modulus (GPa) = 36.31151 54.31868 45.31510
# Shear Modulus (GPa) = 39.71124 20.74345 30.22735
#
# Velocity S-wave (km/s) = 4.68890 3.38887 4.09086
# Velocity P-wave (km/s) = 7.02979 6.73689 6.88490
#
# Compressibility (1/GPa) = 0.02753948
#
# Stress axis : x y z
#
# Youngs Moduli (GPa) = 37.12637 125.54036 77.68674
#
# Poissons Ratio (x) = 0.40319 0.35860
# Poissons Ratio (y) = 0.11924 0.17783
# Poissons Ratio (z) = 0.17137 0.28737
#
# Static dielectric constant tensor:
#      x y z
#    x 2.854850 0.000000 0.293650 
#    y 0.000000 3.612700 0.000000 
#    z 0.293650 0.000000 3.664250 
# 
# 
# High freq. dielectric constant tensor:
#      x y z
#    x 1.644110 0.000000 0.028390 
#    y 0.000000 1.727110 0.000000 
#    z 0.028390 0.000000 1.707580 
# 
# From -- ./inp_files/319631.got.cif
#   From: 2010.06.25/outbox.cif.g09.slc.cpg/sg12_160_cif.got.tgz:319631.got - 2010.06.28 00:19:55.
