data_PCOD8113557
_publ_section_title
;
Structure prediction by ZEFSAII (Michael W. Deem and Ramdas Pophale) SiO2 
 PCOD8113557
Probable space group: C 2/M
;
_chemical_formula_sum "Si O2"
_cell_formula_units_Z 48
_cell_length_a 14.978572
_cell_length_b 10.495797
_cell_length_c 21.335139
_cell_angle_alpha 90.000000
_cell_angle_beta 39.554758
_cell_angle_gamma 90.000000
_cell_volume 2135.968541
_symmetry_space_group_name_H-M "C 2/M"
_symmetry_group_IT_number 12
_symmetry_cell_setting 'monoclinic'
loop_
_space_group_symop_operation_xyz
x,y,z
-x,y,-z
-x,-y,-z
x,-y,z
1/2+x,1/2+y,z
1/2-x,1/2+y,-z
1/2-x,1/2-y,-z
1/2+x,1/2-y,z
loop_
_atom_site_type_symbol
_atom_site_label
_atom_site_fract_x
_atom_site_fract_y
_atom_site_fract_z
Si Si1 0.061597 0.290489 0.775949
Si Si2 0.479048 0.774723 0.408178
Si Si3 0.117343 0.647219 0.885189
Si Si4 0.271480 0.500000 0.635500
Si Si5 0.509264 0.500000 0.592843
Si Si6 0.349083 0.855752 0.793103
Si Si7 0.197132 0.356148 0.388447
O O1 0.045043 0.325201 0.857563
O O2 0.172960 0.379148 0.679961
O O3 0.137196 0.155217 0.719987
O O4 0.909180 0.307728 0.827407
O O5 0.459107 0.632547 0.388515
O O6 0.524879 0.864204 0.325923
O O7 0.603335 0.767968 0.393208
O O8 0.337572 0.822524 0.519643
O O9 0.171190 0.500000 0.859954
O O10 0.238206 0.751110 0.830397
O O11 0.000000 0.672567 0.000000
O O12 0.343682 0.500000 0.665028
O O13 0.393397 0.500000 0.520094
O O14 0.286493 0.000000 0.833650
O O15 0.150804 0.500000 0.400558
#
# Coordination Sequence:
#
# PCOD8113557 Si02
#       7
#     8   8   8   4   4   8   8
#     4  12  23  42  68  94 133 175 219 269 327 398
#     4  11  21  35  59  92 134 177 223 268 312 382
#     4  11  26  49  75  99 127 165 216 279 341 402
#     4  11  16  36  59  88 122 171 226 261 298 378
#     4  11  18  32  64  88 123 193 238 253 312 384
#     4  12  26  42  69 101 132 176 219 267 332 400
#     4  11  21  36  58  90 135 180 219 269 317 368
#
# _framework density 22.472239999999999
#
# number of rings (size 3 to 8) (size 9 to 14) (size 15 to 20)
#    0.000    0.667    6.667    3.000    1.167    2.333 
#    0.000    0.000    0.000    0.000    0.000    0.000 
#    0.000    0.000    0.000    0.000    0.000    0.000 
#
# Total GULP energy -297404.073485 kJ/mol
# GULP energy per Si atom -12391.836395 kJ/mol
# Density = 2.242109 g / cm^3
# Si number density = 22.472240 Si / 1000 Ang^3
#
#
#
# Elastic Constant Matrix: (Units=GPa)
#
#
# Indices 1 2 3 4 5 6 
#
# 1 100.6302 30.6762 28.5901 0.0000 16.1092 0.0000
# 2 30.6762 139.0776 32.5915 0.0000 4.2178 0.0000
# 3 28.5901 32.5915 88.0010 -0.0001 18.7725 0.0000
# 4 0.0000 0.0000 -0.0001 22.9804 0.0000 4.3352
# 5 16.1092 4.2178 18.7725 0.0000 18.0646 0.0000
# 6 0.0000 0.0000 0.0000 4.3352 0.0000 12.8268
#
#
#
# Elastic Compliance Matrix: (Units=1/GPa)
#
#
# Indices 1 2 3 4 5 6 
#
# 1 0.012442 -0.002168 -0.001260 0.000000 -0.009280 0.000000
# 2 -0.002168 0.008284 -0.003037 0.000000 0.003155 0.000000
# 3 -0.001260 -0.003037 0.016069 0.000000 -0.014866 0.000000
# 4 0.000000 0.000000 0.000000 0.046479 0.000000 -0.015709
# 5 -0.009280 0.003155 -0.014866 0.000000 0.078344 0.000000
# 6 0.000000 0.000000 0.000000 -0.015709 0.000000 0.083271
#
#
# Mechanical properties :
#
#
# Convention : Reuss Voigt Hill
#
# Bulk Modulus (GPa) = 41.90024 56.82492 49.36258
# Shear Modulus (GPa) = 18.81312 26.49776 22.65544
#
# Velocity S-wave (km/s) = 2.89653 3.43758 3.17859
# Velocity P-wave (km/s) = 5.46556 6.41073 5.95692
#
# Compressibility (1/GPa) = 0.02386621
#
# Stress axis : x y z
#
# Youngs Moduli (GPa) = 80.37574 120.70996 62.23288
#
# Poissons Ratio (x) = 0.26165 0.07840
# Poissons Ratio (y) = 0.17422 0.18899
# Poissons Ratio (z) = 0.10125 0.36658
#
# Static dielectric constant tensor:
#      x y z
#    x 3.786090 0.000000 0.113260 
#    y 0.000000 4.412540 0.000000 
#    z 0.113260 0.000000 3.871270 
# 
# 
# High freq. dielectric constant tensor:
#      x y z
#    x 1.860070 0.000000 0.008700 
#    y 0.000000 1.900320 0.000000 
#    z 0.008700 0.000000 1.860830 
# 
# From -- ./inp_files/310224.got.cif
#   From: 2010.06.25/outbox.cif.g09.slc.cpg/sg12_156_cif.got.tgz:310224.got - 2010.06.28 00:19:55.
