data_PCOD8113768
_publ_section_title
;
Structure prediction by ZEFSAII (Michael W. Deem and Ramdas Pophale) SiO2 
 PCOD8113768
Probable space group: C 2/M
;
_chemical_formula_sum "Si O2"
_cell_formula_units_Z 56
_cell_length_a 20.300738
_cell_length_b 9.025177
_cell_length_c 17.939045
_cell_angle_alpha 90.000000
_cell_angle_beta 78.436203
_cell_angle_gamma 90.000000
_cell_volume 3220.037399
_symmetry_space_group_name_H-M "C 2/M"
_symmetry_group_IT_number 12
_symmetry_cell_setting 'monoclinic'
loop_
_space_group_symop_operation_xyz
x,y,z
-x,y,-z
-x,-y,-z
x,-y,z
1/2+x,1/2+y,z
1/2-x,1/2+y,-z
1/2-x,1/2-y,-z
1/2+x,1/2-y,z
loop_
_atom_site_type_symbol
_atom_site_label
_atom_site_fract_x
_atom_site_fract_y
_atom_site_fract_z
Si Si1 0.185355 0.835750 0.360467
Si Si2 0.357504 0.325008 0.185387
Si Si3 0.422722 0.170541 0.037528
Si Si4 0.217783 0.828699 0.196156
Si Si5 0.317790 0.672242 0.959152
Si Si6 0.154233 0.664690 0.666192
Si Si7 0.679774 0.172857 0.502271
O O1 0.171527 0.782672 0.278140
O O2 0.265425 0.831308 0.350662
O O3 0.149066 0.733069 0.431016
O O4 0.156861 0.000000 0.380062
O O5 0.362048 0.500000 0.177350
O O6 0.411777 0.250535 0.118938
O O7 0.284024 0.271869 0.176287
O O8 0.375014 0.278626 0.266538
O O9 0.399503 0.000000 0.048351
O O10 0.500000 0.184878 0.000000
O O11 0.381072 0.250309 0.982224
O O12 0.174043 0.808428 0.131761
O O13 0.241168 0.000000 0.200763
O O14 0.315376 0.500000 0.982755
O O15 0.250000 0.750000 0.000000
O O16 0.128298 0.500000 0.692233
O O17 0.132456 0.705865 0.585627
O O18 0.750000 0.250000 0.500000
O O19 0.692721 0.000000 0.490982
#
# Coordination Sequence:
#
# PCOD8113768 Si02
#       7
#     8   8   8   8   8   8   8
#     4   8  14  24  37  55  83 120 154 188 231 280
#     4  11  20  29  47  71  93 121 161 207 246 289
#     4  11  24  40  55  71  98 134 167 206 257 304
#     4   9  18  31  46  66  96 129 159 195 244 295
#     4  11  21  34  55  78 101 130 167 209 249 297
#     4   8  15  26  38  54  84 122 156 191 236 289
#     4   9  15  22  33  52  80 117 154 190 232 277
#
# _framework density 17.391103000000001
#
# number of rings (size 3 to 8) (size 9 to 14) (size 15 to 20)
#    0.000    2.429    1.429    4.286    0.000    7.429 
#    0.000    0.000    0.000    0.000    0.000    0.000 
#    0.000    1.143    0.000   12.857    0.000    7.857 
#
# Total GULP energy -346978.471002 kJ/mol
# GULP energy per Si atom -12392.088250 kJ/mol
# Density = 1.735152 g / cm^3
# Si number density = 17.391103 Si / 1000 Ang^3
#
#
#
# Elastic Constant Matrix: (Units=GPa)
#
#
# Indices 1 2 3 4 5 6 
#
# 1 36.2290 31.0817 30.0339 0.0000 3.2853 0.0000
# 2 31.0817 133.1425 78.4210 0.0000 -0.5716 0.0000
# 3 30.0339 78.4210 170.9608 0.0000 8.0895 0.0000
# 4 0.0000 0.0000 0.0000 33.5890 0.0000 1.7521
# 5 3.2853 -0.5716 8.0895 0.0000 11.1225 0.0000
# 6 0.0000 0.0000 0.0000 1.7521 0.0000 14.8629
#
#
#
# Elastic Compliance Matrix: (Units=1/GPa)
#
#
# Indices 1 2 3 4 5 6 
#
# 1 0.036742 -0.006946 -0.002835 0.000000 -0.009147 0.000000
# 2 -0.006946 0.011789 -0.004467 0.000000 0.005906 0.000000
# 3 -0.002835 -0.004467 0.008666 0.000000 -0.005695 0.000000
# 4 0.000000 0.000000 0.000000 0.029956 0.000000 -0.003531
# 5 -0.009147 0.005906 -0.005695 0.000000 0.097055 0.000000
# 6 0.000000 0.000000 0.000000 -0.003531 0.000000 0.067698
#
#
# Mechanical properties :
#
#
# Convention : Reuss Voigt Hill
#
# Bulk Modulus (GPa) = 34.84438 68.82284 51.83361
# Shear Modulus (GPa) = 17.24327 25.30127 21.27227
#
# Velocity S-wave (km/s) = 3.15222 3.81837 3.50118
# Velocity P-wave (km/s) = 5.77304 7.68762 6.79807
#
# Compressibility (1/GPa) = 0.02869903
#
# Stress axis : x y z
#
# Youngs Moduli (GPa) = 27.21696 84.82773 115.39645
#
# Poissons Ratio (x) = 0.58925 0.32720
# Poissons Ratio (y) = 0.18906 0.51544
# Poissons Ratio (z) = 0.07717 0.37890
#
# Static dielectric constant tensor:
#      x y z
#    x 2.647440 0.000000 0.274340 
#    y 0.000000 3.537970 0.000000 
#    z 0.274340 0.000000 4.521170 
# 
# 
# High freq. dielectric constant tensor:
#      x y z
#    x 1.582870 0.000000 0.010450 
#    y 0.000000 1.680550 0.000000 
#    z 0.010450 0.000000 1.705190 
# 
# From -- ./inp_files/287029.got.cif
#   From: 2010.06.25/outbox.cif.g09.slc.cpg/sg12_144_cif.got.tgz:287029.got - 2010.06.28 00:19:55.
