data_PCOD8113956
_publ_section_title
;
Structure prediction by ZEFSAII (Michael W. Deem and Ramdas Pophale) SiO2 
 PCOD8113956
Probable space group: C 2/M
;
_chemical_formula_sum "Si O2"
_cell_formula_units_Z 48
_cell_length_a 27.429365
_cell_length_b 18.743610
_cell_length_c 9.232531
_cell_angle_alpha 90.000000
_cell_angle_beta 29.952724
_cell_angle_gamma 90.000000
_cell_volume 2369.946306
_symmetry_space_group_name_H-M "C 2/M"
_symmetry_group_IT_number 12
_symmetry_cell_setting 'monoclinic'
loop_
_space_group_symop_operation_xyz
x,y,z
-x,y,-z
-x,-y,-z
x,-y,z
1/2+x,1/2+y,z
1/2-x,1/2+y,-z
1/2-x,1/2-y,-z
1/2+x,1/2-y,z
loop_
_atom_site_type_symbol
_atom_site_label
_atom_site_fract_x
_atom_site_fract_y
_atom_site_fract_z
Si Si1 0.068942 0.578735 0.542150
Si Si2 0.902717 0.774487 0.832673
Si Si3 0.789875 0.343007 0.607140
Si Si4 0.096839 0.779639 0.834773
Si Si5 0.289437 0.419023 0.454152
Si Si6 0.627837 0.116809 0.088126
O O1 0.068231 0.500000 0.615149
O O2 0.126914 0.632549 0.497022
O O3 0.116857 0.570166 0.260470
O O4 0.958996 0.606793 0.805106
O O5 0.871268 0.697550 0.852656
O O6 0.000000 0.803184 0.500000
O O7 0.812224 0.829220 0.044053
O O8 0.924437 0.761516 0.944991
O O9 0.817182 0.269717 0.452683
O O10 0.773013 0.403670 0.529968
O O11 0.121907 0.863443 0.759540
O O12 0.000000 0.761316 0.000000
O O13 0.329486 0.500000 0.344456
O O14 0.226084 0.408486 0.760704
#
# Coordination Sequence:
#
# PCOD8113956 Si02
#       6
#     8   8   8   8   8   8
#     4  11  23  36  56  89 125 156 196 244 298 360
#     4  11  21  40  63  89 118 157 199 248 298 346
#     4  11  23  40  62  89 121 156 202 246 298 349
#     4  11  23  40  62  90 121 154 204 248 291 353
#     4  11  22  40  62  84 121 161 198 244 296 350
#     4  11  20  38  58  86 121 159 193 241 302 357
#
# _framework density 20.253620999999999
#
# number of rings (size 3 to 8) (size 9 to 14) (size 15 to 20)
#    0.000    1.000    5.000    4.500    0.000    2.333 
#    0.000    1.667    0.000   12.500    0.000    0.000 
#    0.000    0.000    0.000    0.000    0.000    0.000 
#
# Total GULP energy -297584.550360 kJ/mol
# GULP energy per Si atom -12399.356265 kJ/mol
# Density = 2.020752 g / cm^3
# Si number density = 20.253621 Si / 1000 Ang^3
#
#
#
# Elastic Constant Matrix: (Units=GPa)
#
#
# Indices 1 2 3 4 5 6 
#
# 1 67.5278 1.1334 4.7257 0.0000 -1.9607 0.0000
# 2 1.1334 104.1673 18.3421 0.0000 4.3954 0.0000
# 3 4.7257 18.3421 94.9393 0.0000 13.6549 0.0000
# 4 0.0000 0.0000 0.0000 9.7208 0.0000 5.5036
# 5 -1.9607 4.3954 13.6549 0.0000 17.9020 0.0000
# 6 0.0000 0.0000 0.0000 5.5036 0.0000 21.9889
#
#
#
# Elastic Compliance Matrix: (Units=1/GPa)
#
#
# Indices 1 2 3 4 5 6 
#
# 1 0.014958 -0.000076 -0.001087 0.000000 0.002486 0.000000
# 2 -0.000076 0.009958 -0.001760 0.000000 -0.001111 0.000000
# 3 -0.001087 -0.001760 0.012223 0.000000 -0.009010 0.000000
# 4 0.000000 0.000000 0.000000 0.119857 0.000000 -0.029999
# 5 0.002486 -0.001111 -0.009010 0.000000 0.063277 0.000000
# 6 0.000000 0.000000 0.000000 -0.029999 0.000000 0.052986
#
#
# Mechanical properties :
#
#
# Convention : Reuss Voigt Hill
#
# Bulk Modulus (GPa) = 31.95787 35.00411 33.48099
# Shear Modulus (GPa) = 17.26894 26.08456 21.67675
#
# Velocity S-wave (km/s) = 2.92316 3.59262 3.27504
# Velocity P-wave (km/s) = 5.21596 5.87619 5.55589
#
# Compressibility (1/GPa) = 0.03129119
#
# Stress axis : x y z
#
# Youngs Moduli (GPa) = 66.85255 100.42592 81.81178
#
# Poissons Ratio (x) = 0.00765 0.08897
# Poissons Ratio (y) = 0.00509 0.14401
# Poissons Ratio (z) = 0.07270 0.17678
#
# Static dielectric constant tensor:
#      x y z
#    x 3.473320 0.000000 0.095170 
#    y 0.000000 3.635650 0.000000 
#    z 0.095170 0.000000 3.635250 
# 
# 
# High freq. dielectric constant tensor:
#      x y z
#    x 1.780720 0.000000 0.007950 
#    y 0.000000 1.790750 0.000000 
#    z 0.007950 0.000000 1.788470 
# 
# From -- ./inp_files/106500.got.cif
#   From: 2010.06.25/outbox.cif.g09.slc.cpg/sg12_54_cif.got.tgz:106500.got - 2010.06.28 00:19:55.
