data_PCOD8113137
_publ_section_title
;
Structure prediction by ZEFSAII (Michael W. Deem and Ramdas Pophale) SiO2 
 PCOD8113137
Probable space group: C 2/M
;
_chemical_formula_sum "Si O2"
_cell_formula_units_Z 48
_cell_length_a 17.359898
_cell_length_b 11.488754
_cell_length_c 12.689796
_cell_angle_alpha 90.000000
_cell_angle_beta 106.067095
_cell_angle_gamma 90.000000
_cell_volume 2432.037259
_symmetry_space_group_name_H-M "C 2/M"
_symmetry_group_IT_number 12
_symmetry_cell_setting 'monoclinic'
loop_
_space_group_symop_operation_xyz
x,y,z
-x,y,-z
-x,-y,-z
x,-y,z
1/2+x,1/2+y,z
1/2-x,1/2+y,-z
1/2-x,1/2-y,-z
1/2+x,1/2-y,z
loop_
_atom_site_type_symbol
_atom_site_label
_atom_site_fract_x
_atom_site_fract_y
_atom_site_fract_z
Si Si1 0.568809 0.500000 0.164007
Si Si2 0.386497 0.732259 0.717349
Si Si3 0.718734 0.136961 0.707930
Si Si4 0.915014 0.367825 0.519128
Si Si5 0.514569 0.124266 0.886757
Si Si6 0.170855 0.239570 0.901744
Si Si7 0.114148 0.000000 0.948802
O O1 0.577585 0.606627 0.246672
O O2 0.480161 0.500000 0.088308
O O3 0.629867 0.500000 0.083824
O O4 0.292467 0.721047 0.706502
O O5 0.398432 0.772842 0.602321
O O6 0.433614 0.821569 0.809185
O O7 0.653803 0.145202 0.592517
O O8 0.680438 0.197104 0.794591
O O9 0.743292 0.000000 0.735448
O O10 0.915366 0.500000 0.564589
O O11 0.000000 0.337571 0.500000
O O12 0.591741 0.204930 0.920023
O O13 0.531350 0.000000 0.834424
O O14 0.500000 0.094840 0.000000
O O15 0.152899 0.103404 0.896285
O O16 0.250000 0.250000 0.000000
#
# Coordination Sequence:
#
# PCOD8113137 Si02
#       7
#     4   8   8   8   8   8   4
#     4  11  22  40  68  91 129 173 218 264 328 392
#     4  12  22  42  67  93 126 172 218 269 322 393
#     4  11  24  43  67  94 131 173 219 269 327 387
#     4  10  23  44  69  96 127 167 217 271 328 385
#     4  11  23  39  61  92 128 167 215 270 326 381
#     4  12  25  40  64  95 132 172 219 267 320 390
#     4  11  24  42  63  96 134 174 217 264 327 384
#
# _framework density 19.736540999999999
#
# number of rings (size 3 to 8) (size 9 to 14) (size 15 to 20)
#    0.000    0.833    2.500    5.500    2.333    1.333 
#    3.000    1.250    0.000    0.000    0.000    0.000 
#    0.000    0.000    0.000    0.000    0.000    0.000 
#
# Total GULP energy -297369.495950 kJ/mol
# GULP energy per Si atom -12390.395665 kJ/mol
# Density = 1.969162 g / cm^3
# Si number density = 19.736541 Si / 1000 Ang^3
#
#
#
# Elastic Constant Matrix: (Units=GPa)
#
#
# Indices 1 2 3 4 5 6 
#
# 1 111.2761 43.0140 32.9162 0.0000 14.3065 0.0000
# 2 43.0140 147.9903 54.8133 0.0000 -4.5935 0.0000
# 3 32.9162 54.8133 113.1209 0.0000 -0.0297 0.0000
# 4 0.0000 0.0000 0.0000 39.6850 0.0000 -2.8452
# 5 14.3065 -4.5935 -0.0297 0.0000 39.9520 0.0000
# 6 0.0000 0.0000 0.0000 -2.8452 0.0000 40.8227
#
#
#
# Elastic Compliance Matrix: (Units=1/GPa)
#
#
# Indices 1 2 3 4 5 6 
#
# 1 0.011142 -0.002645 -0.001961 0.000000 -0.004295 0.000000
# 2 -0.002645 0.008899 -0.003542 0.000000 0.001968 0.000000
# 3 -0.001961 -0.003542 0.011127 0.000000 0.000303 0.000000
# 4 0.000000 0.000000 0.000000 0.025325 0.000000 0.001765
# 5 -0.004295 0.001968 0.000303 0.000000 0.026795 0.000000
# 6 0.000000 0.000000 0.000000 0.001765 0.000000 0.024619
#
#
# Mechanical properties :
#
#
# Convention : Reuss Voigt Hill
#
# Bulk Modulus (GPa) = 67.24563 70.43046 68.83804
# Shear Modulus (GPa) = 38.71164 40.20154 39.45659
#
# Velocity S-wave (km/s) = 4.43360 4.51811 4.47605
# Velocity P-wave (km/s) = 7.76882 7.93603 7.85287
#
# Compressibility (1/GPa) = 0.01487086
#
# Stress axis : x y z
#
# Youngs Moduli (GPa) = 89.75375 112.37291 89.87062
#
# Poissons Ratio (x) = 0.29725 0.17627
# Poissons Ratio (y) = 0.23742 0.31830
# Poissons Ratio (z) = 0.17604 0.39800
#
# Static dielectric constant tensor:
#      x y z
#    x 3.287740 0.000000 0.482800 
#    y 0.000000 4.059680 0.000000 
#    z 0.482800 0.000000 3.384190 
# 
# 
# High freq. dielectric constant tensor:
#      x y z
#    x 1.781770 0.000000 0.017500 
#    y 0.000000 1.781940 0.000000 
#    z 0.017500 0.000000 1.772800 
# 
# From -- ./inp_files/154346.got.cif
#   From: 2010.06.25/outbox.cif.g09.slc.cpg/sg12_78_cif.got.tgz:154346.got - 2010.06.28 00:19:55.
