data_PCOD8113365
_publ_section_title
;
Structure prediction by ZEFSAII (Michael W. Deem and Ramdas Pophale) SiO2 
 PCOD8113365
Probable space group: C 2/M
;
_chemical_formula_sum "Si O2"
_cell_formula_units_Z 56
_cell_length_a 20.318051
_cell_length_b 8.519609
_cell_length_c 27.415207
_cell_angle_alpha 90.000000
_cell_angle_beta 34.666883
_cell_angle_gamma 90.000000
_cell_volume 2699.330460
_symmetry_space_group_name_H-M "C 2/M"
_symmetry_group_IT_number 12
_symmetry_cell_setting 'monoclinic'
loop_
_space_group_symop_operation_xyz
x,y,z
-x,y,-z
-x,-y,-z
x,-y,z
1/2+x,1/2+y,z
1/2-x,1/2+y,-z
1/2-x,1/2-y,-z
1/2+x,1/2-y,z
loop_
_atom_site_type_symbol
_atom_site_label
_atom_site_fract_x
_atom_site_fract_y
_atom_site_fract_z
Si Si1 0.929248 0.817750 0.495654
Si Si2 0.588858 0.180422 0.318355
Si Si3 0.752974 0.681464 0.051709
Si Si4 0.033814 0.819793 0.250290
Si Si5 0.696237 0.317840 0.664807
Si Si6 0.475955 0.683316 0.959757
Si Si7 0.686022 0.181631 0.776842
O O1 0.812132 0.717113 0.563720
O O2 0.000000 0.763060 0.500000
O O3 0.005010 0.787380 0.401763
O O4 0.896934 0.000000 0.518377
O O5 0.563071 0.209246 0.277612
O O6 0.722173 0.219965 0.247778
O O7 0.565855 0.000000 0.345184
O O8 0.789099 0.500000 0.028314
O O9 0.627122 0.705904 0.151155
O O10 0.750000 0.750000 0.000000
O O11 0.843933 0.776644 0.028656
O O12 0.910789 0.767819 0.303639
O O13 0.032187 0.000000 0.268974
O O14 0.688103 0.500000 0.684137
O O15 0.697672 0.215820 0.712716
O O16 0.499242 0.500000 0.938666
O O17 0.557910 0.776094 0.872653
O O18 0.500000 0.738656 0.000000
O O19 0.711906 0.000000 0.770109
#
# Coordination Sequence:
#
# PCOD8113365 Si02
#       7
#     8   8   8   8   8   8   8
#     4  11  23  41  66  95 128 167 210 258 313 374
#     4  12  25  41  66  95 127 168 211 261 316 374
#     4  11  23  41  66  93 127 171 214 261 317 379
#     4  10  24  44  64  92 130 168 208 258 317 377
#     4  11  23  41  67  96 127 164 210 261 311 371
#     4  11  24  41  62  91 126 163 210 265 316 372
#     4  12  24  40  64  93 126 165 209 259 316 377
#
# _framework density 20.745888000000001
#
# number of rings (size 3 to 8) (size 9 to 14) (size 15 to 20)
#    0.000    0.857    1.429    6.000    0.000    8.000 
#    0.000    0.000    0.000    0.000    0.000    0.000 
#    0.000    0.000    0.000    0.000    0.000    0.000 
#
# Total GULP energy -347478.371047 kJ/mol
# GULP energy per Si atom -12409.941823 kJ/mol
# Density = 2.069867 g / cm^3
# Si number density = 20.745888 Si / 1000 Ang^3
#
#
#
# Elastic Constant Matrix: (Units=GPa)
#
#
# Indices 1 2 3 4 5 6 
#
# 1 123.0544 33.5768 28.5730 -0.0016 -12.4925 0.0053
# 2 33.5768 70.6811 16.9720 -0.0022 0.7659 0.0023
# 3 28.5730 16.9720 95.8797 -0.0023 -11.7143 0.0015
# 4 -0.0016 -0.0022 -0.0023 34.5423 -0.0003 0.6268
# 5 -12.4925 0.7659 -11.7143 -0.0003 40.0230 -0.0007
# 6 0.0053 0.0023 0.0015 0.6268 -0.0007 33.8005
#
#
#
# Elastic Compliance Matrix: (Units=1/GPa)
#
#
# Indices 1 2 3 4 5 6 
#
# 1 0.010018 -0.004333 -0.001894 0.000000 0.002656 -0.000001
# 2 -0.004333 0.016696 -0.001938 0.000001 -0.002239 0.000000
# 3 -0.001894 -0.001938 0.011687 0.000001 0.002867 0.000000
# 4 0.000000 0.000001 0.000001 0.028960 0.000000 -0.000537
# 5 0.002656 -0.002239 0.002867 0.000000 0.026696 0.000000
# 6 -0.000001 0.000000 0.000000 -0.000537 0.000000 0.029595
#
#
# Mechanical properties :
#
#
# Convention : Reuss Voigt Hill
#
# Bulk Modulus (GPa) = 45.30630 49.76208 47.53419
# Shear Modulus (GPa) = 33.93508 35.70605 34.82056
#
# Velocity S-wave (km/s) = 4.04883 4.15313 4.10131
# Velocity P-wave (km/s) = 6.61388 6.85832 6.73721
#
# Compressibility (1/GPa) = 0.02207199
#
# Stress axis : x y z
#
# Youngs Moduli (GPa) = 99.81827 59.89453 85.56209
#
# Poissons Ratio (x) = 0.25953 0.16206
# Poissons Ratio (y) = 0.43252 0.16579
# Poissons Ratio (z) = 0.18906 0.11606
#
# Static dielectric constant tensor:
#      x y z
#    x 3.793080 -0.000010 -0.125010 
#    y -0.000010 3.744780 0.000000 
#    z -0.125010 0.000000 3.862890 
# 
# 
# High freq. dielectric constant tensor:
#      x y z
#    x 1.816780 0.000000 -0.003830 
#    y 0.000000 1.818900 0.000000 
#    z -0.003830 0.000000 1.824800 
# 
# From -- ./inp_files/380575.got.cif
#   From: 2010.06.25/outbox.cif.g09.slc.cpg/sg12_191_cif.got.tgz:380575.got - 2010.06.28 00:19:55.
