data_PCOD8113867
_publ_section_title
;
Structure prediction by ZEFSAII (Michael W. Deem and Ramdas Pophale) SiO2 
 PCOD8113867
Probable space group: C 2/M
;
_chemical_formula_sum "Si O2"
_cell_formula_units_Z 56
_cell_length_a 25.172429
_cell_length_b 8.761343
_cell_length_c 16.646257
_cell_angle_alpha 90.000000
_cell_angle_beta 59.292782
_cell_angle_gamma 90.000000
_cell_volume 3156.485189
_symmetry_space_group_name_H-M "C 2/M"
_symmetry_group_IT_number 12
_symmetry_cell_setting 'monoclinic'
loop_
_space_group_symop_operation_xyz
x,y,z
-x,y,-z
-x,-y,-z
x,-y,z
1/2+x,1/2+y,z
1/2-x,1/2+y,-z
1/2-x,1/2-y,-z
1/2+x,1/2-y,z
loop_
_atom_site_type_symbol
_atom_site_label
_atom_site_fract_x
_atom_site_fract_y
_atom_site_fract_z
Si Si1 0.828401 0.680732 0.095913
Si Si2 0.096374 0.823103 0.391441
Si Si3 0.528088 0.676922 0.602830
Si Si4 0.988454 0.679521 0.221554
Si Si5 0.871251 0.319072 0.890465
Si Si6 0.698173 0.179625 0.213214
Si Si7 0.557667 0.680219 0.901994
O O1 0.830560 0.500000 0.097283
O O2 0.763016 0.739264 0.177566
O O3 0.880357 0.744418 0.114002
O O4 0.839679 0.740826 0.996466
O O5 0.037828 0.775498 0.382952
O O6 0.154360 0.720031 0.321939
O O7 0.081405 0.791024 0.496297
O O8 0.112399 0.000000 0.365651
O O9 0.527611 0.500000 0.627811
O O10 0.542269 0.779884 0.669351
O O11 0.984950 0.500000 0.208194
O O12 0.058724 0.741922 0.167078
O O13 0.950760 0.766662 0.182522
O O14 0.872268 0.500000 0.885920
O O15 0.832635 0.254953 0.844850
O O16 0.708630 0.000000 0.200703
O O17 0.564617 0.500000 0.900658
O O18 0.500000 0.737561 0.000000
#
# Coordination Sequence:
#
# PCOD8113867 Si02
#       7
#     8   8   8   8   8   8   8
#     4  11  22  38  56  76 107 149 189 224 269 323
#     4   9  18  33  53  78 110 146 181 219 270 325
#     4   9  18  33  53  80 111 142 180 225 270 320
#     4  11  20  34  56  82 111 143 181 224 272 323
#     4   9  19  33  51  78 111 145 179 218 267 320
#     4  11  21  35  53  80 114 146 183 226 269 321
#     4  11  23  38  56  80 107 141 184 230 273 315
#
# _framework density 17.741253
#
# number of rings (size 3 to 8) (size 9 to 14) (size 15 to 20)
#    0.000    1.857    2.857    3.000    0.000    1.143 
#    0.000    3.571    0.000    0.857    0.000    0.000 
#    0.000    0.000    0.000    0.000    0.000    0.000 
#
# Total GULP energy -347305.818198 kJ/mol
# GULP energy per Si atom -12403.779221 kJ/mol
# Density = 1.770087 g / cm^3
# Si number density = 17.741253 Si / 1000 Ang^3
#
#
#
# Elastic Constant Matrix: (Units=GPa)
#
#
# Indices 1 2 3 4 5 6 
#
# 1 116.6912 35.3226 54.6247 0.0000 -8.1096 0.0000
# 2 35.3226 56.1372 32.0400 -0.0001 -0.1136 -0.0001
# 3 54.6247 32.0400 112.3557 0.0000 0.6801 0.0000
# 4 0.0000 -0.0001 0.0000 29.8269 0.0000 0.1343
# 5 -8.1096 -0.1136 0.6801 0.0000 21.2830 0.0000
# 6 0.0000 -0.0001 0.0000 0.1343 0.0000 23.9902
#
#
#
# Elastic Compliance Matrix: (Units=1/GPa)
#
#
# Indices 1 2 3 4 5 6 
#
# 1 0.012724 -0.005313 -0.004701 0.000000 0.004970 0.000000
# 2 -0.005313 0.023497 -0.004107 0.000000 -0.001768 0.000000
# 3 -0.004701 -0.004107 0.012370 0.000000 -0.002209 0.000000
# 4 0.000000 0.000000 0.000000 0.033528 0.000000 -0.000188
# 5 0.004970 -0.001768 -0.002209 0.000000 0.048941 0.000000
# 6 0.000000 0.000000 0.000000 -0.000188 0.000000 0.041685
#
#
# Mechanical properties :
#
#
# Convention : Reuss Voigt Hill
#
# Bulk Modulus (GPa) = 49.14128 58.79543 53.96835
# Shear Modulus (GPa) = 24.06517 25.89980 24.98248
#
# Velocity S-wave (km/s) = 3.68700 3.82496 3.75661
# Velocity P-wave (km/s) = 6.77380 7.26082 7.02153
#
# Compressibility (1/GPa) = 0.02034949
#
# Stress axis : x y z
#
# Youngs Moduli (GPa) = 78.59211 42.55890 80.83844
#
# Poissons Ratio (x) = 0.22611 0.38003
# Poissons Ratio (y) = 0.41756 0.33198
# Poissons Ratio (z) = 0.36947 0.17478
#
# Static dielectric constant tensor:
#      x y z
#    x 3.156360 0.000000 0.033430 
#    y 0.000000 3.132650 0.000000 
#    z 0.033430 0.000000 3.330620 
# 
# 
# High freq. dielectric constant tensor:
#      x y z
#    x 1.668800 0.000000 0.002510 
#    y 0.000000 1.681930 0.000000 
#    z 0.002510 0.000000 1.688680 
# 
# From -- ./inp_files/237412.got.cif
#   From: 2010.06.25/outbox.cif.g09.slc.cpg/sg12_119_cif.got.tgz:237412.got - 2010.06.28 00:19:55.
