data_PCOD8113003
_publ_section_title
;
Structure prediction by ZEFSAII (Michael W. Deem and Ramdas Pophale) SiO2 
 PCOD8113003
Probable space group: C 2/M
;
_chemical_formula_sum "Si O2"
_cell_formula_units_Z 40
_cell_length_a 19.769640
_cell_length_b 8.766662
_cell_length_c 11.322505
_cell_angle_alpha 90.000000
_cell_angle_beta 90.512238
_cell_angle_gamma 90.000000
_cell_volume 1962.267398
_symmetry_space_group_name_H-M "C 2/M"
_symmetry_group_IT_number 12
_symmetry_cell_setting 'monoclinic'
loop_
_space_group_symop_operation_xyz
x,y,z
-x,y,-z
-x,-y,-z
x,-y,z
1/2+x,1/2+y,z
1/2-x,1/2+y,-z
1/2-x,1/2-y,-z
1/2+x,1/2-y,z
loop_
_atom_site_type_symbol
_atom_site_label
_atom_site_fract_x
_atom_site_fract_y
_atom_site_fract_z
Si Si1 0.264750 0.179265 0.375250
Si Si2 0.645346 0.821513 0.234107
Si Si3 0.115171 0.177659 0.748172
Si Si4 0.175636 0.820936 0.001022
Si Si5 0.490545 0.177962 0.635409
O O1 0.250000 0.250000 0.500000
O O2 0.214365 0.245708 0.277813
O O3 0.340528 0.222613 0.340805
O O4 0.256748 0.000000 0.383244
O O5 0.630533 0.751356 0.105179
O O6 0.585677 0.785287 0.325162
O O7 0.657967 0.000000 0.221713
O O8 0.038049 0.224273 0.722354
O O9 0.126462 0.000000 0.722084
O O10 0.134691 0.218492 0.882092
O O11 0.183098 0.000000 0.020786
O O12 0.250000 0.750000 0.000000
O O13 0.500000 0.230015 0.500000
O O14 0.507545 0.000000 0.650640
#
# Coordination Sequence:
#
# PCOD8113003 Si02
#       5
#     8   8   8   8   8
#     4  12  24  39  63  92 125 164 211 264 318 378
#     4  11  23  40  64  94 128 166 214 265 318 380
#     4  11  24  41  64  93 126 165 213 264 316 378
#     4  11  23  40  64  93 128 168 212 266 321 378
#     4  10  23  43  65  91 127 170 212 261 321 383
#
# _framework density 20.384582000000002
#
# number of rings (size 3 to 8) (size 9 to 14) (size 15 to 20)
#    0.000    1.000    2.000    4.800    0.000    6.800 
#    0.000    4.000    0.000    0.000    0.000    0.000 
#    0.000    0.000    0.000    0.000    0.000    0.000 
#
# Total GULP energy -248140.137204 kJ/mol
# GULP energy per Si atom -12407.006860 kJ/mol
# Density = 2.033819 g / cm^3
# Si number density = 20.384582 Si / 1000 Ang^3
#
#
#
# Elastic Constant Matrix: (Units=GPa)
#
#
# Indices 1 2 3 4 5 6 
#
# 1 66.2271 27.3232 17.7645 0.0000 3.6610 0.0000
# 2 27.3232 108.6688 46.2414 0.0000 2.6451 0.0000
# 3 17.7645 46.2414 112.4147 0.0000 -5.8973 0.0000
# 4 0.0000 0.0000 0.0000 38.9173 0.0000 0.0033
# 5 3.6610 2.6451 -5.8973 0.0000 40.8408 0.0000
# 6 0.0000 0.0000 0.0000 0.0033 0.0000 35.6127
#
#
#
# Elastic Compliance Matrix: (Units=1/GPa)
#
#
# Indices 1 2 3 4 5 6 
#
# 1 0.017049 -0.003724 -0.001239 0.000000 -0.001466 0.000000
# 2 -0.003724 0.012048 -0.004424 0.000000 -0.001085 0.000000
# 3 -0.001239 -0.004424 0.011016 0.000000 0.001988 0.000000
# 4 0.000000 0.000000 0.000000 0.025696 0.000000 -0.000002
# 5 -0.001466 -0.001085 0.001988 0.000000 0.024974 0.000000
# 6 0.000000 0.000000 0.000000 -0.000002 0.000000 0.028080
#
#
# Mechanical properties :
#
#
# Convention : Reuss Voigt Hill
#
# Bulk Modulus (GPa) = 46.86496 52.21875 49.54185
# Shear Modulus (GPa) = 34.54244 36.13960 35.34102
#
# Velocity S-wave (km/s) = 4.12094 4.21514 4.16831
# Velocity P-wave (km/s) = 6.75893 7.02583 6.89367
#
# Compressibility (1/GPa) = 0.02133790
#
# Stress axis : x y z
#
# Youngs Moduli (GPa) = 58.65325 83.00421 90.77960
#
# Poissons Ratio (x) = 0.30908 0.11251
# Poissons Ratio (y) = 0.21841 0.40163
# Poissons Ratio (z) = 0.07270 0.36723
#
# Static dielectric constant tensor:
#      x y z
#    x 3.831670 0.000000 0.095000 
#    y 0.000000 3.788900 0.000000 
#    z 0.095000 0.000000 4.012550 
# 
# 
# High freq. dielectric constant tensor:
#      x y z
#    x 1.794800 0.000000 -0.001940 
#    y 0.000000 1.806410 0.000000 
#    z -0.001940 0.000000 1.813200 
# 
# From -- ./inp_files/151685.got.cif
#   From: 2010.06.25/outbox.cif.g09.slc.cpg/sg12_76_cif.got.tgz:151685.got - 2010.06.28 00:19:55.
