data_PCOD8113733
_publ_section_title
;
Structure prediction by ZEFSAII (Michael W. Deem and Ramdas Pophale) SiO2 
 PCOD8113733
Probable space group: C 2/M
;
_chemical_formula_sum "Si O2"
_cell_formula_units_Z 36
_cell_length_a 23.011483
_cell_length_b 14.613723
_cell_length_c 9.515342
_cell_angle_alpha 90.000000
_cell_angle_beta 35.198916
_cell_angle_gamma 90.000000
_cell_volume 1844.448587
_symmetry_space_group_name_H-M "C 2/M"
_symmetry_group_IT_number 12
_symmetry_cell_setting 'monoclinic'
loop_
_space_group_symop_operation_xyz
x,y,z
-x,y,-z
-x,-y,-z
x,-y,z
1/2+x,1/2+y,z
1/2-x,1/2+y,-z
1/2-x,1/2-y,-z
1/2+x,1/2-y,z
loop_
_atom_site_type_symbol
_atom_site_label
_atom_site_fract_x
_atom_site_fract_y
_atom_site_fract_z
Si Si1 0.115143 0.000000 0.727454
Si Si2 0.389158 0.841388 0.546905
Si Si3 0.318963 0.357892 0.626462
Si Si4 0.110601 0.608059 0.137003
Si Si5 0.381588 0.500000 0.725877
Si Si6 0.754500 0.000000 0.252867
O O1 0.136059 0.090479 0.595907
O O2 0.188676 0.000000 0.713142
O O3 0.000000 0.000000 0.000000
O O4 0.366109 0.741929 0.532337
O O5 0.375665 0.841995 0.741128
O O6 0.503430 0.868061 0.280104
O O7 0.314346 0.910653 0.618817
O O8 0.345690 0.408844 0.718404
O O9 0.196749 0.355921 0.860599
O O10 0.120578 0.500000 0.145077
O O11 0.500000 0.500000 0.500000
O O12 0.338180 0.500000 0.967182
#
# Coordination Sequence:
#
# PCOD8113733 Si02
#       6
#     4   8   8   8   4   4
#     4  11  27  48  62  84 137 181 219 271 323 379
#     4  11  22  36  69 103 131 163 215 278 329 387
#     4  11  23  42  64  95 128 175 221 271 323 383
#     4  11  19  40  66 101 137 164 207 276 338 380
#     4  11  23  36  61  94 122 166 227 272 321 382
#     4  12  22  41  64  92 129 173 218 268 324 386
#
# _framework density 19.518028999999999
#
# number of rings (size 3 to 8) (size 9 to 14) (size 15 to 20)
#    0.000    0.889    6.667    2.667    3.111    2.667 
#    0.000    2.222    0.000    0.000    0.000    0.000 
#    0.000    0.000    0.000    0.000    0.000    0.000 
#
# Total GULP energy -223290.662397 kJ/mol
# GULP energy per Si atom -12405.036800 kJ/mol
# Density = 1.947361 g / cm^3
# Si number density = 19.518029 Si / 1000 Ang^3
#
#
#
# Elastic Constant Matrix: (Units=GPa)
#
#
# Indices 1 2 3 4 5 6 
#
# 1 106.8925 63.6026 60.4094 0.0000 -8.7773 0.0000
# 2 63.6026 140.5653 44.7037 0.0000 -0.1673 0.0000
# 3 60.4094 44.7037 155.5726 0.0000 -20.4489 0.0000
# 4 0.0000 0.0000 0.0000 13.4497 0.0000 -24.7325
# 5 -8.7773 -0.1673 -20.4489 0.0000 37.6152 0.0000
# 6 0.0000 0.0000 0.0000 -24.7325 0.0000 -2.9360
#
#
#
# Elastic Compliance Matrix: (Units=1/GPa)
#
#
# Indices 1 2 3 4 5 6 
#
# 1 0.015049 -0.005505 -0.004096 0.000000 0.001260 0.000000
# 2 -0.005505 0.009901 -0.000937 0.000000 -0.001750 0.000000
# 3 -0.004096 -0.000937 0.008790 0.000000 0.003818 0.000000
# 4 0.000000 0.000000 0.000000 0.004509 0.000000 -0.037981
# 5 0.001260 -0.001750 0.003818 0.000000 0.028947 0.000000
# 6 0.000000 0.000000 0.000000 -0.037981 0.000000 -0.020654
#
#
# Mechanical properties :
#
#
# Convention : Reuss Voigt Hill
#
# Bulk Modulus (GPa) = 78.97309 82.27354 80.62332
# Shear Modulus (GPa) = 69.59896 25.24678 47.42287
#
# Velocity S-wave (km/s) = 5.97798 3.60044 4.93454
# Velocity P-wave (km/s) = 9.39137 7.71546 8.59436
#
# Compressibility (1/GPa) = 0.01266254
#
# Stress axis : x y z
#
# Youngs Moduli (GPa) = 66.44833 100.99791 113.77011
#
# Poissons Ratio (x) = 0.55602 0.46601
# Poissons Ratio (y) = 0.36582 0.10665
# Poissons Ratio (z) = 0.27218 0.09468
#
# Static dielectric constant tensor:
#      x y z
#    x 3.608890 0.000000 -0.393620 
#    y 0.000000 3.532420 0.000000 
#    z -0.393620 0.000000 3.834810 
# 
# 
# High freq. dielectric constant tensor:
#      x y z
#    x 1.747090 0.000000 -0.026090 
#    y 0.000000 1.764260 0.000000 
#    z -0.026090 0.000000 1.771080 
# 
# From -- ./inp_files/86289.got.cif
#   From: 2010.06.25/outbox.cif.g09.slc.cpg/sg12_44_cif.got.tgz:86289.got - 2010.06.28 00:19:55.
