data_PCOD8113400
_publ_section_title
;
Structure prediction by ZEFSAII (Michael W. Deem and Ramdas Pophale) SiO2 
 PCOD8113400
Probable space group: C 2/M
;
_chemical_formula_sum "Si O2"
_cell_formula_units_Z 48
_cell_length_a 8.491079
_cell_length_b 30.793266
_cell_length_c 16.769214
_cell_angle_alpha 90.000000
_cell_angle_beta 30.745261
_cell_angle_gamma 90.000000
_cell_volume 2241.511022
_symmetry_space_group_name_H-M "C 2/M"
_symmetry_group_IT_number 12
_symmetry_cell_setting 'monoclinic'
loop_
_space_group_symop_operation_xyz
x,y,z
-x,y,-z
-x,-y,-z
x,-y,z
1/2+x,1/2+y,z
1/2-x,1/2+y,-z
1/2-x,1/2-y,-z
1/2+x,1/2-y,z
loop_
_atom_site_type_symbol
_atom_site_label
_atom_site_fract_x
_atom_site_fract_y
_atom_site_fract_z
Si Si1 0.868498 0.411161 0.725514
Si Si2 0.278991 0.500000 0.171666
Si Si3 0.734148 0.149990 0.669601
Si Si4 0.262935 0.702487 0.030087
Si Si5 0.858680 0.000000 0.322904
Si Si6 0.400392 0.409837 0.378174
Si Si7 0.840577 0.872488 0.878804
O O1 0.928271 0.456487 0.745404
O O2 0.499260 0.407185 0.870267
O O3 0.961522 0.368904 0.734186
O O4 0.049454 0.412752 0.562120
O O5 0.423331 0.500000 0.199209
O O6 0.500000 0.500000 0.000000
O O7 0.577916 0.185837 0.794727
O O8 0.000000 0.172783 0.500000
O O9 0.877965 0.106999 0.647682
O O10 0.500000 0.699936 0.000000
O O11 0.250000 0.750000 0.000000
O O12 0.358832 0.674049 0.912338
O O13 0.500000 0.000000 0.500000
O O14 0.010485 0.956714 0.296173
O O15 0.438855 0.372218 0.294630
O O16 0.500000 0.887077 0.000000
#
# Coordination Sequence:
#
# PCOD8113400 Si02
#       7
#     8   4   8   8   4   8   8
#     4  11  23  44  64  96 137 189 224 284 341 396
#     4  12  26  35  64  99 142 181 242 285 336 399
#     4  10  24  44  70 101 137 176 230 276 347 419
#     4  12  26  47  72  99 135 175 217 286 356 420
#     4  12  20  41  64  99 141 190 242 282 335 396
#     4  11  22  41  70  96 136 188 235 278 332 410
#     4  12  23  39  69 100 132 171 230 276 336 410
#
# _framework density 21.414126
#
# number of rings (size 3 to 8) (size 9 to 14) (size 15 to 20)
#    0.000    0.667    6.667    1.000    2.333    0.667 
#    0.000    6.667    0.000    0.000    0.000    0.000 
#    0.000    0.000    0.000    0.000    0.000    0.000 
#
# Total GULP energy -297345.643862 kJ/mol
# GULP energy per Si atom -12389.401828 kJ/mol
# Density = 2.136539 g / cm^3
# Si number density = 21.414126 Si / 1000 Ang^3
#
#
#
# Elastic Constant Matrix: (Units=GPa)
#
#
# Indices 1 2 3 4 5 6 
#
# 1 84.4407 38.8759 54.9286 0.0000 0.6597 0.0000
# 2 38.8759 139.9698 81.8134 0.0000 11.7357 0.0000
# 3 54.9286 81.8134 139.3999 0.0000 18.5271 0.0000
# 4 0.0000 0.0000 0.0000 29.9895 0.0000 11.3427
# 5 0.6597 11.7357 18.5271 0.0000 48.4512 0.0000
# 6 0.0000 0.0000 0.0000 11.3427 0.0000 34.4527
#
#
#
# Elastic Compliance Matrix: (Units=1/GPa)
#
#
# Indices 1 2 3 4 5 6 
#
# 1 0.016302 -0.001199 -0.006036 0.000000 0.002377 0.000000
# 2 -0.001199 0.010965 -0.005913 0.000000 -0.000379 0.000000
# 3 -0.006036 -0.005913 0.013507 0.000000 -0.003651 0.000000
# 4 0.000000 0.000000 0.000000 0.038088 0.000000 -0.012539
# 5 0.002377 -0.000379 -0.003651 0.000000 0.022095 0.000000
# 6 0.000000 0.000000 0.000000 -0.012539 0.000000 0.033154
#
#
# Mechanical properties :
#
#
# Convention : Reuss Voigt Hill
#
# Bulk Modulus (GPa) = 69.06228 79.44957 74.25593
# Shear Modulus (GPa) = 30.26038 35.12484 32.69261
#
# Velocity S-wave (km/s) = 3.76321 4.05441 3.91152
# Velocity P-wave (km/s) = 7.15563 7.68763 7.42640
#
# Compressibility (1/GPa) = 0.01447968
#
# Stress axis : x y z
#
# Youngs Moduli (GPa) = 61.34041 91.19791 74.03458
#
# Poissons Ratio (x) = 0.10936 0.44686
# Poissons Ratio (y) = 0.07356 0.43773
# Poissons Ratio (z) = 0.37024 0.53921
#
# Static dielectric constant tensor:
#      x y z
#    x 4.059130 0.000000 0.171510 
#    y 0.000000 3.781880 0.000000 
#    z 0.171510 0.000000 4.018750 
# 
# 
# High freq. dielectric constant tensor:
#      x y z
#    x 1.851960 0.000000 0.016460 
#    y 0.000000 1.822630 0.000000 
#    z 0.016460 0.000000 1.837910 
# 
# From -- ./inp_files/260257.got.cif
#   From: 2010.06.25/outbox.cif.g09.slc.cpg/sg12_131_cif.got.tgz:260257.got - 2010.06.28 00:19:55.
