data_PCOD8113254
_publ_section_title
;
Structure prediction by ZEFSAII (Michael W. Deem and Ramdas Pophale) SiO2 
 PCOD8113254
Probable space group: C 2/M
;
_chemical_formula_sum "Si O2"
_cell_formula_units_Z 28
_cell_length_a 9.187397
_cell_length_b 9.389222
_cell_length_c 19.904334
_cell_angle_alpha 90.000000
_cell_angle_beta 46.002540
_cell_angle_gamma 90.000000
_cell_volume 1235.157737
_symmetry_space_group_name_H-M "C 2/M"
_symmetry_group_IT_number 12
_symmetry_cell_setting 'monoclinic'
loop_
_space_group_symop_operation_xyz
x,y,z
-x,y,-z
-x,-y,-z
x,-y,z
1/2+x,1/2+y,z
1/2-x,1/2+y,-z
1/2-x,1/2-y,-z
1/2+x,1/2-y,z
loop_
_atom_site_type_symbol
_atom_site_label
_atom_site_fract_x
_atom_site_fract_y
_atom_site_fract_z
Si Si1 0.938474 0.846971 0.873344
Si Si2 0.000000 0.247806 0.000000
Si Si3 0.184338 0.837258 0.585579
Si Si4 0.737465 0.838546 0.696617
O O1 0.701551 0.842983 0.930814
O O2 0.055614 0.718329 0.800512
O O3 0.019580 0.000000 0.820759
O O4 0.975499 0.847240 0.941344
O O5 0.250000 0.750000 0.500000
O O6 0.280609 0.759493 0.618474
O O7 0.942713 0.835570 0.673665
O O8 0.263455 0.000000 0.554980
O O9 0.683898 0.000000 0.691494
#
# Coordination Sequence:
#
# PCOD8113254 Si02
#       4
#     8   4   8   8
#     4  11  23  41  64  90 122 162 206 252 306 364
#     4  10  24  40  62  92 124 158 204 258 306 360
#     4  11  24  42  65  93 125 162 204 251 304 362
#     4  11  25  42  62  92 127 161 203 254 304 361
#
# _framework density 22.669167000000002
#
# number of rings (size 3 to 8) (size 9 to 14) (size 15 to 20)
#    0.000    1.143    0.000    5.143    0.000   19.429 
#    0.000    0.000    0.000    0.000    0.000    0.000 
#    0.000    0.000    0.000    0.000    0.000    0.000 
#
# Total GULP energy -173620.035591 kJ/mol
# GULP energy per Si atom -12401.431114 kJ/mol
# Density = 2.261757 g / cm^3
# Si number density = 22.669167 Si / 1000 Ang^3
#
#
#
# Elastic Constant Matrix: (Units=GPa)
#
#
# Indices 1 2 3 4 5 6 
#
# 1 102.5219 26.2920 9.8810 0.0000 -10.0409 0.0000
# 2 26.2920 184.4773 33.0002 0.0000 -2.0740 0.0000
# 3 9.8810 33.0002 79.8932 0.0000 -7.5686 0.0000
# 4 0.0000 0.0000 0.0000 34.1786 0.0000 2.8880
# 5 -10.0409 -2.0740 -7.5686 0.0000 29.3284 0.0000
# 6 0.0000 0.0000 0.0000 2.8880 0.0000 21.3299
#
#
#
# Elastic Compliance Matrix: (Units=1/GPa)
#
#
# Indices 1 2 3 4 5 6 
#
# 1 0.010479 -0.001383 -0.000404 0.000000 0.003386 0.000000
# 2 -0.001383 0.006037 -0.002385 0.000000 -0.000662 0.000000
# 3 -0.000404 -0.002385 0.013862 0.000000 0.003270 0.000000
# 4 0.000000 0.000000 0.000000 0.029597 0.000000 -0.004007
# 5 0.003386 -0.000662 0.003270 0.000000 0.036053 0.000000
# 6 0.000000 0.000000 0.000000 -0.004007 0.000000 0.047425
#
#
# Mechanical properties :
#
#
# Convention : Reuss Voigt Hill
#
# Bulk Modulus (GPa) = 45.38621 56.13765 50.76193
# Shear Modulus (GPa) = 31.41844 36.81531 34.11687
#
# Velocity S-wave (km/s) = 3.72688 4.03429 3.88363
# Velocity P-wave (km/s) = 6.21161 6.82043 6.52313
#
# Compressibility (1/GPa) = 0.02203313
#
# Stress axis : x y z
#
# Youngs Moduli (GPa) = 95.42662 165.64227 72.14105
#
# Poissons Ratio (x) = 0.22912 0.02914
# Poissons Ratio (y) = 0.13199 0.17208
# Poissons Ratio (z) = 0.03855 0.39511
#
# Static dielectric constant tensor:
#      x y z
#    x 4.268440 0.000000 -0.023220 
#    y 0.000000 4.078340 0.000000 
#    z -0.023220 0.000000 3.957070 
# 
# 
# High freq. dielectric constant tensor:
#      x y z
#    x 1.904890 0.000000 -0.002380 
#    y 0.000000 1.902390 0.000000 
#    z -0.002380 0.000000 1.892310 
# 
# From -- ./inp_files/298687.got.cif
#   From: 2010.06.25/outbox.cif.g09.slc.cpg/sg12_150_cif.got.tgz:298687.got - 2010.06.28 00:19:55.
