data_PCOD8113288
_publ_section_title
;
Structure prediction by ZEFSAII (Michael W. Deem and Ramdas Pophale) SiO2 
 PCOD8113288
Probable space group: C 2/M
;
_chemical_formula_sum "Si O2"
_cell_formula_units_Z 48
_cell_length_a 8.727510
_cell_length_b 22.537128
_cell_length_c 14.859771
_cell_angle_alpha 90.000000
_cell_angle_beta 122.578591
_cell_angle_gamma 90.000000
_cell_volume 2462.919127
_symmetry_space_group_name_H-M "C 2/M"
_symmetry_group_IT_number 12
_symmetry_cell_setting 'monoclinic'
loop_
_space_group_symop_operation_xyz
x,y,z
-x,y,-z
-x,-y,-z
x,-y,z
1/2+x,1/2+y,z
1/2-x,1/2+y,-z
1/2-x,1/2-y,-z
1/2+x,1/2-y,z
loop_
_atom_site_type_symbol
_atom_site_label
_atom_site_fract_x
_atom_site_fract_y
_atom_site_fract_z
Si Si1 0.120072 0.181794 0.124413
Si Si2 0.871576 0.817188 0.376518
Si Si3 0.553002 0.433176 0.884137
Si Si4 0.004643 0.260940 0.750503
Si Si5 0.719200 0.433464 0.737641
Si Si6 0.923366 0.430177 0.065802
O O1 0.109233 0.113360 0.154985
O O2 0.331711 0.194429 0.172608
O O3 0.042842 0.224005 0.176903
O O4 0.000000 0.195999 0.000000
O O5 0.939169 0.783094 0.310561
O O6 0.667433 0.798700 0.337530
O O7 0.880792 0.887717 0.359652
O O8 0.000000 0.801719 0.500000
O O9 0.481870 0.500000 0.881974
O O10 0.637678 0.430441 0.811863
O O11 0.290437 0.412440 0.992472
O O12 0.694828 0.500000 0.691061
O O13 0.935424 0.415174 0.809192
O O14 0.923504 0.500000 0.049352
O O15 0.000000 0.398521 0.000000
#
# Coordination Sequence:
#
# PCOD8113288 Si02
#       6
#     8   8   8   8   8   8
#     4  11  22  38  58  85 119 154 186 225 278 348
#     4  11  22  40  64  84 106 147 198 249 286 328
#     4   9  17  32  55  83 117 155 186 221 278 344
#     4  10  24  42  56  83 117 151 191 235 286 334
#     4   9  17  32  56  85 116 145 183 237 290 336
#     4   7  12  24  45  75 108 145 179 209 259 331
#
# _framework density 19.489069000000001
#
# number of rings (size 3 to 8) (size 9 to 14) (size 15 to 20)
#    0.000    2.500    1.667    3.000    2.333    0.667 
#    0.000    0.833    0.000    0.000    0.000    2.333 
#    0.000    0.000    0.000    0.000    0.000    0.000 
#
# Total GULP energy -297418.196726 kJ/mol
# GULP energy per Si atom -12392.424864 kJ/mol
# Density = 1.944471 g / cm^3
# Si number density = 19.489069 Si / 1000 Ang^3
#
#
#
# Elastic Constant Matrix: (Units=GPa)
#
#
# Indices 1 2 3 4 5 6 
#
# 1 96.2677 50.0793 33.4691 0.0000 19.7465 0.0000
# 2 50.0793 104.6660 31.9868 0.0000 16.8899 0.0000
# 3 33.4691 31.9868 74.4495 0.0000 21.8019 0.0000
# 4 0.0000 0.0000 0.0000 -274.1626 0.0000 272.8887
# 5 19.7465 16.8899 21.8019 0.0000 22.7344 0.0000
# 6 0.0000 0.0000 0.0000 272.8887 0.0000 -216.4874
#
#
#
# Elastic Compliance Matrix: (Units=1/GPa)
#
#
# Indices 1 2 3 4 5 6 
#
# 1 0.015601 -0.005552 -0.002597 0.000000 -0.006936 0.000000
# 2 -0.005552 0.013409 -0.002448 0.000000 -0.002793 0.000000
# 3 -0.002597 -0.002448 0.020104 0.000000 -0.015205 0.000000
# 4 0.000000 0.000000 0.000000 0.014322 0.000000 0.018054
# 5 -0.006936 -0.002793 -0.015205 0.000000 0.066666 0.000000
# 6 0.000000 0.000000 0.000000 0.018054 0.000000 0.018138
#
#
# Mechanical properties :
#
#
# Convention : Reuss Voigt Hill
#
# Bulk Modulus (GPa) = 35.81536 56.27264 46.04400
# Shear Modulus (GPa) = 27.97341 -82.92659 -27.47659
#
# Velocity S-wave (km/s) = 3.79270 -6.53014 -3.75887
# Velocity P-wave (km/s) = 6.13159 5.28396 2.19956
#
# Compressibility (1/GPa) = 0.02792098
#
# Stress axis : x y z
#
# Youngs Moduli (GPa) = 64.09656 74.57559 49.74200
#
# Poissons Ratio (x) = 0.41403 0.12920
# Poissons Ratio (y) = 0.35585 0.12174
# Poissons Ratio (z) = 0.16648 0.18253
#
# Static dielectric constant tensor:
#      x y z
#    x 3.724750 0.000000 0.151640 
#    y 0.000000 3.606060 0.000000 
#    z 0.151640 0.000000 3.285570 
# 
# 
# High freq. dielectric constant tensor:
#      x y z
#    x 1.761380 0.000000 0.000030 
#    y 0.000000 1.763580 0.000000 
#    z 0.000030 0.000000 1.727150 
# 
# From -- ./inp_files/122584.got.cif
#   From: 2010.06.25/outbox.cif.g09.slc.cpg/sg12_62_cif.got.tgz:122584.got - 2010.06.28 00:19:55.
