data_PCOD8113645
_publ_section_title
;
Structure prediction by ZEFSAII (Michael W. Deem and Ramdas Pophale) SiO2 
 PCOD8113645
Probable space group: C 2/M
;
_chemical_formula_sum "Si O2"
_cell_formula_units_Z 56
_cell_length_a 28.270286
_cell_length_b 14.050000
_cell_length_c 12.172878
_cell_angle_alpha 90.000000
_cell_angle_beta 34.156943
_cell_angle_gamma 90.000000
_cell_volume 2714.687956
_symmetry_space_group_name_H-M "C 2/M"
_symmetry_group_IT_number 12
_symmetry_cell_setting 'monoclinic'
loop_
_space_group_symop_operation_xyz
x,y,z
-x,y,-z
-x,-y,-z
x,-y,z
1/2+x,1/2+y,z
1/2-x,1/2+y,-z
1/2-x,1/2-y,-z
1/2+x,1/2-y,z
loop_
_atom_site_type_symbol
_atom_site_label
_atom_site_fract_x
_atom_site_fract_y
_atom_site_fract_z
Si Si1 0.342428 0.112622 0.730089
Si Si2 0.757370 0.613921 0.109660
Si Si3 0.908973 0.892803 0.684863
Si Si4 0.526309 0.112123 0.692790
Si Si5 0.096556 0.604350 0.779920
Si Si6 0.319755 0.606461 0.081954
Si Si7 0.358283 0.795009 0.098810
O O1 0.432950 0.140869 0.503506
O O2 0.267657 0.149441 0.795625
O O3 0.331938 0.000000 0.750320
O O4 0.328435 0.147348 0.882700
O O5 0.755038 0.500000 0.121831
O O6 0.665730 0.654680 0.245618
O O7 0.780506 0.658232 0.182335
O O8 0.000000 0.840055 0.500000
O O9 0.918631 0.000000 0.621339
O O10 0.885902 0.893913 0.856353
O O11 0.597229 0.134824 0.650459
O O12 0.502470 0.000000 0.742503
O O13 0.442970 0.172125 0.874260
O O14 0.137479 0.500000 0.715691
O O15 0.146699 0.675391 0.763754
O O16 0.000000 0.601293 0.000000
O O17 0.311734 0.500000 0.148417
O O18 0.352599 0.680348 0.110540
#
# Coordination Sequence:
#
# PCOD8113645 Si02
#       7
#     8   8   8   8   8   8   8
#     4   8  16  32  50  69 100 138 168 193 239 307
#     4   9  17  29  48  76 109 133 156 205 258 299
#     4   8  15  31  50  66  92 136 177 200 234 294
#     4   9  17  32  54  77 101 132 165 199 248 313
#     4   8  15  29  50  73 102 133 162 197 247 310
#     4   9  19  35  49  66  95 137 178 205 239 293
#     4  11  19  29  47  79 104 130 161 213 257 290
#
# _framework density 20.628520999999999
#
# number of rings (size 3 to 8) (size 9 to 14) (size 15 to 20)
#    0.000    3.143    0.000    3.857    0.000    2.857 
#    5.143    2.857    0.000    3.857    0.000    0.000 
#    0.000    0.000    0.000    2.714    0.000    0.000 
#
# Total GULP energy -346907.580899 kJ/mol
# GULP energy per Si atom -12389.556461 kJ/mol
# Density = 2.058157 g / cm^3
# Si number density = 20.628521 Si / 1000 Ang^3
#
#
#
# Elastic Constant Matrix: (Units=GPa)
#
#
# Indices 1 2 3 4 5 6 
#
# 1 94.3507 37.7745 -0.2317 0.0000 0.7723 0.0000
# 2 37.7745 65.1751 -6.5060 0.0000 -3.9094 0.0000
# 3 -0.2317 -6.5060 33.7886 0.0000 -7.7681 0.0000
# 4 0.0000 0.0000 0.0000 6.9877 0.0000 -3.5625
# 5 0.7723 -3.9094 -7.7681 0.0000 18.0668 0.0000
# 6 0.0000 0.0000 0.0000 -3.5625 0.0000 26.0326
#
#
#
# Elastic Compliance Matrix: (Units=1/GPa)
#
#
# Indices 1 2 3 4 5 6 
#
# 1 0.014062 -0.008594 -0.002357 0.000000 -0.003474 0.000000
# 2 -0.008594 0.021348 0.005768 0.000000 0.007467 0.000000
# 3 -0.002357 0.005768 0.034401 0.000000 0.016140 0.000000
# 4 0.000000 0.000000 0.000000 0.153842 0.000000 0.021053
# 5 -0.003474 0.007467 0.016140 0.000000 0.064054 0.000000
# 6 0.000000 0.000000 0.000000 0.021053 0.000000 0.041295
#
#
# Mechanical properties :
#
#
# Convention : Reuss Voigt Hill
#
# Bulk Modulus (GPa) = 16.82212 28.37644 22.59928
# Shear Modulus (GPa) = 13.92053 21.03593 17.47823
#
# Velocity S-wave (km/s) = 2.60055 3.19682 2.91397
# Velocity P-wave (km/s) = 4.14604 5.23564 4.72237
#
# Compressibility (1/GPa) = 0.05944553
#
# Stress axis : x y z
#
# Youngs Moduli (GPa) = 71.11340 46.84315 29.06904
#
# Poissons Ratio (x) = 0.40256 0.06852
# Poissons Ratio (y) = 0.61114 -0.16768
# Poissons Ratio (z) = 0.16762 -0.27020
#
# Static dielectric constant tensor:
#      x y z
#    x 3.775170 0.000000 0.028910 
#    y 0.000000 3.591770 0.000000 
#    z 0.028910 0.000000 3.728760 
# 
# 
# High freq. dielectric constant tensor:
#      x y z
#    x 1.787400 0.000000 -0.005400 
#    y 0.000000 1.792060 0.000000 
#    z -0.005400 0.000000 1.783670 
# 
# From -- ./inp_files/183440.got.cif
#   From: 2010.06.25/outbox.cif.g09.slc.cpg/sg12_92_cif.got.tgz:183440.got - 2010.06.28 00:19:55.
