data_PCOD8113176
_publ_section_title
;
Structure prediction by ZEFSAII (Michael W. Deem and Ramdas Pophale) SiO2 
 PCOD8113176
Probable space group: C 2/M
;
_chemical_formula_sum "Si O2"
_cell_formula_units_Z 64
_cell_length_a 14.827420
_cell_length_b 25.530513
_cell_length_c 11.787139
_cell_angle_alpha 90.000000
_cell_angle_beta 38.953934
_cell_angle_gamma 90.000000
_cell_volume 2805.264339
_symmetry_space_group_name_H-M "C 2/M"
_symmetry_group_IT_number 12
_symmetry_cell_setting 'monoclinic'
loop_
_space_group_symop_operation_xyz
x,y,z
-x,y,-z
-x,-y,-z
x,-y,z
1/2+x,1/2+y,z
1/2-x,1/2+y,-z
1/2-x,1/2-y,-z
1/2+x,1/2-y,z
loop_
_atom_site_type_symbol
_atom_site_label
_atom_site_fract_x
_atom_site_fract_y
_atom_site_fract_z
Si Si1 0.597102 0.730594 0.293552
Si Si2 0.004599 0.440687 0.873244
Si Si3 0.246262 0.438301 0.036715
Si Si4 0.887890 0.281762 0.329971
Si Si5 0.269458 0.892907 0.478337
Si Si6 0.969458 0.886615 0.659604
Si Si7 0.327650 0.882402 0.661163
Si Si8 0.154250 0.219436 0.839176
O O1 0.500000 0.741476 0.500000
O O2 0.527844 0.759742 0.255168
O O3 0.612632 0.668492 0.260485
O O4 0.759889 0.753125 0.141480
O O5 0.955765 0.500000 0.939784
O O6 0.165322 0.437600 0.666649
O O7 0.892962 0.416565 0.892804
O O8 0.000000 0.411700 0.000000
O O9 0.240393 0.500000 0.071926
O O10 0.249441 0.406063 0.152049
O O11 0.380129 0.428052 0.821715
O O12 0.750000 0.250000 0.500000
O O13 0.875901 0.343368 0.361446
O O14 0.893353 0.268230 0.192508
O O15 0.277183 0.915193 0.599670
O O16 0.114187 0.877227 0.587572
O O17 0.000000 0.906349 0.500000
O O18 0.500000 0.881923 0.500000
O O19 0.268118 0.824464 0.686933
O O20 0.000000 0.189750 0.000000
#
# Coordination Sequence:
#
# PCOD8113176 Si02
#       8
#     8   8   8   8   8   8   8   8
#     4  11  21  41  65  94 138 180 224 270 337 408
#     4  10  23  45  71 100 134 176 235 299 352 412
#     4  11  27  47  70 102 141 180 234 301 356 417
#     4  12  21  40  65  95 133 182 225 279 334 406
#     4  12  23  40  73 101 136 184 235 280 349 422
#     4  11  24  43  71 103 140 185 226 290 355 420
#     4  12  25  45  70  99 136 191 233 286 352 423
#     4  12  27  41  65 102 140 182 231 283 344 418
#
# _framework density 22.814247999999999
#
# number of rings (size 3 to 8) (size 9 to 14) (size 15 to 20)
#    0.000    0.625    5.000    2.625    3.500    3.500 
#    0.000    0.625    0.000    0.000    0.000    0.000 
#    0.000    0.000    0.000    0.000    0.000    0.000 
#
# Total GULP energy -396507.527389 kJ/mol
# GULP energy per Si atom -12390.860231 kJ/mol
# Density = 2.276232 g / cm^3
# Si number density = 22.814248 Si / 1000 Ang^3
#
#
#
# Elastic Constant Matrix: (Units=GPa)
#
#
# Indices 1 2 3 4 5 6 
#
# 1 177.5308 32.4293 53.5956 0.0000 2.4906 0.0000
# 2 32.4293 53.3830 26.0230 0.0000 1.0075 0.0000
# 3 53.5956 26.0230 106.2175 0.0000 6.3153 0.0000
# 4 0.0000 0.0000 0.0000 27.2285 0.0000 0.6318
# 5 2.4906 1.0075 6.3153 0.0000 42.9455 0.0000
# 6 0.0000 0.0000 0.0000 0.6318 0.0000 22.9129
#
#
#
# Elastic Compliance Matrix: (Units=1/GPa)
#
#
# Indices 1 2 3 4 5 6 
#
# 1 0.007015 -0.002879 -0.002839 0.000000 0.000078 0.000000
# 2 -0.002879 0.022458 -0.004064 0.000000 0.000238 0.000000
# 3 -0.002839 -0.004064 0.011931 0.000000 -0.001495 0.000000
# 4 0.000000 0.000000 0.000000 0.036750 0.000000 -0.001013
# 5 0.000078 0.000238 -0.001495 0.000000 0.023495 0.000000
# 6 0.000000 0.000000 0.000000 -0.001013 0.000000 0.043672
#
#
# Mechanical properties :
#
#
# Convention : Reuss Voigt Hill
#
# Bulk Modulus (GPa) = 45.78464 62.35857 54.07160
# Shear Modulus (GPa) = 29.04221 33.62295 31.33258
#
# Velocity S-wave (km/s) = 3.57176 3.84314 3.70993
# Velocity P-wave (km/s) = 6.09278 6.86188 6.48874
#
# Compressibility (1/GPa) = 0.02184139
#
# Stress axis : x y z
#
# Youngs Moduli (GPa) = 142.55915 44.52786 83.81182
#
# Poissons Ratio (x) = 0.12819 0.23792
# Poissons Ratio (y) = 0.41041 0.34058
# Poissons Ratio (z) = 0.40470 0.18094
#
# Static dielectric constant tensor:
#      x y z
#    x 4.578270 0.000000 0.038990 
#    y 0.000000 3.748960 0.000000 
#    z 0.038990 0.000000 3.906060 
# 
# 
# High freq. dielectric constant tensor:
#      x y z
#    x 1.923610 0.000000 0.003710 
#    y 0.000000 1.876970 0.000000 
#    z 0.003710 0.000000 1.896780 
# 
# From -- ./inp_files/149734.got.cif
#   From: 2010.06.25/outbox.cif.g09.slc.cpg/sg12_75_cif.got.tgz:149734.got - 2010.06.28 00:19:55.
