data_PCOD8113692
_publ_section_title
;
Structure prediction by ZEFSAII (Michael W. Deem and Ramdas Pophale) SiO2 
 PCOD8113692
Probable space group: C 2/M
;
_chemical_formula_sum "Si O2"
_cell_formula_units_Z 40
_cell_length_a 14.900446
_cell_length_b 17.932087
_cell_length_c 16.511923
_cell_angle_alpha 90.000000
_cell_angle_beta 152.842453
_cell_angle_gamma 90.000000
_cell_volume 2013.772048
_symmetry_space_group_name_H-M "C 2/M"
_symmetry_group_IT_number 12
_symmetry_cell_setting 'monoclinic'
loop_
_space_group_symop_operation_xyz
x,y,z
-x,y,-z
-x,-y,-z
x,-y,z
1/2+x,1/2+y,z
1/2-x,1/2+y,-z
1/2-x,1/2-y,-z
1/2+x,1/2-y,z
loop_
_atom_site_type_symbol
_atom_site_label
_atom_site_fract_x
_atom_site_fract_y
_atom_site_fract_z
Si Si1 0.374213 0.304170 0.698963
Si Si2 0.708947 0.414583 0.979483
Si Si3 0.723209 0.919211 0.153963
Si Si4 0.980427 0.317727 0.299475
Si Si5 0.218840 0.734369 0.210504
O O1 0.510818 0.369684 0.843455
O O2 0.512168 0.252379 0.754846
O O3 0.280093 0.254388 0.694358
O O4 0.198238 0.339614 0.504730
O O5 0.667320 0.500000 0.966641
O O6 0.764935 0.401579 0.931516
O O7 0.890077 0.388074 0.180340
O O8 0.815785 0.848559 0.276466
O O9 0.827656 0.000000 0.256601
O O10 0.500000 0.927425 0.000000
O O11 0.844256 0.296819 0.265822
O O12 0.000000 0.733263 0.000000
#
# Coordination Sequence:
#
# PCOD8113692 Si02
#       5
#     8   8   8   8   8
#     4  11  23  38  61  91 121 157 203 248 292 357
#     4  11  22  40  63  87 123 161 198 246 303 354
#     4   9  18  32  58  92 120 154 194 240 303 363
#     4  11  22  39  60  90 120 157 206 245 295 350
#     4  11  19  35  64  85 119 157 199 248 296 351
#
# _framework density 19.863220999999999
#
# number of rings (size 3 to 8) (size 9 to 14) (size 15 to 20)
#    0.000    1.400    4.000    3.600    0.000    0.800 
#    0.000    2.000    0.000    6.000    0.000    0.000 
#    0.000    0.000    0.000    0.000    0.000    0.000 
#
# Total GULP energy -247987.770968 kJ/mol
# GULP energy per Si atom -12399.388548 kJ/mol
# Density = 1.981801 g / cm^3
# Si number density = 19.863221 Si / 1000 Ang^3
#
#
#
# Elastic Constant Matrix: (Units=GPa)
#
#
# Indices 1 2 3 4 5 6 
#
# 1 86.8749 26.1839 13.2904 0.0256 -9.1820 0.0072
# 2 26.1839 114.7512 54.4686 0.0281 -9.5946 0.0125
# 3 13.2904 54.4686 90.2390 0.0550 -7.9795 0.0403
# 4 0.0256 0.0281 0.0550 16.9263 0.0253 -6.3295
# 5 -9.1820 -9.5946 -7.9795 0.0253 20.8347 0.0130
# 6 0.0072 0.0125 0.0403 -6.3295 0.0130 31.1075
#
#
#
# Elastic Compliance Matrix: (Units=1/GPa)
#
#
# Indices 1 2 3 4 5 6 
#
# 1 0.012746 -0.002567 0.000067 -0.000025 0.004461 -0.000009
# 2 -0.002567 0.012903 -0.007229 0.000005 0.002042 0.000005
# 3 0.000067 -0.007229 0.015675 -0.000054 0.002703 -0.000030
# 4 -0.000025 0.000005 -0.000054 0.063945 -0.000115 0.013011
# 5 0.004461 0.002042 0.002703 -0.000115 0.051939 -0.000051
# 6 -0.000009 0.000005 -0.000030 0.013011 -0.000051 0.034794
#
#
# Mechanical properties :
#
#
# Convention : Reuss Voigt Hill
#
# Bulk Modulus (GPa) = 45.73833 53.30567 49.52200
# Shear Modulus (GPa) = 22.85733 26.96851 24.91292
#
# Velocity S-wave (km/s) = 3.39593 3.68871 3.54534
# Velocity P-wave (km/s) = 6.20106 6.71094 6.46103
#
# Compressibility (1/GPa) = 0.02186350
#
# Stress axis : x y z
#
# Youngs Moduli (GPa) = 78.45756 77.50429 63.79729
#
# Poissons Ratio (x) = 0.19896 -0.00426
# Poissons Ratio (y) = 0.20140 0.46122
# Poissons Ratio (z) = -0.00523 0.56031
#
# Static dielectric constant tensor:
#      x y z
#    x 3.681920 -0.000010 -0.020950 
#    y -0.000010 3.922100 -0.000090 
#    z -0.020950 -0.000090 3.418560 
# 
# 
# High freq. dielectric constant tensor:
#      x y z
#    x 1.785110 0.000000 -0.000210 
#    y 0.000000 1.768490 -0.000010 
#    z -0.000210 -0.000010 1.755000 
# 
# From -- ./inp_files/60224.got.cif
#   From: 2010.06.25/outbox.cif.g09.slc.cpg/sg12_31_cif.got.tgz:60224.got - 2010.06.28 00:19:55.
