data_PCOD8113008
_publ_section_title
;
Structure prediction by ZEFSAII (Michael W. Deem and Ramdas Pophale) SiO2 
 PCOD8113008
Probable space group: C 2/M
;
_chemical_formula_sum "Si O2"
_cell_formula_units_Z 56
_cell_length_a 12.660759
_cell_length_b 14.579600
_cell_length_c 17.648081
_cell_angle_alpha 90.000000
_cell_angle_beta 53.612677
_cell_angle_gamma 90.000000
_cell_volume 2622.480378
_symmetry_space_group_name_H-M "C 2/M"
_symmetry_group_IT_number 12
_symmetry_cell_setting 'monoclinic'
loop_
_space_group_symop_operation_xyz
x,y,z
-x,y,-z
-x,-y,-z
x,-y,z
1/2+x,1/2+y,z
1/2-x,1/2+y,-z
1/2-x,1/2-y,-z
1/2+x,1/2-y,z
loop_
_atom_site_type_symbol
_atom_site_label
_atom_site_fract_x
_atom_site_fract_y
_atom_site_fract_z
Si Si1 0.157134 0.902076 0.073638
Si Si2 0.235079 0.287852 0.390612
Si Si3 0.903903 0.399344 0.671824
Si Si4 0.295159 0.106831 0.443496
Si Si5 0.862603 0.322272 0.091450
Si Si6 0.034875 0.750712 0.807635
Si Si7 0.784880 0.647125 0.871548
O O1 0.245104 0.886559 0.112015
O O2 0.043711 0.827252 0.110484
O O3 0.087334 0.000000 0.113468
O O4 0.253961 0.911771 0.959390
O O5 0.124913 0.318464 0.376442
O O6 0.217680 0.180105 0.422249
O O7 0.231213 0.360355 0.460079
O O8 0.377107 0.300755 0.292134
O O9 0.896757 0.500000 0.635593
O O10 0.794125 0.402907 0.786223
O O11 0.050719 0.383843 0.640758
O O12 0.248633 0.000000 0.451651
O O13 0.874188 0.314434 0.177634
O O14 0.830846 0.221025 0.075102
O O15 0.000000 0.357800 0.000000
O O16 0.929419 0.688496 0.812011
#
# Coordination Sequence:
#
# PCOD8113008 Si02
#       7
#     8   8   8   8   8   8   8
#     4  11  24  37  55  89 124 153 201 256 292 338
#     4  11  22  39  68  90 120 161 195 245 310 359
#     4  11  22  37  62  94 121 152 203 254 296 353
#     4  10  23  43  65  93 121 152 200 251 298 361
#     4  11  19  38  60  79 113 166 204 235 290 357
#     4  11  21  39  61  83 118 164 200 235 301 363
#     4  11  20  37  60  84 119 160 201 244 292 350
#
# _framework density 21.353831
#
# number of rings (size 3 to 8) (size 9 to 14) (size 15 to 20)
#    0.000    1.143    5.714    2.143    0.000    2.571 
#    0.000    1.429    0.000    7.714    0.000    0.000 
#    0.000    0.000    0.000    0.000    0.000    0.000 
#
# Total GULP energy -346875.019541 kJ/mol
# GULP energy per Si atom -12388.393555 kJ/mol
# Density = 2.130523 g / cm^3
# Si number density = 21.353831 Si / 1000 Ang^3
#
#
#
# Elastic Constant Matrix: (Units=GPa)
#
#
# Indices 1 2 3 4 5 6 
#
# 1 55.5461 21.6252 -0.2725 0.0000 14.4055 0.0000
# 2 21.6252 121.5213 22.2564 0.0000 6.1045 0.0000
# 3 -0.2725 22.2564 106.2622 0.0000 6.6148 0.0000
# 4 0.0000 0.0000 0.0000 5.5948 0.0000 -7.6792
# 5 14.4055 6.1045 6.6148 0.0000 11.2392 0.0000
# 6 0.0000 0.0000 0.0000 -7.6792 0.0000 16.9198
#
#
#
# Elastic Compliance Matrix: (Units=1/GPa)
#
#
# Indices 1 2 3 4 5 6 
#
# 1 0.029181 -0.003913 0.003208 0.000000 -0.037164 0.000000
# 2 -0.003913 0.009235 -0.002018 0.000000 0.001188 0.000000
# 3 0.003208 -0.002018 0.010411 0.000000 -0.009143 0.000000
# 4 0.000000 0.000000 0.000000 0.474041 0.000000 0.215149
# 5 -0.037164 0.001188 -0.009143 0.000000 0.141344 0.000000
# 6 0.000000 0.000000 0.000000 0.215149 0.000000 0.156750
#
#
# Mechanical properties :
#
#
# Convention : Reuss Voigt Hill
#
# Bulk Modulus (GPa) = 23.05256 41.17198 32.11227
# Shear Modulus (GPa) = 5.94622 22.73213 14.33918
#
# Velocity S-wave (km/s) = 1.67053 3.26628 2.59415
# Velocity P-wave (km/s) = 3.81311 5.79202 4.90343
#
# Compressibility (1/GPa) = 0.04337914
#
# Stress axis : x y z
#
# Youngs Moduli (GPa) = 34.26943 108.27896 96.05429
#
# Poissons Ratio (x) = 0.42374 -0.30814
# Poissons Ratio (y) = 0.13411 0.19387
# Poissons Ratio (z) = -0.10993 0.21854
#
# Static dielectric constant tensor:
#      x y z
#    x 3.500840 0.000000 -0.175030 
#    y 0.000000 3.973110 0.000000 
#    z -0.175030 0.000000 3.571940 
# 
# 
# High freq. dielectric constant tensor:
#      x y z
#    x 1.820950 0.000000 0.005260 
#    y 0.000000 1.823410 0.000000 
#    z 0.005260 0.000000 1.842190 
# 
# From -- ./inp_files/263255.got.cif
#   From: 2010.06.25/outbox.cif.g09.slc.cpg/sg12_132_cif.got.tgz:263255.got - 2010.06.28 00:19:55.
