data_PCOD8113739
_publ_section_title
;
Structure prediction by ZEFSAII (Michael W. Deem and Ramdas Pophale) SiO2 
 PCOD8113739
Probable space group: C 2/M
;
_chemical_formula_sum "Si O2"
_cell_formula_units_Z 48
_cell_length_a 10.348165
_cell_length_b 28.416112
_cell_length_c 8.615904
_cell_angle_alpha 90.000000
_cell_angle_beta 63.430712
_cell_angle_gamma 90.000000
_cell_volume 2265.988945
_symmetry_space_group_name_H-M "C 2/M"
_symmetry_group_IT_number 12
_symmetry_cell_setting 'monoclinic'
loop_
_space_group_symop_operation_xyz
x,y,z
-x,y,-z
-x,-y,-z
x,-y,z
1/2+x,1/2+y,z
1/2-x,1/2+y,-z
1/2-x,1/2-y,-z
1/2+x,1/2-y,z
loop_
_atom_site_type_symbol
_atom_site_label
_atom_site_fract_x
_atom_site_fract_y
_atom_site_fract_z
Si Si1 0.068579 0.552743 0.630734
Si Si2 0.889908 0.621128 0.923009
Si Si3 0.570122 0.365060 0.133585
Si Si4 0.638675 0.293691 0.324973
Si Si5 0.355482 0.190409 0.675900
Si Si6 0.805657 0.871387 0.468734
O O1 0.103588 0.500000 0.669362
O O2 0.217146 0.581797 0.552063
O O3 0.000000 0.552418 0.500000
O O4 0.948543 0.575363 0.804518
O O5 0.890079 0.669387 0.825348
O O6 0.724396 0.607937 0.058095
O O7 0.000000 0.633037 0.000000
O O8 0.601915 0.310909 0.169610
O O9 0.470180 0.385625 0.330154
O O10 0.500000 0.367936 0.000000
O O11 0.500000 0.282163 0.500000
O O12 0.716413 0.242713 0.272883
O O13 0.721192 0.335794 0.371916
O O14 0.500000 0.188894 0.500000
O O15 0.240617 0.155573 0.662123
#
# Coordination Sequence:
#
# PCOD8113739 Si02
#       6
#     8   8   8   8   8   8
#     4  11  22  42  71  96 121 169 226 269 319 391
#     4  12  24  41  63  94 133 175 209 270 324 386
#     4  11  22  39  60  90 133 171 202 264 332 376
#     4   9  22  35  59  92 124 172 218 261 309 378
#     4  11  20  38  62  90 123 176 223 258 307 384
#     4  11  19  42  64  90 125 167 216 272 315 373
#
# _framework density 21.182804999999998
#
# number of rings (size 3 to 8) (size 9 to 14) (size 15 to 20)
#    0.000    1.167    5.000    1.500    0.000    1.667 
#    0.000    0.833    0.000   12.500    0.000    0.000 
#    0.000    0.000    0.000    0.000    0.000    0.000 
#
# Total GULP energy -297347.482826 kJ/mol
# GULP energy per Si atom -12389.478451 kJ/mol
# Density = 2.113459 g / cm^3
# Si number density = 21.182805 Si / 1000 Ang^3
#
#
#
# Elastic Constant Matrix: (Units=GPa)
#
#
# Indices 1 2 3 4 5 6 
#
# 1 114.1148 51.8657 48.8940 0.0000 -4.3994 0.0000
# 2 51.8657 168.9526 56.4310 0.0000 -11.8701 0.0000
# 3 48.8940 56.4310 86.6720 0.0000 -12.0059 0.0000
# 4 0.0000 0.0000 0.0000 55.3252 0.0000 -6.4318
# 5 -4.3994 -11.8701 -12.0059 0.0000 51.1196 0.0000
# 6 0.0000 0.0000 0.0000 -6.4318 0.0000 32.6944
#
#
#
# Elastic Compliance Matrix: (Units=1/GPa)
#
#
# Indices 1 2 3 4 5 6 
#
# 1 0.012002 -0.001841 -0.005673 0.000000 -0.000727 0.000000
# 2 -0.001841 0.007865 -0.003981 0.000000 0.000733 0.000000
# 3 -0.005673 -0.003981 0.017710 0.000000 0.002747 0.000000
# 4 0.000000 0.000000 0.000000 0.018498 0.000000 0.003639
# 5 -0.000727 0.000733 0.002747 0.000000 0.020315 0.000000
# 6 0.000000 0.000000 0.000000 0.003639 0.000000 0.031302
#
#
# Mechanical properties :
#
#
# Convention : Reuss Voigt Hill
#
# Bulk Modulus (GPa) = 68.54713 76.01343 72.28028
# Shear Modulus (GPa) = 36.88808 41.99773 39.44291
#
# Velocity S-wave (km/s) = 4.17756 4.45751 4.31980
# Velocity P-wave (km/s) = 7.46320 7.90284 7.68616
#
# Compressibility (1/GPa) = 0.01458850
#
# Stress axis : x y z
#
# Youngs Moduli (GPa) = 83.31636 127.14504 56.46372
#
# Poissons Ratio (x) = 0.23405 0.32032
# Poissons Ratio (y) = 0.15337 0.22477
# Poissons Ratio (z) = 0.47266 0.50615
#
# Static dielectric constant tensor:
#      x y z
#    x -8.857710 0.000000 1.265530 
#    y 0.000000 4.000990 0.000000 
#    z 1.265530 0.000000 3.909240 
# 
# 
# High freq. dielectric constant tensor:
#      x y z
#    x 1.833870 0.000000 0.001030 
#    y 0.000000 1.796940 0.000000 
#    z 0.001030 0.000000 1.844440 
# 
# From -- ./inp_files/52457.got.cif
#   From: 2010.06.25/outbox.cif.g09.slc.cpg/sg12_27_cif.got.tgz:52457.got - 2010.06.28 00:19:55.
