data_PCOD8113795
_publ_section_title
;
Structure prediction by ZEFSAII (Michael W. Deem and Ramdas Pophale) SiO2 
 PCOD8113795
Probable space group: C 2/M
;
_chemical_formula_sum "Si O2"
_cell_formula_units_Z 56
_cell_length_a 24.762818
_cell_length_b 9.116534
_cell_length_c 17.917450
_cell_angle_alpha 90.000000
_cell_angle_beta 56.114957
_cell_angle_gamma 90.000000
_cell_volume 3357.891853
_symmetry_space_group_name_H-M "C 2/M"
_symmetry_group_IT_number 12
_symmetry_cell_setting 'monoclinic'
loop_
_space_group_symop_operation_xyz
x,y,z
-x,y,-z
-x,-y,-z
x,-y,z
1/2+x,1/2+y,z
1/2-x,1/2+y,-z
1/2-x,1/2-y,-z
1/2+x,1/2-y,z
loop_
_atom_site_type_symbol
_atom_site_label
_atom_site_fract_x
_atom_site_fract_y
_atom_site_fract_z
Si Si1 0.456869 0.673082 0.794449
Si Si2 0.293611 0.332624 0.294212
Si Si3 0.865071 0.334936 0.960042
Si Si4 0.846881 0.334315 0.811237
Si Si5 0.604386 0.670683 0.655953
Si Si6 0.772127 0.326391 0.162518
Si Si7 0.197554 0.668867 0.491180
O O1 0.447314 0.500000 0.797523
O O2 0.416697 0.749742 0.757445
O O3 0.531600 0.720351 0.730908
O O4 0.428526 0.732651 0.895898
O O5 0.303187 0.500000 0.259597
O O6 0.350161 0.289582 0.308827
O O7 0.300265 0.222553 0.220211
O O8 0.221716 0.314872 0.386951
O O9 0.888829 0.500000 0.960312
O O10 0.822526 0.271782 0.060544
O O11 0.821819 0.335813 0.916952
O O12 0.855767 0.500000 0.774091
O O13 0.797004 0.250168 0.796786
O O14 0.608528 0.500000 0.633837
O O15 0.627960 0.756806 0.563069
O O16 0.762585 0.500000 0.166729
O O17 0.194876 0.500000 0.516946
O O18 0.250000 0.750000 0.500000
#
# Coordination Sequence:
#
# PCOD8113795 Si02
#       7
#     8   8   8   8   8   8   8
#     4   9  17  30  50  73  94 122 162 200 232 275
#     4   9  19  33  47  70 100 127 155 190 237 287
#     4   8  18  32  46  69  96 124 161 197 236 281
#     4   9  18  32  49  69  96 126 157 198 240 280
#     4   9  18  33  52  73  98 125 158 197 236 283
#     4  11  20  31  48  71  97 126 161 199 237 279
#     4   9  17  30  50  72  95 123 158 197 236 281
#
# _framework density 16.677129000000001
#
# number of rings (size 3 to 8) (size 9 to 14) (size 15 to 20)
#    0.857    2.000    0.000    2.571    0.000    5.143 
#    0.000    0.714    0.000    5.143    0.000    6.000 
#    0.000    0.000    0.000    0.000    0.000    0.000 
#
# Total GULP energy -346931.341253 kJ/mol
# GULP energy per Si atom -12390.405045 kJ/mol
# Density = 1.663917 g / cm^3
# Si number density = 16.677129 Si / 1000 Ang^3
#
#
#
# Elastic Constant Matrix: (Units=GPa)
#
#
# Indices 1 2 3 4 5 6 
#
# 1 48.2855 26.4188 37.1720 0.0000 -24.4352 -0.0002
# 2 26.4188 79.3140 36.5803 -0.0001 -16.9376 -0.0004
# 3 37.1720 36.5803 65.3914 0.0000 -22.5682 0.0000
# 4 0.0000 -0.0001 0.0000 28.8640 0.0000 -0.3971
# 5 -24.4352 -16.9376 -22.5682 0.0000 21.5921 0.0000
# 6 -0.0002 -0.0004 0.0000 -0.3971 0.0000 26.3444
#
#
#
# Elastic Compliance Matrix: (Units=1/GPa)
#
#
# Indices 1 2 3 4 5 6 
#
# 1 0.057715 -0.002006 -0.015154 0.000000 0.047902 0.000000
# 2 -0.002006 0.017460 -0.007326 0.000000 0.003769 0.000000
# 3 -0.015154 -0.007326 0.031447 0.000000 0.009972 0.000000
# 4 0.000000 0.000000 0.000000 0.034652 0.000000 0.000522
# 5 0.047902 0.003769 0.009972 0.000000 0.113902 0.000000
# 6 0.000000 0.000000 0.000000 0.000522 0.000000 0.037967
#
#
# Mechanical properties :
#
#
# Convention : Reuss Voigt Hill
#
# Bulk Modulus (GPa) = 17.34624 43.70369 30.52496
# Shear Modulus (GPa) = 13.83774 21.54809 17.69292
#
# Velocity S-wave (km/s) = 2.88365 3.59844 3.26069
# Velocity P-wave (km/s) = 4.63800 6.59755 5.70258
#
# Compressibility (1/GPa) = 0.05764940
#
# Stress axis : x y z
#
# Youngs Moduli (GPa) = 17.32665 57.27373 31.79961
#
# Poissons Ratio (x) = 0.11487 0.48190
# Poissons Ratio (y) = 0.03475 0.23298
# Poissons Ratio (z) = 0.26257 0.41961
#
# Static dielectric constant tensor:
#      x y z
#    x 2.845530 0.000000 -0.430500 
#    y 0.000000 3.200550 0.000000 
#    z -0.430500 0.000000 6.433850 
# 
# 
# High freq. dielectric constant tensor:
#      x y z
#    x 1.606890 0.000000 -0.008260 
#    y 0.000000 1.654150 0.000000 
#    z -0.008260 0.000000 1.631790 
# 
# From -- ./inp_files/323557.got.cif
#   From: 2010.06.25/outbox.cif.g09.slc.cpg/sg12_162_cif.got.tgz:323557.got - 2010.06.28 00:19:55.
