data_PCOD8113025
_publ_section_title
;
Structure prediction by ZEFSAII (Michael W. Deem and Ramdas Pophale) SiO2 
 PCOD8113025
Probable space group: C 2/M
;
_chemical_formula_sum "Si O2"
_cell_formula_units_Z 64
_cell_length_a 28.335741
_cell_length_b 8.539081
_cell_length_c 23.712994
_cell_angle_alpha 90.000000
_cell_angle_beta 147.064703
_cell_angle_gamma 90.000000
_cell_volume 3119.498040
_symmetry_space_group_name_H-M "C 2/M"
_symmetry_group_IT_number 12
_symmetry_cell_setting 'monoclinic'
loop_
_space_group_symop_operation_xyz
x,y,z
-x,y,-z
-x,-y,-z
x,-y,z
1/2+x,1/2+y,z
1/2-x,1/2+y,-z
1/2-x,1/2-y,-z
1/2+x,1/2-y,z
loop_
_atom_site_type_symbol
_atom_site_label
_atom_site_fract_x
_atom_site_fract_y
_atom_site_fract_z
Si Si1 0.667418 0.815687 0.948849
Si Si2 0.184120 0.319455 0.187577
Si Si3 0.336431 0.815693 0.613731
Si Si4 0.870862 0.681086 0.371070
Si Si5 0.003620 0.681770 0.708988
Si Si6 0.095626 0.818504 0.205098
Si Si7 0.604192 0.318508 0.997945
Si Si8 0.500773 0.681032 0.584838
O O1 0.582382 0.771269 0.828350
O O2 0.663698 0.731845 0.005430
O O3 0.675748 0.000000 0.966510
O O4 0.750000 0.750000 0.000000
O O5 0.211060 0.500000 0.215178
O O6 0.270096 0.215729 0.276986
O O7 0.123666 0.282805 0.179908
O O8 0.129888 0.282669 0.077493
O O9 0.250000 0.750000 0.500000
O O10 0.414950 0.773171 0.651047
O O11 0.348115 0.730590 0.684880
O O12 0.329864 0.000000 0.617706
O O13 0.884167 0.500000 0.370741
O O14 0.910304 0.777928 0.358429
O O15 0.920380 0.721936 0.478695
O O16 0.006733 0.500000 0.695676
O O17 0.012047 0.783440 0.661541
O O18 0.995286 0.782622 0.117205
O O19 0.111567 0.000000 0.207428
O O20 0.619786 0.500000 0.027458
O O21 0.479778 0.500000 0.555183
#
# Coordination Sequence:
#
# PCOD8113025 Si02
#       8
#     8   8   8   8   8   8   8   8
#     4  11  24  43  67  96 132 172 219 268 322 383
#     4  12  26  42  66  96 127 165 214 264 318 379
#     4  11  24  43  67  96 132 172 219 268 322 383
#     4  11  23  43  66  91 128 168 211 263 321 378
#     4  10  23  43  66  93 130 176 217 262 324 388
#     4  11  24  44  68  95 129 167 211 262 321 384
#     4  11  24  44  68  95 129 167 211 262 321 384
#     4  11  23  40  65  94 129 167 213 262 317 381
#
# _framework density 20.516121999999999
#
# number of rings (size 3 to 8) (size 9 to 14) (size 15 to 20)
#    0.000    1.000    1.250    6.000    3.500    5.000 
#    0.000    0.000    0.000    0.000    0.000    0.000 
#    0.000    0.000    0.000    0.000    0.000    0.000 
#
# Total GULP energy -397072.933069 kJ/mol
# GULP energy per Si atom -12408.529158 kJ/mol
# Density = 2.046943 g / cm^3
# Si number density = 20.516122 Si / 1000 Ang^3
#
#
#
# Elastic Constant Matrix: (Units=GPa)
#
#
# Indices 1 2 3 4 5 6 
#
# 1 117.9882 28.2399 42.4506 0.0000 -7.5611 0.0000
# 2 28.2399 83.6205 29.5203 0.0000 -1.4503 0.0000
# 3 42.4506 29.5203 75.0070 0.0000 7.3888 0.0000
# 4 0.0000 0.0000 0.0000 34.6791 0.0000 -2.9844
# 5 -7.5611 -1.4503 7.3888 0.0000 39.7058 0.0000
# 6 0.0000 0.0000 0.0000 -2.9844 0.0000 36.9550
#
#
#
# Elastic Compliance Matrix: (Units=1/GPa)
#
#
# Indices 1 2 3 4 5 6 
#
# 1 0.011240 -0.001606 -0.006045 0.000000 0.003207 0.000000
# 2 -0.001606 0.014213 -0.004793 0.000000 0.001105 0.000000
# 3 -0.006045 -0.004793 0.019121 0.000000 -0.004885 0.000000
# 4 0.000000 0.000000 0.000000 0.029038 0.000000 0.002345
# 5 0.003207 0.001105 -0.004885 0.000000 0.026745 0.000000
# 6 0.000000 0.000000 0.000000 0.002345 0.000000 0.027249
#
#
# Mechanical properties :
#
#
# Convention : Reuss Voigt Hill
#
# Bulk Modulus (GPa) = 50.80214 53.00414 51.90314
# Shear Modulus (GPa) = 31.43513 34.02831 32.73172
#
# Velocity S-wave (km/s) = 3.91860 4.07703 3.99860
# Velocity P-wave (km/s) = 6.72976 6.93212 6.83169
#
# Compressibility (1/GPa) = 0.01968421
#
# Stress axis : x y z
#
# Youngs Moduli (GPa) = 88.96484 70.35993 52.29816
#
# Poissons Ratio (x) = 0.11302 0.31616
# Poissons Ratio (y) = 0.14290 0.25069
# Poissons Ratio (z) = 0.53782 0.33726
#
# Static dielectric constant tensor:
#      x y z
#    x 3.665170 0.000000 -0.071740 
#    y 0.000000 3.707630 0.000000 
#    z -0.071740 0.000000 3.497820 
# 
# 
# High freq. dielectric constant tensor:
#      x y z
#    x 1.813170 0.000000 -0.001250 
#    y 0.000000 1.814280 0.000000 
#    z -0.001250 0.000000 1.811010 
# 
# From -- ./inp_files/353502.got.cif
#   From: 2010.06.25/outbox.cif.g09.slc.cpg/sg12_177_cif.got.tgz:353502.got - 2010.06.28 00:19:55.
