data_PCOD8113851
_publ_section_title
;
Structure prediction by ZEFSAII (Michael W. Deem and Ramdas Pophale) SiO2 
 PCOD8113851
Probable space group: C 2/M
;
_chemical_formula_sum "Si O2"
_cell_formula_units_Z 56
_cell_length_a 24.199651
_cell_length_b 8.696036
_cell_length_c 19.846998
_cell_angle_alpha 90.000000
_cell_angle_beta 45.873131
_cell_angle_gamma 90.000000
_cell_volume 2997.979317
_symmetry_space_group_name_H-M "C 2/M"
_symmetry_group_IT_number 12
_symmetry_cell_setting 'monoclinic'
loop_
_space_group_symop_operation_xyz
x,y,z
-x,y,-z
-x,-y,-z
x,-y,z
1/2+x,1/2+y,z
1/2-x,1/2+y,-z
1/2-x,1/2-y,-z
1/2+x,1/2-y,z
loop_
_atom_site_type_symbol
_atom_site_label
_atom_site_fract_x
_atom_site_fract_y
_atom_site_fract_z
Si Si1 0.438742 0.818105 0.193202
Si Si2 0.548778 0.818276 0.668734
Si Si3 0.278019 0.182266 0.280315
Si Si4 0.609548 0.818740 0.035433
Si Si5 0.880515 0.317753 0.819357
Si Si6 0.245621 0.181552 0.840156
Si Si7 0.204928 0.317687 0.474994
O O1 0.429347 0.749143 0.276475
O O2 0.367089 0.759874 0.209145
O O3 0.521541 0.770447 0.092305
O O4 0.435165 0.000000 0.201202
O O5 0.463394 0.758240 0.720474
O O6 0.614400 0.773071 0.559571
O O7 0.543819 0.000000 0.680832
O O8 0.240215 0.251366 0.245793
O O9 0.231314 0.241412 0.383883
O O10 0.272678 0.000000 0.282521
O O11 0.629761 0.765945 0.094341
O O12 0.622046 0.000000 0.015395
O O13 0.662746 0.729648 0.938178
O O14 0.877051 0.500000 0.818952
O O15 0.812079 0.248059 0.832165
O O16 0.251184 0.000000 0.831476
O O17 0.217240 0.500000 0.462379
O O18 0.250000 0.250000 0.500000
#
# Coordination Sequence:
#
# PCOD8113851 Si02
#       7
#     8   8   8   8   8   8   8
#     4   8  15  30  53  78 100 130 177 218 251 304
#     4   8  14  29  54  81 102 129 173 219 252 299
#     4  11  22  37  54  75 106 144 181 216 257 313
#     4   9  17  33  58  80  98 132 180 223 259 307
#     4   8  16  32  56  79 102 135 180 220 251 303
#     4  11  22  35  50  76 110 141 173 218 269 312
#     4  11  20  33  57  85 110 135 170 215 264 314
#
# _framework density 18.679248999999999
#
# number of rings (size 3 to 8) (size 9 to 14) (size 15 to 20)
#    0.000    2.571    1.429    3.429    0.000    0.571 
#    0.000    5.714    0.000    7.714    0.000    0.000 
#    0.000    0.000    0.000    0.000    0.000    0.000 
#
# Total GULP energy -347033.282715 kJ/mol
# GULP energy per Si atom -12394.045811 kJ/mol
# Density = 1.863673 g / cm^3
# Si number density = 18.679249 Si / 1000 Ang^3
#
#
#
# Elastic Constant Matrix: (Units=GPa)
#
#
# Indices 1 2 3 4 5 6 
#
# 1 67.9049 18.5177 45.9630 0.0005 1.6706 -0.0038
# 2 18.5177 44.5215 26.0870 0.0102 1.2458 -0.0163
# 3 45.9630 26.0870 113.0764 -0.0015 0.4087 -0.0020
# 4 0.0005 0.0102 -0.0015 30.8191 -0.0023 2.2225
# 5 1.6706 1.2458 0.4087 -0.0023 28.7535 0.0041
# 6 -0.0038 -0.0163 -0.0020 2.2225 0.0041 21.8077
#
#
#
# Elastic Compliance Matrix: (Units=1/GPa)
#
#
# Indices 1 2 3 4 5 6 
#
# 1 0.021035 -0.004296 -0.007556 0.000001 -0.000929 0.000000
# 2 -0.004296 0.026880 -0.004452 -0.000011 -0.000852 0.000020
# 3 -0.007556 -0.004452 0.012940 0.000003 0.000448 -0.000004
# 4 0.000001 -0.000011 0.000003 0.032688 0.000004 -0.003331
# 5 -0.000929 -0.000852 0.000448 0.000004 0.034863 -0.000008
# 6 0.000000 0.000020 -0.000004 -0.003331 -0.000008 0.046195
#
#
# Mechanical properties :
#
#
# Convention : Reuss Voigt Hill
#
# Bulk Modulus (GPa) = 35.40046 45.18202 40.29124
# Shear Modulus (GPa) = 23.08136 25.27174 24.17655
#
# Velocity S-wave (km/s) = 3.51902 3.68221 3.60154
# Velocity P-wave (km/s) = 5.95854 6.50531 6.23792
#
# Compressibility (1/GPa) = 0.02824822
#
# Stress axis : x y z
#
# Youngs Moduli (GPa) = 47.53939 37.20194 77.27742
#
# Poissons Ratio (x) = 0.15981 0.58390
# Poissons Ratio (y) = 0.20422 0.34405
# Poissons Ratio (z) = 0.35920 0.16563
#
# Static dielectric constant tensor:
#      x y z
#    x 3.897060 0.000000 -0.281090 
#    y 0.000000 3.061080 0.000000 
#    z -0.281090 0.000000 3.535940 
# 
# 
# High freq. dielectric constant tensor:
#      x y z
#    x 1.724760 0.000000 -0.014050 
#    y 0.000000 1.688990 0.000000 
#    z -0.014050 0.000000 1.727310 
# 
# From -- ./inp_files/288155.got.cif
#   From: 2010.06.25/outbox.cif.g09.slc.cpg/sg12_145_cif.got.tgz:288155.got - 2010.06.28 00:19:55.
