data_PCOD8113090
_publ_section_title
;
Structure prediction by ZEFSAII (Michael W. Deem and Ramdas Pophale) SiO2 
 PCOD8113090
Probable space group: C 2/M
;
_chemical_formula_sum "Si O2"
_cell_formula_units_Z 40
_cell_length_a 28.093245
_cell_length_b 11.546312
_cell_length_c 11.956390
_cell_angle_alpha 90.000000
_cell_angle_beta 148.775831
_cell_angle_gamma 90.000000
_cell_volume 2010.481234
_symmetry_space_group_name_H-M "C 2/M"
_symmetry_group_IT_number 12
_symmetry_cell_setting 'monoclinic'
loop_
_space_group_symop_operation_xyz
x,y,z
-x,y,-z
-x,-y,-z
x,-y,z
1/2+x,1/2+y,z
1/2-x,1/2+y,-z
1/2-x,1/2-y,-z
1/2+x,1/2-y,z
loop_
_atom_site_type_symbol
_atom_site_label
_atom_site_fract_x
_atom_site_fract_y
_atom_site_fract_z
Si Si1 0.262518 0.778941 0.398034
Si Si2 0.909930 0.252446 0.084030
Si Si3 0.105679 0.136466 0.481664
Si Si4 0.107231 0.873000 0.730418
Si Si5 0.425669 0.000000 0.017299
Si Si6 0.370535 0.000000 0.661567
O O1 0.250000 0.750000 0.500000
O O2 0.314282 0.672959 0.441711
O O3 0.324514 0.891150 0.510311
O O4 0.162240 0.804228 0.146190
O O5 0.873684 0.222924 0.136343
O O6 0.010166 0.200378 0.260944
O O7 0.909505 0.390240 0.064611
O O8 0.143589 0.169109 0.682181
O O9 0.087556 0.000000 0.435156
O O10 0.000000 0.889684 0.500000
O O11 0.148808 0.000000 0.846812
O O12 0.358388 0.000000 0.773070
O O13 0.525075 0.000000 0.164117
#
# Coordination Sequence:
#
# PCOD8113090 Si02
#       6
#     8   8   8   8   4   4
#     4  12  26  40  64  92 125 162 211 255 304 366
#     4  11  22  40  66  93 121 166 203 252 310 367
#     4  10  23  44  65  91 123 162 210 254 302 369
#     4   8  17  38  65  89 120 159 202 253 308 361
#     4  11  22  42  64  84 130 174 196 248 323 364
#     4  11  24  44  59  86 133 168 203 253 311 360
#
# _framework density 19.895734000000001
#
# number of rings (size 3 to 8) (size 9 to 14) (size 15 to 20)
#    0.000    1.600    4.000    1.800    5.600    1.600 
#    0.000    6.500    0.000    0.000    0.000    0.000 
#    0.000    0.000    0.000    0.000    0.000    0.000 
#
# Total GULP energy -247942.002885 kJ/mol
# GULP energy per Si atom -12397.100144 kJ/mol
# Density = 1.985045 g / cm^3
# Si number density = 19.895734 Si / 1000 Ang^3
#
#
#
# Elastic Constant Matrix: (Units=GPa)
#
#
# Indices 1 2 3 4 5 6 
#
# 1 140.0585 50.2385 44.7015 0.0000 -21.3678 0.0000
# 2 50.2385 121.9696 37.9147 0.0000 -18.9050 0.0000
# 3 44.7015 37.9147 95.6154 0.0000 -18.6277 0.0000
# 4 0.0000 0.0000 0.0000 26.8852 0.0000 0.3174
# 5 -21.3678 -18.9050 -18.6277 0.0000 29.5033 0.0000
# 6 0.0000 0.0000 0.0000 0.3174 0.0000 21.5989
#
#
#
# Elastic Compliance Matrix: (Units=1/GPa)
#
#
# Indices 1 2 3 4 5 6 
#
# 1 0.009445 -0.002494 -0.002743 0.000000 0.003511 0.000000
# 2 -0.002494 0.010481 -0.002319 0.000000 0.003446 0.000000
# 3 -0.002743 -0.002319 0.013665 0.000000 0.005155 0.000000
# 4 0.000000 0.000000 0.000000 0.037202 0.000000 -0.000547
# 5 0.003511 0.003446 0.005155 0.000000 0.041900 0.000000
# 6 0.000000 0.000000 0.000000 -0.000547 0.000000 0.046307
#
#
# Mechanical properties :
#
#
# Convention : Reuss Voigt Hill
#
# Bulk Modulus (GPa) = 54.11268 69.26147 61.68707
# Shear Modulus (GPa) = 27.73606 30.58340 29.15973
#
# Velocity S-wave (km/s) = 3.73778 3.92495 3.83250
# Velocity P-wave (km/s) = 6.77386 7.44500 7.11735
#
# Compressibility (1/GPa) = 0.01847996
#
# Stress axis : x y z
#
# Youngs Moduli (GPa) = 105.87076 95.41265 73.18065
#
# Poissons Ratio (x) = 0.23792 0.20074
# Poissons Ratio (y) = 0.26400 0.16970
# Poissons Ratio (z) = 0.29041 0.22125
#
# Static dielectric constant tensor:
#      x y z
#    x 4.388610 0.000000 -0.798610 
#    y 0.000000 3.791330 0.000000 
#    z -0.798610 0.000000 4.364740 
# 
# 
# High freq. dielectric constant tensor:
#      x y z
#    x 1.779880 0.000000 -0.003970 
#    y 0.000000 1.776420 0.000000 
#    z -0.003970 0.000000 1.771080 
# 
# From -- ./inp_files/182749.got.cif
#   From: 2010.06.25/outbox.cif.g09.slc.cpg/sg12_92_cif.got.tgz:182749.got - 2010.06.28 00:19:55.
