data_PCOD8113249
_publ_section_title
;
Structure prediction by ZEFSAII (Michael W. Deem and Ramdas Pophale) SiO2 
 PCOD8113249
Probable space group: C 2/M
;
_chemical_formula_sum "Si O2"
_cell_formula_units_Z 56
_cell_length_a 9.156062
_cell_length_b 14.762929
_cell_length_c 26.986069
_cell_angle_alpha 90.000000
_cell_angle_beta 130.707764
_cell_angle_gamma 90.000000
_cell_volume 2765.135531
_symmetry_space_group_name_H-M "C 2/M"
_symmetry_group_IT_number 12
_symmetry_cell_setting 'monoclinic'
loop_
_space_group_symop_operation_xyz
x,y,z
-x,y,-z
-x,-y,-z
x,-y,z
1/2+x,1/2+y,z
1/2-x,1/2+y,-z
1/2-x,1/2-y,-z
1/2+x,1/2-y,z
loop_
_atom_site_type_symbol
_atom_site_label
_atom_site_fract_x
_atom_site_fract_y
_atom_site_fract_z
Si Si1 0.588906 0.500000 0.596711
Si Si2 0.693585 0.000000 0.451351
Si Si3 0.605176 0.397490 0.948033
Si Si4 0.676232 0.317244 0.664848
Si Si5 0.198269 0.396417 0.908754
Si Si6 0.405442 0.246517 0.247833
Si Si7 0.017521 0.216984 0.840298
Si Si8 0.441060 0.190425 0.543117
O O1 0.391070 0.500000 0.524116
O O2 0.767973 0.500000 0.598768
O O3 0.592548 0.413144 0.631796
O O4 0.577856 0.090828 0.437998
O O5 0.615968 0.500000 0.931743
O O6 0.397171 0.376811 0.924815
O O7 0.645842 0.335306 0.909110
O O8 0.769162 0.379563 0.025370
O O9 0.593907 0.304065 0.701771
O O10 0.604107 0.240053 0.611206
O O11 0.908543 0.318884 0.713664
O O12 0.129007 0.500000 0.884113
O O13 0.040207 0.325907 0.853404
O O14 0.206871 0.189140 0.202875
O O15 0.414053 0.309401 0.200160
O O16 0.500000 0.178271 0.500000
O O17 0.250000 0.250000 0.500000
#
# Coordination Sequence:
#
# PCOD8113249 Si02
#       8
#     4   4   8   8   8   8   8   8
#     4  11  22  40  68  92 128 152 206 249 303 386
#     4  11  23  38  64 108 118 158 200 243 328 378
#     4   9  18  34  59  93 119 152 194 253 307 369
#     4  11  23  44  62  89 121 162 202 250 300 355
#     4   9  18  34  61  90 120 152 200 245 309 366
#     4  10  24  40  59  81 118 163 213 239 288 354
#     4  11  19  40  60  86 118 161 202 253 295 356
#     4  12  23  40  69  95 130 160 196 262 315 366
#
# _framework density 20.252172999999999
#
# number of rings (size 3 to 8) (size 9 to 14) (size 15 to 20)
#    0.000    1.571    2.857    4.071    0.000    0.000 
#    7.714    0.000    3.143    1.714    0.000    0.000 
#    0.000    0.000    0.000    0.000    0.000    0.000 
#
# Total GULP energy -347147.180479 kJ/mol
# GULP energy per Si atom -12398.113589 kJ/mol
# Density = 2.020608 g / cm^3
# Si number density = 20.252173 Si / 1000 Ang^3
#
#
#
# Elastic Constant Matrix: (Units=GPa)
#
#
# Indices 1 2 3 4 5 6 
#
# 1 79.4112 18.8591 30.2201 0.0000 -16.2570 0.0000
# 2 18.8591 119.3900 43.5669 0.0000 -10.5668 0.0000
# 3 30.2201 43.5669 105.7323 0.0000 -27.6861 0.0000
# 4 0.0000 0.0000 0.0000 34.7369 0.0000 3.5983
# 5 -16.2570 -10.5668 -27.6861 0.0000 43.3898 0.0000
# 6 0.0000 0.0000 0.0000 3.5983 0.0000 22.8713
#
#
#
# Elastic Compliance Matrix: (Units=1/GPa)
#
#
# Indices 1 2 3 4 5 6 
#
# 1 0.014616 -0.000951 -0.002896 0.000000 0.003397 0.000000
# 2 -0.000951 0.009922 -0.003934 0.000000 -0.000451 0.000000
# 3 -0.002896 -0.003934 0.013653 0.000000 0.006668 0.000000
# 4 0.000000 0.000000 0.000000 0.029265 0.000000 -0.004604
# 5 0.003397 -0.000451 0.006668 0.000000 0.028465 0.000000
# 6 0.000000 0.000000 0.000000 -0.004604 0.000000 0.044447
#
#
# Mechanical properties :
#
#
# Convention : Reuss Voigt Hill
#
# Bulk Modulus (GPa) = 44.19451 54.42507 49.30979
# Shear Modulus (GPa) = 30.58588 34.32542 32.45565
#
# Velocity S-wave (km/s) = 3.89041 4.12138 4.00756
# Velocity P-wave (km/s) = 6.48459 7.04129 6.76867
#
# Compressibility (1/GPa) = 0.02262725
#
# Stress axis : x y z
#
# Youngs Moduli (GPa) = 68.41770 100.78582 73.24442
#
# Poissons Ratio (x) = 0.09588 0.21212
# Poissons Ratio (y) = 0.06509 0.28818
# Poissons Ratio (z) = 0.19815 0.39654
#
# Static dielectric constant tensor:
#      x y z
#    x 3.591110 0.000000 -0.151090 
#    y 0.000000 3.539390 0.000000 
#    z -0.151090 0.000000 3.961630 
# 
# 
# High freq. dielectric constant tensor:
#      x y z
#    x 1.785790 0.000000 -0.012740 
#    y 0.000000 1.772110 0.000000 
#    z -0.012740 0.000000 1.808250 
# 
# From -- ./inp_files/333049.got.cif
#   From: 2010.06.25/outbox.cif.g09.slc.cpg/sg12_167_cif.got.tgz:333049.got - 2010.06.28 00:19:55.
