data_PCOD8113515
_publ_section_title
;
Structure prediction by ZEFSAII (Michael W. Deem and Ramdas Pophale) SiO2 
 PCOD8113515
Probable space group: C 2/M
;
_chemical_formula_sum "Si O2"
_cell_formula_units_Z 44
_cell_length_a 22.439076
_cell_length_b 16.509652
_cell_length_c 13.788400
_cell_angle_alpha 90.000000
_cell_angle_beta 22.291303
_cell_angle_gamma 90.000000
_cell_volume 1937.570884
_symmetry_space_group_name_H-M "C 2/M"
_symmetry_group_IT_number 12
_symmetry_cell_setting 'monoclinic'
loop_
_space_group_symop_operation_xyz
x,y,z
-x,y,-z
-x,-y,-z
x,-y,z
1/2+x,1/2+y,z
1/2-x,1/2+y,-z
1/2-x,1/2-y,-z
1/2+x,1/2-y,z
loop_
_atom_site_type_symbol
_atom_site_label
_atom_site_fract_x
_atom_site_fract_y
_atom_site_fract_z
Si Si1 0.500000 0.326419 0.000000
Si Si2 0.319985 0.589964 0.654157
Si Si3 0.835173 0.909452 0.859176
Si Si4 0.324834 0.903662 0.547376
Si Si5 0.169981 0.686995 0.260321
Si Si6 0.069106 0.702204 0.056426
O O1 0.349725 0.384719 0.227852
O O2 0.485917 0.269565 0.116087
O O3 0.304688 0.500000 0.633474
O O4 0.492110 0.627425 0.374161
O O5 0.295049 0.588100 0.807099
O O6 0.179491 0.644645 0.821364
O O7 0.838041 0.000000 0.895697
O O8 0.699562 0.861880 0.117512
O O9 0.333833 0.875107 0.644514
O O10 0.445477 0.851392 0.301408
O O11 0.360391 0.000000 0.485214
O O12 0.000000 0.728967 0.500000
O O13 0.302966 0.755229 0.066121
#
# Coordination Sequence:
#
# PCOD8113515 Si02
#       6
#     4   8   8   8   8   8
#     4  10  25  46  67  94 122 162 216 270 321 366
#     4   9  19  36  60  88 124 167 206 253 308 367
#     4   9  19  36  58  88 129 169 208 248 300 374
#     4  11  24  45  69  93 126 168 210 261 318 380
#     4  11  25  37  62  97 134 167 207 252 310 379
#     4  11  24  41  67  90 128 164 213 262 315 371
#
# _framework density 22.708848
#
# number of rings (size 3 to 8) (size 9 to 14) (size 15 to 20)
#    0.000    1.818    0.000    4.091    7.636    4.364 
#    0.000    1.818    0.000    0.000    0.000    0.000 
#    0.000    0.000    0.000    0.000    0.000    0.000 
#
# Total GULP energy -272666.589370 kJ/mol
# GULP energy per Si atom -12393.935880 kJ/mol
# Density = 2.265716 g / cm^3
# Si number density = 22.708848 Si / 1000 Ang^3
#
#
#
# Elastic Constant Matrix: (Units=GPa)
#
#
# Indices 1 2 3 4 5 6 
#
# 1 44.0432 25.1361 27.6603 -0.0027 -12.1655 0.0000
# 2 25.1361 121.8010 51.7010 -0.0080 -0.7942 0.0009
# 3 27.6603 51.7010 136.4905 -0.0086 -12.7688 0.0009
# 4 -0.0027 -0.0080 -0.0086 36.0901 0.0017 -4.4378
# 5 -12.1655 -0.7942 -12.7688 0.0017 34.6662 0.0002
# 6 0.0000 0.0009 0.0009 -4.4378 0.0002 19.6200
#
#
#
# Elastic Compliance Matrix: (Units=1/GPa)
#
#
# Indices 1 2 3 4 5 6 
#
# 1 0.030086 -0.004677 -0.003467 0.000000 0.009174 0.000000
# 2 -0.004677 0.010557 -0.003296 0.000001 -0.002613 0.000000
# 3 -0.003467 -0.003296 0.009483 0.000001 0.002201 0.000000
# 4 0.000000 0.000001 0.000001 0.028501 -0.000001 0.006447
# 5 0.009174 -0.002613 0.002201 -0.000001 0.032817 -0.000001
# 6 0.000000 0.000000 0.000000 0.006447 -0.000001 0.052427
#
#
# Mechanical properties :
#
#
# Convention : Reuss Voigt Hill
#
# Bulk Modulus (GPa) = 36.70206 56.81442 46.75824
# Shear Modulus (GPa) = 25.53199 31.26442 28.39820
#
# Velocity S-wave (km/s) = 3.35672 3.71448 3.54013
# Velocity P-wave (km/s) = 5.58754 6.59314 6.11106
#
# Compressibility (1/GPa) = 0.02724643
#
# Stress axis : x y z
#
# Youngs Moduli (GPa) = 33.23829 94.72203 105.44806
#
# Poissons Ratio (x) = 0.44305 0.36559
# Poissons Ratio (y) = 0.15547 0.34751
# Poissons Ratio (z) = 0.11524 0.31216
#
# Static dielectric constant tensor:
#      x y z
#    x 3.756020 0.000000 -0.233480 
#    y 0.000000 4.480170 0.000010 
#    z -0.233480 0.000010 4.359810 
# 
# 
# High freq. dielectric constant tensor:
#      x y z
#    x 1.860700 0.000000 -0.011340 
#    y 0.000000 1.911270 0.000000 
#    z -0.011340 0.000000 1.913410 
# 
# From -- ./inp_files/241403.got.cif
#   From: 2010.06.25/outbox.cif.g09.slc.cpg/sg12_121_cif.got.tgz:241403.got - 2010.06.28 00:19:55.
