data_PCOD8113474
_publ_section_title
;
Structure prediction by ZEFSAII (Michael W. Deem and Ramdas Pophale) SiO2 
 PCOD8113474
Probable space group: C 2/M
;
_chemical_formula_sum "Si O2"
_cell_formula_units_Z 56
_cell_length_a 8.881356
_cell_length_b 29.801630
_cell_length_c 19.689427
_cell_angle_alpha 90.000000
_cell_angle_beta 30.551290
_cell_angle_gamma 90.000000
_cell_volume 2648.991577
_symmetry_space_group_name_H-M "C 2/M"
_symmetry_group_IT_number 12
_symmetry_cell_setting 'monoclinic'
loop_
_space_group_symop_operation_xyz
x,y,z
-x,y,-z
-x,-y,-z
x,-y,z
1/2+x,1/2+y,z
1/2-x,1/2+y,-z
1/2-x,1/2-y,-z
1/2+x,1/2-y,z
loop_
_atom_site_type_symbol
_atom_site_label
_atom_site_fract_x
_atom_site_fract_y
_atom_site_fract_z
Si Si1 0.845453 0.117454 0.383118
Si Si2 0.799143 0.393254 0.839306
Si Si3 0.387701 0.793926 0.974236
Si Si4 0.049885 0.727894 0.406608
Si Si5 0.125784 0.947183 0.377751
Si Si6 0.896812 0.145590 0.216576
Si Si7 0.768026 0.317821 0.281594
O O1 0.500000 0.118102 0.500000
O O2 0.994708 0.122895 0.250219
O O3 0.940377 0.072100 0.385305
O O4 0.950850 0.156126 0.396886
O O5 0.739015 0.391715 0.781402
O O6 0.028366 0.433638 0.764024
O O7 0.963886 0.346808 0.792838
O O8 0.500000 0.399777 0.000000
O O9 0.667728 0.808298 0.821764
O O10 0.500000 0.775047 0.000000
O O11 0.250000 0.750000 0.000000
O O12 0.177876 0.836743 0.065754
O O13 0.173511 0.687749 0.312880
O O14 0.265912 0.771587 0.325208
O O15 0.000000 0.706657 0.500000
O O16 0.750000 0.750000 0.500000
O O17 0.000000 0.930351 0.500000
O O18 0.098234 0.000000 0.382773
#
# Coordination Sequence:
#
# PCOD8113474 Si02
#       7
#     8   8   8   8   8   8   8
#     4  11  23  41  66  97 129 166 213 274 332 391
#     4  11  24  40  70 102 130 174 219 273 333 403
#     4  12  25  38  60  84 125 181 238 279 317 377
#     4  12  25  37  53  81 125 174 221 273 318 366
#     4  10  24  48  75 102 133 168 208 262 336 424
#     4  12  23  39  62  91 130 171 225 270 329 382
#     4  11  23  41  58  89 128 178 227 273 328 382
#
# _framework density 21.140121000000001
#
# number of rings (size 3 to 8) (size 9 to 14) (size 15 to 20)
#    0.000    0.714    4.286    3.857    2.000    4.000 
#    0.000    0.714    0.000    0.857    0.000    0.000 
#    0.000    0.000    0.000    0.000    0.000    0.000 
#
# Total GULP energy -346942.717707 kJ/mol
# GULP energy per Si atom -12390.811347 kJ/mol
# Density = 2.109201 g / cm^3
# Si number density = 21.140121 Si / 1000 Ang^3
#
#
#
# Elastic Constant Matrix: (Units=GPa)
#
#
# Indices 1 2 3 4 5 6 
#
# 1 113.8464 36.8160 25.9892 0.0003 1.6736 0.0001
# 2 36.8160 87.2367 30.7332 -0.0001 5.7903 0.0001
# 3 25.9892 30.7332 105.7730 0.0003 -5.7011 0.0005
# 4 0.0003 -0.0001 0.0003 24.7193 -0.0002 8.3450
# 5 1.6736 5.7903 -5.7011 -0.0002 36.1370 -0.0003
# 6 0.0001 0.0001 0.0005 8.3450 -0.0003 31.2531
#
#
#
# Elastic Compliance Matrix: (Units=1/GPa)
#
#
# Indices 1 2 3 4 5 6 
#
# 1 0.010360 -0.003864 -0.001428 0.000000 -0.000086 0.000000
# 2 -0.003864 0.014469 -0.003399 0.000000 -0.002676 0.000000
# 3 -0.001428 -0.003399 0.010918 0.000000 0.002333 0.000000
# 4 0.000000 0.000000 0.000000 0.044462 0.000000 -0.011872
# 5 -0.000086 -0.002676 0.002333 0.000000 0.028473 0.000000
# 6 0.000000 0.000000 0.000000 -0.011872 0.000000 0.035167
#
#
# Mechanical properties :
#
#
# Convention : Reuss Voigt Hill
#
# Bulk Modulus (GPa) = 54.44550 54.88144 54.66347
# Shear Modulus (GPa) = 29.87710 32.64304 31.26007
#
# Velocity S-wave (km/s) = 3.76345 3.93380 3.84957
# Velocity P-wave (km/s) = 6.68545 6.83010 6.75816
#
# Compressibility (1/GPa) = 0.01836699
#
# Stress axis : x y z
#
# Youngs Moduli (GPa) = 96.52153 69.11502 91.58916
#
# Poissons Ratio (x) = 0.26704 0.13076
# Poissons Ratio (y) = 0.37293 0.31130
# Poissons Ratio (z) = 0.13780 0.23491
#
# Static dielectric constant tensor:
#      x y z
#    x 3.734730 0.000010 0.036010 
#    y 0.000010 3.550220 0.000010 
#    z 0.036010 0.000010 4.155070 
# 
# 
# High freq. dielectric constant tensor:
#      x y z
#    x 1.843350 0.000000 0.000400 
#    y 0.000000 1.798140 0.000000 
#    z 0.000400 0.000000 1.839260 
# 
# From -- ./inp_files/303004.got.cif
#   From: 2010.06.25/outbox.cif.g09.slc.cpg/sg12_152_cif.got.tgz:303004.got - 2010.06.28 00:19:55.
