data_PCOD8113655
_publ_section_title
;
Structure prediction by ZEFSAII (Michael W. Deem and Ramdas Pophale) SiO2 
 PCOD8113655
Probable space group: C 2/M
;
_chemical_formula_sum "Si O2"
_cell_formula_units_Z 40
_cell_length_a 26.499273
_cell_length_b 7.489558
_cell_length_c 16.831876
_cell_angle_alpha 90.000000
_cell_angle_beta 142.176871
_cell_angle_gamma 90.000000
_cell_volume 2048.534161
_symmetry_space_group_name_H-M "C 2/M"
_symmetry_group_IT_number 12
_symmetry_cell_setting 'monoclinic'
loop_
_space_group_symop_operation_xyz
x,y,z
-x,y,-z
-x,-y,-z
x,-y,z
1/2+x,1/2+y,z
1/2-x,1/2+y,-z
1/2-x,1/2-y,-z
1/2+x,1/2-y,z
loop_
_atom_site_type_symbol
_atom_site_label
_atom_site_fract_x
_atom_site_fract_y
_atom_site_fract_z
Si Si1 0.313145 0.790425 0.010550
Si Si2 0.015224 0.500000 0.151827
Si Si3 0.556658 0.712582 0.498076
Si Si4 0.234281 0.802285 0.757130
Si Si5 0.634508 0.000000 0.157201
Si Si6 0.993976 0.799665 0.251556
O O1 0.395950 0.687461 0.133984
O O2 0.334064 0.000000 0.026668
O O3 0.250000 0.750000 0.000000
O O4 0.274508 0.703930 0.882504
O O5 0.093902 0.500000 0.192253
O O6 0.022434 0.676408 0.214115
O O7 0.931658 0.500000 0.996761
O O8 0.500000 0.785800 0.500000
O O9 0.553811 0.500000 0.492992
O O10 0.650019 0.790394 0.622934
O O11 0.524594 0.783292 0.373331
O O12 0.305640 0.825078 0.777910
O O13 0.207775 0.000000 0.754740
O O14 0.029138 0.000000 0.281607
#
# Coordination Sequence:
#
# PCOD8113655 Si02
#       6
#     8   4   8   8   4   8
#     4  11  19  32  54  83 115 149 185 227 275 332
#     4  11  20  40  61  84 110 143 196 241 293 325
#     4   9  17  30  53  82 116 153 186 221 278 346
#     4   8  15  32  53  77 106 150 190 220 276 337
#     4   9  18  36  65  76 106 159 182 241 293 331
#     4  11  21  36  58  85 115 148 187 238 278 334
#
# _framework density 19.526157000000001
#
# number of rings (size 3 to 8) (size 9 to 14) (size 15 to 20)
#    0.600    1.600    3.000    1.800    0.000    3.200 
#    0.000    3.500    4.400    0.000    0.000    0.000 
#    0.000    0.000    0.000    0.000    0.000    0.000 
#
# Total GULP energy -247803.115129 kJ/mol
# GULP energy per Si atom -12390.155756 kJ/mol
# Density = 1.948171 g / cm^3
# Si number density = 19.526157 Si / 1000 Ang^3
#
#
#
# Elastic Constant Matrix: (Units=GPa)
#
#
# Indices 1 2 3 4 5 6 
#
# 1 179.6277 22.0627 78.0281 0.0000 -3.8167 0.0000
# 2 22.0627 54.6107 13.2413 0.0000 -10.1663 0.0000
# 3 78.0281 13.2413 169.8386 0.0000 1.3146 0.0000
# 4 0.0000 0.0000 0.0000 12.2374 0.0000 -7.1466
# 5 -3.8167 -10.1663 1.3146 0.0000 34.6692 0.0000
# 6 0.0000 0.0000 0.0000 -7.1466 0.0000 19.1983
#
#
#
# Elastic Compliance Matrix: (Units=1/GPa)
#
#
# Indices 1 2 3 4 5 6 
#
# 1 0.007196 -0.002089 -0.003146 0.000000 0.000299 0.000000
# 2 -0.002089 0.020394 -0.000675 0.000000 0.005776 0.000000
# 3 -0.003146 -0.000675 0.007392 0.000000 -0.000825 0.000000
# 4 0.000000 0.000000 0.000000 0.104416 0.000000 0.038869
# 5 0.000299 0.005776 -0.000825 0.000000 0.030602 0.000000
# 6 0.000000 0.000000 0.000000 0.038869 0.000000 0.066557
#
#
# Mechanical properties :
#
#
# Convention : Reuss Voigt Hill
#
# Bulk Modulus (GPa) = 43.17120 70.08236 56.62678
# Shear Modulus (GPa) = 19.52374 32.60398 26.06386
#
# Velocity S-wave (km/s) = 3.16551 4.09070 3.65748
# Velocity P-wave (km/s) = 5.95970 7.63421 6.84833
#
# Compressibility (1/GPa) = 0.02316359
#
# Stress axis : x y z
#
# Youngs Moduli (GPa) = 138.95758 49.03329 135.27860
#
# Poissons Ratio (x) = 0.10243 0.42554
# Poissons Ratio (y) = 0.29028 0.09131
# Poissons Ratio (z) = 0.43712 0.03310
#
# Static dielectric constant tensor:
#      x y z
#    x 3.543640 0.000000 0.055720 
#    y 0.000000 3.227760 0.000000 
#    z 0.055720 0.000000 3.844750 
# 
# 
# High freq. dielectric constant tensor:
#      x y z
#    x 1.744520 0.000000 0.004290 
#    y 0.000000 1.725850 0.000000 
#    z 0.004290 0.000000 1.774070 
# 
# From -- ./inp_files/243390.got.cif
#   From: 2010.06.25/outbox.cif.g09.slc.cpg/sg12_122_cif.got.tgz:243390.got - 2010.06.28 00:19:55.
