data_PCOD8113690
_publ_section_title
;
Structure prediction by ZEFSAII (Michael W. Deem and Ramdas Pophale) SiO2 
 PCOD8113690
Probable space group: C 2/M
;
_chemical_formula_sum "Si O2"
_cell_formula_units_Z 64
_cell_length_a 9.312608
_cell_length_b 17.105154
_cell_length_c 21.108692
_cell_angle_alpha 90.000000
_cell_angle_beta 77.822583
_cell_angle_gamma 90.000000
_cell_volume 3286.820639
_symmetry_space_group_name_H-M "C 2/M"
_symmetry_group_IT_number 12
_symmetry_cell_setting 'monoclinic'
loop_
_space_group_symop_operation_xyz
x,y,z
-x,y,-z
-x,-y,-z
x,-y,z
1/2+x,1/2+y,z
1/2-x,1/2+y,-z
1/2-x,1/2-y,-z
1/2+x,1/2-y,z
loop_
_atom_site_type_symbol
_atom_site_label
_atom_site_fract_x
_atom_site_fract_y
_atom_site_fract_z
Si Si1 0.451251 0.087669 0.205246
Si Si2 0.677117 0.807391 0.877577
Si Si3 0.193927 0.308238 0.227461
Si Si4 0.796884 0.585535 0.354104
Si Si5 0.440730 0.298898 0.653711
Si Si6 0.596544 0.721725 0.043637
Si Si7 0.696940 0.592935 0.670136
Si Si8 0.521537 0.148865 0.423793
O O1 0.338565 0.112368 0.160346
O O2 0.584907 0.148295 0.189536
O O3 0.380400 0.095158 0.280475
O O4 0.505391 0.000000 0.186951
O O5 0.688357 0.734608 0.827726
O O6 0.525107 0.790094 0.930195
O O7 0.833445 0.820390 0.900916
O O8 0.111938 0.244228 0.278030
O O9 0.267245 0.374933 0.263558
O O10 0.719819 0.500000 0.363949
O O11 0.689176 0.658375 0.371853
O O12 0.910680 0.588737 0.401221
O O13 0.546769 0.368937 0.662061
O O14 0.510618 0.236052 0.599492
O O15 0.500000 0.670685 0.000000
O O16 0.750000 0.750000 0.000000
O O17 0.681844 0.500000 0.674426
O O18 0.815861 0.620089 0.607757
O O19 0.500000 0.147393 0.500000
#
# Coordination Sequence:
#
# PCOD8113690 Si02
#       8
#     8   8   8   8   8   8   8   8
#     4  11  21  34  56  91 124 151 189 238 294 352
#     4  11  19  35  63  91 117 158 200 239 287 341
#     4  11  20  34  59  89 119 152 192 236 288 350
#     4  11  22  38  57  83 121 154 182 238 303 352
#     4  11  22  37  58  86 118 144 186 247 300 341
#     4   9  20  36  58  92 121 154 203 250 274 320
#     4  11  23  38  58  86 120 150 184 243 305 351
#     4  11  24  41  61  79 104 155 210 240 279 358
#
# _framework density 19.471703999999999
#
# number of rings (size 3 to 8) (size 9 to 14) (size 15 to 20)
#    0.000    1.250    5.000    3.375    0.000    3.000 
#    0.000    0.000    0.000    6.000    0.000    0.000 
#    0.000    0.000    0.000    0.000    0.000    0.000 
#
# Total GULP energy -396490.460031 kJ/mol
# GULP energy per Si atom -12390.326876 kJ/mol
# Density = 1.942739 g / cm^3
# Si number density = 19.471704 Si / 1000 Ang^3
#
#
#
# Elastic Constant Matrix: (Units=GPa)
#
#
# Indices 1 2 3 4 5 6 
#
# 1 98.4858 36.4052 40.0858 0.0000 13.0155 0.0000
# 2 36.4052 118.9017 35.2870 0.0000 0.4498 0.0000
# 3 40.0858 35.2870 107.8027 0.0000 10.1838 0.0000
# 4 0.0000 0.0000 0.0000 105.4339 0.0000 -4.4988
# 5 13.0155 0.4498 10.1838 0.0000 20.3611 0.0000
# 6 0.0000 0.0000 0.0000 -4.4988 0.0000 31.4343
#
#
#
# Elastic Compliance Matrix: (Units=1/GPa)
#
#
# Indices 1 2 3 4 5 6 
#
# 1 0.013605 -0.003137 -0.003376 0.000000 -0.006939 0.000000
# 2 -0.003137 0.010076 -0.002414 0.000000 0.002990 0.000000
# 3 -0.003376 -0.002414 0.011664 0.000000 -0.003622 0.000000
# 4 0.000000 0.000000 0.000000 0.009543 0.000000 0.001366
# 5 -0.006939 0.002990 -0.003622 0.000000 0.055294 0.000000
# 6 0.000000 0.000000 0.000000 0.001366 0.000000 0.032008
#
#
# Mechanical properties :
#
#
# Convention : Reuss Voigt Hill
#
# Bulk Modulus (GPa) = 57.17787 60.97179 59.07483
# Shear Modulus (GPa) = 32.07699 45.67336 38.87517
#
# Velocity S-wave (km/s) = 4.06318 4.84842 4.47306
# Velocity P-wave (km/s) = 7.17223 7.91984 7.55529
#
# Compressibility (1/GPa) = 0.01748928
#
# Stress axis : x y z
#
# Youngs Moduli (GPa) = 73.50427 99.24602 85.73306
#
# Poissons Ratio (x) = 0.31135 0.28947
# Poissons Ratio (y) = 0.23059 0.20697
# Poissons Ratio (z) = 0.24818 0.23959
#
# Static dielectric constant tensor:
#      x y z
#    x 3.891160 0.000000 0.358960 
#    y 0.000000 3.539770 0.000000 
#    z 0.358960 0.000000 3.801590 
# 
# 
# High freq. dielectric constant tensor:
#      x y z
#    x 1.765620 0.000000 0.015750 
#    y 0.000000 1.740300 0.000000 
#    z 0.015750 0.000000 1.757080 
# 
# From -- ./inp_files/300816.got.cif
#   From: 2010.06.25/outbox.cif.g09.slc.cpg/sg12_151_cif.got.tgz:300816.got - 2010.06.28 00:19:55.
