data_PCOD8113821
_publ_section_title
;
Structure prediction by ZEFSAII (Michael W. Deem and Ramdas Pophale) SiO2 
 PCOD8113821
Probable space group: C 2/M
;
_chemical_formula_sum "Si O2"
_cell_formula_units_Z 64
_cell_length_a 24.894589
_cell_length_b 8.370367
_cell_length_c 27.381377
_cell_angle_alpha 90.000000
_cell_angle_beta 140.479001
_cell_angle_gamma 90.000000
_cell_volume 3630.849830
_symmetry_space_group_name_H-M "C 2/M"
_symmetry_group_IT_number 12
_symmetry_cell_setting 'monoclinic'
loop_
_space_group_symop_operation_xyz
x,y,z
-x,y,-z
-x,-y,-z
x,-y,z
1/2+x,1/2+y,z
1/2-x,1/2+y,-z
1/2-x,1/2-y,-z
1/2+x,1/2-y,z
loop_
_atom_site_type_symbol
_atom_site_label
_atom_site_fract_x
_atom_site_fract_y
_atom_site_fract_z
Si Si1 0.344383 0.814655 0.184878
Si Si2 0.303960 0.190247 0.332019
Si Si3 0.129904 0.814408 0.169494
Si Si4 0.341155 0.315080 0.077834
Si Si5 0.431831 0.809445 0.341518
Si Si6 0.068397 0.676180 0.505160
Si Si7 0.330100 0.814542 0.905437
Si Si8 0.457620 0.814709 0.079097
O O1 0.357560 0.707256 0.146636
O O2 0.415540 0.759533 0.274025
O O3 0.253057 0.790208 0.145053
O O4 0.354009 0.000000 0.177646
O O5 0.206723 0.243261 0.258469
O O6 0.354073 0.255490 0.319728
O O7 0.347877 0.261474 0.412791
O O8 0.312582 0.000000 0.340810
O O9 0.130195 0.714871 0.119709
O O10 0.043869 0.784636 0.138060
O O11 0.140342 0.000000 0.163759
O O12 0.345970 0.500000 0.067359
O O13 0.412191 0.219699 0.098343
O O14 0.250000 0.250000 0.000000
O O15 0.521435 0.739090 0.425665
O O16 0.433937 0.000000 0.347415
O O17 0.095401 0.500000 0.506681
O O18 0.000000 0.664416 0.500000
O O19 0.307573 0.000000 0.896830
O O20 0.398337 0.759003 0.993162
O O21 0.480019 0.000000 0.090775
#
# Coordination Sequence:
#
# PCOD8113821 Si02
#       8
#     8   8   8   8   8   8   8   8
#     4  11  20  32  53  78 104 132 167 209 254 299
#     4   8  13  23  40  68 102 134 164 199 241 293
#     4  11  21  33  51  76 105 135 171 210 253 300
#     4  12  24  39  57  76  98 129 169 211 257 300
#     4   8  13  23  41  70 102 132 163 200 242 293
#     4   7  10  18  36  63  99 133 161 194 238 288
#     4  11  22  35  51  71 100 136 173 210 250 299
#     4  11  24  40  54  71  97 132 175 215 254 299
#
# _framework density 17.626726999999999
#
# number of rings (size 3 to 8) (size 9 to 14) (size 15 to 20)
#    0.000    2.125    2.500    4.500    0.000    3.000 
#    0.000    0.000    0.000    0.000    0.000    5.250 
#    0.000    0.000    0.000    0.000    0.000    0.000 
#
# Total GULP energy -396589.393361 kJ/mol
# GULP energy per Si atom -12393.418543 kJ/mol
# Density = 1.758661 g / cm^3
# Si number density = 17.626727 Si / 1000 Ang^3
#
#
#
# Elastic Constant Matrix: (Units=GPa)
#
#
# Indices 1 2 3 4 5 6 
#
# 1 75.4092 -0.2569 48.2005 -0.0003 -0.6778 0.0012
# 2 -0.2569 32.7308 19.2814 -0.0005 0.7031 0.0025
# 3 48.2005 19.2814 163.9852 -0.0002 -6.0919 0.0006
# 4 -0.0003 -0.0005 -0.0002 11.2664 -0.0002 -3.9635
# 5 -0.6778 0.7031 -6.0919 -0.0002 17.7160 -0.0002
# 6 0.0012 0.0025 0.0006 -3.9635 -0.0002 21.5415
#
#
#
# Elastic Compliance Matrix: (Units=1/GPa)
#
#
# Indices 1 2 3 4 5 6 
#
# 1 0.016673 0.003304 -0.005338 0.000000 -0.001329 -0.000001
# 2 0.003304 0.033605 -0.005032 0.000000 -0.002937 -0.000004
# 3 -0.005338 -0.005032 0.008366 0.000000 0.002872 0.000001
# 4 0.000000 0.000000 0.000000 0.094903 0.000001 0.017462
# 5 -0.001329 -0.002937 0.002872 0.000001 0.057500 0.000001
# 6 -0.000001 -0.000004 0.000001 0.017462 0.000001 0.049635
#
#
# Mechanical properties :
#
#
# Convention : Reuss Voigt Hill
#
# Bulk Modulus (GPa) = 22.46599 45.17503 33.82051
# Shear Modulus (GPa) = 17.26222 23.76478 20.51350
#
# Velocity S-wave (km/s) = 3.13281 3.67580 3.41511
# Velocity P-wave (km/s) = 5.08518 6.61057 5.89740
#
# Compressibility (1/GPa) = 0.04451173
#
# Stress axis : x y z
#
# Youngs Moduli (GPa) = 59.97870 29.75714 119.53735
#
# Poissons Ratio (x) = -0.09833 0.63815
# Poissons Ratio (y) = -0.19819 0.60147
# Poissons Ratio (z) = 0.32020 0.14973
#
# Static dielectric constant tensor:
#      x y z
#    x 2.911970 0.000000 -0.002000 
#    y 0.000000 3.012150 0.000000 
#    z -0.002000 0.000000 3.773640 
# 
# 
# High freq. dielectric constant tensor:
#      x y z
#    x 1.636370 0.000000 -0.001930 
#    y 0.000000 1.656270 0.000000 
#    z -0.001930 0.000000 1.700060 
# 
# From -- ./inp_files/346236.got.cif
#   From: 2010.06.25/outbox.cif.g09.slc.cpg/sg12_174_cif.got.tgz:346236.got - 2010.06.28 00:19:55.
