data_PCOD8113823
_publ_section_title
;
Structure prediction by ZEFSAII (Michael W. Deem and Ramdas Pophale) SiO2 
 PCOD8113823
Probable space group: C 2/M
;
_chemical_formula_sum "Si O2"
_cell_formula_units_Z 56
_cell_length_a 16.873815
_cell_length_b 20.546745
_cell_length_c 9.612483
_cell_angle_alpha 90.000000
_cell_angle_beta 72.988384
_cell_angle_gamma 90.000000
_cell_volume 3186.847532
_symmetry_space_group_name_H-M "C 2/M"
_symmetry_group_IT_number 12
_symmetry_cell_setting 'monoclinic'
loop_
_space_group_symop_operation_xyz
x,y,z
-x,y,-z
-x,-y,-z
x,-y,z
1/2+x,1/2+y,z
1/2-x,1/2+y,-z
1/2-x,1/2-y,-z
1/2+x,1/2-y,z
loop_
_atom_site_type_symbol
_atom_site_label
_atom_site_fract_x
_atom_site_fract_y
_atom_site_fract_z
Si Si1 0.847390 0.122267 0.293316
Si Si2 0.308903 0.812701 0.124161
Si Si3 0.831707 0.869721 0.619862
Si Si4 0.538934 0.500000 0.829742
Si Si5 0.577018 0.500000 0.356481
Si Si6 0.567465 0.243171 0.355964
Si Si7 0.044512 0.240908 0.842754
Si Si8 0.281066 0.823395 0.830900
O O1 0.811368 0.121480 0.467599
O O2 0.906024 0.062384 0.230721
O O3 0.898498 0.188528 0.260885
O O4 0.772853 0.121271 0.219017
O O5 0.254051 0.855034 0.257662
O O6 0.401692 0.804792 0.139777
O O7 0.274842 0.740224 0.123644
O O8 0.309044 0.846679 0.971038
O O9 0.899920 0.814299 0.616072
O O10 0.866877 0.937055 0.656428
O O11 0.457174 0.500000 0.780196
O O12 0.500000 0.500000 0.000000
O O13 0.500000 0.500000 0.500000
O O14 0.500000 0.217953 0.500000
O O15 0.528994 0.241086 0.222914
O O16 0.642379 0.191955 0.310809
O O17 0.000000 0.209924 0.000000
#
# Coordination Sequence:
#
# PCOD8113823 Si02
#       8
#     8   8   8   4   4   8   8   8
#     4  11  22  36  52  75 110 143 177 216 259 314
#     4   9  20  34  50  74 104 140 176 210 267 318
#     4  11  22  35  53  76 108 146 176 214 260 315
#     4  12  26  38  54  82 106 142 184 217 255 306
#     4  12  22  40  56  74 110 142 180 216 253 302
#     4  11  20  32  53  80 107 136 176 218 264 313
#     4  11  20  33  53  77 106 139 172 219 268 310
#     4   9  20  34  50  73 107 140 172 216 263 316
#
# _framework density 17.572223999999999
#
# number of rings (size 3 to 8) (size 9 to 14) (size 15 to 20)
#    0.000    1.429    4.286    1.714    6.000    1.714 
#    0.000    0.000    0.000    0.000    0.000    2.000 
#    0.000    0.000    0.000    0.000    0.000    0.000 
#
# Total GULP energy -347168.711993 kJ/mol
# GULP energy per Si atom -12398.882571 kJ/mol
# Density = 1.753223 g / cm^3
# Si number density = 17.572224 Si / 1000 Ang^3
#
#
#
# Elastic Constant Matrix: (Units=GPa)
#
#
# Indices 1 2 3 4 5 6 
#
# 1 70.3791 31.1035 31.7245 0.0000 9.6291 0.0000
# 2 31.1035 59.9105 34.2606 0.0000 3.1969 0.0000
# 3 31.7245 34.2606 133.8909 0.0000 6.5710 0.0000
# 4 0.0000 0.0000 0.0000 5.3105 0.0000 10.2558
# 5 9.6291 3.1969 6.5710 0.0000 37.8625 0.0000
# 6 0.0000 0.0000 0.0000 10.2558 0.0000 147.3880
#
#
#
# Elastic Compliance Matrix: (Units=1/GPa)
#
#
# Indices 1 2 3 4 5 6 
#
# 1 0.019579 -0.008685 -0.002227 0.000000 -0.003859 0.000000
# 2 -0.008685 0.023429 -0.003982 0.000000 0.000922 0.000000
# 3 -0.002227 -0.003982 0.009048 0.000000 -0.000668 0.000000
# 4 0.000000 0.000000 0.000000 0.217538 0.000000 -0.015137
# 5 -0.003859 0.000922 -0.000668 0.000000 0.027431 0.000000
# 6 0.000000 0.000000 0.000000 -0.015137 0.000000 0.007838
#
#
# Mechanical properties :
#
#
# Convention : Reuss Voigt Hill
#
# Bulk Modulus (GPa) = 44.91060 50.92866 47.91963
# Shear Modulus (GPa) = 14.61668 49.25168 31.93418
#
# Velocity S-wave (km/s) = 2.88723 5.29990 4.26762
# Velocity P-wave (km/s) = 6.06036 8.15459 7.18420
#
# Compressibility (1/GPa) = 0.02226646
#
# Stress axis : x y z
#
# Youngs Moduli (GPa) = 51.07472 42.68249 110.51775
#
# Poissons Ratio (x) = 0.37070 0.24616
# Poissons Ratio (y) = 0.44359 0.44013
# Poissons Ratio (z) = 0.11376 0.16998
#
# Static dielectric constant tensor:
#      x y z
#    x 3.370570 0.000000 0.224650 
#    y 0.000000 2.936980 0.000000 
#    z 0.224650 0.000000 3.498380 
# 
# 
# High freq. dielectric constant tensor:
#      x y z
#    x 1.683260 0.000000 0.005100 
#    y 0.000000 1.628370 0.000000 
#    z 0.005100 0.000000 1.703580 
# 
# From -- ./inp_files/64123.got.cif
#   From: 2010.06.25/outbox.cif.g09.slc.cpg/sg12_33_cif.got.tgz:64123.got - 2010.06.28 00:19:55.
