data_PCOD8113704
_publ_section_title
;
Structure prediction by ZEFSAII (Michael W. Deem and Ramdas Pophale) SiO2 
 PCOD8113704
Probable space group: C 2/M
;
_chemical_formula_sum "Si O2"
_cell_formula_units_Z 56
_cell_length_a 16.151151
_cell_length_b 24.305015
_cell_length_c 9.295112
_cell_angle_alpha 90.000000
_cell_angle_beta 124.834016
_cell_angle_gamma 90.000000
_cell_volume 2994.999555
_symmetry_space_group_name_H-M "C 2/M"
_symmetry_group_IT_number 12
_symmetry_cell_setting 'monoclinic'
loop_
_space_group_symop_operation_xyz
x,y,z
-x,y,-z
-x,-y,-z
x,-y,z
1/2+x,1/2+y,z
1/2-x,1/2+y,-z
1/2-x,1/2-y,-z
1/2+x,1/2-y,z
loop_
_atom_site_type_symbol
_atom_site_label
_atom_site_fract_x
_atom_site_fract_y
_atom_site_fract_z
Si Si1 0.912227 0.702308 0.010846
Si Si2 0.973302 0.000000 0.735882
Si Si3 0.216950 0.112978 0.244986
Si Si4 0.340812 0.500000 0.890606
Si Si5 0.420428 0.325847 0.089422
Si Si6 0.812623 0.189162 0.261307
Si Si7 0.104620 0.310057 0.675719
Si Si8 0.396237 0.614399 0.588876
O O1 0.939321 0.765999 0.046271
O O2 0.906837 0.678192 0.166122
O O3 0.806032 0.693616 0.824331
O O4 0.000000 0.674110 0.000000
O O5 0.912833 0.000000 0.824054
O O6 0.945013 0.053914 0.613685
O O7 0.092185 0.000000 0.896351
O O8 0.232457 0.052842 0.190068
O O9 0.311804 0.150343 0.307089
O O10 0.199614 0.110317 0.399442
O O11 0.111599 0.135624 0.074375
O O12 0.327073 0.326298 0.108705
O O13 0.521398 0.344728 0.265819
O O14 0.866833 0.247755 0.339852
O O15 0.860601 0.140601 0.403821
O O16 0.000000 0.326004 0.500000
#
# Coordination Sequence:
#
# PCOD8113704 Si02
#       8
#     8   4   8   4   8   8   8   8
#     4  11  22  37  58  82 115 154 191 227 284 348
#     4   9  18  34  54  87 118 146 191 234 283 336
#     4  11  20  36  59  84 112 149 196 234 284 330
#     4   9  18  34  58  84 113 150 193 240 279 334
#     4  11  19  37  54  82 115 152 185 228 278 343
#     4  11  22  38  53  83 124 150 183 232 289 341
#     4  11  23  39  57  83 117 150 191 241 279 335
#     4  11  22  33  60  86 117 152 187 233 284 347
#
# _framework density 18.697832999999999
#
# number of rings (size 3 to 8) (size 9 to 14) (size 15 to 20)
#    0.000    1.286    4.286    4.286    2.000    0.571 
#    0.000    2.500    0.000    0.000    0.000    1.000 
#    0.000    0.000    0.000    0.000    0.000    0.000 
#
# Total GULP energy -347186.071746 kJ/mol
# GULP energy per Si atom -12399.502562 kJ/mol
# Density = 1.865528 g / cm^3
# Si number density = 18.697833 Si / 1000 Ang^3
#
#
#
# Elastic Constant Matrix: (Units=GPa)
#
#
# Indices 1 2 3 4 5 6 
#
# 1 88.3304 17.0363 24.2055 0.0000 -1.3451 0.0000
# 2 17.0363 94.7065 22.6471 0.0000 1.2757 0.0000
# 3 24.2055 22.6471 69.9515 0.0000 10.3173 0.0000
# 4 0.0000 0.0000 0.0000 12.5552 0.0000 23.1864
# 5 -1.3451 1.2757 10.3173 0.0000 28.2894 0.0000
# 6 0.0000 0.0000 0.0000 23.1864 0.0000 -20.6867
#
#
#
# Elastic Compliance Matrix: (Units=1/GPa)
#
#
# Indices 1 2 3 4 5 6 
#
# 1 0.012794 -0.001294 -0.004340 0.000000 0.002250 0.000000
# 2 -0.001294 0.011597 -0.003404 0.000000 0.000657 0.000000
# 3 -0.004340 -0.003404 0.017868 0.000000 -0.006570 0.000000
# 4 0.000000 0.000000 0.000000 0.025945 0.000000 0.029080
# 5 0.002250 0.000657 -0.006570 0.000000 0.037822 0.000000
# 6 0.000000 0.000000 0.000000 0.029080 0.000000 -0.015747
#
#
# Mechanical properties :
#
#
# Convention : Reuss Voigt Hill
#
# Bulk Modulus (GPa) = 41.34966 42.30736 41.82851
# Shear Modulus (GPa) = 42.94918 16.63823 29.79370
#
# Velocity S-wave (km/s) = 4.79792 2.98627 3.99611
# Velocity P-wave (km/s) = 7.27021 5.87932 6.61145
#
# Compressibility (1/GPa) = 0.02418400
#
# Stress axis : x y z
#
# Youngs Moduli (GPa) = 78.15990 86.23096 55.96487
#
# Poissons Ratio (x) = 0.11158 0.24289
# Poissons Ratio (y) = 0.10114 0.19048
# Poissons Ratio (z) = 0.33922 0.29350
#
# Static dielectric constant tensor:
#      x y z
#    x 3.401440 0.000000 -0.100650 
#    y 0.000000 3.465520 0.000000 
#    z -0.100650 0.000000 3.346290 
# 
# 
# High freq. dielectric constant tensor:
#      x y z
#    x 1.721750 0.000000 -0.006080 
#    y 0.000000 1.710240 0.000000 
#    z -0.006080 0.000000 1.720220 
# 
# From -- ./inp_files/66007.got.cif
#   From: 2010.06.25/outbox.cif.g09.slc.cpg/sg12_34_cif.got.tgz:66007.got - 2010.06.28 00:19:55.
