data_PCOD8113836
_publ_section_title
;
Structure prediction by ZEFSAII (Michael W. Deem and Ramdas Pophale) SiO2 
 PCOD8113836
Probable space group: C 2/M
;
_chemical_formula_sum "Si O2"
_cell_formula_units_Z 64
_cell_length_a 30.297768
_cell_length_b 8.487227
_cell_length_c 14.877162
_cell_angle_alpha 90.000000
_cell_angle_beta 78.619972
_cell_angle_gamma 90.000000
_cell_volume 3750.362739
_symmetry_space_group_name_H-M "C 2/M"
_symmetry_group_IT_number 12
_symmetry_cell_setting 'monoclinic'
loop_
_space_group_symop_operation_xyz
x,y,z
-x,y,-z
-x,-y,-z
x,-y,z
1/2+x,1/2+y,z
1/2-x,1/2+y,-z
1/2-x,1/2-y,-z
1/2+x,1/2-y,z
loop_
_atom_site_type_symbol
_atom_site_label
_atom_site_fract_x
_atom_site_fract_y
_atom_site_fract_z
Si Si1 0.559978 0.183286 0.608263
Si Si2 0.399351 0.316010 0.585224
Si Si3 0.802957 0.814760 0.569158
Si Si4 0.288477 0.315938 0.374962
Si Si5 0.118477 0.184253 0.742596
Si Si6 0.528295 0.683498 0.107741
Si Si7 0.538741 0.817492 0.290701
Si Si8 0.435841 0.185298 0.081350
O O1 0.576505 0.288762 0.519426
O O2 0.589517 0.215970 0.684073
O O3 0.508782 0.233741 0.647949
O O4 0.563289 0.000000 0.580913
O O5 0.402113 0.500000 0.607677
O O6 0.347919 0.252753 0.600035
O O7 0.422224 0.216343 0.654213
O O8 0.758020 0.762784 0.640859
O O9 0.801271 0.746498 0.468121
O O10 0.806502 0.000000 0.562878
O O11 0.279651 0.500000 0.384918
O O12 0.328743 0.275762 0.290441
O O13 0.105288 0.236064 0.848154
O O14 0.109068 0.000000 0.730047
O O15 0.517584 0.500000 0.100246
O O16 0.548872 0.717944 0.196935
O O17 0.482211 0.780574 0.115031
O O18 0.563725 0.738668 0.017911
O O19 0.538462 0.000000 0.264754
O O20 0.428323 0.000000 0.076904
#
# Coordination Sequence:
#
# PCOD8113836 Si02
#       8
#     8   8   8   8   8   8   8   8
#     4  11  22  34  49  71 103 139 176 215 252 296
#     4  11  22  36  52  72 101 138 179 216 253 300
#     4   9  18  33  49  71  99 131 170 213 254 300
#     4   9  18  32  50  73 100 131 166 211 257 302
#     4  11  20  33  52  76 105 136 172 209 252 308
#     4  11  21  35  54  75  99 135 174 211 256 301
#     4  11  23  37  51  73 103 136 177 218 255 299
#     4  11  21  34  52  76 105 134 167 211 258 303
#
# _framework density 17.065016
#
# number of rings (size 3 to 8) (size 9 to 14) (size 15 to 20)
#    0.000    1.500    2.500    4.875    0.000    5.000 
#    0.000    0.000    0.000    0.000    0.000    0.875 
#    0.000    0.000    0.000    0.000    0.000    0.000 
#
# Total GULP energy -396902.879402 kJ/mol
# GULP energy per Si atom -12403.214981 kJ/mol
# Density = 1.702618 g / cm^3
# Si number density = 17.065016 Si / 1000 Ang^3
#
#
#
# Elastic Constant Matrix: (Units=GPa)
#
#
# Indices 1 2 3 4 5 6 
#
# 1 117.0023 22.6580 58.4710 0.0000 -6.0753 0.0000
# 2 22.6580 44.4518 14.0994 0.0000 -2.9114 0.0000
# 3 58.4710 14.0994 80.2519 0.0000 -12.6901 0.0000
# 4 0.0000 0.0000 0.0000 28.0736 0.0000 -0.9006
# 5 -6.0753 -2.9114 -12.6901 0.0000 23.1203 0.0000
# 6 0.0000 0.0000 0.0000 -0.9006 0.0000 24.1745
#
#
#
# Elastic Compliance Matrix: (Units=1/GPa)
#
#
# Indices 1 2 3 4 5 6 
#
# 1 0.014243 -0.004240 -0.009993 0.000000 -0.002276 0.000000
# 2 -0.004240 0.025098 -0.001092 0.000000 0.001447 0.000000
# 3 -0.009993 -0.001092 0.021349 0.000000 0.008955 0.000000
# 4 0.000000 0.000000 0.000000 0.035663 0.000000 0.001329
# 5 -0.002276 0.001447 0.008955 0.000000 0.047751 0.000000
# 6 0.000000 0.000000 0.000000 0.001329 0.000000 0.041415
#
#
# Mechanical properties :
#
#
# Convention : Reuss Voigt Hill
#
# Bulk Modulus (GPa) = 33.28572 48.01811 40.65191
# Shear Modulus (GPa) = 22.10594 24.83884 23.47239
#
# Velocity S-wave (km/s) = 3.60306 3.81930 3.71275
# Velocity P-wave (km/s) = 6.07100 6.90281 6.50022
#
# Compressibility (1/GPa) = 0.03004292
#
# Stress axis : x y z
#
# Youngs Moduli (GPa) = 70.20750 39.84315 46.84020
#
# Poissons Ratio (x) = 0.16892 0.46806
# Poissons Ratio (y) = 0.29766 0.05113
# Poissons Ratio (z) = 0.70156 0.04349
#
# Static dielectric constant tensor:
#      x y z
#    x 3.231180 0.000000 -0.151640 
#    y 0.000000 3.172440 0.000000 
#    z -0.151640 0.000000 3.200200 
# 
# 
# High freq. dielectric constant tensor:
#      x y z
#    x 1.642360 0.000000 -0.013480 
#    y 0.000000 1.669130 0.000000 
#    z -0.013480 0.000000 1.640070 
# 
# From -- ./inp_files/248364.got.cif
#   From: 2010.06.25/outbox.cif.g09.slc.cpg/sg12_125_cif.got.tgz:248364.got - 2010.06.28 00:19:55.
