data_PCOD8113146
_publ_section_title
;
Structure prediction by ZEFSAII (Michael W. Deem and Ramdas Pophale) SiO2 
 PCOD8113146
Probable space group: C 2/M
;
_chemical_formula_sum "Si O2"
_cell_formula_units_Z 56
_cell_length_a 11.055567
_cell_length_b 30.857233
_cell_length_c 15.529810
_cell_angle_alpha 90.000000
_cell_angle_beta 30.829096
_cell_angle_gamma 90.000000
_cell_volume 2715.064893
_symmetry_space_group_name_H-M "C 2/M"
_symmetry_group_IT_number 12
_symmetry_cell_setting 'monoclinic'
loop_
_space_group_symop_operation_xyz
x,y,z
-x,y,-z
-x,-y,-z
x,-y,z
1/2+x,1/2+y,z
1/2-x,1/2+y,-z
1/2-x,1/2-y,-z
1/2+x,1/2-y,z
loop_
_atom_site_type_symbol
_atom_site_label
_atom_site_fract_x
_atom_site_fract_y
_atom_site_fract_z
Si Si1 0.008209 0.653855 0.748876
Si Si2 0.730029 0.280714 0.301827
Si Si3 0.588787 0.586723 0.534597
Si Si4 0.660348 0.815554 0.320276
Si Si5 0.728512 0.350026 0.176002
Si Si6 0.949113 0.878045 0.888627
Si Si7 0.260860 0.550282 0.375401
O O1 0.996246 0.682483 0.669556
O O2 0.053397 0.690726 0.793469
O O3 0.224322 0.621811 0.610055
O O4 0.784173 0.623201 0.909682
O O5 0.500000 0.284645 0.500000
O O6 0.793563 0.230409 0.249671
O O7 0.675413 0.301825 0.242996
O O8 0.500000 0.561635 0.500000
O O9 0.360382 0.611913 0.707590
O O10 0.702277 0.558403 0.543718
O O11 0.500000 0.827015 0.500000
O O12 0.845421 0.853329 0.187321
O O13 0.590174 0.349738 0.171975
O O14 0.000000 0.361240 0.000000
O O15 0.039042 0.925775 0.804818
O O16 0.299501 0.500000 0.333840
O O17 0.000000 0.564573 0.500000
#
# Coordination Sequence:
#
# PCOD8113146 Si02
#       7
#     8   8   8   8   8   8   8
#     4  12  22  41  61  88 127 168 212 257 317 371
#     4  11  23  38  57  86 121 168 215 255 303 361
#     4  11  20  38  67  94 128 165 213 257 318 383
#     4  11  26  38  58  86 122 169 215 271 304 364
#     4  11  19  36  59  87 118 162 207 249 308 368
#     4  11  23  39  63  89 122 163 208 259 315 373
#     4  10  23  44  70  96 127 165 207 259 323 391
#
# _framework density 20.625658999999999
#
# number of rings (size 3 to 8) (size 9 to 14) (size 15 to 20)
#    0.000    1.000    4.286    3.429    2.000    3.143 
#    0.000    0.714    0.000   18.000    0.000    0.000 
#    0.000    0.000    0.000    0.000    0.000    0.000 
#
# Total GULP energy -346987.482278 kJ/mol
# GULP energy per Si atom -12392.410081 kJ/mol
# Density = 2.057871 g / cm^3
# Si number density = 20.625659 Si / 1000 Ang^3
#
#
#
# Elastic Constant Matrix: (Units=GPa)
#
#
# Indices 1 2 3 4 5 6 
#
# 1 103.5319 38.3967 31.1274 0.0000 9.5267 0.0000
# 2 38.3967 91.3536 34.9071 0.0000 -1.8294 0.0000
# 3 31.1274 34.9071 96.4253 0.0000 0.3298 0.0000
# 4 0.0000 0.0000 0.0000 20.8792 0.0000 -2.8588
# 5 9.5267 -1.8294 0.3298 0.0000 30.2403 0.0000
# 6 0.0000 0.0000 0.0000 -2.8588 0.0000 29.1003
#
#
#
# Elastic Compliance Matrix: (Units=1/GPa)
#
#
# Indices 1 2 3 4 5 6 
#
# 1 0.012382 -0.004370 -0.002401 0.000000 -0.004139 0.000000
# 2 -0.004370 0.014266 -0.003762 0.000000 0.002281 0.000000
# 3 -0.002401 -0.003762 0.012506 0.000000 0.000392 0.000000
# 4 0.000000 0.000000 0.000000 0.048548 0.000000 0.004769
# 5 -0.004139 0.002281 0.000392 0.000000 0.034506 0.000000
# 6 0.000000 0.000000 0.000000 0.004769 0.000000 0.034832
#
#
# Mechanical properties :
#
#
# Convention : Reuss Voigt Hill
#
# Bulk Modulus (GPa) = 55.28052 55.57480 55.42766
# Shear Modulus (GPa) = 27.15390 28.50262 27.82826
#
# Velocity S-wave (km/s) = 3.63231 3.72143 3.67714
# Velocity P-wave (km/s) = 6.66720 6.74302 6.70522
#
# Compressibility (1/GPa) = 0.01808955
#
# Stress axis : x y z
#
# Youngs Moduli (GPa) = 80.76100 70.09589 79.95991
#
# Poissons Ratio (x) = 0.30630 0.19199
# Poissons Ratio (y) = 0.35291 0.30079
# Poissons Ratio (z) = 0.19391 0.26368
#
# Static dielectric constant tensor:
#      x y z
#    x 4.199420 0.000000 0.256170 
#    y 0.000000 3.554240 0.000000 
#    z 0.256170 0.000000 2.855830 
# 
# 
# High freq. dielectric constant tensor:
#      x y z
#    x 1.830360 0.000000 0.006360 
#    y 0.000000 1.775240 0.000000 
#    z 0.006360 0.000000 1.809380 
# 
# From -- ./inp_files/210001.got.cif
#   From: 2010.06.25/outbox.cif.g09.slc.cpg/sg12_106_cif.got.tgz:210001.got - 2010.06.28 00:19:55.
