data_PCOD8113597
_publ_section_title
;
Structure prediction by ZEFSAII (Michael W. Deem and Ramdas Pophale) SiO2 
 PCOD8113597
Probable space group: C 2/M
;
_chemical_formula_sum "Si O2"
_cell_formula_units_Z 56
_cell_length_a 17.123611
_cell_length_b 21.828345
_cell_length_c 25.350759
_cell_angle_alpha 90.000000
_cell_angle_beta 159.911048
_cell_angle_gamma 90.000000
_cell_volume 3254.668973
_symmetry_space_group_name_H-M "C 2/M"
_symmetry_group_IT_number 12
_symmetry_cell_setting 'monoclinic'
loop_
_space_group_symop_operation_xyz
x,y,z
-x,y,-z
-x,-y,-z
x,-y,z
1/2+x,1/2+y,z
1/2-x,1/2+y,-z
1/2-x,1/2-y,-z
1/2+x,1/2-y,z
loop_
_atom_site_type_symbol
_atom_site_label
_atom_site_fract_x
_atom_site_fract_y
_atom_site_fract_z
Si Si1 0.768273 0.604748 0.830510
Si Si2 0.342618 0.000000 0.697990
Si Si3 0.365084 0.716470 0.493700
Si Si4 0.574359 0.500000 0.636337
Si Si5 0.370454 0.204617 0.810576
Si Si6 0.344517 0.297345 0.947635
Si Si7 0.988088 0.634364 0.784582
Si Si8 0.980668 0.799674 0.685681
O O1 0.628536 0.558905 0.705650
O O2 0.846135 0.663288 0.846657
O O3 0.599555 0.632887 0.769319
O O4 0.000000 0.573728 0.000000
O O5 0.211449 0.000000 0.669572
O O6 0.492315 0.938809 0.792556
O O7 0.187786 0.000000 0.547139
O O8 0.618024 0.725212 0.630072
O O9 0.245776 0.659499 0.388929
O O10 0.369143 0.697952 0.557381
O O11 0.212952 0.779809 0.393931
O O12 0.508583 0.166929 0.854350
O O13 0.511470 0.264619 0.914997
O O14 0.175889 0.251060 0.811658
O O15 0.206638 0.351544 0.887775
O O16 0.500000 0.325965 0.000000
#
# Coordination Sequence:
#
# PCOD8113597 Si02
#       8
#     8   4   8   4   8   8   8   8
#     4  11  18  32  52  72 105 136 170 209 254 308
#     4  11  22  38  47  72 106 142 171 210 251 306
#     4   9  18  28  49  75  99 132 166 205 252 305
#     4  11  23  32  52  72 107 141 172 206 255 302
#     4  11  18  33  51  78 105 134 167 214 259 311
#     4  11  19  35  53  77 102 135 169 216 263 304
#     4  11  23  33  53  74 106 139 174 209 255 309
#     4   9  16  30  48  72 101 131 165 205 254 300
#
# _framework density 17.206050999999999
#
# number of rings (size 3 to 8) (size 9 to 14) (size 15 to 20)
#    0.000    1.571    5.714    2.786    2.000    0.000 
#    0.000    0.357    0.000    0.000    0.000    0.000 
#    0.000    0.000    0.000   10.571    0.000    0.000 
#
# Total GULP energy -346982.272271 kJ/mol
# GULP energy per Si atom -12392.224010 kJ/mol
# Density = 1.716689 g / cm^3
# Si number density = 17.206051 Si / 1000 Ang^3
#
#
#
# Elastic Constant Matrix: (Units=GPa)
#
#
# Indices 1 2 3 4 5 6 
#
# 1 68.9955 39.6401 27.6769 0.0681 15.1042 0.0266
# 2 39.6401 87.8537 30.3078 -0.0332 10.6233 0.0317
# 3 27.6769 30.3078 70.9773 0.0678 9.8551 0.1063
# 4 0.0681 -0.0332 0.0678 20.9337 0.0711 3.5169
# 5 15.1042 10.6233 9.8551 0.0711 23.7784 0.0197
# 6 0.0266 0.0317 0.1063 3.5169 0.0197 23.1024
#
#
#
# Elastic Compliance Matrix: (Units=1/GPa)
#
#
# Indices 1 2 3 4 5 6 
#
# 1 0.022592 -0.007605 -0.004288 -0.000044 -0.009176 0.000019
# 2 -0.007605 0.016244 -0.003856 0.000067 -0.000829 -0.000005
# 3 -0.004288 -0.003856 0.017816 -0.000029 -0.002937 -0.000065
# 4 -0.000044 0.000067 -0.000029 0.049024 -0.000130 -0.007463
# 5 -0.009176 -0.000829 -0.002937 -0.000130 0.049471 0.000003
# 6 0.000019 -0.000005 -0.000065 -0.007463 0.000003 0.044422
#
#
# Mechanical properties :
#
#
# Convention : Reuss Voigt Hill
#
# Bulk Modulus (GPa) = 39.75522 47.00848 43.38185
# Shear Modulus (GPa) = 20.88103 22.24301 21.56202
#
# Velocity S-wave (km/s) = 3.48744 3.59937 3.54385
# Velocity P-wave (km/s) = 6.27470 6.68238 6.48174
#
# Compressibility (1/GPa) = 0.02515393
#
# Stress axis : x y z
#
# Youngs Moduli (GPa) = 44.26401 61.55981 56.13051
#
# Poissons Ratio (x) = 0.46814 0.24069
# Poissons Ratio (y) = 0.33661 0.21644
# Poissons Ratio (z) = 0.18981 0.23738
#
# Static dielectric constant tensor:
#      x y z
#    x 3.257640 0.000020 0.146520 
#    y 0.000020 3.111210 -0.000100 
#    z 0.146520 -0.000100 3.589290 
# 
# 
# High freq. dielectric constant tensor:
#      x y z
#    x 1.650610 0.000000 -0.009670 
#    y 0.000000 1.632690 -0.000010 
#    z -0.009670 -0.000010 1.674640 
# 
# From -- ./inp_files/160044.got.cif
#   From: 2010.06.25/outbox.cif.g09.slc.cpg/sg12_81_cif.got.tgz:160044.got - 2010.06.28 00:19:55.
