data_PCOD8113325
_publ_section_title
;
Structure prediction by ZEFSAII (Michael W. Deem and Ramdas Pophale) SiO2 
 PCOD8113325
Probable space group: C 2/M
;
_chemical_formula_sum "Si O2"
_cell_formula_units_Z 56
_cell_length_a 20.232861
_cell_length_b 8.803256
_cell_length_c 29.865507
_cell_angle_alpha 90.000000
_cell_angle_beta 146.518241
_cell_angle_gamma 90.000000
_cell_volume 2934.614447
_symmetry_space_group_name_H-M "C 2/M"
_symmetry_group_IT_number 12
_symmetry_cell_setting 'monoclinic'
loop_
_space_group_symop_operation_xyz
x,y,z
-x,y,-z
-x,-y,-z
x,-y,z
1/2+x,1/2+y,z
1/2-x,1/2+y,-z
1/2-x,1/2-y,-z
1/2+x,1/2-y,z
loop_
_atom_site_type_symbol
_atom_site_label
_atom_site_fract_x
_atom_site_fract_y
_atom_site_fract_z
Si Si1 0.072171 0.322908 0.761515
Si Si2 0.939877 0.821175 0.341962
Si Si3 0.453664 0.824523 0.903231
Si Si4 0.320514 0.177454 0.498989
Si Si5 0.812690 0.324457 0.913930
Si Si6 0.351494 0.324771 0.678981
Si Si7 0.788946 0.824258 0.744379
O O1 0.069801 0.500000 0.749146
O O2 0.054964 0.230554 0.706309
O O3 0.196883 0.279674 0.855847
O O4 0.965847 0.280848 0.735159
O O5 0.815690 0.777624 0.294528
O O6 0.047173 0.746139 0.430541
O O7 0.956047 0.000000 0.352023
O O8 0.365220 0.793937 0.894552
O O9 0.413136 0.720122 0.838998
O O10 0.447923 0.000000 0.885782
O O11 0.588903 0.779692 0.993231
O O12 0.250000 0.250000 0.500000
O O13 0.253061 0.214635 0.414929
O O14 0.330723 0.000000 0.513932
O O15 0.776186 0.500000 0.898188
O O16 0.391306 0.500000 0.697537
O O17 0.300027 0.287178 0.698531
O O18 0.759835 0.000000 0.736604
#
# Coordination Sequence:
#
# PCOD8113325 Si02
#       7
#     8   8   8   8   8   8   8
#     4  12  23  36  60  92 119 151 202 250 289 349
#     4  12  24  39  61  87 121 159 196 245 298 349
#     4   9  18  34  58  87 119 158 194 238 294 351
#     4  11  22  39  63  90 118 154 199 248 297 349
#     4   9  18  34  58  87 120 155 195 239 295 351
#     4  10  24  43  62  84 121 162 192 238 306 360
#     4  11  23  40  61  89 121 157 199 243 294 354
#
# _framework density 19.082574000000001
#
# number of rings (size 3 to 8) (size 9 to 14) (size 15 to 20)
#    0.000    1.429    2.857    4.286    0.000    2.857 
#    0.000    5.000    0.000    0.000    0.000    0.000 
#    0.000    0.000    0.000    0.000    0.000    0.000 
#
# Total GULP energy -347344.823765 kJ/mol
# GULP energy per Si atom -12405.172277 kJ/mol
# Density = 1.903914 g / cm^3
# Si number density = 19.082574 Si / 1000 Ang^3
#
#
#
# Elastic Constant Matrix: (Units=GPa)
#
#
# Indices 1 2 3 4 5 6 
#
# 1 59.2000 27.5548 35.3839 0.0000 -6.2510 -0.0002
# 2 27.5548 93.9593 46.4578 0.0002 0.3813 -0.0006
# 3 35.3839 46.4578 128.6249 0.0000 0.4794 0.0000
# 4 0.0000 0.0002 0.0000 36.6147 0.0000 4.1607
# 5 -6.2510 0.3813 0.4794 0.0000 33.3491 0.0001
# 6 -0.0002 -0.0006 0.0000 4.1607 0.0001 29.1042
#
#
#
# Elastic Compliance Matrix: (Units=1/GPa)
#
#
# Indices 1 2 3 4 5 6 
#
# 1 0.022026 -0.004228 -0.004548 0.000000 0.004242 0.000000
# 2 -0.004228 0.013769 -0.003807 0.000000 -0.000895 0.000000
# 3 -0.004548 -0.003807 0.010404 0.000000 -0.000959 0.000000
# 4 0.000000 0.000000 0.000000 0.027762 0.000000 -0.003969
# 5 0.004242 -0.000895 -0.000959 0.000000 0.030805 0.000000
# 6 0.000000 0.000000 0.000000 -0.003969 0.000000 0.034927
#
#
# Mechanical properties :
#
#
# Convention : Reuss Voigt Hill
#
# Bulk Modulus (GPa) = 47.54263 55.61970 51.58117
# Shear Modulus (GPa) = 29.09185 31.30610 30.19897
#
# Velocity S-wave (km/s) = 3.90875 4.05478 3.98243
# Velocity P-wave (km/s) = 6.73345 7.15065 6.94518
#
# Compressibility (1/GPa) = 0.02103375
#
# Stress axis : x y z
#
# Youngs Moduli (GPa) = 45.40069 72.62888 96.11544
#
# Poissons Ratio (x) = 0.30707 0.43713
# Poissons Ratio (y) = 0.19195 0.36588
# Poissons Ratio (z) = 0.20648 0.27647
#
# Static dielectric constant tensor:
#      x y z
#    x 3.183390 0.000000 -0.005190 
#    y 0.000000 3.495560 0.000000 
#    z -0.005190 0.000000 3.863140 
# 
# 
# High freq. dielectric constant tensor:
#      x y z
#    x 1.721650 0.000000 0.007540 
#    y 0.000000 1.746120 0.000000 
#    z 0.007540 0.000000 1.758550 
# 
# From -- ./inp_files/363249.got.cif
#   From: 2010.06.25/outbox.cif.g09.slc.cpg/sg12_182_cif.got.tgz:363249.got - 2010.06.28 00:19:55.
