data_PCOD8113397
_publ_section_title
;
Structure prediction by ZEFSAII (Michael W. Deem and Ramdas Pophale) SiO2 
 PCOD8113397
Probable space group: C 2/M
;
_chemical_formula_sum "Si O2"
_cell_formula_units_Z 36
_cell_length_a 12.723451
_cell_length_b 30.675304
_cell_length_c 7.618493
_cell_angle_alpha 90.000000
_cell_angle_beta 35.546168
_cell_angle_gamma 90.000000
_cell_volume 1728.650104
_symmetry_space_group_name_H-M "C 2/M"
_symmetry_group_IT_number 12
_symmetry_cell_setting 'monoclinic'
loop_
_space_group_symop_operation_xyz
x,y,z
-x,y,-z
-x,-y,-z
x,-y,z
1/2+x,1/2+y,z
1/2-x,1/2+y,-z
1/2-x,1/2-y,-z
1/2+x,1/2-y,z
loop_
_atom_site_type_symbol
_atom_site_label
_atom_site_fract_x
_atom_site_fract_y
_atom_site_fract_z
Si Si1 0.550876 0.547474 0.637924
Si Si2 0.355422 0.293308 0.557623
Si Si3 0.000000 0.762643 0.000000
Si Si4 0.806502 0.615183 0.199415
Si Si5 0.834255 0.549556 0.848001
O O1 0.500000 0.550504 0.500000
O O2 0.632393 0.500000 0.574447
O O3 0.698718 0.584228 0.485291
O O4 0.357041 0.554366 0.998489
O O5 0.500000 0.273973 0.500000
O O6 0.439716 0.292252 0.247018
O O7 0.315786 0.342788 0.669474
O O8 0.170764 0.266363 0.823952
O O9 0.844577 0.586356 0.979112
O O10 0.000000 0.631894 0.000000
O O11 0.846247 0.500000 0.909369
O O12 0.000000 0.559763 0.500000
#
# Coordination Sequence:
#
# PCOD8113397 Si02
#       5
#     8   8   4   8   8
#     4   8  15  30  52  76 109 154 197 240 301 364
#     4  11  22  44  68  95 128 167 202 264 322 375
#     4  10  24  44  68  98 126 158 218 256 312 410
#     4  11  21  36  54  88 122 157 212 255 302 376
#     4   9  18  35  57  84 117 160 210 256 308 372
#
# _framework density 20.825496999999999
#
# number of rings (size 3 to 8) (size 9 to 14) (size 15 to 20)
#    0.000    2.222    1.111    4.667    0.000    1.778 
#    8.000    1.111    0.000    4.000    0.000    0.000 
#    0.000    0.000    0.000    0.000    0.000    0.000 
#
# Total GULP energy -223015.369376 kJ/mol
# GULP energy per Si atom -12389.742743 kJ/mol
# Density = 2.077810 g / cm^3
# Si number density = 20.825497 Si / 1000 Ang^3
#
#
#
# Elastic Constant Matrix: (Units=GPa)
#
#
# Indices 1 2 3 4 5 6 
#
# 1 71.9685 35.2286 38.2394 0.0000 -17.6261 0.0000
# 2 35.2286 109.0818 55.8015 0.0000 2.9826 0.0000
# 3 38.2394 55.8015 161.4229 0.0000 -13.5860 0.0000
# 4 0.0000 0.0000 0.0000 24.4433 0.0000 -5.0630
# 5 -17.6261 2.9826 -13.5860 0.0000 36.5193 0.0000
# 6 0.0000 0.0000 0.0000 -5.0630 0.0000 19.2060
#
#
#
# Elastic Compliance Matrix: (Units=1/GPa)
#
#
# Indices 1 2 3 4 5 6 
#
# 1 0.020051 -0.005720 -0.001981 0.000000 0.009408 0.000000
# 2 -0.005720 0.012979 -0.003565 0.000000 -0.005147 0.000000
# 3 -0.001981 -0.003565 0.008094 0.000000 0.002346 0.000000
# 4 0.000000 0.000000 0.000000 0.043274 0.000000 0.011408
# 5 0.009408 -0.005147 0.002346 0.000000 0.033217 0.000000
# 6 0.000000 0.000000 0.000000 0.011408 0.000000 0.055074
#
#
# Mechanical properties :
#
#
# Convention : Reuss Voigt Hill
#
# Bulk Modulus (GPa) = 53.78243 66.77915 60.28079
# Shear Modulus (GPa) = 24.82398 30.24729 27.53563
#
# Velocity S-wave (km/s) = 3.45628 3.81519 3.64016
# Velocity P-wave (km/s) = 6.46600 7.17936 6.83200
#
# Compressibility (1/GPa) = 0.01859343
#
# Stress axis : x y z
#
# Youngs Moduli (GPa) = 49.87178 77.04756 123.54860
#
# Poissons Ratio (x) = 0.44068 0.24475
# Poissons Ratio (y) = 0.28525 0.44044
# Poissons Ratio (z) = 0.09879 0.27467
#
# Static dielectric constant tensor:
#      x y z
#    x 3.457120 0.000000 -0.474120 
#    y 0.000000 3.641800 0.000000 
#    z -0.474120 0.000000 4.632640 
# 
# 
# High freq. dielectric constant tensor:
#      x y z
#    x 1.776360 0.000000 -0.028150 
#    y 0.000000 1.808970 0.000000 
#    z -0.028150 0.000000 1.842660 
# 
# From -- ./inp_files/67245.got.cif
#   From: 2010.06.25/outbox.cif.g09.slc.cpg/sg12_34_cif.got.tgz:67245.got - 2010.06.28 00:19:55.
