data_PCOD8113114
_publ_section_title
;
Structure prediction by ZEFSAII (Michael W. Deem and Ramdas Pophale) SiO2 
 PCOD8113114
Probable space group: C 2/M
;
_chemical_formula_sum "Si O2"
_cell_formula_units_Z 56
_cell_length_a 23.741287
_cell_length_b 8.647298
_cell_length_c 15.109283
_cell_angle_alpha 90.000000
_cell_angle_beta 60.441085
_cell_angle_gamma 90.000000
_cell_volume 2698.188930
_symmetry_space_group_name_H-M "C 2/M"
_symmetry_group_IT_number 12
_symmetry_cell_setting 'monoclinic'
loop_
_space_group_symop_operation_xyz
x,y,z
-x,y,-z
-x,-y,-z
x,-y,z
1/2+x,1/2+y,z
1/2-x,1/2+y,-z
1/2-x,1/2-y,-z
1/2+x,1/2-y,z
loop_
_atom_site_type_symbol
_atom_site_label
_atom_site_fract_x
_atom_site_fract_y
_atom_site_fract_z
Si Si1 0.679010 0.677542 0.822289
Si Si2 0.061118 0.319002 0.012990
Si Si3 0.952918 0.181164 0.618073
Si Si4 0.377575 0.821383 0.296765
Si Si5 0.812324 0.820083 0.496460
Si Si6 0.179806 0.678550 0.323624
Si Si7 0.993068 0.820687 0.784983
O O1 0.659628 0.500000 0.853208
O O2 0.671737 0.721546 0.724482
O O3 0.755364 0.705321 0.786628
O O4 0.630350 0.786138 0.913915
O O5 0.056345 0.500000 0.035242
O O6 0.065190 0.226410 0.103794
O O7 0.000000 0.263386 0.000000
O O8 0.886006 0.275875 0.674728
O O9 0.983631 0.220018 0.689349
O O10 0.000000 0.233690 0.500000
O O11 0.937621 0.000000 0.620056
O O12 0.372273 0.764744 0.402375
O O13 0.451216 0.786094 0.214499
O O14 0.360357 0.000000 0.297758
O O15 0.750000 0.750000 0.500000
O O16 0.816125 0.790911 0.596477
O O17 0.816290 0.000000 0.474757
O O18 0.177178 0.500000 0.355593
O O19 0.010229 0.000000 0.781717
#
# Coordination Sequence:
#
# PCOD8113114 Si02
#       7
#     8   8   8   8   8   8   8
#     4  11  23  39  61  90 126 164 207 257 318 384
#     4  11  23  39  62  94 129 166 214 266 319 380
#     4  10  23  44  68  94 126 168 215 261 314 382
#     4  12  23  36  58  90 126 164 206 256 316 379
#     4  12  23  36  56  85 123 163 205 254 311 378
#     4  11  24  41  63  92 126 166 211 263 321 381
#     4  11  23  40  65  94 126 167 213 263 320 381
#
# _framework density 20.754663999999998
#
# number of rings (size 3 to 8) (size 9 to 14) (size 15 to 20)
#    0.000    0.857    2.857    5.143    0.000    4.857 
#    0.000    0.714    0.000    0.000    0.000    0.000 
#    0.000    0.000    0.000    0.000    0.000    0.000 
#
# Total GULP energy -347129.151797 kJ/mol
# GULP energy per Si atom -12397.469707 kJ/mol
# Density = 2.070743 g / cm^3
# Si number density = 20.754664 Si / 1000 Ang^3
#
#
#
# Elastic Constant Matrix: (Units=GPa)
#
#
# Indices 1 2 3 4 5 6 
#
# 1 91.4806 36.1340 34.5666 0.0000 -17.0067 0.0000
# 2 36.1340 87.0292 30.1689 0.0000 -3.2391 0.0002
# 3 34.5666 30.1689 116.6743 0.0000 -4.8275 0.0000
# 4 0.0000 0.0000 0.0000 35.2728 0.0000 -3.2285
# 5 -17.0067 -3.2391 -4.8275 0.0000 32.6388 0.0000
# 6 0.0000 0.0002 0.0000 -3.2285 0.0000 31.3243
#
#
#
# Elastic Compliance Matrix: (Units=1/GPa)
#
#
# Indices 1 2 3 4 5 6 
#
# 1 0.015371 -0.005099 -0.002943 0.000000 0.007068 0.000000
# 2 -0.005099 0.014333 -0.002260 0.000000 -0.001569 0.000000
# 3 -0.002943 -0.002260 0.010016 0.000000 -0.000276 0.000000
# 4 0.000000 0.000000 0.000000 0.028620 0.000000 0.002950
# 5 0.007068 -0.001569 -0.000276 0.000000 0.034125 0.000000
# 6 0.000000 0.000000 0.000000 0.002950 0.000000 0.032228
#
#
# Mechanical properties :
#
#
# Convention : Reuss Voigt Hill
#
# Bulk Modulus (GPa) = 52.31432 55.21366 53.76399
# Shear Modulus (GPa) = 30.92736 32.80149 31.86443
#
# Velocity S-wave (km/s) = 3.86442 3.97979 3.92253
# Velocity P-wave (km/s) = 6.72105 6.91224 6.81731
#
# Compressibility (1/GPa) = 0.01911523
#
# Stress axis : x y z
#
# Youngs Moduli (GPa) = 65.05622 69.77130 99.84185
#
# Poissons Ratio (x) = 0.35575 0.29385
# Poissons Ratio (y) = 0.33171 0.22568
# Poissons Ratio (z) = 0.19147 0.15771
#
# Static dielectric constant tensor:
#      x y z
#    x 3.825760 0.000000 -0.048690 
#    y 0.000000 3.697690 0.000000 
#    z -0.048690 0.000000 4.167860 
# 
# 
# High freq. dielectric constant tensor:
#      x y z
#    x 1.793270 0.000000 -0.018070 
#    y 0.000000 1.818830 0.000000 
#    z -0.018070 0.000000 1.820510 
# 
# From -- ./inp_files/238344.got.cif
#   From: 2010.06.25/outbox.cif.g09.slc.cpg/sg12_120_cif.got.tgz:238344.got - 2010.06.28 00:19:55.
