data_PCOD8113616
_publ_section_title
;
Structure prediction by ZEFSAII (Michael W. Deem and Ramdas Pophale) SiO2 
 PCOD8113616
Probable space group: C 2/M
;
_chemical_formula_sum "Si O2"
_cell_formula_units_Z 56
_cell_length_a 14.695087
_cell_length_b 21.150078
_cell_length_c 9.725275
_cell_angle_alpha 90.000000
_cell_angle_beta 113.100349
_cell_angle_gamma 90.000000
_cell_volume 2780.279468
_symmetry_space_group_name_H-M "C 2/M"
_symmetry_group_IT_number 12
_symmetry_cell_setting 'monoclinic'
loop_
_space_group_symop_operation_xyz
x,y,z
-x,y,-z
-x,-y,-z
x,-y,z
1/2+x,1/2+y,z
1/2-x,1/2+y,-z
1/2-x,1/2-y,-z
1/2+x,1/2-y,z
loop_
_atom_site_type_symbol
_atom_site_label
_atom_site_fract_x
_atom_site_fract_y
_atom_site_fract_z
Si Si1 0.238742 0.178379 0.859543
Si Si2 0.967489 0.835922 0.130217
Si Si3 0.552790 0.806728 0.895839
Si Si4 0.054160 0.371302 0.407099
Si Si5 0.665969 0.748493 0.564751
Si Si6 0.421445 0.617977 0.557075
Si Si7 0.724829 0.070986 0.338892
O O1 0.148271 0.155344 0.901614
O O2 0.211774 0.238548 0.745633
O O3 0.272670 0.119532 0.785690
O O4 0.329045 0.198823 0.011556
O O5 0.994345 0.761982 0.163214
O O6 0.034295 0.880674 0.264820
O O7 0.000000 0.859580 0.000000
O O8 0.527539 0.850769 0.752870
O O9 0.500000 0.835073 0.000000
O O10 0.105164 0.312461 0.515837
O O11 0.131824 0.416777 0.381239
O O12 0.000000 0.408467 0.500000
O O13 0.750000 0.750000 0.500000
O O14 0.594245 0.689541 0.501919
O O15 0.500000 0.586110 0.500000
O O16 0.320893 0.578165 0.492952
O O17 0.718223 0.000000 0.276421
#
# Coordination Sequence:
#
# PCOD8113616 Si02
#       7
#     8   8   8   8   8   8   8
#     4  11  22  41  58  91 131 166 208 252 309 379
#     4  11  23  34  59  96 135 157 189 248 323 389
#     4  11  21  36  60  94 129 165 196 242 312 392
#     4  12  23  38  63  93 128 162 208 259 322 370
#     4  11  18  34  63  89 127 164 199 253 313 378
#     4  11  20  39  64  93 123 159 209 256 312 377
#     4  11  25  43  66  88 117 166 228 268 297 358
#
# _framework density 20.141860999999999
#
# number of rings (size 3 to 8) (size 9 to 14) (size 15 to 20)
#    0.000    0.857    8.571    1.714    2.000    1.714 
#    0.000    1.429    0.000    3.429    0.000    0.000 
#    0.000    0.000    0.000    0.000    0.000    0.000 
#
# Total GULP energy -347175.590313 kJ/mol
# GULP energy per Si atom -12399.128225 kJ/mol
# Density = 2.009602 g / cm^3
# Si number density = 20.141861 Si / 1000 Ang^3
#
#
#
# Elastic Constant Matrix: (Units=GPa)
#
#
# Indices 1 2 3 4 5 6 
#
# 1 119.8296 -7.8567 52.5399 0.0000 -12.0849 0.0000
# 2 -7.8567 53.7237 10.6856 0.0000 1.5158 0.0000
# 3 52.5399 10.6856 133.6556 0.0000 -0.7054 0.0000
# 4 0.0000 0.0000 0.0000 7.4166 0.0000 -1.4377
# 5 -12.0849 1.5158 -0.7054 0.0000 45.8992 0.0000
# 6 0.0000 0.0000 0.0000 -1.4377 0.0000 3.8615
#
#
#
# Elastic Compliance Matrix: (Units=1/GPa)
#
#
# Indices 1 2 3 4 5 6 
#
# 1 0.010687 0.002358 -0.004376 0.000000 0.002669 0.000000
# 2 0.002358 0.019454 -0.002483 0.000000 -0.000060 0.000000
# 3 -0.004376 -0.002483 0.009396 0.000000 -0.000926 0.000000
# 4 0.000000 0.000000 0.000000 0.145321 0.000000 0.054105
# 5 0.002669 -0.000060 -0.000926 0.000000 0.022477 0.000000
# 6 0.000000 0.000000 0.000000 0.054105 0.000000 0.279110
#
#
# Mechanical properties :
#
#
# Convention : Reuss Voigt Hill
#
# Bulk Modulus (GPa) = 32.74756 46.43849 39.59302
# Shear Modulus (GPa) = 9.88875 28.22480 19.05678
#
# Velocity S-wave (km/s) = 2.21815 3.74746 3.07926
# Velocity P-wave (km/s) = 4.78059 6.46764 5.68702
#
# Compressibility (1/GPa) = 0.03053663
#
# Stress axis : x y z
#
# Youngs Moduli (GPa) = 93.56748 51.40314 106.43302
#
# Poissons Ratio (x) = -0.12121 0.46572
# Poissons Ratio (y) = -0.22063 0.26423
# Poissons Ratio (z) = 0.40942 0.12761
#
# Static dielectric constant tensor:
#      x y z
#    x 5.057980 0.000000 0.054900 
#    y 0.000000 3.232070 0.000000 
#    z 0.054900 0.000000 3.852150 
# 
# 
# High freq. dielectric constant tensor:
#      x y z
#    x 1.810340 0.000000 -0.002950 
#    y 0.000000 1.728760 0.000000 
#    z -0.002950 0.000000 1.790760 
# 
# From -- ./inp_files/65460.got.cif
#   From: 2010.06.25/outbox.cif.g09.slc.cpg/sg12_33_cif.got.tgz:65460.got - 2010.06.28 00:19:55.
