data_PCOD8113992
_publ_section_title
;
Structure prediction by ZEFSAII (Michael W. Deem and Ramdas Pophale) SiO2 
 PCOD8113992
Probable space group: C 2/M
;
_chemical_formula_sum "Si O2"
_cell_formula_units_Z 44
_cell_length_a 8.430301
_cell_length_b 28.795984
_cell_length_c 8.694247
_cell_angle_alpha 90.000000
_cell_angle_beta 98.093279
_cell_angle_gamma 90.000000
_cell_volume 2089.583831
_symmetry_space_group_name_H-M "C 2/M"
_symmetry_group_IT_number 12
_symmetry_cell_setting 'monoclinic'
loop_
_space_group_symop_operation_xyz
x,y,z
-x,y,-z
-x,-y,-z
x,-y,z
1/2+x,1/2+y,z
1/2-x,1/2+y,-z
1/2-x,1/2-y,-z
1/2+x,1/2-y,z
loop_
_atom_site_type_symbol
_atom_site_label
_atom_site_fract_x
_atom_site_fract_y
_atom_site_fract_z
Si Si1 0.279903 0.376350 0.737788
Si Si2 0.964430 0.051917 0.175479
Si Si3 0.500000 0.847376 0.500000
Si Si4 0.517639 0.707543 0.177183
Si Si5 0.666574 0.895104 0.057443
Si Si6 0.668176 0.804852 0.246728
O O1 0.406094 0.417245 0.712606
O O2 0.355951 0.325542 0.718664
O O3 0.116886 0.380555 0.616744
O O4 0.250380 0.380231 0.913416
O O5 0.787130 0.073670 0.175427
O O6 0.968026 0.000000 0.245266
O O7 0.000000 0.050260 0.000000
O O8 0.614733 0.814348 0.414334
O O9 0.574575 0.760170 0.173824
O O10 0.356349 0.704078 0.254565
O O11 0.500000 0.689002 0.000000
O O12 0.614519 0.849146 0.141609
O O13 0.500000 0.922639 0.000000
#
# Coordination Sequence:
#
# PCOD8113992 Si02
#       6
#     8   8   4   8   8   8
#     4  11  22  41  64  92 130 170 211 263 323 381
#     4   9  19  39  68  99 125 158 211 275 330 375
#     4  12  28  42  59  92 136 176 213 264 318 382
#     4  12  23  40  68  93 125 169 222 269 316 375
#     4  11  20  39  66  96 125 163 214 267 316 380
#     4  12  25  40  62  96 128 172 219 261 316 377
#
# _framework density 21.056826999999998
#
# number of rings (size 3 to 8) (size 9 to 14) (size 15 to 20)
#    0.000    0.909    5.455    2.727    0.000    4.000 
#    0.000    0.455    0.000    2.182    0.000    0.000 
#    0.000    0.000    0.000    0.000    0.000    0.000 
#
# Total GULP energy -272767.326716 kJ/mol
# GULP energy per Si atom -12398.514851 kJ/mol
# Density = 2.100890 g / cm^3
# Si number density = 21.056827 Si / 1000 Ang^3
#
#
#
# Elastic Constant Matrix: (Units=GPa)
#
#
# Indices 1 2 3 4 5 6 
#
# 1 157.4068 57.7985 39.2146 0.0000 8.3158 0.0000
# 2 57.7985 138.4792 32.6288 0.0000 16.8603 0.0000
# 3 39.2146 32.6288 68.7780 0.0000 5.6398 0.0000
# 4 0.0000 0.0000 0.0000 9.5074 0.0000 7.6464
# 5 8.3158 16.8603 5.6398 0.0000 39.9892 0.0000
# 6 0.0000 0.0000 0.0000 7.6464 0.0000 28.1343
#
#
#
# Elastic Compliance Matrix: (Units=1/GPa)
#
#
# Indices 1 2 3 4 5 6 
#
# 1 0.008160 -0.002586 -0.003416 0.000000 -0.000125 0.000000
# 2 -0.002586 0.009301 -0.002692 0.000000 -0.003004 0.000000
# 3 -0.003416 -0.002692 0.017819 0.000000 -0.000668 0.000000
# 4 0.000000 0.000000 0.000000 0.134603 0.000000 -0.036583
# 5 -0.000125 -0.003004 -0.000668 0.000000 0.026393 0.000000
# 6 0.000000 0.000000 0.000000 -0.036583 0.000000 0.045486
#
#
# Mechanical properties :
#
#
# Convention : Reuss Voigt Hill
#
# Bulk Modulus (GPa) = 55.88698 69.32753 62.60725
# Shear Modulus (GPa) = 18.85990 31.19432 25.02711
#
# Velocity S-wave (km/s) = 2.99602 3.85312 3.45128
# Velocity P-wave (km/s) = 6.21022 7.26573 6.75861
#
# Compressibility (1/GPa) = 0.01789326
#
# Stress axis : x y z
#
# Youngs Moduli (GPa) = 122.54956 107.52098 56.12106
#
# Poissons Ratio (x) = 0.27803 0.19168
# Poissons Ratio (y) = 0.31689 0.15105
# Poissons Ratio (z) = 0.41857 0.28940
#
# Static dielectric constant tensor:
#      x y z
#    x 4.202610 0.000000 0.008560 
#    y 0.000000 3.854000 0.000000 
#    z 0.008560 0.000000 3.490290 
# 
# 
# High freq. dielectric constant tensor:
#      x y z
#    x 1.848150 0.000000 0.004400 
#    y 0.000000 1.807310 0.000000 
#    z 0.004400 0.000000 1.794090 
# 
# From -- ./inp_files/41725.got.cif
#   From: 2010.06.25/outbox.cif.g09.slc.cpg/sg12_21_cif.got.tgz:41725.got - 2010.06.28 00:19:55.
