data_PCOD8113165
_publ_section_title
;
Structure prediction by ZEFSAII (Michael W. Deem and Ramdas Pophale) SiO2 
 PCOD8113165
Probable space group: C 2/M
;
_chemical_formula_sum "Si O2"
_cell_formula_units_Z 56
_cell_length_a 32.455957
_cell_length_b 10.880015
_cell_length_c 9.666202
_cell_angle_alpha 90.000000
_cell_angle_beta 54.283161
_cell_angle_gamma 90.000000
_cell_volume 2771.333144
_symmetry_space_group_name_H-M "C 2/M"
_symmetry_group_IT_number 12
_symmetry_cell_setting 'monoclinic'
loop_
_space_group_symop_operation_xyz
x,y,z
-x,y,-z
-x,-y,-z
x,-y,z
1/2+x,1/2+y,z
1/2-x,1/2+y,-z
1/2-x,1/2-y,-z
1/2+x,1/2-y,z
loop_
_atom_site_type_symbol
_atom_site_label
_atom_site_fract_x
_atom_site_fract_y
_atom_site_fract_z
Si Si1 0.721945 0.355564 0.466271
Si Si2 0.223391 0.142347 0.140963
Si Si3 0.109520 0.139020 0.276351
Si Si4 0.453334 0.255027 0.376020
Si Si5 0.929284 0.755836 0.908841
Si Si6 0.606239 0.362716 0.744450
Si Si7 0.447654 0.000000 0.258850
Si Si8 0.432997 0.000000 0.985488
O O1 0.733226 0.500000 0.487520
O O2 0.750000 0.250000 0.500000
O O3 0.736781 0.339252 0.276053
O O4 0.663429 0.321598 0.603143
O O5 0.163869 0.163480 0.236152
O O6 0.237518 0.000000 0.068515
O O7 0.250000 0.250000 0.000000
O O8 0.066327 0.223658 0.430181
O O9 0.109349 0.170222 0.113121
O O10 0.092786 0.000000 0.330333
O O11 0.513093 0.277571 0.250279
O O12 0.425906 0.353905 0.332388
O O13 0.433962 0.120160 0.372750
O O14 0.922164 0.785443 0.083333
O O15 0.913991 0.613235 0.931050
O O16 0.605753 0.500000 0.800645
O O17 0.414251 0.000000 0.182477
O O18 0.506944 0.000000 0.114006
#
# Coordination Sequence:
#
# PCOD8113165 Si02
#       8
#     8   8   8   8   8   8   4   4
#     4  10  23  45  68  95 127 158 203 264 322 371
#     4  10  23  46  69  91 126 164 204 258 321 377
#     4  11  24  42  61  90 130 165 200 255 312 362
#     4  11  21  39  62  88 126 170 210 250 301 363
#     4  11  23  37  61  92 126 170 211 246 299 365
#     4  11  22  38  61  92 126 161 206 258 307 359
#     4   9  18  35  59  81 117 165 209 257 299 339
#     4   9  18  37  55  81 123 163 205 259 299 335
#
# _framework density 20.206880000000002
#
# number of rings (size 3 to 8) (size 9 to 14) (size 15 to 20)
#    0.000    1.571    2.857    1.714    2.000    4.571 
#    5.143    2.143    0.000    0.000    0.000    0.000 
#    0.000    0.000    0.000    0.000    0.000    0.000 
#
# Total GULP energy -347059.254278 kJ/mol
# GULP energy per Si atom -12394.973367 kJ/mol
# Density = 2.016089 g / cm^3
# Si number density = 20.206880 Si / 1000 Ang^3
#
#
#
# Elastic Constant Matrix: (Units=GPa)
#
#
# Indices 1 2 3 4 5 6 
#
# 1 75.4147 46.0752 18.3536 0.0000 17.0098 0.0000
# 2 46.0752 126.5119 52.9646 0.0000 -4.5291 0.0000
# 3 18.3536 52.9646 88.1186 0.0000 4.8813 0.0000
# 4 0.0000 0.0000 0.0000 51.1756 0.0000 21.4131
# 5 17.0098 -4.5291 4.8813 0.0000 22.6698 0.0000
# 6 0.0000 0.0000 0.0000 21.4131 0.0000 46.8204
#
#
#
# Elastic Compliance Matrix: (Units=1/GPa)
#
#
# Indices 1 2 3 4 5 6 
#
# 1 0.023533 -0.010306 0.002414 0.000000 -0.020236 0.000000
# 2 -0.010306 0.015360 -0.007777 0.000000 0.012476 0.000000
# 3 0.002414 -0.007777 0.015896 0.000000 -0.006788 0.000000
# 4 0.000000 0.000000 0.000000 0.024165 0.000000 -0.011052
# 5 -0.020236 0.012476 -0.006788 0.000000 0.063250 0.000000
# 6 0.000000 0.000000 0.000000 -0.011052 0.000000 0.026413
#
#
# Mechanical properties :
#
#
# Convention : Reuss Voigt Hill
#
# Bulk Modulus (GPa) = 42.64103 58.31466 50.47784
# Shear Modulus (GPa) = 24.06489 35.64330 29.85409
#
# Velocity S-wave (km/s) = 3.45472 4.20446 3.84789
# Velocity P-wave (km/s) = 6.08782 7.24510 6.69152
#
# Compressibility (1/GPa) = 0.02345159
#
# Stress axis : x y z
#
# Youngs Moduli (GPa) = 42.49303 65.10335 62.90883
#
# Poissons Ratio (x) = 0.67094 -0.15185
# Poissons Ratio (y) = 0.43792 0.48924
# Poissons Ratio (z) = -0.10257 0.50631
#
# Static dielectric constant tensor:
#      x y z
#    x 3.536590 0.000000 0.079060 
#    y 0.000000 4.039890 0.000000 
#    z 0.079060 0.000000 3.583850 
# 
# 
# High freq. dielectric constant tensor:
#      x y z
#    x 1.777400 0.000000 0.011940 
#    y 0.000000 1.802240 0.000000 
#    z 0.011940 0.000000 1.786510 
# 
# From -- ./inp_files/110370.got.cif
#   From: 2010.06.25/outbox.cif.g09.slc.cpg/sg12_56_cif.got.tgz:110370.got - 2010.06.28 00:19:55.
