data_PCOD8113104
_publ_section_title
;
Structure prediction by ZEFSAII (Michael W. Deem and Ramdas Pophale) SiO2 
 PCOD8113104
Probable space group: C 2/M
;
_chemical_formula_sum "Si O2"
_cell_formula_units_Z 40
_cell_length_a 12.892238
_cell_length_b 20.147404
_cell_length_c 12.140158
_cell_angle_alpha 90.000000
_cell_angle_beta 34.939244
_cell_angle_gamma 90.000000
_cell_volume 1805.945386
_symmetry_space_group_name_H-M "C 2/M"
_symmetry_group_IT_number 12
_symmetry_cell_setting 'monoclinic'
loop_
_space_group_symop_operation_xyz
x,y,z
-x,y,-z
-x,-y,-z
x,-y,z
1/2+x,1/2+y,z
1/2-x,1/2+y,-z
1/2-x,1/2-y,-z
1/2+x,1/2-y,z
loop_
_atom_site_type_symbol
_atom_site_label
_atom_site_fract_x
_atom_site_fract_y
_atom_site_fract_z
Si Si1 0.885146 0.925588 0.767801
Si Si2 0.187855 0.671297 0.790942
Si Si3 0.836679 0.424611 0.822976
Si Si4 0.233700 0.623348 0.513253
Si Si5 0.790807 0.314434 0.689682
O O1 0.847615 0.873615 0.702804
O O2 0.096688 0.924868 0.614730
O O3 0.837370 0.000000 0.769198
O O4 0.758741 0.905387 0.980143
O O5 0.197339 0.668969 0.650867
O O6 0.199704 0.748119 0.817671
O O7 0.000000 0.641641 0.000000
O O8 0.789908 0.500000 0.829374
O O9 0.754096 0.376301 0.802305
O O10 0.053768 0.418682 0.642978
O O11 0.285622 0.669678 0.364850
O O12 0.000000 0.297394 0.500000
#
# Coordination Sequence:
#
# PCOD8113104 Si02
#       5
#     8   8   8   8   8
#     4  11  25  43  68  98 130 170 215 267 322 383
#     4  12  25  43  67  95 131 173 216 269 321 380
#     4  10  23  44  67  99 133 168 214 264 321 385
#     4  11  23  43  68  99 127 171 212 271 316 388
#     4  10  24  43  67  97 132 170 214 265 321 385
#
# _framework density 22.149063000000002
#
# number of rings (size 3 to 8) (size 9 to 14) (size 15 to 20)
#    0.000    1.200    2.000    3.000    2.800    9.600 
#    0.000    2.000    0.000    0.000    0.000    0.000 
#    0.000    0.000    0.000    0.000    0.000    0.000 
#
# Total GULP energy -248086.964909 kJ/mol
# GULP energy per Si atom -12404.348245 kJ/mol
# Density = 2.209865 g / cm^3
# Si number density = 22.149063 Si / 1000 Ang^3
#
#
#
# Elastic Constant Matrix: (Units=GPa)
#
#
# Indices 1 2 3 4 5 6 
#
# 1 123.2701 67.2518 30.4635 0.0750 22.6841 0.1276
# 2 67.2518 148.6287 31.9438 0.0628 22.5429 -0.0497
# 3 30.4635 31.9438 73.2993 0.1566 3.9831 -0.1919
# 4 0.0750 0.0628 0.1566 37.8117 -0.0762 17.7243
# 5 22.6841 22.5429 3.9831 -0.0762 32.0608 -0.1309
# 6 0.1276 -0.0497 -0.1919 17.7243 -0.1309 50.2012
#
#
#
# Elastic Compliance Matrix: (Units=1/GPa)
#
#
# Indices 1 2 3 4 5 6 
#
# 1 0.011997 -0.003986 -0.002960 0.000015 -0.005318 -0.000065
# 2 -0.003986 0.009581 -0.002322 -0.000008 -0.003628 0.000004
# 3 -0.002960 -0.002322 0.015789 -0.000102 0.001766 0.000106
# 4 0.000015 -0.000008 -0.000102 0.031693 0.000037 -0.011190
# 5 -0.005318 -0.003628 0.001766 0.000037 0.037286 0.000101
# 6 -0.000065 0.000004 0.000106 -0.011190 0.000101 0.023871
#
#
# Mechanical properties :
#
#
# Convention : Reuss Voigt Hill
#
# Bulk Modulus (GPa) = 53.10102 67.16850 60.13476
# Shear Modulus (GPa) = 32.25188 38.38399 35.31793
#
# Velocity S-wave (km/s) = 3.82006 4.16743 3.99752
# Velocity P-wave (km/s) = 6.59421 7.31766 6.96533
#
# Compressibility (1/GPa) = 0.01883203
#
# Stress axis : x y z
#
# Youngs Moduli (GPa) = 83.35445 104.37465 63.33373
#
# Poissons Ratio (x) = 0.41599 0.18749
# Poissons Ratio (y) = 0.33221 0.14705
# Poissons Ratio (z) = 0.24675 0.24233
#
# Static dielectric constant tensor:
#      x y z
#    x 3.953180 -0.000010 0.041800 
#    y -0.000010 3.772420 0.000070 
#    z 0.041800 0.000070 4.023220 
# 
# 
# High freq. dielectric constant tensor:
#      x y z
#    x 1.867890 -0.000010 0.001660 
#    y -0.000010 1.868110 0.000010 
#    z 0.001660 0.000010 1.884750 
# 
# From -- ./inp_files/133633.got.cif
#   From: 2010.06.25/outbox.cif.g09.slc.cpg/sg12_67_cif.got.tgz:133633.got - 2010.06.28 00:19:55.
