data_PCOD8113185
_publ_section_title
;
Structure prediction by ZEFSAII (Michael W. Deem and Ramdas Pophale) SiO2 
 PCOD8113185
Probable space group: C 2/M
;
_chemical_formula_sum "Si O2"
_cell_formula_units_Z 32
_cell_length_a 11.516910
_cell_length_b 15.940561
_cell_length_c 14.548687
_cell_angle_alpha 90.000000
_cell_angle_beta 30.017291
_cell_angle_gamma 90.000000
_cell_volume 1336.165669
_symmetry_space_group_name_H-M "C 2/M"
_symmetry_group_IT_number 12
_symmetry_cell_setting 'monoclinic'
loop_
_space_group_symop_operation_xyz
x,y,z
-x,y,-z
-x,-y,-z
x,-y,z
1/2+x,1/2+y,z
1/2-x,1/2+y,-z
1/2-x,1/2-y,-z
1/2+x,1/2-y,z
loop_
_atom_site_type_symbol
_atom_site_label
_atom_site_fract_x
_atom_site_fract_y
_atom_site_fract_z
Si Si1 0.422382 0.904924 0.845540
Si Si2 0.528542 0.153128 0.577519
Si Si3 0.294956 0.190256 0.204321
Si Si4 0.019582 0.904681 0.253406
O O1 0.410944 0.893227 0.743912
O O2 0.608590 0.841703 0.763628
O O3 0.495183 0.000000 0.819291
O O4 0.164620 0.886812 0.061003
O O5 0.500000 0.102401 0.500000
O O6 0.405415 0.241975 0.644321
O O7 0.805595 0.160455 0.404207
O O8 0.186600 0.110447 0.225735
O O9 0.500000 0.228066 0.000000
O O10 0.926377 0.000000 0.321709
#
# Coordination Sequence:
#
# PCOD8113185 Si02
#       4
#     8   8   8   8
#     4  10  24  47  72  98 132 175 224 280 334 388
#     4  12  28  41  66 101 140 180 221 269 331 403
#     4  10  24  43  73 102 133 171 225 281 336 391
#     4  10  23  45  71  99 133 174 225 278 332 396
#
# _framework density 23.949127000000001
#
# number of rings (size 3 to 8) (size 9 to 14) (size 15 to 20)
#    0.000    1.500    0.000    2.250   10.500    7.000 
#    0.000    5.000    0.000    0.000    0.000    0.000 
#    0.000    0.000    0.000    0.000    0.000    0.000 
#
# Total GULP energy -198367.730785 kJ/mol
# GULP energy per Si atom -12397.983174 kJ/mol
# Density = 2.389462 g / cm^3
# Si number density = 23.949127 Si / 1000 Ang^3
#
#
#
# Elastic Constant Matrix: (Units=GPa)
#
#
# Indices 1 2 3 4 5 6 
#
# 1 89.8572 36.4400 53.3864 -0.0604 19.9280 -0.1094
# 2 36.4400 107.8756 68.2180 0.0341 -10.7041 0.1158
# 3 53.3864 68.2180 153.6471 0.0372 4.6604 0.1350
# 4 -0.0604 0.0341 0.0372 25.8221 -0.0125 -5.6819
# 5 19.9280 -10.7041 4.6604 -0.0125 47.2846 -0.0356
# 6 -0.1094 0.1158 0.1350 -5.6819 -0.0356 15.1587
#
#
#
# Elastic Compliance Matrix: (Units=1/GPa)
#
#
# Indices 1 2 3 4 5 6 
#
# 1 0.016675 -0.003981 -0.003797 0.000090 -0.007555 0.000201
# 2 -0.003981 0.014441 -0.005194 -0.000039 0.005459 -0.000095
# 3 -0.003797 -0.005194 0.010151 -0.000037 -0.000576 -0.000094
# 4 0.000090 -0.000039 -0.000037 0.042208 -0.000020 0.015822
# 5 -0.007555 0.005459 -0.000576 -0.000020 0.025625 -0.000038
# 6 0.000201 -0.000095 -0.000094 0.015822 -0.000038 0.071902
#
#
# Mechanical properties :
#
#
# Convention : Reuss Voigt Hill
#
# Bulk Modulus (GPa) = 65.26294 74.16320 69.71307
# Shear Modulus (GPa) = 23.57874 30.54210 27.06042
#
# Velocity S-wave (km/s) = 3.14113 3.57500 3.36506
# Velocity P-wave (km/s) = 6.36125 6.93361 6.65359
#
# Compressibility (1/GPa) = 0.01532263
#
# Stress axis : x y z
#
# Youngs Moduli (GPa) = 59.96958 69.24718 98.50827
#
# Poissons Ratio (x) = 0.27569 0.37407
# Poissons Ratio (y) = 0.23876 0.51164
# Poissons Ratio (z) = 0.22773 0.35966
#
# Static dielectric constant tensor:
#      x y z
#    x 4.417230 0.000030 0.188780 
#    y 0.000030 3.930860 0.000210 
#    z 0.188780 0.000210 4.550970 
# 
# 
# High freq. dielectric constant tensor:
#      x y z
#    x 1.951660 0.000000 0.009480 
#    y 0.000000 1.927970 0.000020 
#    z 0.009480 0.000020 1.969660 
# 
# From -- ./inp_files/46016.got.cif
#   From: 2010.06.25/outbox.cif.g09.slc.cpg/sg12_24_cif.got.tgz:46016.got - 2010.06.28 00:19:55.
