data_PCOD8113516
_publ_section_title
;
Structure prediction by ZEFSAII (Michael W. Deem and Ramdas Pophale) SiO2 
 PCOD8113516
Probable space group: C 2/M
;
_chemical_formula_sum "Si O2"
_cell_formula_units_Z 52
_cell_length_a 11.668730
_cell_length_b 23.029654
_cell_length_c 11.527042
_cell_angle_alpha 90.000000
_cell_angle_beta 129.567202
_cell_angle_gamma 90.000000
_cell_volume 2387.891176
_symmetry_space_group_name_H-M "C 2/M"
_symmetry_group_IT_number 12
_symmetry_cell_setting 'monoclinic'
loop_
_space_group_symop_operation_xyz
x,y,z
-x,y,-z
-x,-y,-z
x,-y,z
1/2+x,1/2+y,z
1/2-x,1/2+y,-z
1/2-x,1/2-y,-z
1/2+x,1/2-y,z
loop_
_atom_site_type_symbol
_atom_site_label
_atom_site_fract_x
_atom_site_fract_y
_atom_site_fract_z
Si Si1 0.358867 0.000000 0.203865
Si Si2 0.413778 0.688788 0.834596
Si Si3 0.160376 0.500000 0.250192
Si Si4 0.677705 0.500000 0.865547
Si Si5 0.130066 0.324846 0.172572
Si Si6 0.563034 0.625491 0.725435
Si Si7 0.257396 0.394483 0.440245
Si Si8 0.841043 0.394489 0.370947
O O1 0.501781 0.000000 0.211396
O O2 0.353771 0.055335 0.283767
O O3 0.218495 0.000000 0.027979
O O4 0.384761 0.756858 0.821188
O O5 0.516436 0.669725 0.795863
O O6 0.254541 0.658580 0.735832
O O7 0.500000 0.665667 0.000000
O O8 0.169390 0.500000 0.114745
O O9 0.260271 0.446198 0.351130
O O10 0.582592 0.558623 0.781026
O O11 0.287470 0.346196 0.225795
O O12 0.129979 0.350692 0.304667
O O13 0.000000 0.347741 0.000000
O O14 0.425548 0.629879 0.546090
O O15 0.221389 0.417700 0.546159
O O16 0.000000 0.367321 0.500000
#
# Coordination Sequence:
#
# PCOD8113516 Si02
#       8
#     4   8   4   4   8   8   8   8
#     4  12  25  43  67 107 150 170 233 288 347 419
#     4  10  25  46  68 100 138 188 237 282 347 419
#     4  12  23  40  69 100 142 177 229 281 347 417
#     4  12  26  40  71 106 136 192 221 289 349 415
#     4  11  26  44  69 101 139 182 233 298 344 406
#     4  11  25  45  69 103 140 184 230 286 355 405
#     4  11  24  42  69 100 139 178 235 280 345 418
#     4  11  23  42  69  99 137 189 220 288 345 403
#
# _framework density 21.776536
#
# number of rings (size 3 to 8) (size 9 to 14) (size 15 to 20)
#    0.000    0.923    3.077    2.769    2.154   11.077 
#    0.000    3.846    0.000    0.000    0.000    0.000 
#    0.000    0.000    0.000    0.000    0.000    0.000 
#
# Total GULP energy -322106.008750 kJ/mol
# GULP energy per Si atom -12388.692644 kJ/mol
# Density = 2.172697 g / cm^3
# Si number density = 21.776536 Si / 1000 Ang^3
#
#
#
# Elastic Constant Matrix: (Units=GPa)
#
#
# Indices 1 2 3 4 5 6 
#
# 1 102.7933 36.8593 48.0093 0.0000 3.1066 0.0000
# 2 36.8593 106.3216 48.9898 0.0000 -6.0324 0.0000
# 3 48.0093 48.9898 155.1187 0.0000 -7.9318 0.0000
# 4 0.0000 0.0000 0.0000 375.6328 0.0000 108.7344
# 5 3.1066 -6.0324 -7.9318 0.0000 25.0107 0.0000
# 6 0.0000 0.0000 0.0000 108.7344 0.0000 64.4523
#
#
#
# Elastic Compliance Matrix: (Units=1/GPa)
#
#
# Indices 1 2 3 4 5 6 
#
# 1 0.012334 -0.003071 -0.003013 0.000000 -0.003228 0.000000
# 2 -0.003071 0.011833 -0.002665 0.000000 0.002391 0.000000
# 3 -0.003013 -0.002665 0.008342 0.000000 0.002377 0.000000
# 4 0.000000 0.000000 0.000000 0.005203 0.000000 -0.008778
# 5 -0.003228 0.002391 0.002377 0.000000 0.041714 0.000000
# 6 0.000000 0.000000 0.000000 -0.008778 0.000000 0.030324
#
#
# Mechanical properties :
#
#
# Convention : Reuss Voigt Hill
#
# Bulk Modulus (GPa) = 66.60711 70.21671 68.41191
# Shear Modulus (GPa) = 37.80666 108.37751 73.09208
#
# Velocity S-wave (km/s) = 4.17120 7.06230 5.79978
# Velocity P-wave (km/s) = 7.33836 9.94060 8.73691
#
# Compressibility (1/GPa) = 0.01501341
#
# Stress axis : x y z
#
# Youngs Moduli (GPa) = 81.07664 84.50625 119.87340
#
# Poissons Ratio (x) = 0.25952 0.36113
# Poissons Ratio (y) = 0.24898 0.31941
# Poissons Ratio (z) = 0.24425 0.22517
#
# Static dielectric constant tensor:
#      x y z
#    x 3.962730 0.000000 -0.050050 
#    y 0.000000 4.017370 0.000000 
#    z -0.050050 0.000000 4.596840 
# 
# 
# High freq. dielectric constant tensor:
#      x y z
#    x 1.861030 0.000000 -0.005690 
#    y 0.000000 1.852090 0.000000 
#    z -0.005690 0.000000 1.881670 
# 
# From -- ./inp_files/136051.got.cif
#   From: 2010.06.25/outbox.cif.g09.slc.cpg/sg12_69_cif.got.tgz:136051.got - 2010.06.28 00:19:55.
