data_PCOD8113695
_publ_section_title
;
Structure prediction by ZEFSAII (Michael W. Deem and Ramdas Pophale) SiO2 
 PCOD8113695
Probable space group: C 2/M
;
_chemical_formula_sum "Si O2"
_cell_formula_units_Z 64
_cell_length_a 17.040302
_cell_length_b 21.195863
_cell_length_c 11.428358
_cell_angle_alpha 90.000000
_cell_angle_beta 123.929138
_cell_angle_gamma 90.000000
_cell_volume 3424.902821
_symmetry_space_group_name_H-M "C 2/M"
_symmetry_group_IT_number 12
_symmetry_cell_setting 'monoclinic'
loop_
_space_group_symop_operation_xyz
x,y,z
-x,y,-z
-x,-y,-z
x,-y,z
1/2+x,1/2+y,z
1/2-x,1/2+y,-z
1/2-x,1/2-y,-z
1/2+x,1/2-y,z
loop_
_atom_site_type_symbol
_atom_site_label
_atom_site_fract_x
_atom_site_fract_y
_atom_site_fract_z
Si Si1 0.099979 0.737445 0.599222
Si Si2 0.110646 0.331546 0.088585
Si Si3 0.611300 0.648530 0.442751
Si Si4 0.422968 0.427735 0.231235
Si Si5 0.305222 0.705187 0.721429
Si Si6 0.640234 0.241633 0.902573
Si Si7 0.233771 0.074124 0.709323
Si Si8 0.907216 0.140661 0.995981
O O1 0.087849 0.805888 0.531065
O O2 0.191537 0.706428 0.615069
O O3 0.109225 0.741366 0.744727
O O4 0.000000 0.699916 0.500000
O O5 0.148651 0.270676 0.193756
O O6 0.166670 0.392415 0.180833
O O7 0.124951 0.322869 0.961078
O O8 0.000000 0.343929 0.000000
O O9 0.516762 0.612414 0.329374
O O10 0.650747 0.688507 0.366600
O O11 0.691021 0.598719 0.550940
O O12 0.450402 0.500000 0.272900
O O13 0.340263 0.407845 0.250469
O O14 0.385726 0.416486 0.067438
O O15 0.323657 0.650204 0.832368
O O16 0.579618 0.296334 0.915327
O O17 0.750000 0.250000 0.000000
O O18 0.252905 0.000000 0.716804
O O19 0.000000 0.125906 0.000000
#
# Coordination Sequence:
#
# PCOD8113695 Si02
#       8
#     8   8   8   8   8   8   8   8
#     4  12  24  33  58  90 123 161 196 238 304 370
#     4  11  24  39  62  86 120 158 199 252 302 355
#     4  12  22  39  59  86 128 160 190 246 303 366
#     4  11  24  40  62  90 120 162 207 245 296 356
#     4  11  23  38  56  92 125 158 195 243 312 364
#     4  11  19  36  58  84 119 156 196 243 305 349
#     4  11  24  42  62  87 118 160 208 252 292 350
#     4  11  20  36  57  83 118 159 197 248 294 352
#
# _framework density 18.686661999999998
#
# number of rings (size 3 to 8) (size 9 to 14) (size 15 to 20)
#    0.000    0.750    5.000    5.625    1.750    1.500 
#    0.000    0.000    0.000    0.000    0.000    0.000 
#    0.000    4.000    0.000    0.000    0.000    0.000 
#
# Total GULP energy -396603.251286 kJ/mol
# GULP energy per Si atom -12393.851603 kJ/mol
# Density = 1.864413 g / cm^3
# Si number density = 18.686662 Si / 1000 Ang^3
#
#
#
# Elastic Constant Matrix: (Units=GPa)
#
#
# Indices 1 2 3 4 5 6 
#
# 1 110.9741 48.5850 64.5944 0.0000 14.5339 0.0000
# 2 48.5850 69.5704 48.2263 0.0000 1.9976 0.0000
# 3 64.5944 48.2263 132.2387 0.0000 2.7444 0.0000
# 4 0.0000 0.0000 0.0000 19.2600 0.0000 1.1837
# 5 14.5339 1.9976 2.7444 0.0000 48.1364 0.0000
# 6 0.0000 0.0000 0.0000 1.1837 0.0000 22.5649
#
#
#
# Elastic Compliance Matrix: (Units=1/GPa)
#
#
# Indices 1 2 3 4 5 6 
#
# 1 0.015623 -0.007443 -0.004831 0.000000 -0.004133 0.000000
# 2 -0.007443 0.022790 -0.004709 0.000000 0.001570 0.000000
# 3 -0.004831 -0.004709 0.011619 0.000000 0.000992 0.000000
# 4 0.000000 0.000000 0.000000 0.052089 0.000000 -0.002732
# 5 -0.004133 0.001570 0.000992 0.000000 0.021900 0.000000
# 6 0.000000 0.000000 0.000000 -0.002732 0.000000 0.044460
#
#
# Mechanical properties :
#
#
# Convention : Reuss Voigt Hill
#
# Bulk Modulus (GPa) = 62.23934 70.62162 66.43048
# Shear Modulus (GPa) = 24.06137 28.08410 26.07274
#
# Velocity S-wave (km/s) = 3.59224 3.88093 3.73937
# Velocity P-wave (km/s) = 7.11229 7.61293 7.36686
#
# Compressibility (1/GPa) = 0.01606701
#
# Stress axis : x y z
#
# Youngs Moduli (GPa) = 64.00846 43.87799 86.06900
#
# Poissons Ratio (x) = 0.32657 0.41582
# Poissons Ratio (y) = 0.47639 0.40526
# Poissons Ratio (z) = 0.30924 0.20660
#
# Static dielectric constant tensor:
#      x y z
#    x 3.652180 0.000000 -0.075340 
#    y 0.000000 3.283110 0.000000 
#    z -0.075340 0.000000 3.806520 
# 
# 
# High freq. dielectric constant tensor:
#      x y z
#    x 1.738200 0.000000 -0.004940 
#    y 0.000000 1.685410 0.000000 
#    z -0.004940 0.000000 1.743030 
# 
# From -- ./inp_files/159569.got.cif
#   From: 2010.06.25/outbox.cif.g09.slc.cpg/sg12_80_cif.got.tgz:159569.got - 2010.06.28 00:19:55.
