data_PCOD8113389
_publ_section_title
;
Structure prediction by ZEFSAII (Michael W. Deem and Ramdas Pophale) SiO2 
 PCOD8113389
Probable space group: C 2/M
;
_chemical_formula_sum "Si O2"
_cell_formula_units_Z 48
_cell_length_a 21.686454
_cell_length_b 15.896318
_cell_length_c 17.975206
_cell_angle_alpha 90.000000
_cell_angle_beta 159.096124
_cell_angle_gamma 90.000000
_cell_volume 2210.982299
_symmetry_space_group_name_H-M "C 2/M"
_symmetry_group_IT_number 12
_symmetry_cell_setting 'monoclinic'
loop_
_space_group_symop_operation_xyz
x,y,z
-x,y,-z
-x,-y,-z
x,-y,z
1/2+x,1/2+y,z
1/2-x,1/2+y,-z
1/2-x,1/2-y,-z
1/2+x,1/2-y,z
loop_
_atom_site_type_symbol
_atom_site_label
_atom_site_fract_x
_atom_site_fract_y
_atom_site_fract_z
Si Si1 0.811926 0.094484 0.253836
Si Si2 0.629908 0.848143 0.442523
Si Si3 0.252370 0.405236 0.018386
Si Si4 0.317495 0.093275 0.330925
Si Si5 0.454576 0.689009 0.731795
Si Si6 0.107994 0.244793 0.049736
O O1 0.819879 0.118234 0.176145
O O2 0.701112 0.166123 0.169323
O O3 0.000000 0.097656 0.500000
O O4 0.732931 0.000000 0.175802
O O5 0.671859 0.870342 0.574032
O O6 0.607000 0.747467 0.406162
O O7 0.796588 0.873727 0.578147
O O8 0.453162 0.892579 0.218537
O O9 0.294996 0.500000 0.046774
O O10 0.365091 0.353799 0.086482
O O11 0.500000 0.079582 0.500000
O O12 0.227285 0.161873 0.176403
O O13 0.226866 0.000000 0.230107
O O14 0.493534 0.749619 0.846371
O O15 0.000000 0.224625 0.000000
#
# Coordination Sequence:
#
# PCOD8113389 Si02
#       6
#     8   8   8   8   8   8
#     4  10  24  44  67  98 132 173 229 284 340 404
#     4  11  23  44  67  96 137 175 225 282 334 403
#     4  11  24  42  67  98 134 178 223 280 349 406
#     4  11  25  42  66  99 133 178 227 275 338 408
#     4  11  25  42  67 102 130 178 230 276 338 415
#     4  12  24  43  68  98 133 179 221 276 343 404
#
# _framework density 21.709807000000001
#
# number of rings (size 3 to 8) (size 9 to 14) (size 15 to 20)
#    0.000    1.000    3.333    2.500    4.667    4.000 
#    0.000    0.000    0.000    0.000    0.000    0.000 
#    0.000    0.000    0.000    0.000    0.000    0.000 
#
# Total GULP energy -297445.829880 kJ/mol
# GULP energy per Si atom -12393.576245 kJ/mol
# Density = 2.166039 g / cm^3
# Si number density = 21.709807 Si / 1000 Ang^3
#
#
#
# Elastic Constant Matrix: (Units=GPa)
#
#
# Indices 1 2 3 4 5 6 
#
# 1 69.3394 31.4554 21.6110 -0.0120 2.3961 0.0205
# 2 31.4554 105.8842 23.7285 0.0104 2.4572 -0.0508
# 3 21.6110 23.7285 93.9476 0.0030 4.3773 -0.0562
# 4 -0.0120 0.0104 0.0030 22.0931 0.0014 -2.5042
# 5 2.3961 2.4572 4.3773 0.0014 35.5636 -0.0196
# 6 0.0205 -0.0508 -0.0562 -2.5042 -0.0196 228.1160
#
#
#
# Elastic Compliance Matrix: (Units=1/GPa)
#
#
# Indices 1 2 3 4 5 6 
#
# 1 0.017370 -0.004514 -0.002832 0.000012 -0.000510 -0.000003
# 2 -0.004514 0.011189 -0.001776 -0.000007 -0.000250 0.000002
# 3 -0.002832 -0.001776 0.011797 -0.000002 -0.001139 0.000003
# 4 0.000012 -0.000007 -0.000002 0.045319 -0.000002 0.000498
# 5 -0.000510 -0.000250 -0.001139 -0.000002 0.028310 0.000002
# 6 -0.000003 0.000002 0.000003 0.000498 0.000002 0.004389
#
#
# Mechanical properties :
#
#
# Convention : Reuss Voigt Hill
#
# Bulk Modulus (GPa) = 45.22253 46.97343 46.09798
# Shear Modulus (GPa) = 34.72492 69.97963 52.35227
#
# Velocity S-wave (km/s) = 4.00372 5.68367 4.91599
# Velocity P-wave (km/s) = 6.49990 8.04711 7.31453
#
# Compressibility (1/GPa) = 0.02211287
#
# Stress axis : x y z
#
# Youngs Moduli (GPa) = 57.57184 89.37363 84.76531
#
# Poissons Ratio (x) = 0.40340 0.24004
# Poissons Ratio (y) = 0.25986 0.15055
# Poissons Ratio (z) = 0.16303 0.15873
#
# Static dielectric constant tensor:
#      x y z
#    x 4.018320 0.000010 -0.068590 
#    y 0.000010 4.162540 -0.000040 
#    z -0.068590 -0.000040 4.166210 
# 
# 
# High freq. dielectric constant tensor:
#      x y z
#    x 1.856330 0.000000 -0.003880 
#    y 0.000000 1.851180 0.000000 
#    z -0.003880 0.000000 1.861300 
# 
# From -- ./inp_files/104955.got.cif
#   From: 2010.06.25/outbox.cif.g09.slc.cpg/sg12_53_cif.got.tgz:104955.got - 2010.06.28 00:19:55.
