data_PCOD8113036
_publ_section_title
;
Structure prediction by ZEFSAII (Michael W. Deem and Ramdas Pophale) SiO2 
 PCOD8113036
Probable space group: C 2/M
;
_chemical_formula_sum "Si O2"
_cell_formula_units_Z 40
_cell_length_a 23.860815
_cell_length_b 8.744732
_cell_length_c 13.327398
_cell_angle_alpha 90.000000
_cell_angle_beta 136.331120
_cell_angle_gamma 90.000000
_cell_volume 1920.146244
_symmetry_space_group_name_H-M "C 2/M"
_symmetry_group_IT_number 12
_symmetry_cell_setting 'monoclinic'
loop_
_space_group_symop_operation_xyz
x,y,z
-x,y,-z
-x,-y,-z
x,-y,z
1/2+x,1/2+y,z
1/2-x,1/2+y,-z
1/2-x,1/2-y,-z
1/2+x,1/2-y,z
loop_
_atom_site_type_symbol
_atom_site_label
_atom_site_fract_x
_atom_site_fract_y
_atom_site_fract_z
Si Si1 0.877903 0.179060 0.919404
Si Si2 0.729365 0.179840 0.867236
Si Si3 0.336238 0.319372 0.640315
Si Si4 0.995089 0.680296 0.775033
Si Si5 0.066420 0.174246 0.670701
O O1 0.798567 0.225251 0.878831
O O2 0.860886 0.230648 0.784199
O O3 0.897261 0.000000 0.952130
O O4 0.956019 0.267560 0.062707
O O5 0.645932 0.254846 0.722003
O O6 0.718550 0.000000 0.862316
O O7 0.750000 0.250000 0.000000
O O8 0.330535 0.500000 0.621514
O O9 0.250000 0.250000 0.500000
O O10 0.405788 0.255470 0.656765
O O11 0.985183 0.500000 0.762433
O O12 0.043563 0.731022 0.739421
O O13 0.000000 0.186092 0.500000
O O14 0.082056 0.000000 0.724934
#
# Coordination Sequence:
#
# PCOD8113036 Si02
#       5
#     8   8   8   8   8
#     4  10  23  43  67  93 128 170 212 260 316 376
#     4  11  22  39  65  97 130 166 209 258 313 378
#     4  11  25  45  67  95 129 168 212 265 321 376
#     4  12  25  42  67  96 127 168 215 263 317 379
#     4  11  25  43  64  94 131 171 212 261 318 377
#
# _framework density 20.831745999999999
#
# number of rings (size 3 to 8) (size 9 to 14) (size 15 to 20)
#    0.000    1.000    2.000    4.200    2.800    6.400 
#    0.000    0.000    0.000    0.000    0.000    0.000 
#    0.000    0.000    0.000    0.000    0.000    0.000 
#
# Total GULP energy -248132.223354 kJ/mol
# GULP energy per Si atom -12406.611168 kJ/mol
# Density = 2.078433 g / cm^3
# Si number density = 20.831746 Si / 1000 Ang^3
#
#
#
# Elastic Constant Matrix: (Units=GPa)
#
#
# Indices 1 2 3 4 5 6 
#
# 1 76.2049 31.1245 33.7637 0.0000 18.1554 0.0000
# 2 31.1245 106.0191 54.9749 0.0000 11.6868 0.0000
# 3 33.7637 54.9749 107.1842 0.0000 24.1969 0.0000
# 4 0.0000 0.0000 0.0000 37.5210 0.0000 7.9890
# 5 18.1554 11.6868 24.1969 0.0000 43.8476 0.0000
# 6 0.0000 0.0000 0.0000 7.9890 0.0000 32.3485
#
#
#
# Elastic Compliance Matrix: (Units=1/GPa)
#
#
# Indices 1 2 3 4 5 6 
#
# 1 0.016623 -0.002992 -0.002659 0.000000 -0.004618 0.000000
# 2 -0.002992 0.013391 -0.006168 0.000000 0.001074 0.000000
# 3 -0.002659 -0.006168 0.014520 0.000000 -0.005268 0.000000
# 4 0.000000 0.000000 0.000000 0.028131 0.000000 -0.006947
# 5 -0.004618 0.001074 -0.005268 0.000000 0.027339 0.000000
# 6 0.000000 0.000000 0.000000 -0.006947 0.000000 0.032629
#
#
# Mechanical properties :
#
#
# Convention : Reuss Voigt Hill
#
# Bulk Modulus (GPa) = 47.85760 58.79271 53.32516
# Shear Modulus (GPa) = 30.63041 34.04644 32.33843
#
# Velocity S-wave (km/s) = 3.83870 4.04710 3.94428
# Velocity P-wave (km/s) = 6.53229 7.07973 6.81151
#
# Compressibility (1/GPa) = 0.02089532
#
# Stress axis : x y z
#
# Youngs Moduli (GPa) = 60.15764 74.67910 68.86999
#
# Poissons Ratio (x) = 0.22345 0.18314
# Poissons Ratio (y) = 0.18000 0.42478
# Poissons Ratio (z) = 0.15997 0.46061
#
# Static dielectric constant tensor:
#      x y z
#    x 3.431630 0.000000 -0.069570 
#    y 0.000000 3.892210 0.000000 
#    z -0.069570 0.000000 3.835940 
# 
# 
# High freq. dielectric constant tensor:
#      x y z
#    x 1.827750 0.000000 0.011170 
#    y 0.000000 1.822070 0.000000 
#    z 0.011170 0.000000 1.827040 
# 
# From -- ./inp_files/221217.got.cif
#   From: 2010.06.25/outbox.cif.g09.slc.cpg/sg12_111_cif.got.tgz:221217.got - 2010.06.28 00:19:55.
