data_PCOD8113593
_publ_section_title
;
Structure prediction by ZEFSAII (Michael W. Deem and Ramdas Pophale) SiO2 
 PCOD8113593
Probable space group: C 2/M
;
_chemical_formula_sum "Si O2"
_cell_formula_units_Z 48
_cell_length_a 9.796007
_cell_length_b 27.549753
_cell_length_c 10.086272
_cell_angle_alpha 90.000000
_cell_angle_beta 75.758310
_cell_angle_gamma 90.000000
_cell_volume 2638.400496
_symmetry_space_group_name_H-M "C 2/M"
_symmetry_group_IT_number 12
_symmetry_cell_setting 'monoclinic'
loop_
_space_group_symop_operation_xyz
x,y,z
-x,y,-z
-x,-y,-z
x,-y,z
1/2+x,1/2+y,z
1/2-x,1/2+y,-z
1/2-x,1/2-y,-z
1/2+x,1/2-y,z
loop_
_atom_site_type_symbol
_atom_site_label
_atom_site_fract_x
_atom_site_fract_y
_atom_site_fract_z
Si Si1 0.854281 0.238502 0.095354
Si Si2 0.263251 0.000000 0.077987
Si Si3 0.439127 0.899756 0.658580
Si Si4 0.840693 0.863784 0.186110
Si Si5 0.351696 0.603725 0.884514
Si Si6 0.973963 0.500000 0.790982
Si Si7 0.590936 0.843601 0.846964
O O1 0.806750 0.194159 0.201012
O O2 0.877192 0.286559 0.176898
O O3 0.750000 0.250000 0.000000
O O4 0.000000 0.219434 0.000000
O O5 0.160472 0.954284 0.119490
O O6 0.384034 0.000000 0.158766
O O7 0.336280 0.000000 0.916553
O O8 0.500000 0.890727 0.500000
O O9 0.270907 0.891532 0.694783
O O10 0.474952 0.953534 0.697196
O O11 0.503903 0.859863 0.741033
O O12 0.995061 0.878861 0.201201
O O13 0.819187 0.879366 0.040067
O O14 0.236697 0.627227 0.815352
O O15 0.500000 0.854700 0.000000
#
# Coordination Sequence:
#
# PCOD8113593 Si02
#       7
#     8   4   8   8   8   4   8
#     4  11  18  31  58  91 119 146 190 246 295 339
#     4  11  20  34  64  95 110 145 194 251 294 348
#     4  12  25  41  59  85 120 160 200 238 286 356
#     4  11  21  36  55  91 123 147 188 245 296 341
#     4  11  20  34  59  88 122 144 188 245 301 337
#     4  11  21  37  63  86 115 150 200 240 289 348
#     4  11  19  36  62  90 115 156 197 243 291 345
#
# _framework density 18.192841000000001
#
# number of rings (size 3 to 8) (size 9 to 14) (size 15 to 20)
#    0.000    0.833    8.333    1.250    0.000    2.000 
#    0.000    1.667    0.000    1.000    0.000    0.000 
#    0.000    0.000    0.000    0.000    0.000    0.000 
#
# Total GULP energy -297665.552372 kJ/mol
# GULP energy per Si atom -12402.731349 kJ/mol
# Density = 1.815143 g / cm^3
# Si number density = 18.192841 Si / 1000 Ang^3
#
#
#
# Elastic Constant Matrix: (Units=GPa)
#
#
# Indices 1 2 3 4 5 6 
#
# 1 119.6248 37.0693 38.3135 0.0000 -5.6945 0.0000
# 2 37.0693 150.1298 34.6293 0.0000 2.2875 0.0000
# 3 38.3135 34.6293 86.3797 0.0000 -9.4827 0.0000
# 4 0.0000 0.0000 0.0000 3.9127 0.0000 4.9355
# 5 -5.6945 2.2875 -9.4827 0.0000 19.4507 0.0000
# 6 0.0000 0.0000 0.0000 4.9355 0.0000 30.4342
#
#
#
# Elastic Compliance Matrix: (Units=1/GPa)
#
#
# Indices 1 2 3 4 5 6 
#
# 1 0.010118 -0.001673 -0.003666 0.000000 0.001371 0.000000
# 2 -0.001673 0.007727 -0.002651 0.000000 -0.002691 0.000000
# 3 -0.003666 -0.002651 0.014984 0.000000 0.006543 0.000000
# 4 0.000000 0.000000 0.000000 0.321302 0.000000 -0.052106
# 5 0.001371 -0.002691 0.006543 0.000000 0.055320 0.000000
# 6 0.000000 0.000000 0.000000 -0.052106 0.000000 0.041308
#
#
# Mechanical properties :
#
#
# Convention : Reuss Voigt Hill
#
# Bulk Modulus (GPa) = 59.35643 64.01759 61.68701
# Shear Modulus (GPa) = 10.58529 27.16768 18.87648
#
# Velocity S-wave (km/s) = 2.41475 3.86854 3.22464
# Velocity P-wave (km/s) = 6.36174 7.43094 6.91703
#
# Compressibility (1/GPa) = 0.01684737
#
# Stress axis : x y z
#
# Youngs Moduli (GPa) = 98.83847 129.42454 66.73837
#
# Poissons Ratio (x) = 0.21658 0.24467
# Poissons Ratio (y) = 0.16540 0.17690
# Poissons Ratio (z) = 0.36236 0.34306
#
# Static dielectric constant tensor:
#      x y z
#    x 3.589690 0.000000 0.035900 
#    y 0.000000 3.638730 0.000000 
#    z 0.035900 0.000000 2.865850 
# 
# 
# High freq. dielectric constant tensor:
#      x y z
#    x 1.722600 0.000000 0.009660 
#    y 0.000000 1.729310 0.000000 
#    z 0.009660 0.000000 1.642250 
# 
# From -- ./inp_files/42256.got.cif
#   From: 2010.06.25/outbox.cif.g09.slc.cpg/sg12_22_cif.got.tgz:42256.got - 2010.06.28 00:19:55.
