data_PCOD8113709
_publ_section_title
;
Structure prediction by ZEFSAII (Michael W. Deem and Ramdas Pophale) SiO2 
 PCOD8113709
Probable space group: C 2/M
;
_chemical_formula_sum "Si O2"
_cell_formula_units_Z 48
_cell_length_a 14.707686
_cell_length_b 22.185259
_cell_length_c 11.357976
_cell_angle_alpha 90.000000
_cell_angle_beta 140.634150
_cell_angle_gamma 90.000000
_cell_volume 2350.627713
_symmetry_space_group_name_H-M "C 2/M"
_symmetry_group_IT_number 12
_symmetry_cell_setting 'monoclinic'
loop_
_space_group_symop_operation_xyz
x,y,z
-x,y,-z
-x,-y,-z
x,-y,z
1/2+x,1/2+y,z
1/2-x,1/2+y,-z
1/2-x,1/2-y,-z
1/2+x,1/2-y,z
loop_
_atom_site_type_symbol
_atom_site_label
_atom_site_fract_x
_atom_site_fract_y
_atom_site_fract_z
Si Si1 0.172126 0.346264 0.670496
Si Si2 0.266612 0.229163 0.884621
Si Si3 0.546428 0.628570 0.671319
Si Si4 0.222942 0.570231 0.935816
Si Si5 0.502501 0.133718 0.877530
Si Si6 0.232378 0.822355 0.486058
O O1 0.251360 0.284977 0.783918
O O2 0.229108 0.398395 0.814232
O O3 0.228657 0.356712 0.595968
O O4 0.000000 0.340577 0.500000
O O5 0.143975 0.182995 0.724898
O O6 0.250000 0.250000 0.000000
O O7 0.420237 0.198081 0.026698
O O8 0.500000 0.597106 0.500000
O O9 0.423497 0.656927 0.629454
O O10 0.637252 0.583176 0.844497
O O11 0.209751 0.500000 0.899205
O O12 0.079752 0.593539 0.856766
O O13 0.339949 0.149058 0.687026
O O14 0.500000 0.098379 0.000000
O O15 0.250000 0.750000 0.500000
#
# Coordination Sequence:
#
# PCOD8113709 Si02
#       6
#     8   8   8   8   8   8
#     4  12  22  41  66  96 132 171 220 272 337 395
#     4  11  19  37  63  93 136 171 202 266 341 413
#     4  11  23  42  65  96 134 170 216 272 338 396
#     4  11  26  47  67  88 130 184 232 277 323 379
#     4  11  22  40  64  99 130 167 220 274 332 395
#     4  12  23  37  65 105 132 165 207 264 342 410
#
# _framework density 20.420078
#
# number of rings (size 3 to 8) (size 9 to 14) (size 15 to 20)
#    0.000    0.667    5.000    6.500    0.000    1.667 
#    0.000    2.500    0.000    0.000    0.000    0.000 
#    0.000    0.000    0.000    0.000    0.000    0.000 
#
# Total GULP energy -297548.025471 kJ/mol
# GULP energy per Si atom -12397.834395 kJ/mol
# Density = 2.037360 g / cm^3
# Si number density = 20.420078 Si / 1000 Ang^3
#
#
#
# Elastic Constant Matrix: (Units=GPa)
#
#
# Indices 1 2 3 4 5 6 
#
# 1 77.4623 11.4796 4.8221 0.0000 -15.2788 0.0000
# 2 11.4796 110.3627 28.4402 0.0000 -3.1960 0.0000
# 3 4.8221 28.4402 87.2166 0.0000 -11.2941 0.0000
# 4 0.0000 0.0000 0.0000 15.6646 0.0000 -1.5866
# 5 -15.2788 -3.1960 -11.2941 0.0000 44.0322 0.0000
# 6 0.0000 0.0000 0.0000 -1.5866 0.0000 11.8733
#
#
#
# Elastic Compliance Matrix: (Units=1/GPa)
#
#
# Indices 1 2 3 4 5 6 
#
# 1 0.014055 -0.001401 0.000308 0.000000 0.004855 0.000000
# 2 -0.001401 0.010032 -0.003271 0.000000 -0.000597 0.000000
# 3 0.000308 -0.003271 0.012928 0.000000 0.003185 0.000000
# 4 0.000000 0.000000 0.000000 0.064714 0.000000 0.008647
# 5 0.004855 -0.000597 0.003185 0.000000 0.025169 0.000000
# 6 0.000000 0.000000 0.000000 0.008647 0.000000 0.085378
#
#
# Mechanical properties :
#
#
# Convention : Reuss Voigt Hill
#
# Bulk Modulus (GPa) = 35.35057 40.50282 37.92669
# Shear Modulus (GPa) = 21.69820 29.66733 25.68276
#
# Velocity S-wave (km/s) = 3.26328 3.81576 3.55028
# Velocity P-wave (km/s) = 5.61675 6.26827 5.95144
#
# Compressibility (1/GPa) = 0.02828809
#
# Stress axis : x y z
#
# Youngs Moduli (GPa) = 71.14686 99.67638 77.35216
#
# Poissons Ratio (x) = 0.13964 -0.02385
# Poissons Ratio (y) = 0.09967 0.25304
# Poissons Ratio (z) = -0.02194 0.32607
#
# Static dielectric constant tensor:
#      x y z
#    x 3.593960 0.000000 -0.190020 
#    y 0.000000 3.485780 0.000000 
#    z -0.190020 0.000000 4.018920 
# 
# 
# High freq. dielectric constant tensor:
#      x y z
#    x 1.812610 0.000000 -0.010080 
#    y 0.000000 1.757480 0.000000 
#    z -0.010080 0.000000 1.822860 
# 
# From -- ./inp_files/147997.got.cif
#   From: 2010.06.25/outbox.cif.g09.slc.cpg/sg12_74_cif.got.tgz:147997.got - 2010.06.28 00:19:55.
