data_PCOD8113257
_publ_section_title
;
Structure prediction by ZEFSAII (Michael W. Deem and Ramdas Pophale) SiO2 
 PCOD8113257
Probable space group: C 2/M
;
_chemical_formula_sum "Si O2"
_cell_formula_units_Z 44
_cell_length_a 17.733435
_cell_length_b 14.905608
_cell_length_c 23.801570
_cell_angle_alpha 90.000000
_cell_angle_beta 159.044904
_cell_angle_gamma 90.000000
_cell_volume 2250.036716
_symmetry_space_group_name_H-M "C 2/M"
_symmetry_group_IT_number 12
_symmetry_cell_setting 'monoclinic'
loop_
_space_group_symop_operation_xyz
x,y,z
-x,y,-z
-x,-y,-z
x,-y,z
1/2+x,1/2+y,z
1/2-x,1/2+y,-z
1/2-x,1/2-y,-z
1/2+x,1/2-y,z
loop_
_atom_site_type_symbol
_atom_site_label
_atom_site_fract_x
_atom_site_fract_y
_atom_site_fract_z
Si Si1 0.236660 0.395491 0.359321
Si Si2 0.762912 0.500000 0.314781
Si Si3 0.881423 0.000000 0.130689
Si Si4 0.750794 0.500000 0.833099
Si Si5 0.919687 0.156789 0.883746
Si Si6 0.788740 0.658792 0.056863
Si Si7 0.175084 0.841919 0.699667
O O1 0.281070 0.500000 0.405034
O O2 0.427626 0.331203 0.512030
O O3 0.205354 0.385481 0.270367
O O4 0.028019 0.357649 0.244463
O O5 0.620159 0.500000 0.272124
O O6 0.726520 0.586150 0.250231
O O7 0.000000 0.500000 0.500000
O O8 0.858046 0.000000 0.181447
O O9 0.760179 0.915141 0.023164
O O10 0.674599 0.408621 0.751682
O O11 0.000000 0.500000 0.000000
O O12 0.788691 0.249337 0.795425
O O13 0.000000 0.124221 0.000000
O O14 0.142828 0.160620 0.008891
O O15 0.750000 0.750000 0.000000
#
# Coordination Sequence:
#
# PCOD8113257 Si02
#       7
#     8   4   4   4   8   8   8
#     4  11  20  40  62  93 133 176 218 262 334 397
#     4  10  25  49  71  88 123 184 234 277 322 384
#     4  10  24  40  63  93 128 169 225 273 334 402
#     4  12  22  36  62  98 138 166 207 272 342 406
#     4  11  25  44  66  96 128 171 228 273 323 385
#     4  11  22  39  65  91 125 172 221 267 322 399
#     4  11  22  36  63  98 136 168 205 269 339 400
#
# _framework density 19.555235
#
# number of rings (size 3 to 8) (size 9 to 14) (size 15 to 20)
#    0.000    1.091    4.545    2.455    5.091    0.000 
#    3.273    0.909    0.000    0.000    0.000    0.000 
#    0.000    0.000    0.000    0.000    0.000    0.000 
#
# Total GULP energy -272695.615368 kJ/mol
# GULP energy per Si atom -12395.255244 kJ/mol
# Density = 1.951073 g / cm^3
# Si number density = 19.555235 Si / 1000 Ang^3
#
#
#
# Elastic Constant Matrix: (Units=GPa)
#
#
# Indices 1 2 3 4 5 6 
#
# 1 141.1087 56.1292 69.3150 0.1119 -6.4110 -0.1416
# 2 56.1292 123.6842 47.4993 -0.6013 5.5674 0.9807
# 3 69.3150 47.4993 143.3475 0.6469 20.4549 -0.6553
# 4 0.1119 -0.6013 0.6469 333.5243 0.3341 -444.4947
# 5 -6.4110 5.5674 20.4549 0.3341 29.9044 -0.4352
# 6 -0.1416 0.9807 -0.6553 -444.4947 -0.4352 674.1921
#
#
#
# Elastic Compliance Matrix: (Units=1/GPa)
#
#
# Indices 1 2 3 4 5 6 
#
# 1 0.011364 -0.003416 -0.005321 0.000019 0.006712 0.000019
# 2 -0.003416 0.010296 -0.001531 0.000000 -0.001602 -0.000018
# 3 -0.005321 -0.001531 0.011279 -0.000046 -0.008571 -0.000024
# 4 0.000019 0.000000 -0.000046 0.024710 -0.000004 0.016292
# 5 0.006712 -0.001602 -0.008571 -0.000004 0.041040 0.000020
# 6 0.000019 -0.000018 -0.000024 0.016292 0.000020 0.012224
#
#
# Mechanical properties :
#
#
# Convention : Reuss Voigt Hill
#
# Bulk Modulus (GPa) = 80.62590 83.78085 82.20338
# Shear Modulus (GPa) = 36.87736 223.20395 130.04065
#
# Velocity S-wave (km/s) = 4.34730 10.69523 8.16355
# Velocity P-wave (km/s) = 8.15586 13.98047 11.44490
#
# Compressibility (1/GPa) = 0.01240296
#
# Stress axis : x y z
#
# Youngs Moduli (GPa) = 87.99575 97.12886 88.65662
#
# Poissons Ratio (x) = 0.33178 0.47174
# Poissons Ratio (y) = 0.30059 0.13576
# Poissons Ratio (z) = 0.46822 0.14873
#
# Static dielectric constant tensor:
#      x y z
#    x 3.635910 0.001880 0.099050 
#    y 0.001880 3.372480 -0.004120 
#    z 0.099050 -0.004120 3.671230 
# 
# 
# High freq. dielectric constant tensor:
#      x y z
#    x 1.758280 0.000000 0.009600 
#    y 0.000000 1.768310 -0.000020 
#    z 0.009600 -0.000020 1.768940 
# 
# From -- ./inp_files/343955.got.cif
#   From: 2010.06.25/outbox.cif.g09.slc.cpg/sg12_172_cif.got.tgz:343955.got - 2010.06.28 00:19:55.
