data_PCOD8113167
_publ_section_title
;
Structure prediction by ZEFSAII (Michael W. Deem and Ramdas Pophale) SiO2 
 PCOD8113167
Probable space group: C 2/M
;
_chemical_formula_sum "Si O2"
_cell_formula_units_Z 40
_cell_length_a 8.379351
_cell_length_b 16.896124
_cell_length_c 17.805809
_cell_angle_alpha 90.000000
_cell_angle_beta 140.164552
_cell_angle_gamma 90.000000
_cell_volume 1614.863728
_symmetry_space_group_name_H-M "C 2/M"
_symmetry_group_IT_number 12
_symmetry_cell_setting 'monoclinic'
loop_
_space_group_symop_operation_xyz
x,y,z
-x,y,-z
-x,-y,-z
x,-y,z
1/2+x,1/2+y,z
1/2-x,1/2+y,-z
1/2-x,1/2-y,-z
1/2+x,1/2-y,z
loop_
_atom_site_type_symbol
_atom_site_label
_atom_site_fract_x
_atom_site_fract_y
_atom_site_fract_z
Si Si1 0.006343 0.802995 0.418577
Si Si2 0.692153 0.139133 0.016460
Si Si3 0.962806 0.286258 0.185317
Si Si4 0.232145 0.091028 0.383441
Si Si5 0.711231 0.587783 0.200270
O O1 0.250000 0.750000 0.500000
O O2 0.020881 0.869111 0.358855
O O3 0.000000 0.840882 0.500000
O O4 0.742276 0.757484 0.308981
O O5 0.783359 0.212810 0.102020
O O6 0.924224 0.089167 0.068640
O O7 0.500000 0.090127 0.000000
O O8 0.526879 0.162400 0.885721
O O9 0.863199 0.341083 0.217560
O O10 0.500000 0.129901 0.500000
O O11 0.185450 0.103353 0.279202
O O12 0.232239 0.000000 0.407083
O O13 0.824414 0.500000 0.224170
#
# Coordination Sequence:
#
# PCOD8113167 Si02
#       5
#     8   8   8   8   8
#     4  12  28  43  71 106 139 183 241 301 345 425
#     4  11  24  43  70 100 144 192 232 297 354 428
#     4  11  25  43  69 104 144 187 238 293 360 423
#     4  10  23  45  68  97 143 188 230 289 362 421
#     4  11  25  46  74 108 147 189 240 299 358 430
#
# _framework density 24.769891000000001
#
# number of rings (size 3 to 8) (size 9 to 14) (size 15 to 20)
#    0.000    1.000    0.000    6.000   11.200    3.200 
#    0.000    0.000    0.000    0.000    0.000    0.000 
#    0.000    0.000    0.000    0.000    0.000    0.000 
#
# Total GULP energy -247860.135392 kJ/mol
# GULP energy per Si atom -12393.006770 kJ/mol
# Density = 2.471351 g / cm^3
# Si number density = 24.769891 Si / 1000 Ang^3
#
#
#
# Elastic Constant Matrix: (Units=GPa)
#
#
# Indices 1 2 3 4 5 6 
#
# 1 141.4238 39.9491 37.7952 0.0002 0.0814 -0.0002
# 2 39.9491 75.6719 7.4175 0.0006 -5.5939 -0.0005
# 3 37.7952 7.4175 137.0855 0.0014 7.3234 -0.0008
# 4 0.0002 0.0006 0.0014 15.1688 0.0010 14.7998
# 5 0.0814 -5.5939 7.3234 0.0010 50.1229 -0.0006
# 6 -0.0002 -0.0005 -0.0008 14.7998 -0.0006 15.4213
#
#
#
# Elastic Compliance Matrix: (Units=1/GPa)
#
#
# Indices 1 2 3 4 5 6 
#
# 1 0.008937 -0.004516 -0.002209 0.000007 -0.000196 -0.000007
# 2 -0.004516 0.015696 0.000304 -0.000020 0.001715 0.000020
# 3 -0.002209 0.000304 0.007947 -0.000015 -0.001124 0.000015
# 4 0.000007 -0.000020 -0.000015 1.035907 -0.000032 -0.994162
# 5 -0.000196 0.001715 -0.001124 -0.000032 0.020307 0.000031
# 6 -0.000007 0.000020 0.000015 -0.994162 0.000031 1.018945
#
#
# Mechanical properties :
#
#
# Convention : Reuss Voigt Hill
#
# Bulk Modulus (GPa) = 50.66262 58.27834 54.47048
# Shear Modulus (GPa) = 2.35055 34.07720 18.21388
#
# Velocity S-wave (km/s) = 0.97520 3.71314 2.71463
# Velocity P-wave (km/s) = 4.66538 6.47782 5.64481
#
# Compressibility (1/GPa) = 0.01973842
#
# Stress axis : x y z
#
# Youngs Moduli (GPa) = 111.89238 63.71043 125.82768
#
# Poissons Ratio (x) = 0.28772 0.27798
# Poissons Ratio (y) = 0.50531 -0.03828
# Poissons Ratio (z) = 0.24719 -0.01938
#
# Static dielectric constant tensor:
#      x y z
#    x 4.802530 0.000000 -0.062700 
#    y 0.000000 4.320070 0.000000 
#    z -0.062700 0.000000 4.730870 
# 
# 
# High freq. dielectric constant tensor:
#      x y z
#    x 1.999730 0.000000 -0.008730 
#    y 0.000000 1.960790 0.000000 
#    z -0.008730 0.000000 2.002510 
# 
# From -- ./inp_files/300977.got.cif
#   From: 2010.06.25/outbox.cif.g09.slc.cpg/sg12_151_cif.got.tgz:300977.got - 2010.06.28 00:19:55.
