data_PCOD8113379
_publ_section_title
;
Structure prediction by ZEFSAII (Michael W. Deem and Ramdas Pophale) SiO2 
 PCOD8113379
Probable space group: C 2/M
;
_chemical_formula_sum "Si O2"
_cell_formula_units_Z 44
_cell_length_a 17.444411
_cell_length_b 16.769129
_cell_length_c 6.852960
_cell_angle_alpha 90.000000
_cell_angle_beta 101.473116
_cell_angle_gamma 90.000000
_cell_volume 1964.622569
_symmetry_space_group_name_H-M "C 2/M"
_symmetry_group_IT_number 12
_symmetry_cell_setting 'monoclinic'
loop_
_space_group_symop_operation_xyz
x,y,z
-x,y,-z
-x,-y,-z
x,-y,z
1/2+x,1/2+y,z
1/2-x,1/2+y,-z
1/2-x,1/2-y,-z
1/2+x,1/2-y,z
loop_
_atom_site_type_symbol
_atom_site_label
_atom_site_fract_x
_atom_site_fract_y
_atom_site_fract_z
Si Si1 0.128276 0.373469 0.666335
Si Si2 0.500000 0.248853 0.500000
Si Si3 0.782234 0.169129 0.918218
Si Si4 0.087750 0.000000 0.456620
Si Si5 0.928043 0.500000 0.614545
Si Si6 0.936752 0.853327 0.809111
Si Si7 0.607679 0.000000 0.985923
Si Si8 0.217043 0.000000 0.857677
O O1 0.072961 0.298633 0.619672
O O2 0.218403 0.349523 0.720826
O O3 0.122206 0.422206 0.461762
O O4 0.100478 0.422401 0.845390
O O5 0.479093 0.299443 0.675275
O O6 0.865295 0.194725 0.870761
O O7 0.750000 0.250000 0.000000
O O8 0.797354 0.085404 0.041562
O O9 0.101550 0.926400 0.322529
O O10 0.000000 0.000000 0.500000
O O11 0.156375 0.000000 0.649885
O O12 0.953347 0.500000 0.857415
O O13 0.000000 0.500000 0.500000
O O14 0.000000 0.882225 0.000000
O O15 0.690571 0.000000 0.145514
#
# Coordination Sequence:
#
# PCOD8113379 Si02
#       8
#     8   4   8   4   4   8   4   4
#     4  10  24  44  66 103 141 178 240 288 357 436
#     4  12  26  46  68 108 140 184 242 292 358 442
#     4  11  25  48  74 105 149 191 238 305 366 428
#     4  12  24  44  74 101 140 191 246 300 359 431
#     4  11  22  43  67 102 132 183 230 286 353 438
#     4  12  27  46  73 103 144 185 242 302 361 428
#     4   9  23  44  72  97 139 185 224 295 361 424
#     4  10  24  45  74 106 140 189 245 288 363 439
#
# _framework density 22.396159000000001
#
# number of rings (size 3 to 8) (size 9 to 14) (size 15 to 20)
#    0.000    1.091    1.818    3.545    5.091    6.545 
#    3.273    0.000    0.000    0.000    0.000    0.000 
#    0.000    0.000    0.000    0.000    0.000    0.000 
#
# Total GULP energy -272587.603581 kJ/mol
# GULP energy per Si atom -12390.345617 kJ/mol
# Density = 2.234518 g / cm^3
# Si number density = 22.396159 Si / 1000 Ang^3
#
#
#
# Elastic Constant Matrix: (Units=GPa)
#
#
# Indices 1 2 3 4 5 6 
#
# 1 62.6217 17.9863 42.8885 0.0000 20.5030 0.0000
# 2 17.9863 133.5704 48.6543 0.0000 11.3553 0.0000
# 3 42.8885 48.6543 147.0904 0.0000 28.1079 0.0000
# 4 0.0000 0.0000 0.0000 19.1548 0.0000 5.8554
# 5 20.5030 11.3553 28.1079 0.0000 52.3836 0.0000
# 6 0.0000 0.0000 0.0000 5.8554 0.0000 38.9709
#
#
#
# Elastic Compliance Matrix: (Units=1/GPa)
#
#
# Indices 1 2 3 4 5 6 
#
# 1 0.021366 -0.000594 -0.004970 0.000000 -0.005567 0.000000
# 2 -0.000594 0.008535 -0.002609 0.000000 -0.000218 0.000000
# 3 -0.004970 -0.002609 0.009617 0.000000 -0.002650 0.000000
# 4 0.000000 0.000000 0.000000 0.054719 0.000000 -0.008222
# 5 -0.005567 -0.000218 -0.002650 0.000000 0.022738 0.000000
# 6 0.000000 0.000000 0.000000 -0.008222 0.000000 0.026895
#
#
# Mechanical properties :
#
#
# Convention : Reuss Voigt Hill
#
# Bulk Modulus (GPa) = 43.15093 62.48230 52.81662
# Shear Modulus (GPa) = 29.77273 37.68544 33.72908
#
# Velocity S-wave (km/s) = 3.65001 4.10649 3.88496
# Velocity P-wave (km/s) = 6.08870 7.10237 6.61498
#
# Compressibility (1/GPa) = 0.02317447
#
# Stress axis : x y z
#
# Youngs Moduli (GPa) = 46.80379 117.15972 103.98534
#
# Poissons Ratio (x) = 0.06954 0.51677
# Poissons Ratio (y) = 0.02778 0.27125
# Poissons Ratio (z) = 0.23260 0.30562
#
# Static dielectric constant tensor:
#      x y z
#    x 4.327900 0.000000 0.297580 
#    y 0.000000 4.552420 0.000000 
#    z 0.297580 0.000000 4.235620 
# 
# 
# High freq. dielectric constant tensor:
#      x y z
#    x 1.900130 0.000000 0.021220 
#    y 0.000000 1.890310 0.000000 
#    z 0.021220 0.000000 1.887070 
# 
# From -- ./inp_files/20503.got.cif
#   From: 2010.06.25/outbox.cif.g09.slc.cpg/sg12_11_cif.got.tgz:20503.got - 2010.06.28 00:19:55.
