data_PCOD8113876
_publ_section_title
;
Structure prediction by ZEFSAII (Michael W. Deem and Ramdas Pophale) SiO2 
 PCOD8113876
Probable space group: C 2/M
;
_chemical_formula_sum "Si O2"
_cell_formula_units_Z 52
_cell_length_a 12.223073
_cell_length_b 19.519030
_cell_length_c 21.433941
_cell_angle_alpha 90.000000
_cell_angle_beta 150.823217
_cell_angle_gamma 90.000000
_cell_volume 2492.990042
_symmetry_space_group_name_H-M "C 2/M"
_symmetry_group_IT_number 12
_symmetry_cell_setting 'monoclinic'
loop_
_space_group_symop_operation_xyz
x,y,z
-x,y,-z
-x,-y,-z
x,-y,z
1/2+x,1/2+y,z
1/2-x,1/2+y,-z
1/2-x,1/2-y,-z
1/2+x,1/2-y,z
loop_
_atom_site_type_symbol
_atom_site_label
_atom_site_fract_x
_atom_site_fract_y
_atom_site_fract_z
Si Si1 0.291426 0.122299 0.755075
Si Si2 0.987516 0.637676 0.257959
Si Si3 0.956572 0.769416 0.649581
Si Si4 0.341811 0.426853 0.509487
Si Si5 0.473680 0.000000 0.059204
Si Si6 0.717491 0.500000 0.150450
Si Si7 0.741933 0.609682 0.389918
Si Si8 0.957554 0.000000 0.799648
O O1 0.473751 0.150105 0.796293
O O2 0.153490 0.185212 0.716443
O O3 0.414544 0.071124 0.863524
O O4 0.107085 0.075902 0.627851
O O5 0.225843 0.631047 0.411261
O O6 0.901066 0.706515 0.249234
O O7 0.840038 0.570648 0.194565
O O8 0.750000 0.750000 0.500000
O O9 0.845475 0.811969 0.651726
O O10 0.245878 0.500000 0.439998
O O11 0.292628 0.420052 0.558449
O O12 0.500000 0.000000 0.000000
O O13 0.214344 0.000000 0.949422
O O14 0.684980 0.500000 0.208182
O O15 0.500000 0.500000 0.000000
O O16 0.597332 0.567360 0.267953
O O17 0.000000 0.605609 0.500000
#
# Coordination Sequence:
#
# PCOD8113876 Si02
#       8
#     8   8   8   8   4   4   8   4
#     4  11  24  40  65  97 131 173 220 264 338 392
#     4  12  24  41  67  94 136 175 212 275 330 398
#     4  11  25  39  63 101 140 172 213 263 330 409
#     4  11  20  34  58  98 131 160 210 266 329 396
#     4  12  24  46  72  94 133 174 230 286 320 388
#     4  12  28  48  66  94 127 174 236 282 330 380
#     4  11  23  38  65  98 138 171 215 265 335 398
#     4  12  25  42  72  98 129 178 224 282 329 380
#
# _framework density 20.858485999999999
#
# number of rings (size 3 to 8) (size 9 to 14) (size 15 to 20)
#    0.000    0.615    5.385    4.846    2.154    0.615 
#    0.000    2.308    0.000    6.462    0.000    0.000 
#    0.000    0.000    0.000    0.000    0.000    0.000 
#
# Total GULP energy -322127.844299 kJ/mol
# GULP energy per Si atom -12389.532473 kJ/mol
# Density = 2.081101 g / cm^3
# Si number density = 20.858486 Si / 1000 Ang^3
#
#
#
# Elastic Constant Matrix: (Units=GPa)
#
#
# Indices 1 2 3 4 5 6 
#
# 1 116.0417 52.3986 33.1869 -0.0094 -2.8749 -0.0041
# 2 52.3986 168.4596 55.8145 -0.0097 -0.7175 -0.0013
# 3 33.1869 55.8145 102.7380 -0.0151 1.2519 0.0035
# 4 -0.0094 -0.0097 -0.0151 23.7638 -0.0064 -5.6674
# 5 -2.8749 -0.7175 1.2519 -0.0064 34.9455 -0.0032
# 6 -0.0041 -0.0013 0.0035 -5.6674 -0.0032 20.5234
#
#
#
# Elastic Compliance Matrix: (Units=1/GPa)
#
#
# Indices 1 2 3 4 5 6 
#
# 1 0.010360 -0.002569 -0.001962 0.000003 0.000870 0.000003
# 2 -0.002569 0.007879 -0.003452 0.000000 0.000074 0.000001
# 3 -0.001962 -0.003452 0.012250 0.000005 -0.000671 -0.000001
# 4 0.000003 0.000000 0.000005 0.045048 0.000009 0.012440
# 5 0.000870 0.000074 -0.000671 0.000009 0.028713 0.000007
# 6 0.000003 0.000001 -0.000001 0.012440 0.000007 0.052160
#
#
# Mechanical properties :
#
#
# Convention : Reuss Voigt Hill
#
# Bulk Modulus (GPa) = 68.84386 74.44882 71.64634
# Shear Modulus (GPa) = 28.21414 32.23583 30.22499
#
# Velocity S-wave (km/s) = 3.68182 3.93549 3.81077
# Velocity P-wave (km/s) = 7.15201 7.51137 7.33389
#
# Compressibility (1/GPa) = 0.01452562
#
# Stress axis : x y z
#
# Youngs Moduli (GPa) = 96.52420 126.91859 81.62963
#
# Poissons Ratio (x) = 0.32603 0.16012
# Poissons Ratio (y) = 0.24796 0.28175
# Poissons Ratio (z) = 0.18934 0.43807
#
# Static dielectric constant tensor:
#      x y z
#    x 3.791270 0.000110 -0.204450 
#    y 0.000110 4.289690 0.000130 
#    z -0.204450 0.000130 3.392560 
# 
# 
# High freq. dielectric constant tensor:
#      x y z
#    x 1.826560 0.000000 -0.001530 
#    y 0.000000 1.830920 0.000000 
#    z -0.001530 0.000000 1.798250 
# 
# From -- ./inp_files/306954.got.cif
#   From: 2010.06.25/outbox.cif.g09.slc.cpg/sg12_154_cif.got.tgz:306954.got - 2010.06.28 00:19:55.
