data_PCOD8113598
_publ_section_title
;
Structure prediction by ZEFSAII (Michael W. Deem and Ramdas Pophale) SiO2 
 PCOD8113598
Probable space group: C 2/M
;
_chemical_formula_sum "Si O2"
_cell_formula_units_Z 56
_cell_length_a 9.005407
_cell_length_b 26.209587
_cell_length_c 16.870142
_cell_angle_alpha 90.000000
_cell_angle_beta 133.491764
_cell_angle_gamma 90.000000
_cell_volume 2888.708382
_symmetry_space_group_name_H-M "C 2/M"
_symmetry_group_IT_number 12
_symmetry_cell_setting 'monoclinic'
loop_
_space_group_symop_operation_xyz
x,y,z
-x,y,-z
-x,-y,-z
x,-y,z
1/2+x,1/2+y,z
1/2-x,1/2+y,-z
1/2-x,1/2-y,-z
1/2+x,1/2-y,z
loop_
_atom_site_type_symbol
_atom_site_label
_atom_site_fract_x
_atom_site_fract_y
_atom_site_fract_z
Si Si1 0.604672 0.256612 0.739393
Si Si2 0.407716 0.598781 0.772480
Si Si3 0.227058 0.797717 0.058420
Si Si4 0.779788 0.331405 0.913825
Si Si5 0.573045 0.000000 0.905536
Si Si6 0.720362 0.412904 0.103726
Si Si7 0.651082 0.500000 0.837506
Si Si8 0.792180 0.307779 0.375845
O O1 0.600620 0.223790 0.818721
O O2 0.744659 0.306270 0.813939
O O3 0.377346 0.277123 0.635601
O O4 0.689529 0.222319 0.700148
O O5 0.606303 0.629390 0.874993
O O6 0.262733 0.588532 0.794398
O O7 0.497652 0.547591 0.766414
O O8 0.278391 0.633726 0.663755
O O9 0.248033 0.858524 0.073399
O O10 0.272654 0.786815 0.980166
O O11 0.000000 0.779210 0.000000
O O12 0.000000 0.359214 0.000000
O O13 0.602733 0.949801 0.863261
O O14 0.335473 0.000000 0.842744
O O15 0.741492 0.000000 0.037420
O O16 0.500000 0.436592 0.000000
O O17 0.000000 0.307936 0.500000
#
# Coordination Sequence:
#
# PCOD8113598 Si02
#       8
#     8   8   8   8   4   8   4   8
#     4  11  21  37  57  83 113 149 191 239 285 337
#     4  11  22  38  57  81 115 156 191 235 277 341
#     4  11  18  32  52  80 121 156 186 219 271 351
#     4  11  21  30  50  86 124 154 183 221 276 345
#     4  11  22  31  56  86 120 156 180 219 277 340
#     4  11  18  33  52  80 119 156 194 217 266 342
#     4  11  23  36  54  87 122 147 187 225 279 340
#     4  11  24  43  61  82 108 148 202 254 293 327
#
# _framework density 19.385826000000002
#
# number of rings (size 3 to 8) (size 9 to 14) (size 15 to 20)
#    0.000    1.000    5.714    3.643    4.000    0.000 
#    0.000    0.357    0.000    0.000    0.000    1.000 
#    0.000    0.000    0.000    0.000    0.000    0.000 
#
# Total GULP energy -347110.241999 kJ/mol
# GULP energy per Si atom -12396.794357 kJ/mol
# Density = 1.934170 g / cm^3
# Si number density = 19.385826 Si / 1000 Ang^3
#
#
#
# Elastic Constant Matrix: (Units=GPa)
#
#
# Indices 1 2 3 4 5 6 
#
# 1 78.8624 32.7876 24.8196 0.0000 4.5021 0.0000
# 2 32.7876 96.3723 32.7616 0.0000 7.1471 0.0000
# 3 24.8196 32.7616 88.9872 0.0001 17.0380 0.0000
# 4 0.0000 0.0000 0.0001 15.0546 0.0000 -2.0819
# 5 4.5021 7.1471 17.0380 0.0000 23.8453 0.0000
# 6 0.0000 0.0000 0.0000 -2.0819 0.0000 25.0062
#
#
#
# Elastic Compliance Matrix: (Units=1/GPa)
#
#
# Indices 1 2 3 4 5 6 
#
# 1 0.015315 -0.004300 -0.002759 0.000000 0.000369 0.000000
# 2 -0.004300 0.013073 -0.003497 0.000000 -0.000608 0.000000
# 3 -0.002759 -0.003497 0.015054 0.000000 -0.009187 0.000000
# 4 0.000000 0.000000 0.000000 0.067199 0.000000 0.005595
# 5 0.000369 -0.000608 -0.009187 0.000000 0.048614 0.000000
# 6 0.000000 0.000000 0.000000 0.005595 0.000000 0.040456
#
#
# Mechanical properties :
#
#
# Convention : Reuss Voigt Hill
#
# Bulk Modulus (GPa) = 44.78404 49.43994 47.11199
# Shear Modulus (GPa) = 21.90417 24.37143 23.13780
#
# Velocity S-wave (km/s) = 3.36505 3.54952 3.45852
# Velocity P-wave (km/s) = 6.18464 6.50825 6.34850
#
# Compressibility (1/GPa) = 0.02232938
#
# Stress axis : x y z
#
# Youngs Moduli (GPa) = 65.29398 76.49145 66.42850
#
# Poissons Ratio (x) = 0.32891 0.18329
# Poissons Ratio (y) = 0.28076 0.23233
# Poissons Ratio (z) = 0.18016 0.26753
#
# Static dielectric constant tensor:
#      x y z
#    x 3.604060 0.000000 0.093460 
#    y 0.000000 3.707940 0.000000 
#    z 0.093460 0.000000 3.129670 
# 
# 
# High freq. dielectric constant tensor:
#      x y z
#    x 1.763480 0.000000 0.007600 
#    y 0.000000 1.767930 0.000000 
#    z 0.007600 0.000000 1.703440 
# 
# From -- ./inp_files/259902.got.cif
#   From: 2010.06.25/outbox.cif.g09.slc.cpg/sg12_130_cif.got.tgz:259902.got - 2010.06.28 00:19:55.
