data_PCOD8113103
_publ_section_title
;
Structure prediction by ZEFSAII (Michael W. Deem and Ramdas Pophale) SiO2 
 PCOD8113103
Probable space group: C 2/M
;
_chemical_formula_sum "Si O2"
_cell_formula_units_Z 40
_cell_length_a 11.713865
_cell_length_b 26.990688
_cell_length_c 5.280233
_cell_angle_alpha 90.000000
_cell_angle_beta 94.122680
_cell_angle_gamma 90.000000
_cell_volume 1665.106519
_symmetry_space_group_name_H-M "C 2/M"
_symmetry_group_IT_number 12
_symmetry_cell_setting 'monoclinic'
loop_
_space_group_symop_operation_xyz
x,y,z
-x,y,-z
-x,-y,-z
x,-y,z
1/2+x,1/2+y,z
1/2-x,1/2+y,-z
1/2-x,1/2-y,-z
1/2+x,1/2-y,z
loop_
_atom_site_type_symbol
_atom_site_label
_atom_site_fract_x
_atom_site_fract_y
_atom_site_fract_z
Si Si1 0.572565 0.443804 0.255899
Si Si2 0.612772 0.693628 0.879673
Si Si3 0.307803 0.214700 0.308085
Si Si4 0.930627 0.557415 0.745429
Si Si5 0.258122 0.623542 0.462625
O O1 0.500000 0.440722 0.500000
O O2 0.617171 0.500000 0.221062
O O3 0.681334 0.407286 0.300904
O O4 0.500000 0.426706 0.000000
O O5 0.588019 0.750634 0.775914
O O6 0.642049 0.654018 0.665550
O O7 0.500000 0.673852 0.000000
O O8 0.721447 0.698297 0.075354
O O9 0.250000 0.250000 0.500000
O O10 0.338117 0.162211 0.443874
O O11 0.900446 0.500000 0.769694
O O12 0.809692 0.585932 0.728381
O O13 0.000000 0.567980 0.500000
O O14 0.000000 0.576545 0.000000
#
# Coordination Sequence:
#
# PCOD8113103 Si02
#       5
#     8   8   8   8   8
#     4  10  24  42  64 102 144 181 222 277 347 417
#     4  10  23  44  67  95 140 182 226 289 357 424
#     4   9  22  43  60  96 134 178 230 283 352 411
#     4  10  24  47  72 102 141 186 236 295 356 409
#     4  11  24  40  70 102 136 184 239 289 344 428
#
# _framework density 24.022489
#
# number of rings (size 3 to 8) (size 9 to 14) (size 15 to 20)
#    0.000    2.000    0.000    0.600    8.400    2.400 
#   10.800    6.000    0.000    3.000    0.000    0.000 
#    0.000    0.000    0.000    0.000    0.000    0.000 
#
# Total GULP energy -247845.865549 kJ/mol
# GULP energy per Si atom -12392.293277 kJ/mol
# Density = 2.396781 g / cm^3
# Si number density = 24.022489 Si / 1000 Ang^3
#
#
#
# Elastic Constant Matrix: (Units=GPa)
#
#
# Indices 1 2 3 4 5 6 
#
# 1 81.7190 60.5808 31.4606 0.0000 7.6919 0.0000
# 2 60.5808 153.9534 54.9213 0.0000 17.2956 0.0000
# 3 31.4606 54.9213 145.0619 0.0000 19.3848 0.0000
# 4 0.0000 0.0000 0.0000 16.5051 0.0000 5.9788
# 5 7.6919 17.2956 19.3848 0.0000 38.3753 0.0000
# 6 0.0000 0.0000 0.0000 5.9788 0.0000 21.7705
#
#
#
# Elastic Compliance Matrix: (Units=1/GPa)
#
#
# Indices 1 2 3 4 5 6 
#
# 1 0.017511 -0.006406 -0.001383 0.000000 0.000076 0.000000
# 2 -0.006406 0.010013 -0.002113 0.000000 -0.002161 0.000000
# 3 -0.001383 -0.002113 0.008396 0.000000 -0.003012 0.000000
# 4 0.000000 0.000000 0.000000 0.067281 0.000000 -0.018477
# 5 0.000076 -0.002161 -0.003012 0.000000 0.028539 0.000000
# 6 0.000000 0.000000 0.000000 -0.018477 0.000000 0.051008
#
#
# Mechanical properties :
#
#
# Convention : Reuss Voigt Hill
#
# Bulk Modulus (GPa) = 62.04540 74.96220 68.50380
# Shear Modulus (GPa) = 24.04750 30.91495 27.48122
#
# Velocity S-wave (km/s) = 3.16736 3.59125 3.38595
# Velocity P-wave (km/s) = 6.26580 6.96196 6.62304
#
# Compressibility (1/GPa) = 0.01611723
#
# Stress axis : x y z
#
# Youngs Moduli (GPa) = 57.10663 99.87281 119.10717
#
# Poissons Ratio (x) = 0.63978 0.16467
# Poissons Ratio (y) = 0.36582 0.25164
# Poissons Ratio (z) = 0.07895 0.21100
#
# Static dielectric constant tensor:
#      x y z
#    x 3.849740 0.000000 -0.123820 
#    y 0.000000 5.050620 0.000000 
#    z -0.123820 0.000000 4.566290 
# 
# 
# High freq. dielectric constant tensor:
#      x y z
#    x 1.904530 0.000000 -0.000050 
#    y 0.000000 1.985390 0.000000 
#    z -0.000050 0.000000 1.966710 
# 
# From -- ./inp_files/7713.got.cif
#   From: 2010.06.25/outbox.cif.g09.slc.cpg/sg12_4_cif.got.tgz:7713.got - 2010.06.28 00:19:55.
