data_PCOD8113313
_publ_section_title
;
Structure prediction by ZEFSAII (Michael W. Deem and Ramdas Pophale) SiO2 
 PCOD8113313
Probable space group: C 2/M
;
_chemical_formula_sum "Si O2"
_cell_formula_units_Z 28
_cell_length_a 8.772501
_cell_length_b 27.406669
_cell_length_c 5.230187
_cell_angle_alpha 90.000000
_cell_angle_beta 86.931544
_cell_angle_gamma 90.000000
_cell_volume 1255.665031
_symmetry_space_group_name_H-M "C 2/M"
_symmetry_group_IT_number 12
_symmetry_cell_setting 'monoclinic'
loop_
_space_group_symop_operation_xyz
x,y,z
-x,y,-z
-x,-y,-z
x,-y,z
1/2+x,1/2+y,z
1/2-x,1/2+y,-z
1/2-x,1/2-y,-z
1/2+x,1/2-y,z
loop_
_atom_site_type_symbol
_atom_site_label
_atom_site_fract_x
_atom_site_fract_y
_atom_site_fract_z
Si Si1 0.174252 0.556722 0.007453
Si Si2 0.000000 0.745750 0.000000
Si Si3 0.226579 0.206435 0.313749
Si Si4 0.319991 0.400310 0.500157
O O1 0.183671 0.500000 0.075375
O O2 0.259640 0.585450 0.225665
O O3 0.251605 0.565732 0.727155
O O4 0.000000 0.574414 0.000000
O O5 0.061420 0.784165 0.203927
O O6 0.864940 0.709452 0.098187
O O7 0.250000 0.250000 0.500000
O O8 0.231857 0.155089 0.453167
O O9 0.500000 0.406525 0.500000
#
# Coordination Sequence:
#
# PCOD8113313 Si02
#       4
#     8   4   8   8
#     4  11  27  50  74 105 142 184 240 300 362 430
#     4  10  24  42  68  94 146 186 232 286 346 406
#     4  11  25  43  67 102 142 186 235 286 345 420
#     4  12  27  44  76 107 144 189 238 295 358 427
#
# _framework density 22.298940000000002
#
# number of rings (size 3 to 8) (size 9 to 14) (size 15 to 20)
#    0.000    0.857    0.000    5.143   14.000    8.000 
#    0.000    0.000    0.000    0.000    0.000    0.000 
#    0.000    0.000    0.000    0.000    0.000    0.000 
#
# Total GULP energy -173642.640570 kJ/mol
# GULP energy per Si atom -12403.045755 kJ/mol
# Density = 2.224819 g / cm^3
# Si number density = 22.298940 Si / 1000 Ang^3
#
#
#
# Elastic Constant Matrix: (Units=GPa)
#
#
# Indices 1 2 3 4 5 6 
#
# 1 140.8923 36.4718 28.3849 0.0000 7.8622 0.0000
# 2 36.4718 96.9726 10.6075 0.0000 12.0486 0.0000
# 3 28.3849 10.6075 86.2080 0.0000 11.4766 0.0000
# 4 0.0000 0.0000 0.0000 41.7028 0.0000 -0.7583
# 5 7.8622 12.0486 11.4766 0.0000 49.8906 0.0000
# 6 0.0000 0.0000 0.0000 -0.7583 0.0000 21.5819
#
#
#
# Elastic Compliance Matrix: (Units=1/GPa)
#
#
# Indices 1 2 3 4 5 6 
#
# 1 0.008321 -0.002860 -0.002378 0.000000 -0.000073 0.000000
# 2 -0.002860 0.011698 -0.000187 0.000000 -0.002331 0.000000
# 3 -0.002378 -0.000187 0.012740 0.000000 -0.002511 0.000000
# 4 0.000000 0.000000 0.000000 0.023995 0.000000 0.000843
# 5 -0.000073 -0.002331 -0.002511 0.000000 0.021196 0.000000
# 6 0.000000 0.000000 0.000000 0.000843 0.000000 0.046365
#
#
# Mechanical properties :
#
#
# Convention : Reuss Voigt Hill
#
# Bulk Modulus (GPa) = 45.64531 52.77792 49.21161
# Shear Modulus (GPa) = 35.09533 39.20897 37.15215
#
# Velocity S-wave (km/s) = 3.97149 4.19780 4.08621
# Velocity P-wave (km/s) = 6.44550 6.87132 6.66181
#
# Compressibility (1/GPa) = 0.02190806
#
# Stress axis : x y z
#
# Youngs Moduli (GPa) = 120.17382 85.48369 78.49199
#
# Poissons Ratio (x) = 0.24452 0.18666
# Poissons Ratio (y) = 0.34375 0.01470
# Poissons Ratio (z) = 0.28579 0.01601
#
# Static dielectric constant tensor:
#      x y z
#    x 4.937450 0.000000 -0.685520 
#    y 0.000000 3.700050 0.000000 
#    z -0.685520 0.000000 4.679390 
# 
# 
# High freq. dielectric constant tensor:
#      x y z
#    x 1.901220 0.000000 -0.000890 
#    y 0.000000 1.879350 0.000000 
#    z -0.000890 0.000000 1.894650 
# 
# From -- ./inp_files/3073.got.cif
#   From: 2010.06.25/outbox.cif.g09.slc.cpg/sg12_2_cif.got.tgz:3073.got - 2010.06.28 00:19:55.
