data_PCOD8113310
_publ_section_title
;
Structure prediction by ZEFSAII (Michael W. Deem and Ramdas Pophale) SiO2 
 PCOD8113310
Probable space group: C 2/M
;
_chemical_formula_sum "Si O2"
_cell_formula_units_Z 32
_cell_length_a 32.500165
_cell_length_b 7.611320
_cell_length_c 9.436174
_cell_angle_alpha 90.000000
_cell_angle_beta 137.741416
_cell_angle_gamma 90.000000
_cell_volume 1569.709816
_symmetry_space_group_name_H-M "C 2/M"
_symmetry_group_IT_number 12
_symmetry_cell_setting 'monoclinic'
loop_
_space_group_symop_operation_xyz
x,y,z
-x,y,-z
-x,-y,-z
x,-y,z
1/2+x,1/2+y,z
1/2-x,1/2+y,-z
1/2-x,1/2-y,-z
1/2+x,1/2-y,z
loop_
_atom_site_type_symbol
_atom_site_label
_atom_site_fract_x
_atom_site_fract_y
_atom_site_fract_z
Si Si1 0.971572 0.500000 0.776010
Si Si2 0.735319 0.204211 0.624016
Si Si3 0.649558 0.296096 0.899186
Si Si4 0.376032 0.304203 0.483155
Si Si5 0.942374 0.500000 0.253288
O O1 0.931611 0.672452 0.647079
O O2 0.033070 0.500000 0.842091
O O3 0.000000 0.500000 0.000000
O O4 0.750000 0.250000 0.500000
O O5 0.673017 0.296481 0.514884
O O6 0.724080 0.000000 0.613070
O O7 0.789715 0.267712 0.865051
O O8 0.634961 0.500000 0.895840
O O9 0.657773 0.262790 0.752159
O O10 0.594807 0.178050 0.817123
O O11 0.404121 0.500000 0.552038
O O12 0.000000 0.500000 0.500000
#
# Coordination Sequence:
#
# PCOD8113310 Si02
#       5
#     4   8   8   8   4
#     4  12  28  46  66  98 138 178 220 274 322 398
#     4  11  24  41  65  99 136 170 217 275 334 390
#     4  10  24  42  67  99 130 171 220 275 325 389
#     4  11  23  44  68  96 130 174 220 272 330 389
#     4  12  24  44  72  96 130 180 226 262 328 398
#
# _framework density 20.385933999999999
#
# number of rings (size 3 to 8) (size 9 to 14) (size 15 to 20)
#    0.000    1.000    3.750    1.500    7.000    2.000 
#    0.000    0.000    0.000    0.000    0.000    0.000 
#    0.000    0.000    0.000    0.000    0.000    0.000 
#
# Total GULP energy -198445.380402 kJ/mol
# GULP energy per Si atom -12402.836275 kJ/mol
# Density = 2.033953 g / cm^3
# Si number density = 20.385934 Si / 1000 Ang^3
#
#
#
# Elastic Constant Matrix: (Units=GPa)
#
#
# Indices 1 2 3 4 5 6 
#
# 1 148.6235 40.0265 29.0223 0.0000 -14.0532 0.0000
# 2 40.0265 107.5766 40.9162 0.0000 7.7534 0.0000
# 3 29.0223 40.9162 101.5952 0.0000 -18.0228 0.0000
# 4 0.0000 0.0000 0.0000 28.2383 0.0000 3.6651
# 5 -14.0532 7.7534 -18.0228 0.0000 38.9655 0.0000
# 6 0.0000 0.0000 0.0000 3.6651 0.0000 35.6916
#
#
#
# Elastic Compliance Matrix: (Units=1/GPa)
#
#
# Indices 1 2 3 4 5 6 
#
# 1 0.007938 -0.003002 -0.000484 0.000000 0.003236 0.000000
# 2 -0.003002 0.012928 -0.005444 0.000000 -0.006174 0.000000
# 3 -0.000484 -0.005444 0.013438 0.000000 0.007124 0.000000
# 4 0.000000 0.000000 0.000000 0.035891 0.000000 -0.003686
# 5 0.003236 -0.006174 0.007124 0.000000 0.031354 0.000000
# 6 0.000000 0.000000 0.000000 -0.003686 0.000000 0.028396
#
#
# Mechanical properties :
#
#
# Convention : Reuss Voigt Hill
#
# Bulk Modulus (GPa) = 60.82007 64.19170 62.50588
# Shear Modulus (GPa) = 32.61830 37.10110 34.85970
#
# Velocity S-wave (km/s) = 4.00439 4.27070 4.13969
# Velocity P-wave (km/s) = 7.16095 7.47496 7.31964
#
# Compressibility (1/GPa) = 0.01644194
#
# Stress axis : x y z
#
# Youngs Moduli (GPa) = 125.98321 77.34857 74.41746
#
# Poissons Ratio (x) = 0.23224 0.03603
# Poissons Ratio (y) = 0.37826 0.40515
# Poissons Ratio (z) = 0.06100 0.42111
#
# Static dielectric constant tensor:
#      x y z
#    x 3.506460 0.000000 -0.328310 
#    y 0.000000 3.919820 0.000000 
#    z -0.328310 0.000000 3.643840 
# 
# 
# High freq. dielectric constant tensor:
#      x y z
#    x 1.801960 0.000000 -0.009330 
#    y 0.000000 1.813210 0.000000 
#    z -0.009330 0.000000 1.799350 
# 
# From -- ./inp_files/107617.got.cif
#   From: 2010.06.25/outbox.cif.g09.slc.cpg/sg12_54_cif.got.tgz:107617.got - 2010.06.28 00:19:55.
