data_PCOD8113958
_publ_section_title
;
Structure prediction by ZEFSAII (Michael W. Deem and Ramdas Pophale) SiO2 
 PCOD8113958
Probable space group: C 2/M
;
_chemical_formula_sum "Si O2"
_cell_formula_units_Z 40
_cell_length_a 20.168362
_cell_length_b 7.866615
_cell_length_c 27.819133
_cell_angle_alpha 90.000000
_cell_angle_beta 152.355288
_cell_angle_gamma 90.000000
_cell_volume 2047.898179
_symmetry_space_group_name_H-M "C 2/M"
_symmetry_group_IT_number 12
_symmetry_cell_setting 'monoclinic'
loop_
_space_group_symop_operation_xyz
x,y,z
-x,y,-z
-x,-y,-z
x,-y,z
1/2+x,1/2+y,z
1/2-x,1/2+y,-z
1/2-x,1/2-y,-z
1/2+x,1/2-y,z
loop_
_atom_site_type_symbol
_atom_site_label
_atom_site_fract_x
_atom_site_fract_y
_atom_site_fract_z
Si Si1 0.073302 0.689863 0.757128
Si Si2 0.299240 0.692958 0.630434
Si Si3 0.916929 0.500000 0.873549
Si Si4 0.283083 0.000000 0.892421
Si Si5 0.513452 0.304103 0.400635
Si Si6 0.770227 0.811806 0.313043
O O1 0.137392 0.500000 0.805026
O O2 0.947186 0.713467 0.714680
O O3 0.007217 0.702241 0.661598
O O4 0.194202 0.829162 0.844768
O O5 0.307574 0.500000 0.617455
O O6 0.174722 0.787533 0.521770
O O7 0.272316 0.692545 0.670263
O O8 0.842813 0.500000 0.877420
O O9 0.862518 0.331908 0.809746
O O10 0.087448 0.500000 0.986324
O O11 0.473869 0.500000 0.364834
O O12 0.406255 0.231382 0.372622
O O13 0.812290 0.000000 0.360280
#
# Coordination Sequence:
#
# PCOD8113958 Si02
#       6
#     8   8   4   4   8   8
#     4  12  23  40  63  91 126 163 207 258 300 374
#     4  12  24  36  56  88 134 166 205 250 304 369
#     4   9  20  42  74  87 120 156 203 273 301 371
#     4  11  20  46  69  94 118 159 207 255 329 345
#     4  11  20  38  60  90 123 167 207 249 302 369
#     4   9  19  39  59  88 117 163 202 252 304 361
#
# _framework density 19.532221
#
# number of rings (size 3 to 8) (size 9 to 14) (size 15 to 20)
#    0.600    0.600    4.000    3.600    0.000    4.000 
#    0.000    4.000    0.000    0.000    0.000    0.000 
#    0.000    0.000    0.000    0.000    0.000    0.000 
#
# Total GULP energy -248011.317362 kJ/mol
# GULP energy per Si atom -12400.565868 kJ/mol
# Density = 1.948777 g / cm^3
# Si number density = 19.532221 Si / 1000 Ang^3
#
#
#
# Elastic Constant Matrix: (Units=GPa)
#
#
# Indices 1 2 3 4 5 6 
#
# 1 79.6828 22.5304 11.8084 0.0032 21.8684 -0.0001
# 2 22.5304 104.0813 30.9139 -0.0007 10.6795 -0.0019
# 3 11.8084 30.9139 111.8054 0.0167 21.1168 -0.0006
# 4 0.0032 -0.0007 0.0167 15.8143 -0.0005 0.2166
# 5 21.8684 10.6795 21.1168 -0.0005 24.1859 -0.0004
# 6 -0.0001 -0.0019 -0.0006 0.2166 -0.0004 29.9883
#
#
#
# Elastic Compliance Matrix: (Units=1/GPa)
#
#
# Indices 1 2 3 4 5 6 
#
# 1 0.017515 -0.002702 0.001991 -0.000006 -0.016382 0.000000
# 2 -0.002702 0.011013 -0.002757 0.000004 -0.000012 0.000001
# 3 0.001991 -0.002757 0.011503 -0.000013 -0.010626 0.000000
# 4 -0.000006 0.000004 -0.000013 0.063240 0.000017 -0.000457
# 5 -0.016382 -0.000012 -0.010626 0.000017 0.065442 0.000001
# 6 0.000000 0.000001 0.000000 -0.000457 0.000001 0.033350
#
#
# Mechanical properties :
#
#
# Convention : Reuss Voigt Hill
#
# Bulk Modulus (GPa) = 30.21622 47.34166 38.77894
# Shear Modulus (GPa) = 22.72417 29.35215 26.03816
#
# Velocity S-wave (km/s) = 3.41459 3.88074 3.65511
# Velocity P-wave (km/s) = 5.57220 6.66112 6.14085
#
# Compressibility (1/GPa) = 0.03309481
#
# Stress axis : x y z
#
# Youngs Moduli (GPa) = 57.09548 90.80165 86.93219
#
# Poissons Ratio (x) = 0.24534 -0.17311
# Poissons Ratio (y) = 0.15427 0.23970
# Poissons Ratio (z) = -0.11369 0.25037
#
# Static dielectric constant tensor:
#      x y z
#    x 3.574990 0.000000 0.085760 
#    y 0.000000 3.396500 0.000000 
#    z 0.085760 0.000000 3.472610 
# 
# 
# High freq. dielectric constant tensor:
#      x y z
#    x 1.769750 0.000000 0.007310 
#    y 0.000000 1.747680 0.000000 
#    z 0.007310 0.000000 1.742930 
# 
# From -- ./inp_files/362846.got.cif
#   From: 2010.06.25/outbox.cif.g09.slc.cpg/sg12_182_cif.got.tgz:362846.got - 2010.06.28 00:19:55.
