data_PCOD8113990
_publ_section_title
;
Structure prediction by ZEFSAII (Michael W. Deem and Ramdas Pophale) SiO2 
 PCOD8113990
Probable space group: C 2/M
;
_chemical_formula_sum "Si O2"
_cell_formula_units_Z 56
_cell_length_a 18.417806
_cell_length_b 18.521782
_cell_length_c 11.255512
_cell_angle_alpha 90.000000
_cell_angle_beta 133.674331
_cell_angle_gamma 90.000000
_cell_volume 2777.092395
_symmetry_space_group_name_H-M "C 2/M"
_symmetry_group_IT_number 12
_symmetry_cell_setting 'monoclinic'
loop_
_space_group_symop_operation_xyz
x,y,z
-x,y,-z
-x,-y,-z
x,-y,z
1/2+x,1/2+y,z
1/2-x,1/2+y,-z
1/2-x,1/2-y,-z
1/2+x,1/2-y,z
loop_
_atom_site_type_symbol
_atom_site_label
_atom_site_fract_x
_atom_site_fract_y
_atom_site_fract_z
Si Si1 0.220521 0.417157 0.074445
Si Si2 0.302279 0.919648 0.544482
Si Si3 0.997275 0.362078 0.133894
Si Si4 0.526363 0.290376 0.270641
Si Si5 0.194323 0.182838 0.999400
Si Si6 0.695842 0.340683 0.611456
Si Si7 0.697246 0.696233 0.282688
O O1 0.251494 0.500000 0.126494
O O2 0.287978 0.364775 0.235036
O O3 0.103062 0.408348 0.963627
O O4 0.247192 0.390070 0.971957
O O5 0.411445 0.913629 0.727667
O O6 0.220068 0.909360 0.555969
O O7 0.282435 0.860824 0.419212
O O8 0.290293 0.000000 0.477860
O O9 0.999231 0.293626 0.223266
O O10 0.000000 0.336024 0.000000
O O11 0.585453 0.308074 0.460410
O O12 0.592262 0.318785 0.232245
O O13 0.420907 0.329823 0.167929
O O14 0.190833 0.191527 0.135456
O O15 0.250000 0.250000 0.000000
O O16 0.773228 0.278625 0.653759
#
# Coordination Sequence:
#
# PCOD8113990 Si02
#       7
#     8   8   8   8   8   8   8
#     4  12  26  42  62  97 137 169 209 267 334 384
#     4  11  22  36  61  99 133 167 209 264 327 380
#     4  12  20  36  66  99 132 161 207 268 323 385
#     4  11  21  39  68  98 121 160 223 268 310 374
#     4  12  24  41  64  91 126 173 215 260 316 383
#     4  11  20  39  65  94 129 168 210 267 318 380
#     4  11  21  42  66  91 129 168 218 265 308 383
#
# _framework density 20.164975999999999
#
# number of rings (size 3 to 8) (size 9 to 14) (size 15 to 20)
#    0.000    0.571    7.143    3.000    0.000    1.714 
#    0.000    6.429    0.000    6.000    0.000    0.000 
#    0.000    0.000    0.000    0.000    0.000    0.000 
#
# Total GULP energy -347115.588348 kJ/mol
# GULP energy per Si atom -12396.985298 kJ/mol
# Density = 2.011908 g / cm^3
# Si number density = 20.164976 Si / 1000 Ang^3
#
#
#
# Elastic Constant Matrix: (Units=GPa)
#
#
# Indices 1 2 3 4 5 6 
#
# 1 83.0088 22.2377 34.4443 0.0000 12.2755 0.0000
# 2 22.2377 120.6921 33.1862 0.0000 2.3195 0.0000
# 3 34.4443 33.1862 99.0019 0.0000 19.5034 0.0000
# 4 0.0000 0.0000 0.0000 24.8133 0.0000 -4.0376
# 5 12.2755 2.3195 19.5034 0.0000 23.1137 0.0000
# 6 0.0000 0.0000 0.0000 -4.0376 0.0000 20.2971
#
#
#
# Elastic Compliance Matrix: (Units=1/GPa)
#
#
# Indices 1 2 3 4 5 6 
#
# 1 0.014672 -0.001606 -0.003673 0.000000 -0.004531 0.000000
# 2 -0.001606 0.009380 -0.003080 0.000000 0.002511 0.000000
# 3 -0.003673 -0.003080 0.014352 0.000000 -0.009850 0.000000
# 4 0.000000 0.000000 0.000000 0.041649 0.000000 0.008285
# 5 -0.004531 0.002511 -0.009850 0.000000 0.053730 0.000000
# 6 0.000000 0.000000 0.000000 0.008285 0.000000 0.050916
#
#
# Mechanical properties :
#
#
# Convention : Reuss Voigt Hill
#
# Bulk Modulus (GPa) = 46.11661 53.60435 49.86048
# Shear Modulus (GPa) = 23.96397 27.83379 25.89888
#
# Velocity S-wave (km/s) = 3.45105 3.71927 3.58767
# Velocity P-wave (km/s) = 6.22888 6.71451 6.47625
#
# Compressibility (1/GPa) = 0.02168416
#
# Stress axis : x y z
#
# Youngs Moduli (GPa) = 68.15914 106.60817 69.67759
#
# Poissons Ratio (x) = 0.17122 0.25596
# Poissons Ratio (y) = 0.10947 0.21461
# Poissons Ratio (z) = 0.25038 0.32837
#
# Static dielectric constant tensor:
#      x y z
#    x 3.591060 0.000000 0.095890 
#    y 0.000000 3.508930 0.000000 
#    z 0.095890 0.000000 3.894320 
# 
# 
# High freq. dielectric constant tensor:
#      x y z
#    x 1.775860 0.000000 0.006700 
#    y 0.000000 1.772100 0.000000 
#    z 0.006700 0.000000 1.794370 
# 
# From -- ./inp_files/158354.got.cif
#   From: 2010.06.25/outbox.cif.g09.slc.cpg/sg12_80_cif.got.tgz:158354.got - 2010.06.28 00:19:55.
