data_PCOD8113549
_publ_section_title
;
Structure prediction by ZEFSAII (Michael W. Deem and Ramdas Pophale) SiO2 
 PCOD8113549
Probable space group: C 2/M
;
_chemical_formula_sum "Si O2"
_cell_formula_units_Z 24
_cell_length_a 9.583654
_cell_length_b 11.814465
_cell_length_c 10.248544
_cell_angle_alpha 90.000000
_cell_angle_beta 63.017247
_cell_angle_gamma 90.000000
_cell_volume 1034.081636
_symmetry_space_group_name_H-M "C 2/M"
_symmetry_group_IT_number 12
_symmetry_cell_setting 'monoclinic'
loop_
_space_group_symop_operation_xyz
x,y,z
-x,y,-z
-x,-y,-z
x,-y,z
1/2+x,1/2+y,z
1/2-x,1/2+y,-z
1/2-x,1/2-y,-z
1/2+x,1/2-y,z
loop_
_atom_site_type_symbol
_atom_site_label
_atom_site_fract_x
_atom_site_fract_y
_atom_site_fract_z
Si Si1 0.361684 0.626187 0.294755
Si Si2 0.150701 0.722439 0.168795
Si Si3 0.683414 0.500000 0.450082
Si Si4 0.522462 0.000000 0.836954
O O1 0.377046 0.500000 0.223338
O O2 0.264760 0.711339 0.244629
O O3 0.535911 0.673490 0.242402
O O4 0.281718 0.610769 0.472264
O O5 0.054965 0.607994 0.194567
O O6 0.250000 0.750000 0.000000
O O7 0.500000 0.500000 0.500000
O O8 0.792250 0.500000 0.276466
O O9 0.500000 0.000000 0.000000
#
# Coordination Sequence:
#
# PCOD8113549 Si02
#       4
#     8   8   4   4
#     4  10  26  50  74 109 155 202 260 311 392 454
#     4  12  26  46  78 115 155 206 249 327 390 455
#     4  10  27  51  76 112 155 207 258 325 384 462
#     4  12  27  47  76 116 155 194 270 318 388 468
#
# _framework density 23.209001000000001
#
# number of rings (size 3 to 8) (size 9 to 14) (size 15 to 20)
#    1.000    0.000    1.667    3.000   11.667    5.333 
#    0.000    0.000    0.000    0.000    0.000    0.000 
#    0.000    0.000    0.000    0.000    0.000    0.000 
#
# Total GULP energy -148755.414916 kJ/mol
# GULP energy per Si atom -12396.284576 kJ/mol
# Density = 2.315618 g / cm^3
# Si number density = 23.209001 Si / 1000 Ang^3
#
#
#
# Elastic Constant Matrix: (Units=GPa)
#
#
# Indices 1 2 3 4 5 6 
#
# 1 146.5466 46.4476 65.6876 0.0000 -2.2688 0.0000
# 2 46.4476 75.3961 23.2279 0.0000 -13.6376 0.0000
# 3 65.6876 23.2279 184.4870 0.0000 -13.3073 0.0000
# 4 0.0000 0.0000 0.0000 26.3843 0.0000 -4.7138
# 5 -2.2688 -13.6376 -13.3073 0.0000 45.6369 0.0000
# 6 0.0000 0.0000 0.0000 -4.7138 0.0000 51.7588
#
#
#
# Elastic Compliance Matrix: (Units=1/GPa)
#
#
# Indices 1 2 3 4 5 6 
#
# 1 0.009877 -0.005538 -0.002966 0.000000 -0.002029 0.000000
# 2 -0.005538 0.017542 0.000124 0.000000 0.005003 0.000000
# 3 -0.002966 0.000124 0.006591 0.000000 0.001812 0.000000
# 4 0.000000 0.000000 0.000000 0.038528 0.000000 0.003509
# 5 -0.002029 0.005003 0.001812 0.000000 0.023834 0.000000
# 6 0.000000 0.000000 0.000000 0.003509 0.000000 0.019640
#
#
# Mechanical properties :
#
#
# Convention : Reuss Voigt Hill
#
# Bulk Modulus (GPa) = 57.96861 75.23955 66.60408
# Shear Modulus (GPa) = 36.09527 42.82712 39.46119
#
# Velocity S-wave (km/s) = 3.94792 4.30033 4.12789
# Velocity P-wave (km/s) = 6.76848 7.55948 7.17489
#
# Compressibility (1/GPa) = 0.01725072
#
# Stress axis : x y z
#
# Youngs Moduli (GPa) = 101.24541 57.00736 151.71083
#
# Poissons Ratio (x) = 0.31570 0.44995
# Poissons Ratio (y) = 0.56069 -0.01883
# Poissons Ratio (z) = 0.30028 -0.00707
#
# Static dielectric constant tensor:
#      x y z
#    x 4.208720 0.000000 0.069640 
#    y 0.000000 4.272410 0.000000 
#    z 0.069640 0.000000 4.100490 
# 
# 
# High freq. dielectric constant tensor:
#      x y z
#    x 1.926410 0.000000 0.004630 
#    y 0.000000 1.931980 0.000000 
#    z 0.004630 0.000000 1.911230 
# 
# From -- ./inp_files/35910.got.cif
#   From: 2010.06.25/outbox.cif.g09.slc.cpg/sg12_18_cif.got.tgz:35910.got - 2010.06.28 00:19:55.
