data_PCOD8113035
_publ_section_title
;
Structure prediction by ZEFSAII (Michael W. Deem and Ramdas Pophale) SiO2 
 PCOD8113035
Probable space group: C 2/M
;
_chemical_formula_sum "Si O2"
_cell_formula_units_Z 48
_cell_length_a 18.788777
_cell_length_b 16.250780
_cell_length_c 15.082646
_cell_angle_alpha 90.000000
_cell_angle_beta 31.864143
_cell_angle_gamma 90.000000
_cell_volume 2431.126853
_symmetry_space_group_name_H-M "C 2/M"
_symmetry_group_IT_number 12
_symmetry_cell_setting 'monoclinic'
loop_
_space_group_symop_operation_xyz
x,y,z
-x,y,-z
-x,-y,-z
x,-y,z
1/2+x,1/2+y,z
1/2-x,1/2+y,-z
1/2-x,1/2-y,-z
1/2+x,1/2-y,z
loop_
_atom_site_type_symbol
_atom_site_label
_atom_site_fract_x
_atom_site_fract_y
_atom_site_fract_z
Si Si1 0.218148 0.812476 0.956265
Si Si2 0.346066 0.216144 0.152061
Si Si3 0.955850 0.094986 0.294914
Si Si4 0.240502 0.685751 0.428696
Si Si5 0.877483 0.903094 0.569138
Si Si6 0.514019 0.902655 0.380761
O O1 0.093532 0.866781 0.117243
O O2 0.250000 0.750000 0.000000
O O3 0.175956 0.760553 0.916639
O O4 0.340241 0.874014 0.806286
O O5 0.300376 0.276581 0.277125
O O6 0.259889 0.132934 0.246477
O O7 0.500000 0.189520 0.000000
O O8 0.837073 0.109195 0.350107
O O9 0.908311 0.133524 0.439238
O O10 0.983630 0.000000 0.279110
O O11 0.250000 0.750000 0.500000
O O12 0.092588 0.649430 0.565171
O O13 0.000000 0.873237 0.500000
O O14 0.859560 0.000000 0.587684
O O15 0.500000 0.882622 0.500000
O O16 0.495646 0.000000 0.382594
#
# Coordination Sequence:
#
# PCOD8113035 Si02
#       6
#     8   8   8   8   8   8
#     4  12  25  41  66  98 130 170 215 271 321 387
#     4  12  25  41  64  98 130 167 217 266 326 390
#     4  11  23  42  65  93 129 172 213 260 325 387
#     4  12  23  43  66  96 130 171 219 267 323 394
#     4  10  23  43  67  93 126 172 220 270 323 382
#     4  11  25  44  67  98 133 173 222 277 336 388
#
# _framework density 19.743929999999999
#
# number of rings (size 3 to 8) (size 9 to 14) (size 15 to 20)
#    0.000    0.667    5.000    3.000    2.333    0.333 
#    0.000    1.667    0.000    0.000    0.000    0.000 
#    0.000    0.000    0.000    0.000    0.000    0.000 
#
# Total GULP energy -297661.772247 kJ/mol
# GULP energy per Si atom -12402.573844 kJ/mol
# Density = 1.969899 g / cm^3
# Si number density = 19.743930 Si / 1000 Ang^3
#
#
#
# Elastic Constant Matrix: (Units=GPa)
#
#
# Indices 1 2 3 4 5 6 
#
# 1 167.6686 48.6687 89.6814 -0.0003 7.7985 0.0004
# 2 48.6687 79.4404 49.7095 -0.0002 -9.2358 0.0004
# 3 89.6814 49.7095 181.4036 -0.0004 -1.8777 0.0007
# 4 -0.0003 -0.0002 -0.0004 37.1934 0.0000 -6.4260
# 5 7.7985 -9.2358 -1.8777 0.0000 54.9054 0.0000
# 6 0.0004 0.0004 0.0007 -6.4260 0.0000 34.7135
#
#
#
# Elastic Compliance Matrix: (Units=1/GPa)
#
#
# Indices 1 2 3 4 5 6 
#
# 1 0.008939 -0.003535 -0.003471 0.000000 -0.001983 0.000000
# 2 -0.003535 0.016918 -0.002855 0.000000 0.003250 0.000000
# 3 -0.003471 -0.002855 0.008014 0.000000 0.000287 0.000000
# 4 0.000000 0.000000 0.000000 0.027775 0.000000 0.005142
# 5 -0.001983 0.003250 0.000287 0.000000 0.019051 0.000000
# 6 0.000000 0.000000 0.000000 0.005142 0.000000 0.029759
#
#
# Mechanical properties :
#
#
# Convention : Reuss Voigt Hill
#
# Bulk Modulus (GPa) = 70.67515 89.40352 80.03934
# Shear Modulus (GPa) = 37.06613 41.39266 39.22939
#
# Velocity S-wave (km/s) = 4.33753 4.58370 4.46231
# Velocity P-wave (km/s) = 7.80764 8.56700 8.19612
#
# Compressibility (1/GPa) = 0.01414924
#
# Stress axis : x y z
#
# Youngs Moduli (GPa) = 111.86854 59.10878 124.78418
#
# Poissons Ratio (x) = 0.20895 0.43314
# Poissons Ratio (y) = 0.39545 0.35623
# Poissons Ratio (z) = 0.38831 0.16874
#
# Static dielectric constant tensor:
#      x y z
#    x 3.927140 0.000000 0.006410 
#    y 0.000000 3.653070 0.000000 
#    z 0.006410 0.000000 3.870050 
# 
# 
# High freq. dielectric constant tensor:
#      x y z
#    x 1.789950 0.000000 -0.001000 
#    y 0.000000 1.775260 0.000000 
#    z -0.001000 0.000000 1.782500 
# 
# From -- ./inp_files/75082.got.cif
#   From: 2010.06.25/outbox.cif.g09.slc.cpg/sg12_38_cif.got.tgz:75082.got - 2010.06.28 00:19:55.
