data_PCOD8113909
_publ_section_title
;
Structure prediction by ZEFSAII (Michael W. Deem and Ramdas Pophale) SiO2 
 PCOD8113909
Probable space group: C 2/M
;
_chemical_formula_sum "Si O2"
_cell_formula_units_Z 48
_cell_length_a 14.477833
_cell_length_b 22.267540
_cell_length_c 11.139492
_cell_angle_alpha 90.000000
_cell_angle_beta 42.699374
_cell_angle_gamma 90.000000
_cell_volume 2435.387129
_symmetry_space_group_name_H-M "C 2/M"
_symmetry_group_IT_number 12
_symmetry_cell_setting 'monoclinic'
loop_
_space_group_symop_operation_xyz
x,y,z
-x,y,-z
-x,-y,-z
x,-y,z
1/2+x,1/2+y,z
1/2-x,1/2+y,-z
1/2-x,1/2-y,-z
1/2+x,1/2-y,z
loop_
_atom_site_type_symbol
_atom_site_label
_atom_site_fract_x
_atom_site_fract_y
_atom_site_fract_z
Si Si1 0.179108 0.000000 0.205463
Si Si2 0.366176 0.500000 0.471640
Si Si3 0.652678 0.564686 0.870211
Si Si4 0.494591 0.168211 0.365398
Si Si5 0.477337 0.309452 0.657696
Si Si6 0.249308 0.616170 0.987155
Si Si7 0.289589 0.377846 0.425265
O O1 0.265187 0.941411 0.085918
O O2 0.161776 0.000000 0.362529
O O3 0.028219 0.000000 0.288481
O O4 0.293751 0.442154 0.485052
O O5 0.734233 0.500000 0.788613
O O6 0.697962 0.612640 0.728591
O O7 0.500000 0.545964 0.000000
O O8 0.657943 0.597189 0.991362
O O9 0.500000 0.145166 0.500000
O O10 0.522927 0.238404 0.336495
O O11 0.355821 0.154622 0.426213
O O12 0.604666 0.135782 0.176636
O O13 0.500000 0.332750 0.500000
O O14 0.327953 0.331033 0.841779
O O15 0.595294 0.334866 0.630456
#
# Coordination Sequence:
#
# PCOD8113909 Si02
#       7
#     4   4   8   8   8   8   8
#     4  11  22  40  69  96 124 167 211 260 315 376
#     4  11  22  40  69  96 124 167 211 260 315 376
#     4  11  20  35  63  99 123 157 207 266 316 365
#     4  11  26  43  62  93 133 172 208 258 323 372
#     4  11  24  44  67  90 124 174 220 258 304 375
#     4  12  22  41  66  95 127 162 213 263 316 375
#     4  12  22  41  66  95 127 162 213 263 316 375
#
# _framework density 19.709392000000001
#
# number of rings (size 3 to 8) (size 9 to 14) (size 15 to 20)
#    0.000    0.667    6.667    2.000    0.000    0.667 
#    0.000    5.833    3.667    0.000    0.000    0.000 
#    0.000    0.000    0.000    0.000    0.000    0.000 
#
# Total GULP energy -297522.045536 kJ/mol
# GULP energy per Si atom -12396.751897 kJ/mol
# Density = 1.966453 g / cm^3
# Si number density = 19.709392 Si / 1000 Ang^3
#
#
#
# Elastic Constant Matrix: (Units=GPa)
#
#
# Indices 1 2 3 4 5 6 
#
# 1 37.7988 12.4492 18.8877 0.0000 3.3452 0.0000
# 2 12.4492 93.3611 44.8490 0.0000 -0.7086 0.0000
# 3 18.8877 44.8490 130.1021 0.0000 0.9135 0.0000
# 4 0.0000 0.0000 0.0000 -5.5873 0.0000 2.5964
# 5 3.3452 -0.7086 0.9135 0.0000 33.6568 0.0000
# 6 0.0000 0.0000 0.0000 2.5964 0.0000 16.2740
#
#
#
# Elastic Compliance Matrix: (Units=1/GPa)
#
#
# Indices 1 2 3 4 5 6 
#
# 1 0.029170 -0.002261 -0.003435 0.000000 -0.002854 0.000000
# 2 -0.002261 0.013017 -0.004163 0.000000 0.000612 0.000000
# 3 -0.003435 -0.004163 0.009620 0.000000 -0.000007 0.000000
# 4 0.000000 0.000000 0.000000 -0.166623 0.000000 0.026584
# 5 -0.002854 0.000612 -0.000007 0.000000 0.030008 0.000000
# 6 0.000000 0.000000 0.000000 0.026584 0.000000 0.057206
#
#
# Mechanical properties :
#
#
# Convention : Reuss Voigt Hill
#
# Bulk Modulus (GPa) = 31.16451 45.95932 38.56191
# Shear Modulus (GPa) = 1776.93585 21.20711 899.07148
#
# Velocity S-wave (km/s) = 30.05870 3.28379 21.38117
# Velocity P-wave (km/s) = 34.93632 6.14384 25.08280
#
# Compressibility (1/GPa) = 0.03208779
#
# Stress axis : x y z
#
# Youngs Moduli (GPa) = 34.28221 76.82117 103.94740
#
# Poissons Ratio (x) = 0.17370 0.35709
# Poissons Ratio (y) = 0.07751 0.43277
# Poissons Ratio (z) = 0.11777 0.31984
#
# Static dielectric constant tensor:
#      x y z
#    x 3.606580 0.000000 0.134340 
#    y 0.000000 3.664490 0.000000 
#    z 0.134340 0.000000 3.952820 
# 
# 
# High freq. dielectric constant tensor:
#      x y z
#    x 1.762290 0.000000 0.016850 
#    y 0.000000 1.780190 0.000000 
#    z 0.016850 0.000000 1.770220 
# 
# From -- ./inp_files/147970.got.cif
#   From: 2010.06.25/outbox.cif.g09.slc.cpg/sg12_74_cif.got.tgz:147970.got - 2010.06.28 00:19:55.
