data_PCOD8113722
_publ_section_title
;
Structure prediction by ZEFSAII (Michael W. Deem and Ramdas Pophale) SiO2 
 PCOD8113722
Probable space group: C 2/M
;
_chemical_formula_sum "Si O2"
_cell_formula_units_Z 36
_cell_length_a 27.679469
_cell_length_b 14.478649
_cell_length_c 9.497588
_cell_angle_alpha 90.000000
_cell_angle_beta 27.133392
_cell_angle_gamma 90.000000
_cell_volume 1735.899490
_symmetry_space_group_name_H-M "C 2/M"
_symmetry_group_IT_number 12
_symmetry_cell_setting 'monoclinic'
loop_
_space_group_symop_operation_xyz
x,y,z
-x,y,-z
-x,-y,-z
x,-y,z
1/2+x,1/2+y,z
1/2-x,1/2+y,-z
1/2-x,1/2-y,-z
1/2+x,1/2-y,z
loop_
_atom_site_type_symbol
_atom_site_label
_atom_site_fract_x
_atom_site_fract_y
_atom_site_fract_z
Si Si1 0.216853 0.144348 0.900056
Si Si2 0.199821 0.000000 0.447749
Si Si3 0.072872 0.603308 0.509567
Si Si4 0.107394 0.000000 0.382568
Si Si5 0.642404 0.848230 0.030268
Si Si6 0.368396 0.500000 0.073138
O O1 0.341995 0.151349 0.608747
O O2 0.197102 0.090021 0.806367
O O3 0.176192 0.247032 0.988495
O O4 0.156463 0.091721 0.184204
O O5 0.131061 0.000000 0.486073
O O6 0.121076 0.000000 0.786005
O O7 0.268790 0.906389 0.281573
O O8 0.052342 0.500000 0.618145
O O9 0.117476 0.595312 0.235920
O O10 0.962279 0.659570 0.797047
O O11 0.980318 0.000000 0.700195
#
# Coordination Sequence:
#
# PCOD8113722 Si02
#       6
#     8   4   8   4   8   4
#     4  11  22  41  66  96 124 162 225 273 311 367
#     4  12  23  43  60  92 135 171 209 257 329 396
#     4  11  19  38  64  99 123 162 211 273 324 363
#     4  11  23  42  63  91 123 172 220 261 320 373
#     4  11  22  35  67  97 125 162 214 270 320 377
#     4  11  27  40  60  89 136 175 210 260 319 393
#
# _framework density 20.738527999999999
#
# number of rings (size 3 to 8) (size 9 to 14) (size 15 to 20)
#    0.000    0.889    6.667    3.000    6.222    0.889 
#    0.000    2.222    0.000    0.000    0.000    0.000 
#    0.000    0.000    0.000    0.000    0.000    0.000 
#
# Total GULP energy -223199.985129 kJ/mol
# GULP energy per Si atom -12399.999174 kJ/mol
# Density = 2.069133 g / cm^3
# Si number density = 20.738528 Si / 1000 Ang^3
#
#
#
# Elastic Constant Matrix: (Units=GPa)
#
#
# Indices 1 2 3 4 5 6 
#
# 1 115.1591 50.9681 34.4482 0.0000 -22.2733 0.0000
# 2 50.9681 151.1950 38.6061 0.0000 -19.3475 0.0000
# 3 34.4482 38.6061 53.7386 0.0000 -9.0295 0.0000
# 4 0.0000 0.0000 0.0000 10.7389 0.0000 -9.3007
# 5 -22.2733 -19.3475 -9.0295 0.0000 53.1080 0.0000
# 6 0.0000 0.0000 0.0000 -9.3007 0.0000 22.8439
#
#
#
# Elastic Compliance Matrix: (Units=1/GPa)
#
#
# Indices 1 2 3 4 5 6 
#
# 1 0.011941 -0.002196 -0.005528 0.000000 0.003268 0.000000
# 2 -0.002196 0.008719 -0.004609 0.000000 0.001472 0.000000
# 3 -0.005528 -0.004609 0.025521 0.000000 0.000341 0.000000
# 4 0.000000 0.000000 0.000000 0.143840 0.000000 0.058563
# 5 0.003268 0.001472 0.000341 0.000000 0.020795 0.000000
# 6 0.000000 0.000000 0.000000 0.058563 0.000000 0.067619
#
#
# Mechanical properties :
#
#
# Convention : Reuss Voigt Hill
#
# Bulk Modulus (GPa) = 46.47812 63.12639 54.80226
# Shear Modulus (GPa) = 16.11485 30.40950 23.26218
#
# Velocity S-wave (km/s) = 2.79058 3.83342 3.35280
# Velocity P-wave (km/s) = 5.73091 7.07805 6.43980
#
# Compressibility (1/GPa) = 0.02151550
#
# Stress axis : x y z
#
# Youngs Moduli (GPa) = 83.74363 114.68652 39.18332
#
# Poissons Ratio (x) = 0.25181 0.21661
# Poissons Ratio (y) = 0.18387 0.18061
# Poissons Ratio (z) = 0.46295 0.52862
#
# Static dielectric constant tensor:
#      x y z
#    x 3.896720 0.000000 -0.385170 
#    y 0.000000 3.589470 0.000000 
#    z -0.385170 0.000000 3.550530 
# 
# 
# High freq. dielectric constant tensor:
#      x y z
#    x 1.819270 0.000000 -0.031010 
#    y 0.000000 1.809010 0.000000 
#    z -0.031010 0.000000 1.783970 
# 
# From -- ./inp_files/104896.got.cif
#   From: 2010.06.25/outbox.cif.g09.slc.cpg/sg12_53_cif.got.tgz:104896.got - 2010.06.28 00:19:55.
