data_PCOD8113513
_publ_section_title
;
Structure prediction by ZEFSAII (Michael W. Deem and Ramdas Pophale) SiO2 
 PCOD8113513
Probable space group: C 2/M
;
_chemical_formula_sum "Si O2"
_cell_formula_units_Z 32
_cell_length_a 14.556677
_cell_length_b 16.703902
_cell_length_c 4.986706
_cell_angle_alpha 90.000000
_cell_angle_beta 90.518378
_cell_angle_gamma 90.000000
_cell_volume 1212.484424
_symmetry_space_group_name_H-M "C 2/M"
_symmetry_group_IT_number 12
_symmetry_cell_setting 'monoclinic'
loop_
_space_group_symop_operation_xyz
x,y,z
-x,y,-z
-x,-y,-z
x,-y,z
1/2+x,1/2+y,z
1/2-x,1/2+y,-z
1/2-x,1/2-y,-z
1/2+x,1/2-y,z
loop_
_atom_site_type_symbol
_atom_site_label
_atom_site_fract_x
_atom_site_fract_y
_atom_site_fract_z
Si Si1 0.309394 0.628256 0.496829
Si Si2 0.714562 0.000000 0.797438
Si Si3 0.000000 0.634330 0.000000
Si Si4 0.910680 0.500000 0.702524
Si Si5 0.066425 0.000000 0.745509
Si Si6 0.169510 0.278720 0.183963
O O1 0.282131 0.575077 0.754200
O O2 0.371062 0.580226 0.280157
O O3 0.210782 0.648684 0.359701
O O4 0.361461 0.707123 0.613337
O O5 0.628044 0.000000 0.596386
O O6 0.675296 0.000000 0.094995
O O7 0.977997 0.577137 0.744908
O O8 0.911643 0.692506 0.017030
O O9 0.000000 0.000000 0.500000
O O10 0.000000 0.000000 0.000000
O O11 0.250000 0.250000 0.000000
#
# Coordination Sequence:
#
# PCOD8113513 Si02
#       6
#     8   4   4   4   4   8
#     4  10  25  45  74 104 151 196 258 314 388 463
#     4  11  22  47  76 104 146 188 252 311 382 451
#     4  11  24  44  74 111 150 196 256 313 388 464
#     4  11  24  42  73 111 147 185 253 311 383 456
#     4  11  28  48  79 111 149 207 275 325 388 461
#     4  11  24  46  72 109 152 202 246 318 394 465
#
# _framework density 26.392088999999999
#
# number of rings (size 3 to 8) (size 9 to 14) (size 15 to 20)
#    0.000    1.250    2.500    1.500    3.500    6.000 
#    9.000    0.000    0.000    0.000    0.000    0.000 
#    0.000    0.000    0.000    0.000    0.000    0.000 
#
# Total GULP energy -198255.281109 kJ/mol
# GULP energy per Si atom -12390.955069 kJ/mol
# Density = 2.633202 g / cm^3
# Si number density = 26.392089 Si / 1000 Ang^3
#
#
#
# Elastic Constant Matrix: (Units=GPa)
#
#
# Indices 1 2 3 4 5 6 
#
# 1 168.5129 75.5449 39.9337 0.0000 -0.9344 0.0000
# 2 75.5449 161.1774 20.9681 0.0000 -10.6213 0.0000
# 3 39.9337 20.9681 65.9948 0.0000 -27.3650 0.0000
# 4 0.0000 0.0000 0.0000 7.1367 0.0000 -0.5150
# 5 -0.9344 -10.6213 -27.3650 0.0000 69.5158 0.0000
# 6 0.0000 0.0000 0.0000 -0.5150 0.0000 43.2221
#
#
#
# Elastic Compliance Matrix: (Units=1/GPa)
#
#
# Indices 1 2 3 4 5 6 
#
# 1 0.008761 -0.003595 -0.005184 0.000000 -0.002472 0.000000
# 2 -0.003595 0.007949 0.000159 0.000000 0.001229 0.000000
# 3 -0.005184 0.000159 0.021775 0.000000 0.008526 0.000000
# 4 0.000000 0.000000 0.000000 0.140242 0.000000 0.001671
# 5 -0.002472 0.001229 0.008526 0.000000 0.017896 0.000000
# 6 0.000000 0.000000 0.000000 0.001671 0.000000 0.023156
#
#
# Mechanical properties :
#
#
# Convention : Reuss Voigt Hill
#
# Bulk Modulus (GPa) = 47.06974 74.28649 60.67812
# Shear Modulus (GPa) = 20.48340 41.25747 30.87043
#
# Velocity S-wave (km/s) = 2.78891 3.95809 3.42378
# Velocity P-wave (km/s) = 5.31453 7.00692 6.21857
#
# Compressibility (1/GPa) = 0.02124507
#
# Stress axis : x y z
#
# Youngs Moduli (GPa) = 114.14832 125.79458 45.92527
#
# Poissons Ratio (x) = 0.45218 0.23808
# Poissons Ratio (y) = 0.41032 -0.00730
# Poissons Ratio (z) = 0.59175 -0.01999
#
# Static dielectric constant tensor:
#      x y z
#    x 4.981340 0.000000 0.498450 
#    y 0.000000 5.737580 0.000000 
#    z 0.498450 0.000000 4.854660 
# 
# 
# High freq. dielectric constant tensor:
#      x y z
#    x 2.056170 0.000000 0.009920 
#    y 0.000000 2.077480 0.000000 
#    z 0.009920 0.000000 2.052020 
# 
# From -- ./inp_files/10002.got.cif
#   From: 2010.06.25/outbox.cif.g09.slc.cpg/sg12_6_cif.got.tgz:10002.got - 2010.06.28 00:19:55.
