data_PCOD8113591
_publ_section_title
;
Structure prediction by ZEFSAII (Michael W. Deem and Ramdas Pophale) SiO2 
 PCOD8113591
Probable space group: C 2/M
;
_chemical_formula_sum "Si O2"
_cell_formula_units_Z 64
_cell_length_a 8.635409
_cell_length_b 20.295332
_cell_length_c 20.354604
_cell_angle_alpha 90.000000
_cell_angle_beta 60.242093
_cell_angle_gamma 90.000000
_cell_volume 3096.896259
_symmetry_space_group_name_H-M "C 2/M"
_symmetry_group_IT_number 12
_symmetry_cell_setting 'monoclinic'
loop_
_space_group_symop_operation_xyz
x,y,z
-x,y,-z
-x,-y,-z
x,-y,z
1/2+x,1/2+y,z
1/2-x,1/2+y,-z
1/2-x,1/2-y,-z
1/2+x,1/2-y,z
loop_
_atom_site_type_symbol
_atom_site_label
_atom_site_fract_x
_atom_site_fract_y
_atom_site_fract_z
Si Si1 0.341417 0.923071 0.789224
Si Si2 0.789707 0.626650 0.240671
Si Si3 0.436180 0.671446 0.084681
Si Si4 0.447148 0.424553 0.607531
Si Si5 0.809578 0.203548 0.855198
Si Si6 0.413171 0.156970 0.645309
Si Si7 0.713813 0.077607 0.534258
Si Si8 0.615878 0.246368 0.696155
O O1 0.530696 0.913969 0.785287
O O2 0.191199 0.885502 0.861665
O O3 0.349105 0.893294 0.714980
O O4 0.294075 0.000000 0.795263
O O5 0.616695 0.586740 0.304173
O O6 0.775709 0.641341 0.165931
O O7 0.771649 0.694064 0.285523
O O8 0.339332 0.741765 0.099893
O O9 0.610687 0.677947 0.093405
O O10 0.500000 0.648632 0.000000
O O11 0.477967 0.500000 0.585496
O O12 0.643998 0.395075 0.549839
O O13 0.292251 0.401755 0.589588
O O14 0.960299 0.233726 0.778000
O O15 0.525263 0.116279 0.567133
O O16 0.537531 0.215311 0.646888
O O17 0.239103 0.191360 0.650486
O O18 0.672207 0.000000 0.537190
#
# Coordination Sequence:
#
# PCOD8113591 Si02
#       8
#     8   8   8   8   8   8   8   8
#     4  11  21  37  59  85 115 153 196 238 284 342
#     4  11  19  33  60  84 117 148 193 241 283 336
#     4  12  24  40  63  91 119 150 186 234 295 356
#     4   9  17  30  51  82 113 149 195 246 286 326
#     4  12  20  40  61  88 118 149 188 237 291 344
#     4  11  19  33  57  82 113 153 193 235 286 339
#     4   9  17  30  53  81 112 150 197 243 286 335
#     4  11  18  31  55  79 113 143 180 236 283 326
#
# _framework density 20.665852999999998
#
# number of rings (size 3 to 8) (size 9 to 14) (size 15 to 20)
#    0.000    1.250    8.750    1.875    0.000    0.250 
#    0.000    1.875    2.750    0.750    0.000    1.750 
#    0.000    0.000    0.000    0.000    0.000    0.000 
#
# Total GULP energy -396701.254453 kJ/mol
# GULP energy per Si atom -12396.914202 kJ/mol
# Density = 2.061882 g / cm^3
# Si number density = 20.665853 Si / 1000 Ang^3
#
#
#
# Elastic Constant Matrix: (Units=GPa)
#
#
# Indices 1 2 3 4 5 6 
#
# 1 39.2022 22.3338 25.4316 0.0000 0.9892 0.0000
# 2 22.3338 74.0565 33.7813 0.0000 0.5019 0.0000
# 3 25.4316 33.7813 58.6196 0.0000 -12.8349 0.0000
# 4 0.0000 0.0000 0.0000 22.4141 0.0000 -7.3588
# 5 0.9892 0.5019 -12.8349 0.0000 23.4292 0.0000
# 6 0.0000 0.0000 0.0000 -7.3588 0.0000 22.4736
#
#
#
# Elastic Compliance Matrix: (Units=1/GPa)
#
#
# Indices 1 2 3 4 5 6 
#
# 1 0.039115 -0.003919 -0.017106 0.000000 -0.010939 0.000000
# 2 -0.003919 0.019786 -0.011089 0.000000 -0.006333 0.000000
# 3 -0.017106 -0.011089 0.035317 0.000000 0.020307 0.000000
# 4 0.000000 0.000000 0.000000 0.049989 0.000000 0.016369
# 5 -0.010939 -0.006333 0.020307 0.000000 0.054404 0.000000
# 6 0.000000 0.000000 0.000000 0.016369 0.000000 0.049856
#
#
# Mechanical properties :
#
#
# Convention : Reuss Voigt Hill
#
# Bulk Modulus (GPa) = 33.34438 37.21907 35.28172
# Shear Modulus (GPa) = 15.49468 19.68549 17.59009
#
# Velocity S-wave (km/s) = 2.74117 3.08971 2.92064
# Velocity P-wave (km/s) = 5.11749 5.54774 5.33695
#
# Compressibility (1/GPa) = 0.02999006
#
# Stress axis : x y z
#
# Youngs Moduli (GPa) = 25.56588 50.54023 28.31498
#
# Poissons Ratio (x) = 0.19806 0.48436
# Poissons Ratio (y) = 0.10019 0.31398
# Poissons Ratio (z) = 0.43733 0.56043
#
# Static dielectric constant tensor:
#      x y z
#    x 3.835320 0.000000 -0.130390 
#    y 0.000000 3.781290 0.000000 
#    z -0.130390 0.000000 3.569730 
# 
# 
# High freq. dielectric constant tensor:
#      x y z
#    x 1.804790 0.000000 -0.017270 
#    y 0.000000 1.795510 0.000000 
#    z -0.017270 0.000000 1.791930 
# 
# From -- ./inp_files/301691.got.cif
#   From: 2010.06.25/outbox.cif.g09.slc.cpg/sg12_151_cif.got.tgz:301691.got - 2010.06.28 00:19:55.
