data_PCOD8113237
_publ_section_title
;
Structure prediction by ZEFSAII (Michael W. Deem and Ramdas Pophale) SiO2 
 PCOD8113237
Probable space group: C 2/M
;
_chemical_formula_sum "Si O2"
_cell_formula_units_Z 32
_cell_length_a 13.354194
_cell_length_b 21.927721
_cell_length_c 9.202201
_cell_angle_alpha 90.000000
_cell_angle_beta 32.603216
_cell_angle_gamma 90.000000
_cell_volume 1451.927883
_symmetry_space_group_name_H-M "C 2/M"
_symmetry_group_IT_number 12
_symmetry_cell_setting 'monoclinic'
loop_
_space_group_symop_operation_xyz
x,y,z
-x,y,-z
-x,-y,-z
x,-y,z
1/2+x,1/2+y,z
1/2-x,1/2+y,-z
1/2-x,1/2-y,-z
1/2+x,1/2-y,z
loop_
_atom_site_type_symbol
_atom_site_label
_atom_site_fract_x
_atom_site_fract_y
_atom_site_fract_z
Si Si1 0.694530 0.568881 0.843455
Si Si2 0.104547 0.676585 0.553307
Si Si3 0.802076 0.193994 0.597772
Si Si4 0.196539 0.845737 0.087682
O O1 0.769769 0.500000 0.743307
O O2 0.840215 0.612986 0.586474
O O3 0.500000 0.575316 0.000000
O O4 0.677266 0.587920 0.034751
O O5 0.218134 0.733407 0.343561
O O6 0.146103 0.672899 0.675028
O O7 0.883527 0.686501 0.797876
O O8 0.786747 0.150835 0.757489
O O9 0.008694 0.189936 0.273873
#
# Coordination Sequence:
#
# PCOD8113237 Si02
#       4
#     8   8   8   8
#     4  11  25  45  66  91 128 174 222 269 316 376
#     4  11  23  40  67  93 133 167 210 261 318 392
#     4  10  24  39  62 102 133 162 202 267 333 375
#     4  11  23  40  64  95 128 168 210 260 320 381
#
# _framework density 22.039662
#
# number of rings (size 3 to 8) (size 9 to 14) (size 15 to 20)
#    0.000    1.250    2.500    2.250   10.500    2.000 
#    0.000    3.750    0.000    3.000    0.000    0.000 
#    0.000    0.000    0.000    0.000    0.000    0.000 
#
# Total GULP energy -198291.447011 kJ/mol
# GULP energy per Si atom -12393.215438 kJ/mol
# Density = 2.198950 g / cm^3
# Si number density = 22.039662 Si / 1000 Ang^3
#
#
#
# Elastic Constant Matrix: (Units=GPa)
#
#
# Indices 1 2 3 4 5 6 
#
# 1 133.8265 49.8421 16.0446 0.0000 17.5374 -0.0002
# 2 49.8421 141.6147 50.5328 -0.0009 22.9074 0.0007
# 3 16.0446 50.5328 69.1356 0.0026 -2.8321 -0.0023
# 4 0.0000 -0.0009 0.0026 26.8513 -0.0020 8.3219
# 5 17.5374 22.9074 -2.8321 -0.0020 45.4123 0.0020
# 6 -0.0002 0.0007 -0.0023 8.3219 0.0020 26.2785
#
#
#
# Elastic Compliance Matrix: (Units=1/GPa)
#
#
# Indices 1 2 3 4 5 6 
#
# 1 0.008763 -0.002707 -0.000138 0.000000 -0.002027 0.000000
# 2 -0.002707 0.011837 -0.008246 0.000001 -0.005440 -0.000001
# 3 -0.000138 -0.008246 0.020749 -0.000003 0.005507 0.000002
# 4 0.000000 0.000001 -0.000003 0.041295 0.000002 -0.013077
# 5 -0.002027 -0.005440 0.005507 0.000002 0.025891 -0.000002
# 6 0.000000 -0.000001 0.000002 -0.013077 -0.000002 0.042195
#
#
# Mechanical properties :
#
#
# Convention : Reuss Voigt Hill
#
# Bulk Modulus (GPa) = 52.17540 64.15731 58.16636
# Shear Modulus (GPa) = 27.88607 34.91892 31.40250
#
# Velocity S-wave (km/s) = 3.56092 3.98473 3.77877
# Velocity P-wave (km/s) = 6.37430 7.09534 6.74446
#
# Compressibility (1/GPa) = 0.01916612
#
# Stress axis : x y z
#
# Youngs Moduli (GPa) = 114.11981 84.48393 48.19432
#
# Poissons Ratio (x) = 0.22869 0.00666
# Poissons Ratio (y) = 0.30891 0.39742
# Poissons Ratio (z) = 0.01576 0.69668
#
# Static dielectric constant tensor:
#      x y z
#    x 4.402470 0.000000 -0.093910 
#    y 0.000000 3.769480 0.000000 
#    z -0.093910 0.000000 3.956630 
# 
# 
# High freq. dielectric constant tensor:
#      x y z
#    x 1.899860 0.000000 -0.009530 
#    y 0.000000 1.830540 0.000000 
#    z -0.009530 0.000000 1.859710 
# 
# From -- ./inp_files/63877.got.cif
#   From: 2010.06.25/outbox.cif.g09.slc.cpg/sg12_32_cif.got.tgz:63877.got - 2010.06.28 00:19:55.
