data_PCOD8113847
_publ_section_title
;
Structure prediction by ZEFSAII (Michael W. Deem and Ramdas Pophale) SiO2 
 PCOD8113847
Probable space group: C 2/M
;
_chemical_formula_sum "Si O2"
_cell_formula_units_Z 56
_cell_length_a 29.793298
_cell_length_b 8.512843
_cell_length_c 16.761663
_cell_angle_alpha 90.000000
_cell_angle_beta 46.377455
_cell_angle_gamma 90.000000
_cell_volume 3077.436896
_symmetry_space_group_name_H-M "C 2/M"
_symmetry_group_IT_number 12
_symmetry_cell_setting 'monoclinic'
loop_
_space_group_symop_operation_xyz
x,y,z
-x,y,-z
-x,-y,-z
x,-y,z
1/2+x,1/2+y,z
1/2-x,1/2+y,-z
1/2-x,1/2-y,-z
1/2+x,1/2-y,z
loop_
_atom_site_type_symbol
_atom_site_label
_atom_site_fract_x
_atom_site_fract_y
_atom_site_fract_z
Si Si1 0.692023 0.680842 0.911258
Si Si2 0.005085 0.818009 0.710727
Si Si3 0.871140 0.318908 0.859526
Si Si4 0.969448 0.682890 0.159640
Si Si5 0.403609 0.183216 0.082868
Si Si6 0.676034 0.316316 0.243046
Si Si7 0.557009 0.315057 0.480419
O O1 0.684056 0.500000 0.944598
O O2 0.654562 0.716533 0.876006
O O3 0.763384 0.719419 0.807882
O O4 0.666295 0.787889 0.013812
O O5 0.943174 0.715544 0.785004
O O6 0.042903 0.782152 0.745171
O O7 0.049173 0.770773 0.582792
O O8 0.986303 0.000000 0.728749
O O9 0.862559 0.500000 0.846405
O O10 0.843195 0.210550 0.824805
O O11 0.965657 0.500000 0.184870
O O12 0.917595 0.727929 0.157702
O O13 0.037007 0.725978 0.043319
O O14 0.388177 0.000000 0.094229
O O15 0.688674 0.500000 0.240636
O O16 0.621869 0.249558 0.367218
O O17 0.500000 0.241080 0.500000
O O18 0.557202 0.500000 0.466046
#
# Coordination Sequence:
#
# PCOD8113847 Si02
#       7
#     8   8   8   8   8   8   8
#     4  12  24  37  54  81 113 144 181 225 270 321
#     4  11  20  33  56  84 112 143 180 224 269 320
#     4  12  23  36  53  79 113 147 182 220 268 323
#     4   9  18  33  54  81 112 143 176 220 271 324
#     4   9  18  34  55  79 110 145 179 216 269 327
#     4  11  22  39  59  77 106 148 187 222 267 324
#     4   9  18  35  57  80 107 141 182 224 269 317
#
# _framework density 18.196961999999999
#
# number of rings (size 3 to 8) (size 9 to 14) (size 15 to 20)
#    0.000    1.571    2.857    4.714    0.000    0.571 
#    0.000    5.000    0.000    0.857    0.000    0.000 
#    0.000    0.000    0.000    0.000    0.000    0.000 
#
# Total GULP energy -347286.595206 kJ/mol
# GULP energy per Si atom -12403.092686 kJ/mol
# Density = 1.815554 g / cm^3
# Si number density = 18.196962 Si / 1000 Ang^3
#
#
#
# Elastic Constant Matrix: (Units=GPa)
#
#
# Indices 1 2 3 4 5 6 
#
# 1 111.8808 19.2490 65.9632 0.0004 8.9220 -0.0017
# 2 19.2490 53.6315 25.7152 0.0065 2.6984 -0.0065
# 3 65.9632 25.7152 103.4795 0.0014 -0.7562 -0.0015
# 4 0.0004 0.0065 0.0014 21.4322 -0.0001 2.3768
# 5 8.9220 2.6984 -0.7562 -0.0001 31.0522 0.0001
# 6 -0.0017 -0.0065 -0.0015 2.3768 0.0001 29.6932
#
#
#
# Elastic Compliance Matrix: (Units=1/GPa)
#
#
# Indices 1 2 3 4 5 6 
#
# 1 0.014948 -0.000631 -0.009404 0.000000 -0.004469 0.000000
# 2 -0.000631 0.021316 -0.004908 -0.000007 -0.001791 0.000005
# 3 -0.009404 -0.004908 0.016904 0.000001 0.003540 -0.000001
# 4 0.000000 -0.000007 0.000001 0.047077 0.000001 -0.003768
# 5 -0.004469 -0.001791 0.003540 0.000001 0.033730 -0.000001
# 6 0.000000 0.000005 -0.000001 -0.003768 -0.000001 0.033979
#
#
# Mechanical properties :
#
#
# Convention : Reuss Voigt Hill
#
# Bulk Modulus (GPa) = 42.95348 54.53852 48.74600
# Shear Modulus (GPa) = 24.31912 26.97314 25.64613
#
# Velocity S-wave (km/s) = 3.65970 3.85423 3.75822
# Velocity P-wave (km/s) = 6.44313 7.05996 6.75858
#
# Compressibility (1/GPa) = 0.02328100
#
# Stress axis : x y z
#
# Youngs Moduli (GPa) = 66.90023 46.91409 59.15741
#
# Poissons Ratio (x) = 0.02960 0.55633
# Poissons Ratio (y) = 0.04221 0.29034
# Poissons Ratio (z) = 0.62915 0.23025
#
# Static dielectric constant tensor:
#      x y z
#    x 3.430440 0.000000 0.085550 
#    y 0.000000 3.177990 0.000000 
#    z 0.085550 0.000000 3.363070 
# 
# 
# High freq. dielectric constant tensor:
#      x y z
#    x 1.702890 0.000000 0.010770 
#    y 0.000000 1.697490 0.000000 
#    z 0.010770 0.000000 1.688580 
# 
# From -- ./inp_files/248922.got.cif
#   From: 2010.06.25/outbox.cif.g09.slc.cpg/sg12_125_cif.got.tgz:248922.got - 2010.06.28 00:19:55.
