data_PCOD8113533
_publ_section_title
;
Structure prediction by ZEFSAII (Michael W. Deem and Ramdas Pophale) SiO2 
 PCOD8113533
Probable space group: C 2/M
;
_chemical_formula_sum "Si O2"
_cell_formula_units_Z 64
_cell_length_a 14.865970
_cell_length_b 25.709827
_cell_length_c 11.711532
_cell_angle_alpha 90.000000
_cell_angle_beta 40.258440
_cell_angle_gamma 90.000000
_cell_volume 2892.660952
_symmetry_space_group_name_H-M "C 2/M"
_symmetry_group_IT_number 12
_symmetry_cell_setting 'monoclinic'
loop_
_space_group_symop_operation_xyz
x,y,z
-x,y,-z
-x,-y,-z
x,-y,z
1/2+x,1/2+y,z
1/2-x,1/2+y,-z
1/2-x,1/2-y,-z
1/2+x,1/2-y,z
loop_
_atom_site_type_symbol
_atom_site_label
_atom_site_fract_x
_atom_site_fract_y
_atom_site_fract_z
Si Si1 0.588576 0.729365 0.300152
Si Si2 0.992858 0.440423 0.880774
Si Si3 0.267136 0.438651 0.009866
Si Si4 0.881038 0.284577 0.344544
Si Si5 0.272861 0.893878 0.483347
Si Si6 0.985324 0.886895 0.643391
Si Si7 0.164542 0.885716 0.823505
Si Si8 0.153907 0.229504 0.838534
O O1 0.500000 0.742501 0.500000
O O2 0.520456 0.758634 0.259307
O O3 0.594601 0.667945 0.273419
O O4 0.748425 0.749094 0.154761
O O5 0.955509 0.500000 0.936243
O O6 0.138177 0.436551 0.671337
O O7 0.865987 0.416787 0.930394
O O8 0.000000 0.413579 0.000000
O O9 0.260404 0.500000 0.042959
O O10 0.263999 0.407436 0.131774
O O11 0.404062 0.427780 0.801073
O O12 0.750000 0.250000 0.500000
O O13 0.872706 0.343471 0.393485
O O14 0.874026 0.279232 0.215319
O O15 0.224325 0.916134 0.653992
O O16 0.138682 0.877428 0.541866
O O17 0.000000 0.908165 0.500000
O O18 0.218454 0.826720 0.741028
O O19 0.000000 0.894417 0.000000
O O20 0.000000 0.207388 0.000000
#
# Coordination Sequence:
#
# PCOD8113533 Si02
#       8
#     8   8   8   8   8   8   8   8
#     4  11  21  38  63  92 131 174 214 269 332 390
#     4  10  25  49  72  99 136 173 223 291 352 407
#     4  11  26  46  68  97 137 175 224 293 346 402
#     4  12  21  40  62  94 137 173 219 271 325 394
#     4  12  23  41  72 100 134 183 225 275 338 414
#     4  11  22  40  69  99 130 176 229 283 340 403
#     4  11  23  44  66  97 140 179 224 277 337 406
#     4  11  25  41  63  96 135 181 226 273 328 398
#
# _framework density 22.124957999999999
#
# number of rings (size 3 to 8) (size 9 to 14) (size 15 to 20)
#    0.000    0.875    5.000    1.500    3.500    4.000 
#    0.000    1.250    0.000    0.000    0.000    0.000 
#    0.000    0.000    0.000    0.000    0.000    0.000 
#
# Total GULP energy -396466.612738 kJ/mol
# GULP energy per Si atom -12389.581648 kJ/mol
# Density = 2.207460 g / cm^3
# Si number density = 22.124958 Si / 1000 Ang^3
#
#
#
# Elastic Constant Matrix: (Units=GPa)
#
#
# Indices 1 2 3 4 5 6 
#
# 1 181.3478 33.7840 52.9824 0.0000 2.1284 0.0000
# 2 33.7840 51.0333 19.9362 0.0000 1.3131 0.0000
# 3 52.9824 19.9362 106.8366 0.0000 14.1418 0.0000
# 4 0.0000 0.0000 0.0000 25.3543 0.0000 2.5344
# 5 2.1284 1.3131 14.1418 0.0000 44.6135 0.0000
# 6 0.0000 0.0000 0.0000 2.5344 0.0000 14.0895
#
#
#
# Elastic Compliance Matrix: (Units=1/GPa)
#
#
# Indices 1 2 3 4 5 6 
#
# 1 0.007013 -0.003523 -0.002912 0.000000 0.000692 0.000000
# 2 -0.003523 0.022924 -0.002571 0.000000 0.000308 0.000000
# 3 -0.002912 -0.002571 0.011749 0.000000 -0.003510 0.000000
# 4 0.000000 0.000000 0.000000 0.040163 0.000000 -0.007224
# 5 0.000692 0.000308 -0.003510 0.000000 0.023485 0.000000
# 6 0.000000 0.000000 0.000000 -0.007224 0.000000 0.072274
#
#
# Mechanical properties :
#
#
# Convention : Reuss Voigt Hill
#
# Bulk Modulus (GPa) = 42.24298 61.40254 51.82276
# Shear Modulus (GPa) = 24.56855 32.31249 28.44052
#
# Velocity S-wave (km/s) = 3.33595 3.82573 3.58921
# Velocity P-wave (km/s) = 5.82859 6.87952 6.37575
#
# Compressibility (1/GPa) = 0.02367257
#
# Stress axis : x y z
#
# Youngs Moduli (GPa) = 142.58664 43.62281 85.11555
#
# Poissons Ratio (x) = 0.15368 0.24788
# Poissons Ratio (y) = 0.50232 0.21887
# Poissons Ratio (z) = 0.41525 0.11217
#
# Static dielectric constant tensor:
#      x y z
#    x 4.223290 0.000000 -0.011560 
#    y 0.000000 3.587140 0.000000 
#    z -0.011560 0.000000 3.787200 
# 
# 
# High freq. dielectric constant tensor:
#      x y z
#    x 1.885970 0.000000 0.000020 
#    y 0.000000 1.851180 0.000000 
#    z 0.000020 0.000000 1.867100 
# 
# From -- ./inp_files/149735.got.cif
#   From: 2010.06.25/outbox.cif.g09.slc.cpg/sg12_75_cif.got.tgz:149735.got - 2010.06.28 00:19:55.
