data_PCOD8113536
_publ_section_title
;
Structure prediction by ZEFSAII (Michael W. Deem and Ramdas Pophale) SiO2 
 PCOD8113536
Probable space group: C 2/M
;
_chemical_formula_sum "Si O2"
_cell_formula_units_Z 44
_cell_length_a 11.056829
_cell_length_b 23.720549
_cell_length_c 12.615658
_cell_angle_alpha 90.000000
_cell_angle_beta 40.661582
_cell_angle_gamma 90.000000
_cell_volume 2155.954488
_symmetry_space_group_name_H-M "C 2/M"
_symmetry_group_IT_number 12
_symmetry_cell_setting 'monoclinic'
loop_
_space_group_symop_operation_xyz
x,y,z
-x,y,-z
-x,-y,-z
x,-y,z
1/2+x,1/2+y,z
1/2-x,1/2+y,-z
1/2-x,1/2-y,-z
1/2+x,1/2-y,z
loop_
_atom_site_type_symbol
_atom_site_label
_atom_site_fract_x
_atom_site_fract_y
_atom_site_fract_z
Si Si1 0.954274 0.624300 0.222480
Si Si2 0.644947 0.390723 0.117671
Si Si3 0.875399 0.820451 0.676843
Si Si4 0.097407 0.687777 0.326184
Si Si5 0.205515 0.500000 0.647855
Si Si6 0.500000 0.357876 0.000000
Si Si7 0.935874 0.000000 0.706411
O O1 0.825280 0.656690 0.224116
O O2 0.911618 0.558175 0.276111
O O3 0.967663 0.660129 0.322235
O O4 0.146243 0.628179 0.035158
O O5 0.554470 0.345258 0.257665
O O6 0.637500 0.449596 0.177043
O O7 0.543318 0.395982 0.072678
O O8 0.906515 0.754714 0.670097
O O9 0.000000 0.845561 0.500000
O O10 0.316101 0.676110 0.158761
O O11 0.000000 0.665594 0.500000
O O12 0.334209 0.500000 0.663423
O O13 0.341362 0.500000 0.455294
#
# Coordination Sequence:
#
# PCOD8113536 Si02
#       7
#     8   8   8   8   4   4   4
#     4  11  24  42  67 101 132 175 223 275 336 396
#     4  11  24  42  66  97 135 174 219 276 331 401
#     4  11  24  39  67 100 131 174 221 280 330 389
#     4  10  26  43  67  98 138 182 224 274 330 405
#     4  11  23  41  67 103 128 167 224 277 339 395
#     4  10  26  43  66  94 138 181 220 270 332 412
#     4  11  23  40  68  97 130 169 217 283 335 391
#
# _framework density 20.408594000000001
#
# number of rings (size 3 to 8) (size 9 to 14) (size 15 to 20)
#    0.000    1.273    1.818    2.182   10.182    4.000 
#    0.000    1.364    0.000    0.000    0.000    0.000 
#    0.000    0.000    0.000    0.000    0.000    0.000 
#
# Total GULP energy -272564.822356 kJ/mol
# GULP energy per Si atom -12389.310107 kJ/mol
# Density = 2.036214 g / cm^3
# Si number density = 20.408594 Si / 1000 Ang^3
#
#
#
# Elastic Constant Matrix: (Units=GPa)
#
#
# Indices 1 2 3 4 5 6 
#
# 1 99.2205 32.3014 26.8085 0.0000 19.5015 0.0000
# 2 32.3014 97.8145 9.6238 0.0000 20.2709 0.0000
# 3 26.8085 9.6238 93.1426 0.0000 27.4956 0.0000
# 4 0.0000 0.0000 0.0000 39.3967 0.0000 6.1707
# 5 19.5015 20.2709 27.4956 0.0000 31.0047 0.0000
# 6 0.0000 0.0000 0.0000 6.1707 0.0000 28.3521
#
#
#
# Elastic Compliance Matrix: (Units=1/GPa)
#
#
# Indices 1 2 3 4 5 6 
#
# 1 0.012421 -0.003079 -0.002093 0.000000 -0.003944 0.000000
# 2 -0.003079 0.012732 0.001973 0.000000 -0.008137 0.000000
# 3 -0.002093 0.001973 0.015073 0.000000 -0.013340 0.000000
# 4 0.000000 0.000000 0.000000 0.026279 0.000000 -0.005719
# 5 -0.003944 -0.008137 -0.013340 0.000000 0.051885 0.000000
# 6 0.000000 0.000000 0.000000 -0.005719 0.000000 0.036516
#
#
# Mechanical properties :
#
#
# Convention : Reuss Voigt Hill
#
# Bulk Modulus (GPa) = 29.56020 47.51611 38.53815
# Shear Modulus (GPa) = 28.97215 34.51362 31.74288
#
# Velocity S-wave (km/s) = 3.77185 4.11680 3.94809
# Velocity P-wave (km/s) = 5.78660 6.77719 6.30139
#
# Compressibility (1/GPa) = 0.03382927
#
# Stress axis : x y z
#
# Youngs Moduli (GPa) = 80.50569 78.53974 66.34471
#
# Poissons Ratio (x) = 0.24180 0.13884
# Poissons Ratio (y) = 0.24785 -0.13088
# Poissons Ratio (z) = 0.16848 -0.15494
#
# Static dielectric constant tensor:
#      x y z
#    x 3.863670 0.000000 0.110670 
#    y 0.000000 3.610150 0.000000 
#    z 0.110670 0.000000 4.275660 
# 
# 
# High freq. dielectric constant tensor:
#      x y z
#    x 1.792900 0.000000 0.005930 
#    y 0.000000 1.797490 0.000000 
#    z 0.005930 0.000000 1.828260 
# 
# From -- ./inp_files/135793.got.cif
#   From: 2010.06.25/outbox.cif.g09.slc.cpg/sg12_68_cif.got.tgz:135793.got - 2010.06.28 00:19:55.
