data_PCOD8113686
_publ_section_title
;
Structure prediction by ZEFSAII (Michael W. Deem and Ramdas Pophale) SiO2 
 PCOD8113686
Probable space group: C 2/M
;
_chemical_formula_sum "Si O2"
_cell_formula_units_Z 32
_cell_length_a 11.092933
_cell_length_b 33.171412
_cell_length_c 10.011686
_cell_angle_alpha 90.000000
_cell_angle_beta 26.458096
_cell_angle_gamma 90.000000
_cell_volume 1641.373287
_symmetry_space_group_name_H-M "C 2/M"
_symmetry_group_IT_number 12
_symmetry_cell_setting 'monoclinic'
loop_
_space_group_symop_operation_xyz
x,y,z
-x,y,-z
-x,-y,-z
x,-y,z
1/2+x,1/2+y,z
1/2-x,1/2+y,-z
1/2-x,1/2-y,-z
1/2+x,1/2-y,z
loop_
_atom_site_type_symbol
_atom_site_label
_atom_site_fract_x
_atom_site_fract_y
_atom_site_fract_z
Si Si1 0.457384 0.376820 0.884123
Si Si2 0.000000 0.282405 0.000000
Si Si3 0.500000 0.771170 0.500000
Si Si4 0.946314 0.329730 0.317852
Si Si5 0.745204 0.043578 0.162425
O O1 0.744216 0.368172 0.529083
O O2 0.500000 0.373982 0.000000
O O3 0.330145 0.421010 0.974052
O O4 0.253972 0.343162 0.032600
O O5 0.252485 0.255765 0.799031
O O6 0.097554 0.310220 0.782155
O O7 0.377089 0.797605 0.501704
O O8 0.500000 0.058857 0.500000
O O9 0.670561 0.000000 0.167422
O O10 0.000000 0.035142 0.000000
#
# Coordination Sequence:
#
# PCOD8113686 Si02
#       5
#     8   4   4   8   8
#     4  11  19  35  56  83 111 146 182 221 271 329
#     4  12  26  40  56  82 109 142 187 234 284 326
#     4  12  22  42  58  80 105 142 187 238 282 328
#     4  12  23  38  59  81 109 145 184 230 276 330
#     4   9  17  29  49  81 117 144 173 220 273 318
#
# _framework density 19.495871000000001
#
# number of rings (size 3 to 8) (size 9 to 14) (size 15 to 20)
#    0.000    1.000    2.500    7.500    0.000    0.000 
#    0.000    0.000    0.000    0.000    0.000    5.250 
#    0.000    0.000    0.000    0.000    0.000    0.000 
#
# Total GULP energy -198345.121189 kJ/mol
# GULP energy per Si atom -12396.570074 kJ/mol
# Density = 1.945150 g / cm^3
# Si number density = 19.495871 Si / 1000 Ang^3
#
#
#
# Elastic Constant Matrix: (Units=GPa)
#
#
# Indices 1 2 3 4 5 6 
#
# 1 52.6358 29.0580 27.2176 0.0000 6.8649 0.0000
# 2 29.0580 115.9024 40.7971 0.0000 9.6180 0.0000
# 3 27.2176 40.7971 101.9724 0.0000 -9.6895 0.0000
# 4 0.0000 0.0000 0.0000 38.5125 0.0000 -10.0607
# 5 6.8649 9.6180 -9.6895 0.0000 37.6099 0.0000
# 6 0.0000 0.0000 0.0000 -10.0607 0.0000 7.4931
#
#
#
# Elastic Compliance Matrix: (Units=1/GPa)
#
#
# Indices 1 2 3 4 5 6 
#
# 1 0.024597 -0.003820 -0.005506 0.000000 -0.004931 0.000000
# 2 -0.003820 0.011162 -0.003743 0.000000 -0.003122 0.000000
# 3 -0.005506 -0.003743 0.013285 0.000000 0.005385 0.000000
# 4 0.000000 0.000000 0.000000 0.039993 0.000000 0.053697
# 5 -0.004931 -0.003122 0.005385 0.000000 0.029674 0.000000
# 6 0.000000 0.000000 0.000000 0.053697 0.000000 0.205554
#
#
# Mechanical properties :
#
#
# Convention : Reuss Voigt Hill
#
# Bulk Modulus (GPa) = 43.65246 51.62844 47.64045
# Shear Modulus (GPa) = 13.96498 28.28560 21.12529
#
# Velocity S-wave (km/s) = 2.67929 3.81314 3.29535
# Velocity P-wave (km/s) = 5.65780 6.77686 6.24246
#
# Compressibility (1/GPa) = 0.02290822
#
# Stress axis : x y z
#
# Youngs Moduli (GPa) = 40.65497 89.58913 75.27161
#
# Poissons Ratio (x) = 0.34219 0.41442
# Poissons Ratio (y) = 0.15529 0.28173
# Poissons Ratio (z) = 0.22384 0.33532
#
# Static dielectric constant tensor:
#      x y z
#    x 3.124200 0.000000 -0.237440 
#    y 0.000000 4.235980 0.000000 
#    z -0.237440 0.000000 3.608990 
# 
# 
# High freq. dielectric constant tensor:
#      x y z
#    x 1.711920 0.000000 -0.040510 
#    y 0.000000 1.774950 0.000000 
#    z -0.040510 0.000000 1.764000 
# 
# From -- ./inp_files/150071.got.cif
#   From: 2010.06.25/outbox.cif.g09.slc.cpg/sg12_76_cif.got.tgz:150071.got - 2010.06.28 00:19:55.
