data_PCOD8113785
_publ_section_title
;
Structure prediction by ZEFSAII (Michael W. Deem and Ramdas Pophale) SiO2 
 PCOD8113785
Probable space group: C 2/M
;
_chemical_formula_sum "Si O2"
_cell_formula_units_Z 48
_cell_length_a 20.383886
_cell_length_b 8.956142
_cell_length_c 22.584791
_cell_angle_alpha 90.000000
_cell_angle_beta 41.056048
_cell_angle_gamma 90.000000
_cell_volume 2708.040663
_symmetry_space_group_name_H-M "C 2/M"
_symmetry_group_IT_number 12
_symmetry_cell_setting 'monoclinic'
loop_
_space_group_symop_operation_xyz
x,y,z
-x,y,-z
-x,-y,-z
x,-y,z
1/2+x,1/2+y,z
1/2-x,1/2+y,-z
1/2-x,1/2-y,-z
1/2+x,1/2-y,z
loop_
_atom_site_type_symbol
_atom_site_label
_atom_site_fract_x
_atom_site_fract_y
_atom_site_fract_z
Si Si1 0.770743 0.673187 0.047986
Si Si2 0.425153 0.823207 0.221218
Si Si3 0.032347 0.172127 0.045115
Si Si4 0.259962 0.334003 0.402079
Si Si5 0.105412 0.165412 0.573248
Si Si6 0.946073 0.827617 0.768640
O O1 0.797122 0.500000 0.019498
O O2 0.672599 0.691464 0.155816
O O3 0.750000 0.750000 0.000000
O O4 0.860014 0.752855 0.021053
O O5 0.449312 0.754976 0.140848
O O6 0.316000 0.767185 0.315620
O O7 0.512618 0.772962 0.206217
O O8 0.423458 0.000000 0.218600
O O9 0.039537 0.000000 0.059954
O O10 0.000000 0.189497 0.000000
O O11 0.247419 0.500000 0.384796
O O12 0.149242 0.270762 0.491947
O O13 0.322761 0.334493 0.419124
O O14 0.996984 0.220416 0.671285
O O15 0.097870 0.000000 0.551135
O O16 0.975770 0.000000 0.762195
#
# Coordination Sequence:
#
# PCOD8113785 Si02
#       6
#     8   8   8   8   8   8
#     4  11  21  34  55  80 106 138 175 216 260 311
#     4  11  20  30  49  73  98 132 172 214 256 309
#     4  11  24  40  55  73 103 140 177 220 266 311
#     4   9  16  26  41  63  96 132 164 204 252 304
#     4   8  14  25  40  63  95 130 165 202 245 298
#     4   9  18  31  48  71 103 136 167 207 256 306
#
# _framework density 17.724992
#
# number of rings (size 3 to 8) (size 9 to 14) (size 15 to 20)
#    0.000    2.167    1.667    4.000    0.000    6.000 
#    0.000    0.000    0.000    0.000    0.000    1.167 
#    0.000    9.333    0.000    0.000    0.000    0.000 
#
# Total GULP energy -297547.297054 kJ/mol
# GULP energy per Si atom -12397.804044 kJ/mol
# Density = 1.768465 g / cm^3
# Si number density = 17.724992 Si / 1000 Ang^3
#
#
#
# Elastic Constant Matrix: (Units=GPa)
#
#
# Indices 1 2 3 4 5 6 
#
# 1 46.0393 37.8717 35.1664 0.0001 -4.0582 0.0000
# 2 37.8717 150.2496 75.7123 0.0000 1.9466 0.0001
# 3 35.1664 75.7123 158.6055 0.0001 -5.9399 -0.0001
# 4 0.0001 0.0000 0.0001 33.4531 0.0000 -0.5852
# 5 -4.0582 1.9466 -5.9399 0.0000 14.1936 -0.0001
# 6 0.0000 0.0001 -0.0001 -0.5852 -0.0001 17.6847
#
#
#
# Elastic Compliance Matrix: (Units=1/GPa)
#
#
# Indices 1 2 3 4 5 6 
#
# 1 0.029947 -0.005864 -0.003546 0.000000 0.007883 0.000000
# 2 -0.005864 0.010039 -0.003664 0.000000 -0.004587 0.000000
# 3 -0.003546 -0.003664 0.008961 0.000000 0.003239 0.000000
# 4 0.000000 0.000000 0.000000 0.029910 0.000000 0.000990
# 5 0.007883 -0.004587 0.003239 0.000000 0.074693 0.000000
# 6 0.000000 0.000000 0.000000 0.000990 0.000000 0.056579
#
#
# Mechanical properties :
#
#
# Convention : Reuss Voigt Hill
#
# Bulk Modulus (GPa) = 43.85755 72.48835 58.17295
# Shear Modulus (GPa) = 20.50211 26.80920 23.65566
#
# Velocity S-wave (km/s) = 3.40469 3.89332 3.65717
# Velocity P-wave (km/s) = 6.34452 7.82275 7.12209
#
# Compressibility (1/GPa) = 0.02280109
#
# Stress axis : x y z
#
# Youngs Moduli (GPa) = 33.39197 99.60724 111.58895
#
# Poissons Ratio (x) = 0.58409 0.39564
# Poissons Ratio (y) = 0.19581 0.40887
# Poissons Ratio (z) = 0.11839 0.36497
#
# Static dielectric constant tensor:
#      x y z
#    x 3.067090 0.000000 -0.518090 
#    y 0.000000 3.497070 0.000000 
#    z -0.518090 0.000000 4.174520 
# 
# 
# High freq. dielectric constant tensor:
#      x y z
#    x 1.609830 0.000000 -0.008450 
#    y 0.000000 1.698550 0.000000 
#    z -0.008450 0.000000 1.712130 
# 
# From -- ./inp_files/329018.got.cif
#   From: 2010.06.25/outbox.cif.g09.slc.cpg/sg12_165_cif.got.tgz:329018.got - 2010.06.28 00:19:55.
