data_PCOD8113210
_publ_section_title
;
Structure prediction by ZEFSAII (Michael W. Deem and Ramdas Pophale) SiO2 
 PCOD8113210
Probable space group: C 2/M
;
_chemical_formula_sum "Si O2"
_cell_formula_units_Z 28
_cell_length_a 9.125970
_cell_length_b 14.726375
_cell_length_c 14.621815
_cell_angle_alpha 90.000000
_cell_angle_beta 135.957060
_cell_angle_gamma 90.000000
_cell_volume 1366.105505
_symmetry_space_group_name_H-M "C 2/M"
_symmetry_group_IT_number 12
_symmetry_cell_setting 'monoclinic'
loop_
_space_group_symop_operation_xyz
x,y,z
-x,y,-z
-x,-y,-z
x,-y,z
1/2+x,1/2+y,z
1/2-x,1/2+y,-z
1/2-x,1/2-y,-z
1/2+x,1/2-y,z
loop_
_atom_site_type_symbol
_atom_site_label
_atom_site_fract_x
_atom_site_fract_y
_atom_site_fract_z
Si Si1 0.662031 0.896225 0.315574
Si Si2 0.500000 0.254292 0.000000
Si Si3 0.088400 0.102659 0.397399
Si Si4 0.043947 0.216156 0.821887
O O1 0.717951 0.877852 0.447227
O O2 0.484865 0.825383 0.203233
O O3 0.869926 0.878221 0.349936
O O4 0.581955 0.000000 0.266643
O O5 0.710786 0.192324 0.087437
O O6 0.513131 0.313387 0.099629
O O7 0.109801 0.164823 0.317041
O O8 0.097868 0.000000 0.366852
#
# Coordination Sequence:
#
# PCOD8113210 Si02
#       4
#     8   4   8   8
#     4   9  18  34  59  86 108 138 181 224 274 333
#     4  10  24  34  56  76 114 148 196 210 260 326
#     4   9  18  34  59  86 108 138 181 224 274 333
#     4  11  19  40  54  82 109 151 176 232 264 315
#
# _framework density 20.496221999999999
#
# number of rings (size 3 to 8) (size 9 to 14) (size 15 to 20)
#    0.000    2.286    2.857    2.571    0.000    0.000 
#    0.000   10.000    0.000    3.429    0.000    0.000 
#    0.000    0.000    0.000    0.000    0.000    0.000 
#
# Total GULP energy -173505.073931 kJ/mol
# GULP energy per Si atom -12393.219567 kJ/mol
# Density = 2.044957 g / cm^3
# Si number density = 20.496222 Si / 1000 Ang^3
#
#
#
# Elastic Constant Matrix: (Units=GPa)
#
#
# Indices 1 2 3 4 5 6 
#
# 1 88.1930 23.0824 39.4817 0.0000 -23.5702 0.0000
# 2 23.0824 90.8180 48.9731 0.0000 -13.8740 0.0000
# 3 39.4817 48.9731 98.6260 -0.0001 -30.6872 0.0000
# 4 0.0000 0.0000 -0.0001 16.1973 0.0000 -2.0982
# 5 -23.5702 -13.8740 -30.6872 0.0000 44.5804 0.0000
# 6 0.0000 0.0000 0.0000 -2.0982 0.0000 16.1185
#
#
#
# Elastic Compliance Matrix: (Units=1/GPa)
#
#
# Indices 1 2 3 4 5 6 
#
# 1 0.014594 -0.000860 -0.003942 0.000000 0.004735 0.000000
# 2 -0.000860 0.015100 -0.007423 0.000000 -0.000865 0.000000
# 3 -0.003942 -0.007423 0.017861 0.000000 0.007901 0.000000
# 4 0.000000 0.000000 0.000000 0.062798 0.000000 0.008175
# 5 0.004735 -0.000865 0.007901 0.000000 0.030104 0.000000
# 6 0.000000 0.000000 0.000000 0.008175 0.000000 0.063105
#
#
# Mechanical properties :
#
#
# Convention : Reuss Voigt Hill
#
# Bulk Modulus (GPa) = 43.27902 55.63461 49.45682
# Shear Modulus (GPa) = 21.21214 26.45255 23.83235
#
# Velocity S-wave (km/s) = 3.22052 3.59640 3.41364
# Velocity P-wave (km/s) = 5.91527 6.66695 6.30233
#
# Compressibility (1/GPa) = 0.02310588
#
# Stress axis : x y z
#
# Youngs Moduli (GPa) = 68.52125 66.22398 55.98644
#
# Poissons Ratio (x) = 0.05697 0.22069
# Poissons Ratio (y) = 0.05895 0.41558
# Poissons Ratio (z) = 0.27010 0.49157
#
# Static dielectric constant tensor:
#      x y z
#    x 3.548590 0.000000 -0.255380 
#    y 0.000000 3.411420 0.000000 
#    z -0.255380 0.000000 3.966970 
# 
# 
# High freq. dielectric constant tensor:
#      x y z
#    x 1.784370 0.000000 -0.020160 
#    y 0.000000 1.764460 0.000000 
#    z -0.020160 0.000000 1.814920 
# 
# From -- ./inp_files/36601.got.cif
#   From: 2010.06.25/outbox.cif.g09.slc.cpg/sg12_19_cif.got.tgz:36601.got - 2010.06.28 00:19:55.
