data_PCOD8113962
_publ_section_title
;
Structure prediction by ZEFSAII (Michael W. Deem and Ramdas Pophale) SiO2 
 PCOD8113962
Probable space group: C 2/M
;
_chemical_formula_sum "Si O2"
_cell_formula_units_Z 56
_cell_length_a 17.887275
_cell_length_b 21.211498
_cell_length_c 7.899306
_cell_angle_alpha 90.000000
_cell_angle_beta 112.514077
_cell_angle_gamma 90.000000
_cell_volume 2768.698052
_symmetry_space_group_name_H-M "C 2/M"
_symmetry_group_IT_number 12
_symmetry_cell_setting 'monoclinic'
loop_
_space_group_symop_operation_xyz
x,y,z
-x,y,-z
-x,-y,-z
x,-y,z
1/2+x,1/2+y,z
1/2-x,1/2+y,-z
1/2-x,1/2-y,-z
1/2+x,1/2-y,z
loop_
_atom_site_type_symbol
_atom_site_label
_atom_site_fract_x
_atom_site_fract_y
_atom_site_fract_z
Si Si1 0.055620 0.174466 0.687125
Si Si2 0.714828 0.927919 0.305004
Si Si3 0.320769 0.779447 0.176517
Si Si4 0.930073 0.800003 0.820283
Si Si5 0.666884 0.571510 0.902138
Si Si6 0.774709 0.876167 0.706582
Si Si7 0.593869 0.169275 0.056561
O O1 0.127209 0.222402 0.696556
O O2 0.091915 0.119975 0.839127
O O3 0.000000 0.139322 0.500000
O O4 0.984645 0.218145 0.706501
O O5 0.783668 0.913134 0.226207
O O6 0.743611 0.916687 0.522025
O O7 0.639071 0.883743 0.202227
O O8 0.686529 0.000000 0.263548
O O9 0.284806 0.817776 0.304120
O O10 0.250000 0.750000 0.000000
O O11 0.376137 0.827288 0.112356
O O12 0.862859 0.852268 0.726036
O O13 0.885567 0.738603 0.854253
O O14 0.000000 0.828848 0.000000
O O15 0.635032 0.500000 0.872166
O O16 0.719908 0.582103 0.117401
O O17 0.500000 0.153764 0.000000
#
# Coordination Sequence:
#
# PCOD8113962 Si02
#       7
#     8   8   8   8   8   8   8
#     4  12  24  39  60  97 134 165 211 267 322 382
#     4  11  26  44  64  95 128 170 226 265 304 384
#     4  12  20  38  65  94 128 165 209 265 323 381
#     4  11  20  38  61  93 130 159 202 265 323 382
#     4  11  23  44  67  89 130 180 217 256 310 377
#     4  12  23  40  69  94 129 169 217 266 319 375
#     4  11  21  40  65  93 131 164 206 267 332 378
#
# _framework density 20.226112000000001
#
# number of rings (size 3 to 8) (size 9 to 14) (size 15 to 20)
#    0.000    0.571    8.571    1.286    2.000    1.143 
#    0.000    2.143    0.000    0.857    0.000    0.000 
#    0.000    0.000    0.000    0.000    0.000    0.000 
#
# Total GULP energy -346954.498808 kJ/mol
# GULP energy per Si atom -12391.232100 kJ/mol
# Density = 2.018008 g / cm^3
# Si number density = 20.226112 Si / 1000 Ang^3
#
#
#
# Elastic Constant Matrix: (Units=GPa)
#
#
# Indices 1 2 3 4 5 6 
#
# 1 102.3706 38.7473 26.4060 0.0000 2.9853 0.0000
# 2 38.7473 73.2677 36.7337 0.0000 10.0528 0.0000
# 3 26.4060 36.7337 107.4591 0.0000 4.7960 0.0000
# 4 0.0000 0.0000 0.0000 -388.6206 0.0000 -198.4696
# 5 2.9853 10.0528 4.7960 0.0000 32.0081 0.0000
# 6 0.0000 0.0000 0.0000 -198.4696 0.0000 -68.8433
#
#
#
# Elastic Compliance Matrix: (Units=1/GPa)
#
#
# Indices 1 2 3 4 5 6 
#
# 1 0.012322 -0.006161 -0.000963 0.000000 0.000930 0.000000
# 2 -0.006161 0.020179 -0.005161 0.000000 -0.004990 0.000000
# 3 -0.000963 -0.005161 0.011306 0.000000 0.000017 0.000000
# 4 0.000000 0.000000 0.000000 0.005448 0.000000 -0.015706
# 5 0.000930 -0.004990 0.000017 0.000000 0.032720 0.000000
# 6 0.000000 0.000000 0.000000 -0.015706 0.000000 0.030754
#
#
# Mechanical properties :
#
#
# Convention : Reuss Voigt Hill
#
# Bulk Modulus (GPa) = 51.98646 54.09684 53.04165
# Shear Modulus (GPa) = 34.79169 -73.01046 -19.10939
#
# Velocity S-wave (km/s) = 4.15195 -6.01461 -3.07707
# Velocity P-wave (km/s) = 6.98165 4.62924 3.69550
#
# Compressibility (1/GPa) = 0.01923578
#
# Stress axis : x y z
#
# Youngs Moduli (GPa) = 81.15759 49.55623 88.44719
#
# Poissons Ratio (x) = 0.30531 0.08520
# Poissons Ratio (y) = 0.50001 0.45651
# Poissons Ratio (z) = 0.07818 0.25578
#
# Static dielectric constant tensor:
#      x y z
#    x 6.504980 0.000000 -4.308750 
#    y 0.000000 3.565590 0.000000 
#    z -4.308750 0.000000 10.243460 
# 
# 
# High freq. dielectric constant tensor:
#      x y z
#    x 1.802200 0.000000 -0.005520 
#    y 0.000000 1.773030 0.000000 
#    z -0.005520 0.000000 1.784830 
# 
# From -- ./inp_files/77360.got.cif
#   From: 2010.06.25/outbox.cif.g09.slc.cpg/sg12_39_cif.got.tgz:77360.got - 2010.06.28 00:19:55.
