data_PCOD8113629
_publ_section_title
;
Structure prediction by ZEFSAII (Michael W. Deem and Ramdas Pophale) SiO2 
 PCOD8113629
Probable space group: C 2/M
;
_chemical_formula_sum "Si O2"
_cell_formula_units_Z 64
_cell_length_a 21.629857
_cell_length_b 16.598627
_cell_length_c 23.821960
_cell_angle_alpha 90.000000
_cell_angle_beta 22.023003
_cell_angle_gamma 90.000000
_cell_volume 3207.081734
_symmetry_space_group_name_H-M "C 2/M"
_symmetry_group_IT_number 12
_symmetry_cell_setting 'monoclinic'
loop_
_space_group_symop_operation_xyz
x,y,z
-x,y,-z
-x,-y,-z
x,-y,z
1/2+x,1/2+y,z
1/2-x,1/2+y,-z
1/2-x,1/2-y,-z
1/2+x,1/2-y,z
loop_
_atom_site_type_symbol
_atom_site_label
_atom_site_fract_x
_atom_site_fract_y
_atom_site_fract_z
Si Si1 0.413731 0.793084 0.129956
Si Si2 0.867598 0.914009 0.659911
Si Si3 0.799145 0.405948 0.520886
Si Si4 0.453152 0.144345 0.277791
Si Si5 0.602355 0.664303 0.531815
Si Si6 0.359630 0.093625 0.980242
Si Si7 0.015533 0.818195 0.254649
Si Si8 0.149430 0.696815 0.412938
O O1 0.268050 0.847242 0.229976
O O2 0.530655 0.847392 0.072110
O O3 0.327902 0.715064 0.232657
O O4 0.500000 0.761693 0.000000
O O5 0.000000 0.909688 0.500000
O O6 0.968706 0.906001 0.633613
O O7 0.776438 0.000000 0.737074
O O8 0.807838 0.500000 0.522648
O O9 0.931387 0.382296 0.360838
O O10 0.614152 0.381549 0.660690
O O11 0.836656 0.366912 0.549052
O O12 0.284708 0.130518 0.385467
O O13 0.577352 0.089859 0.137361
O O14 0.521198 0.236392 0.213573
O O15 0.555271 0.714687 0.626565
O O16 0.589043 0.718683 0.488120
O O17 0.352844 0.000000 0.007889
O O18 0.183045 0.135020 0.123547
O O19 0.000000 0.664769 0.500000
#
# Coordination Sequence:
#
# PCOD8113629 Si02
#       8
#     8   8   8   8   8   8   8   8
#     4  12  24  38  58  85 126 169 208 247 293 358
#     4  11  21  34  55  83 118 159 198 243 298 353
#     4  11  23  41  67  95 122 152 202 266 319 357
#     4  11  21  40  65  91 119 159 203 251 307 367
#     4  11  18  37  62  86 111 154 205 248 294 362
#     4  12  25  38  56  90 131 163 201 245 304 365
#     4  11  22  38  63  86 120 163 199 242 305 371
#     4  12  22  42  65  87 119 158 211 256 303 366
#
# _framework density 19.955836999999999
#
# number of rings (size 3 to 8) (size 9 to 14) (size 15 to 20)
#    0.000    0.625    6.250    3.000    0.000    6.250 
#    0.000    0.000    0.000    0.375    0.000    0.000 
#    0.000    0.000    0.000    0.000    0.000    0.000 
#
# Total GULP energy -396449.395765 kJ/mol
# GULP energy per Si atom -12389.043618 kJ/mol
# Density = 1.991042 g / cm^3
# Si number density = 19.955837 Si / 1000 Ang^3
#
#
#
# Elastic Constant Matrix: (Units=GPa)
#
#
# Indices 1 2 3 4 5 6 
#
# 1 121.4582 33.1275 47.3244 -0.0076 3.7604 0.0049
# 2 33.1275 77.2272 20.2071 -0.0350 8.9089 0.0125
# 3 47.3244 20.2071 84.2126 -0.0272 1.1889 0.0160
# 4 -0.0076 -0.0350 -0.0272 19.5254 0.0017 7.7955
# 5 3.7604 8.9089 1.1889 0.0017 31.2313 -0.0054
# 6 0.0049 0.0125 0.0160 7.7955 -0.0054 25.1049
#
#
#
# Elastic Compliance Matrix: (Units=1/GPa)
#
#
# Indices 1 2 3 4 5 6 
#
# 1 0.011324 -0.003384 -0.005549 -0.000012 -0.000187 0.000007
# 2 -0.003384 0.015298 -0.001714 0.000030 -0.003891 -0.000016
# 3 -0.005549 -0.001714 0.015396 0.000022 0.000571 -0.000015
# 4 -0.000012 0.000030 0.000022 0.058464 -0.000014 -0.018154
# 5 -0.000187 -0.003891 0.000571 -0.000014 0.033130 0.000013
# 6 0.000007 -0.000016 -0.000015 -0.018154 0.000013 0.045470
#
#
# Mechanical properties :
#
#
# Convention : Reuss Voigt Hill
#
# Bulk Modulus (GPa) = 48.25376 53.80177 51.02776
# Shear Modulus (GPa) = 24.12143 27.32158 25.72150
#
# Velocity S-wave (km/s) = 3.48047 3.70415 3.59405
# Velocity P-wave (km/s) = 6.35486 6.73151 6.54590
#
# Compressibility (1/GPa) = 0.02072378
#
# Stress axis : x y z
#
# Youngs Moduli (GPa) = 88.30629 65.36865 64.95039
#
# Poissons Ratio (x) = 0.22122 0.36042
# Poissons Ratio (y) = 0.29884 0.11133
# Poissons Ratio (z) = 0.49002 0.11205
#
# Static dielectric constant tensor:
#      x y z
#    x 5.670920 0.000670 -3.691840 
#    y 0.000670 3.596660 -0.001440 
#    z -3.691840 -0.001440 12.330330 
# 
# 
# High freq. dielectric constant tensor:
#      x y z
#    x 1.790890 0.000000 0.005100 
#    y 0.000000 1.755950 0.000010 
#    z 0.005100 0.000010 1.781150 
# 
# From -- ./inp_files/347864.got.cif
#   From: 2010.06.25/outbox.cif.g09.slc.cpg/sg12_174_cif.got.tgz:347864.got - 2010.06.28 00:19:55.
