data_PCOD8113215
_publ_section_title
;
Structure prediction by ZEFSAII (Michael W. Deem and Ramdas Pophale) SiO2 
 PCOD8113215
Probable space group: C 2/M
;
_chemical_formula_sum "Si O2"
_cell_formula_units_Z 44
_cell_length_a 12.002263
_cell_length_b 21.326840
_cell_length_c 8.870199
_cell_angle_alpha 90.000000
_cell_angle_beta 105.119447
_cell_angle_gamma 90.000000
_cell_volume 2191.912332
_symmetry_space_group_name_H-M "C 2/M"
_symmetry_group_IT_number 12
_symmetry_cell_setting 'monoclinic'
loop_
_space_group_symop_operation_xyz
x,y,z
-x,y,-z
-x,-y,-z
x,-y,z
1/2+x,1/2+y,z
1/2-x,1/2+y,-z
1/2-x,1/2-y,-z
1/2+x,1/2-y,z
loop_
_atom_site_type_symbol
_atom_site_label
_atom_site_fract_x
_atom_site_fract_y
_atom_site_fract_z
Si Si1 0.000000 0.595688 0.000000
Si Si2 0.881830 0.104642 0.653707
Si Si3 0.372655 0.427817 0.318305
Si Si4 0.876033 0.212256 0.883678
Si Si5 0.778600 0.660672 0.918274
Si Si6 0.467728 0.000000 0.732543
Si Si7 0.305452 0.000000 0.386910
O O1 0.899082 0.638845 0.030750
O O2 0.954413 0.558825 0.838236
O O3 0.879486 0.112478 0.473365
O O4 0.878727 0.173207 0.729375
O O5 0.775122 0.060965 0.668026
O O6 0.007587 0.074421 0.734512
O O7 0.343247 0.500000 0.347031
O O8 0.268210 0.397148 0.193702
O O9 0.803306 0.276135 0.829749
O O10 0.810470 0.170226 0.980531
O O11 0.000000 0.227427 0.000000
O O12 0.365091 0.000000 0.573402
O O13 0.594338 0.000000 0.701963
#
# Coordination Sequence:
#
# PCOD8113215 Si02
#       7
#     4   8   8   8   8   4   4
#     4  11  22  40  58  94 118 163 204 252 304 389
#     4  11  21  39  66  90 130 159 210 263 323 369
#     4  11  22  40  64  99 127 168 207 267 323 376
#     4  11  23  44  62  92 126 166 214 269 314 378
#     4  11  24  41  68  87 127 171 212 260 324 373
#     4  10  24  36  61  88 129 157 203 245 315 377
#     4  11  20  41  58  91 123 168 197 259 309 378
#
# _framework density 20.073795
#
# number of rings (size 3 to 8) (size 9 to 14) (size 15 to 20)
#    0.000    1.091    4.545    2.727    2.545    0.727 
#    1.636    1.364    0.000    2.182    0.000    0.000 
#    0.000    0.000    0.000    0.000    0.000    0.000 
#
# Total GULP energy -272664.028624 kJ/mol
# GULP energy per Si atom -12393.819483 kJ/mol
# Density = 2.002811 g / cm^3
# Si number density = 20.073795 Si / 1000 Ang^3
#
#
#
# Elastic Constant Matrix: (Units=GPa)
#
#
# Indices 1 2 3 4 5 6 
#
# 1 120.7244 25.2973 29.7369 0.0000 2.2516 0.0000
# 2 25.2973 92.7911 48.9524 0.0000 -0.9579 0.0000
# 3 29.7369 48.9524 77.0216 0.0000 2.1695 0.0000
# 4 0.0000 0.0000 0.0000 86.6660 0.0000 -26.6431
# 5 2.2516 -0.9579 2.1695 0.0000 31.1648 0.0000
# 6 0.0000 0.0000 0.0000 -26.6431 0.0000 43.6429
#
#
#
# Elastic Compliance Matrix: (Units=1/GPa)
#
#
# Indices 1 2 3 4 5 6 
#
# 1 0.009217 -0.000975 -0.002925 0.000000 -0.000492 0.000000
# 2 -0.000975 0.016362 -0.010059 0.000000 0.001274 0.000000
# 3 -0.002925 -0.010059 0.020549 0.000000 -0.001528 0.000000
# 4 0.000000 0.000000 0.000000 0.014204 0.000000 0.008671
# 5 -0.000492 0.001274 -0.001528 0.000000 0.032269 0.000000
# 6 0.000000 0.000000 0.000000 0.008671 0.000000 0.028207
#
#
# Mechanical properties :
#
#
# Convention : Reuss Voigt Hill
#
# Bulk Modulus (GPa) = 54.91261 55.39004 55.15132
# Shear Modulus (GPa) = 32.30038 44.73144 38.51591
#
# Velocity S-wave (km/s) = 4.01569 4.72566 4.38507
# Velocity P-wave (km/s) = 6.99398 7.57819 7.29194
#
# Compressibility (1/GPa) = 0.01821075
#
# Stress axis : x y z
#
# Youngs Moduli (GPa) = 108.49143 61.11559 48.66418
#
# Poissons Ratio (x) = 0.05957 0.14236
# Poissons Ratio (y) = 0.10575 0.48951
# Poissons Ratio (z) = 0.31737 0.61476
#
# Static dielectric constant tensor:
#      x y z
#    x 4.017040 0.000000 0.176680 
#    y 0.000000 3.565770 0.000000 
#    z 0.176680 0.000000 3.569320 
# 
# 
# High freq. dielectric constant tensor:
#      x y z
#    x 1.816710 0.000000 0.005730 
#    y 0.000000 1.779380 0.000000 
#    z 0.005730 0.000000 1.759100 
# 
# From -- ./inp_files/50897.got.cif
#   From: 2010.06.25/outbox.cif.g09.slc.cpg/sg12_26_cif.got.tgz:50897.got - 2010.06.28 00:19:55.
