data_PCOD8113017
_publ_section_title
;
Structure prediction by ZEFSAII (Michael W. Deem and Ramdas Pophale) SiO2 
 PCOD8113017
Probable space group: C 2/M
;
_chemical_formula_sum "Si O2"
_cell_formula_units_Z 52
_cell_length_a 16.221103
_cell_length_b 31.308076
_cell_length_c 8.548743
_cell_angle_alpha 90.000000
_cell_angle_beta 34.609584
_cell_angle_gamma 90.000000
_cell_volume 2465.886912
_symmetry_space_group_name_H-M "C 2/M"
_symmetry_group_IT_number 12
_symmetry_cell_setting 'monoclinic'
loop_
_space_group_symop_operation_xyz
x,y,z
-x,y,-z
-x,-y,-z
x,-y,z
1/2+x,1/2+y,z
1/2-x,1/2+y,-z
1/2-x,1/2-y,-z
1/2+x,1/2-y,z
loop_
_atom_site_type_symbol
_atom_site_label
_atom_site_fract_x
_atom_site_fract_y
_atom_site_fract_z
Si Si1 0.269736 0.157342 0.610997
Si Si2 0.158499 0.310740 0.822747
Si Si3 0.549894 0.873652 0.253796
Si Si4 0.261730 0.548500 0.929101
Si Si5 0.665942 0.240396 0.287992
Si Si6 0.546648 0.548116 0.668735
Si Si7 0.000000 0.890280 0.000000
O O1 0.249804 0.168649 0.460288
O O2 0.395253 0.120734 0.409428
O O3 0.316141 0.194123 0.660430
O O4 0.117290 0.138566 0.907988
O O5 0.262175 0.271273 0.697210
O O6 0.143898 0.340138 0.002290
O O7 0.000000 0.297151 0.000000
O O8 0.500000 0.854500 0.500000
O O9 0.629721 0.918637 0.153412
O O10 0.200295 0.500000 0.027374
O O11 0.378490 0.554767 0.884046
O O12 0.343669 0.558308 0.641017
O O13 0.500000 0.249627 0.500000
O O14 0.750000 0.250000 0.000000
O O15 0.569688 0.500000 0.692022
O O16 0.587084 0.580353 0.742649
#
# Coordination Sequence:
#
# PCOD8113017 Si02
#       7
#     8   8   8   8   8   8   4
#     4  11  25  40  61  89 127 164 205 265 322 380
#     4  10  23  43  66  88 126 171 205 265 327 384
#     4  11  21  40  62  91 129 161 209 266 318 372
#     4   9  19  38  64  89 125 166 209 255 315 380
#     4  12  26  44  68  95 127 166 218 276 325 383
#     4   9  19  37  59  90 125 163 206 263 312 365
#     4  12  23  36  62  90 122 166 212 252 315 394
#
# _framework density 21.087747
#
# number of rings (size 3 to 8) (size 9 to 14) (size 15 to 20)
#    0.000    1.538    0.000    6.692    3.231    0.308 
#    2.769    1.538    0.000    6.000    0.000    0.000 
#    0.000    0.000    0.000    0.000    0.000    0.000 
#
# Total GULP energy -322109.185080 kJ/mol
# GULP energy per Si atom -12388.814811 kJ/mol
# Density = 2.103975 g / cm^3
# Si number density = 21.087747 Si / 1000 Ang^3
#
#
#
# Elastic Constant Matrix: (Units=GPa)
#
#
# Indices 1 2 3 4 5 6 
#
# 1 93.9501 55.5030 38.5377 0.0000 3.0895 0.0000
# 2 55.5030 98.8779 47.4468 0.0000 -12.4489 0.0000
# 3 38.5377 47.4468 98.7679 0.0000 0.6356 0.0000
# 4 0.0000 0.0000 0.0000 27.8445 0.0000 -8.2615
# 5 3.0895 -12.4489 0.6356 0.0000 46.3365 0.0000
# 6 0.0000 0.0000 0.0000 -8.2615 0.0000 36.1972
#
#
#
# Elastic Compliance Matrix: (Units=1/GPa)
#
#
# Indices 1 2 3 4 5 6 
#
# 1 0.016926 -0.008809 -0.002350 0.000000 -0.003463 0.000000
# 2 -0.008809 0.018364 -0.005421 0.000000 0.005595 0.000000
# 3 -0.002350 -0.005421 0.013655 0.000000 -0.001487 0.000000
# 4 0.000000 0.000000 0.000000 0.038522 0.000000 0.008792
# 5 -0.003463 0.005595 -0.001487 0.000000 0.023336 0.000000
# 6 0.000000 0.000000 0.000000 0.008792 0.000000 0.029633
#
#
# Mechanical properties :
#
#
# Convention : Reuss Voigt Hill
#
# Bulk Modulus (GPa) = 63.35018 63.84119 63.59569
# Shear Modulus (GPa) = 27.95500 32.08286 30.01893
#
# Velocity S-wave (km/s) = 3.64490 3.90474 3.77706
# Velocity P-wave (km/s) = 6.91521 7.11823 7.01745
#
# Compressibility (1/GPa) = 0.01578527
#
# Stress axis : x y z
#
# Youngs Moduli (GPa) = 59.07995 54.45426 73.23200
#
# Poissons Ratio (x) = 0.47971 0.17210
# Poissons Ratio (y) = 0.52046 0.39696
# Poissons Ratio (z) = 0.13884 0.29517
#
# Static dielectric constant tensor:
#      x y z
#    x 4.082410 0.000000 0.036560 
#    y 0.000000 3.757790 0.000000 
#    z 0.036560 0.000000 3.797920 
# 
# 
# High freq. dielectric constant tensor:
#      x y z
#    x 1.836600 0.000000 0.006840 
#    y 0.000000 1.818390 0.000000 
#    z 0.006840 0.000000 1.829250 
# 
# From -- ./inp_files/68539.got.cif
#   From: 2010.06.25/outbox.cif.g09.slc.cpg/sg12_35_cif.got.tgz:68539.got - 2010.06.28 00:19:55.
