data_PCOD8113508
_publ_section_title
;
Structure prediction by ZEFSAII (Michael W. Deem and Ramdas Pophale) SiO2 
 PCOD8113508
Probable space group: C 2/M
;
_chemical_formula_sum "Si O2"
_cell_formula_units_Z 40
_cell_length_a 8.974699
_cell_length_b 26.529913
_cell_length_c 7.523839
_cell_angle_alpha 90.000000
_cell_angle_beta 91.984263
_cell_angle_gamma 90.000000
_cell_volume 1790.336720
_symmetry_space_group_name_H-M "C 2/M"
_symmetry_group_IT_number 12
_symmetry_cell_setting 'monoclinic'
loop_
_space_group_symop_operation_xyz
x,y,z
-x,y,-z
-x,-y,-z
x,-y,z
1/2+x,1/2+y,z
1/2-x,1/2+y,-z
1/2-x,1/2-y,-z
1/2+x,1/2-y,z
loop_
_atom_site_type_symbol
_atom_site_label
_atom_site_fract_x
_atom_site_fract_y
_atom_site_fract_z
Si Si1 0.420537 0.318796 0.681308
Si Si2 0.660519 0.057755 0.922066
Si Si3 0.864452 0.721157 0.882724
Si Si4 0.691284 0.624142 0.786504
Si Si5 0.333855 0.114907 0.435275
O O1 0.500000 0.315946 0.500000
O O2 0.430875 0.262624 0.754016
O O3 0.517460 0.359960 0.796678
O O4 0.249316 0.337302 0.659220
O O5 0.658733 0.071237 0.712936
O O6 0.709795 0.000000 0.941432
O O7 0.500000 0.067436 0.000000
O O8 0.777166 0.090895 0.039021
O O9 0.787843 0.675388 0.778228
O O10 0.750000 0.750000 0.000000
O O11 0.000000 0.697320 0.000000
O O12 0.736945 0.595870 0.603074
O O13 0.500000 0.130791 0.500000
#
# Coordination Sequence:
#
# PCOD8113508 Si02
#       5
#     8   8   8   8   8
#     4  10  25  45  63  97 143 179 219 275 331 401
#     4  11  24  44  71 103 132 171 227 287 350 401
#     4  12  24  40  66  98 135 181 226 272 327 398
#     4  11  24  45  67  99 140 177 223 281 337 400
#     4  11  24  41  69  98 130 179 229 273 332 405
#
# _framework density 22.342167
#
# number of rings (size 3 to 8) (size 9 to 14) (size 15 to 20)
#    0.000    1.000    4.000    1.800    2.800    5.200 
#    0.000    2.000    0.000    3.600    0.000    0.000 
#    0.000    0.000    0.000    0.000    0.000    0.000 
#
# Total GULP energy -247983.934405 kJ/mol
# GULP energy per Si atom -12399.196720 kJ/mol
# Density = 2.229132 g / cm^3
# Si number density = 22.342167 Si / 1000 Ang^3
#
#
#
# Elastic Constant Matrix: (Units=GPa)
#
#
# Indices 1 2 3 4 5 6 
#
# 1 117.4789 48.4795 34.1677 0.0000 31.6053 0.0000
# 2 48.4795 111.3728 55.7084 0.0000 9.2480 0.0000
# 3 34.1677 55.7084 100.0698 0.0000 21.4343 0.0000
# 4 0.0000 0.0000 0.0000 24.9428 0.0000 -1.3609
# 5 31.6053 9.2480 21.4343 0.0000 33.9324 0.0000
# 6 0.0000 0.0000 0.0000 -1.3609 0.0000 10.9353
#
#
#
# Elastic Compliance Matrix: (Units=1/GPa)
#
#
# Indices 1 2 3 4 5 6 
#
# 1 0.013665 -0.005403 0.000871 0.000000 -0.011805 0.000000
# 2 -0.005403 0.014619 -0.007538 0.000000 0.005810 0.000000
# 3 0.000871 -0.007538 0.015758 0.000000 -0.008711 0.000000
# 4 0.000000 0.000000 0.000000 0.040366 0.000000 0.005023
# 5 -0.011805 0.005810 -0.008711 0.000000 0.044385 0.000000
# 6 0.000000 0.000000 0.000000 0.005023 0.000000 0.092072
#
#
# Mechanical properties :
#
#
# Convention : Reuss Voigt Hill
#
# Bulk Modulus (GPa) = 50.24978 67.29251 58.77115
# Shear Modulus (GPa) = 19.86983 26.66648 23.26815
#
# Velocity S-wave (km/s) = 2.98542 3.45853 3.23064
# Velocity P-wave (km/s) = 5.86715 6.79213 6.34651
#
# Compressibility (1/GPa) = 0.01990058
#
# Stress axis : x y z
#
# Youngs Moduli (GPa) = 73.18208 68.40473 63.46129
#
# Poissons Ratio (x) = 0.36962 -0.05528
# Poissons Ratio (y) = 0.39544 0.47836
# Poissons Ratio (z) = -0.06374 0.51562
#
# Static dielectric constant tensor:
#      x y z
#    x 4.876890 0.000000 0.642170 
#    y 0.000000 3.104540 0.000000 
#    z 0.642170 0.000000 4.844710 
# 
# 
# High freq. dielectric constant tensor:
#      x y z
#    x 1.890550 0.000000 0.004100 
#    y 0.000000 1.848470 0.000000 
#    z 0.004100 0.000000 1.901160 
# 
# From -- ./inp_files/39337.got.cif
#   From: 2010.06.25/outbox.cif.g09.slc.cpg/sg12_20_cif.got.tgz:39337.got - 2010.06.28 00:19:55.
