data_PCOD8113317
_publ_section_title
;
Structure prediction by ZEFSAII (Michael W. Deem and Ramdas Pophale) SiO2 
 PCOD8113317
Probable space group: C 2/M
;
_chemical_formula_sum "Si O2"
_cell_formula_units_Z 52
_cell_length_a 9.107344
_cell_length_b 14.608637
_cell_length_c 27.489046
_cell_angle_alpha 90.000000
_cell_angle_beta 42.839039
_cell_angle_gamma 90.000000
_cell_volume 2486.751493
_symmetry_space_group_name_H-M "C 2/M"
_symmetry_group_IT_number 12
_symmetry_cell_setting 'monoclinic'
loop_
_space_group_symop_operation_xyz
x,y,z
-x,y,-z
-x,-y,-z
x,-y,z
1/2+x,1/2+y,z
1/2-x,1/2+y,-z
1/2-x,1/2-y,-z
1/2+x,1/2-y,z
loop_
_atom_site_type_symbol
_atom_site_label
_atom_site_fract_x
_atom_site_fract_y
_atom_site_fract_z
Si Si1 0.876304 0.391586 0.689532
Si Si2 0.500000 0.759469 0.500000
Si Si3 0.749690 0.500000 0.070120
Si Si4 0.011545 0.651608 0.850840
Si Si5 0.771492 0.000000 0.032425
Si Si6 0.345697 0.900435 0.285433
Si Si7 0.035397 0.778317 0.598321
Si Si8 0.397463 0.665066 0.829157
O O1 0.892203 0.500000 0.672754
O O2 0.629813 0.358188 0.749901
O O3 0.979054 0.368689 0.717296
O O4 0.005662 0.330431 0.618038
O O5 0.273083 0.815066 0.557082
O O6 0.488117 0.700003 0.453428
O O7 0.677144 0.586984 0.117185
O O8 0.645489 0.500000 0.042877
O O9 0.000000 0.500000 0.000000
O O10 0.047646 0.593208 0.793293
O O11 0.234637 0.675580 0.823645
O O12 0.862353 0.591674 0.922732
O O13 0.895011 0.744442 0.862729
O O14 0.000000 0.000000 0.000000
O O15 0.145194 0.832647 0.328827
O O16 0.257928 0.000000 0.321693
#
# Coordination Sequence:
#
# PCOD8113317 Si02
#       8
#     8   4   4   8   4   8   8   8
#     4  11  24  42  70 103 132 179 227 282 338 392
#     4  10  24  42  70  92 146 178 220 264 348 414
#     4  12  26  52  68  96 144 185 218 277 350 403
#     4  12  26  45  68 105 134 177 231 284 334 402
#     4  12  30  48  72  98 144 185 222 279 348 411
#     4  11  24  42  70 101 136 174 230 284 335 392
#     4  11  22  46  66 102 132 185 217 281 335 403
#     4  12  26  43  72 100 137 176 231 284 334 404
#
# _framework density 20.910813999999998
#
# number of rings (size 3 to 8) (size 9 to 14) (size 15 to 20)
#    0.000    0.615    6.154    0.923    6.462    1.231 
#    0.000    4.615    0.000    0.000    0.000    0.000 
#    0.000    0.000    0.000    0.000    0.000    0.000 
#
# Total GULP energy -322301.508960 kJ/mol
# GULP energy per Si atom -12396.211883 kJ/mol
# Density = 2.086322 g / cm^3
# Si number density = 20.910814 Si / 1000 Ang^3
#
#
#
# Elastic Constant Matrix: (Units=GPa)
#
#
# Indices 1 2 3 4 5 6 
#
# 1 158.7091 36.3920 39.4195 -0.0006 -9.8232 -0.0002
# 2 36.3920 127.6505 33.6348 0.0001 -3.8508 -0.0001
# 3 39.4195 33.6348 88.6314 0.0002 -6.2280 -0.0003
# 4 -0.0006 0.0001 0.0002 8.9588 0.0007 -0.2327
# 5 -9.8232 -3.8508 -6.2280 0.0007 47.1890 0.0002
# 6 -0.0002 -0.0001 -0.0003 -0.2327 0.0002 25.5112
#
#
#
# Elastic Compliance Matrix: (Units=1/GPa)
#
#
# Indices 1 2 3 4 5 6 
#
# 1 0.007342 -0.001356 -0.002676 0.000001 0.001065 0.000000
# 2 -0.001356 0.008958 -0.002791 0.000000 0.000080 0.000000
# 3 -0.002676 -0.002791 0.013603 -0.000001 0.001011 0.000000
# 4 0.000001 0.000000 -0.000001 0.111649 -0.000002 0.001018
# 5 0.001065 0.000080 0.001011 -0.000002 0.021553 0.000000
# 6 0.000000 0.000000 0.000000 0.001018 0.000000 0.039208
#
#
# Mechanical properties :
#
#
# Convention : Reuss Voigt Hill
#
# Bulk Modulus (GPa) = 61.50950 65.98706 63.74828
# Shear Modulus (GPa) = 22.58574 34.03477 28.31026
#
# Velocity S-wave (km/s) = 3.29005 4.03875 3.68347
# Velocity P-wave (km/s) = 6.62658 7.30572 6.97442
#
# Compressibility (1/GPa) = 0.01625765
#
# Stress axis : x y z
#
# Youngs Moduli (GPa) = 136.19617 111.62885 73.51297
#
# Poissons Ratio (x) = 0.15137 0.19673
# Poissons Ratio (y) = 0.18468 0.20516
# Poissons Ratio (z) = 0.36449 0.31154
#
# Static dielectric constant tensor:
#      x y z
#    x 3.996050 0.000000 -0.152780 
#    y 0.000000 4.178910 0.000000 
#    z -0.152780 0.000000 3.484640 
# 
# 
# High freq. dielectric constant tensor:
#      x y z
#    x 1.842360 0.000000 -0.002670 
#    y 0.000000 1.808660 0.000000 
#    z -0.002670 0.000000 1.822450 
# 
# From -- ./inp_files/372509.got.cif
#   From: 2010.06.25/outbox.cif.g09.slc.cpg/sg12_187_cif.got.tgz:372509.got - 2010.06.28 00:19:55.
