data_PCOD8113459
_publ_section_title
;
Structure prediction by ZEFSAII (Michael W. Deem and Ramdas Pophale) SiO2 
 PCOD8113459
Probable space group: C 2/M
;
_chemical_formula_sum "Si O2"
_cell_formula_units_Z 56
_cell_length_a 21.340065
_cell_length_b 22.264358
_cell_length_c 17.527270
_cell_angle_alpha 90.000000
_cell_angle_beta 161.310663
_cell_angle_gamma 90.000000
_cell_volume 2668.470762
_symmetry_space_group_name_H-M "C 2/M"
_symmetry_group_IT_number 12
_symmetry_cell_setting 'monoclinic'
loop_
_space_group_symop_operation_xyz
x,y,z
-x,y,-z
-x,-y,-z
x,-y,z
1/2+x,1/2+y,z
1/2-x,1/2+y,-z
1/2-x,1/2-y,-z
1/2+x,1/2-y,z
loop_
_atom_site_type_symbol
_atom_site_label
_atom_site_fract_x
_atom_site_fract_y
_atom_site_fract_z
Si Si1 0.688319 0.145609 0.551475
Si Si2 0.165433 0.569890 0.249323
Si Si3 0.957065 0.430638 0.166522
Si Si4 0.076513 0.260730 0.672950
Si Si5 0.424810 0.350914 0.085413
Si Si6 0.564969 0.630790 0.725966
Si Si7 0.722213 0.930308 0.734846
O O1 0.530298 0.106936 0.323187
O O2 0.583603 0.204266 0.462698
O O3 0.778000 0.105446 0.722813
O O4 0.862179 0.168832 0.698305
O O5 0.212359 0.500000 0.290520
O O6 0.359617 0.607851 0.455592
O O7 0.094296 0.582416 0.252808
O O8 0.000000 0.592134 0.000000
O O9 0.963449 0.500000 0.197094
O O10 0.735455 0.412313 0.891109
O O11 0.112355 0.197472 0.753700
O O12 0.000000 0.251299 0.500000
O O13 0.282320 0.294866 0.908873
O O14 0.354339 0.409006 0.957278
O O15 0.439886 0.372384 0.188843
O O16 0.500000 0.915224 0.500000
O O17 0.760017 0.000000 0.763734
#
# Coordination Sequence:
#
# PCOD8113459 Si02
#       7
#     8   8   8   8   8   8   8
#     4  12  23  43  68 100 141 181 223 271 338 397
#     4  10  24  47  70 101 137 171 225 288 343 406
#     4  11  24  43  72 105 139 174 220 281 342 408
#     4  12  27  47  65  98 137 179 234 283 326 400
#     4  12  24  43  67  98 136 181 227 276 330 395
#     4  12  26  45  71  99 133 181 230 277 342 398
#     4  11  22  40  68 100 141 182 220 271 334 405
#
# _framework density 20.985802
#
# number of rings (size 3 to 8) (size 9 to 14) (size 15 to 20)
#    0.000    0.571    5.714    1.714    2.000    5.714 
#    0.000    2.143    0.000    0.000    0.000    0.000 
#    0.000    0.000    0.000    0.000    0.000    0.000 
#
# Total GULP energy -347439.802504 kJ/mol
# GULP energy per Si atom -12408.564375 kJ/mol
# Density = 2.093804 g / cm^3
# Si number density = 20.985802 Si / 1000 Ang^3
#
#
#
# Elastic Constant Matrix: (Units=GPa)
#
#
# Indices 1 2 3 4 5 6 
#
# 1 37.4928 28.6648 18.0910 0.0019 6.0121 0.0031
# 2 28.6648 60.4735 30.4455 0.0010 9.0043 0.0008
# 3 18.0910 30.4455 114.1743 -0.0018 10.1120 0.0042
# 4 0.0019 0.0010 -0.0018 27.7950 -0.0004 3.0659
# 5 6.0121 9.0043 10.1120 -0.0004 47.4021 0.0023
# 6 0.0031 0.0008 0.0042 3.0659 0.0023 49.2946
#
#
#
# Elastic Compliance Matrix: (Units=1/GPa)
#
#
# Indices 1 2 3 4 5 6 
#
# 1 0.042161 -0.019028 -0.001481 -0.000002 -0.001417 -0.000002
# 2 -0.019028 0.028005 -0.004276 0.000000 -0.001994 0.000001
# 3 -0.001481 -0.004276 0.010238 0.000001 -0.001184 -0.000001
# 4 -0.000002 0.000000 0.000001 0.036226 0.000001 -0.002253
# 5 -0.001417 -0.001994 -0.001184 0.000001 0.021907 -0.000001
# 6 -0.000002 0.000001 -0.000001 -0.002253 -0.000001 0.020426
#
#
# Mechanical properties :
#
#
# Convention : Reuss Voigt Hill
#
# Bulk Modulus (GPa) = 32.43130 40.72703 36.57916
# Shear Modulus (GPa) = 22.85051 33.89431 28.37241
#
# Velocity S-wave (km/s) = 3.30336 4.02320 3.68092
# Velocity P-wave (km/s) = 5.48061 6.40551 5.96103
#
# Compressibility (1/GPa) = 0.03083441
#
# Stress axis : x y z
#
# Youngs Moduli (GPa) = 23.71841 35.70743 97.67199
#
# Poissons Ratio (x) = 0.67944 0.14465
# Poissons Ratio (y) = 0.45132 0.41767
# Poissons Ratio (z) = 0.03513 0.15269
#
# Static dielectric constant tensor:
#      x y z
#    x 3.922950 0.000000 0.032680 
#    y 0.000000 3.674320 0.000000 
#    z 0.032680 0.000000 3.957670 
# 
# 
# High freq. dielectric constant tensor:
#      x y z
#    x 1.835610 0.000000 0.001880 
#    y 0.000000 1.817390 0.000000 
#    z 0.001880 0.000000 1.835880 
# 
# From -- ./inp_files/286348.got.cif
#   From: 2010.06.25/outbox.cif.g09.slc.cpg/sg12_144_cif.got.tgz:286348.got - 2010.06.28 00:19:55.
