data_PCOD8113835
_publ_section_title
;
Structure prediction by ZEFSAII (Michael W. Deem and Ramdas Pophale) SiO2 
 PCOD8113835
Probable space group: C 2/M
;
_chemical_formula_sum "Si O2"
_cell_formula_units_Z 56
_cell_length_a 25.141870
_cell_length_b 8.484865
_cell_length_c 32.757496
_cell_angle_alpha 90.000000
_cell_angle_beta 153.515695
_cell_angle_gamma 90.000000
_cell_volume 3116.319351
_symmetry_space_group_name_H-M "C 2/M"
_symmetry_group_IT_number 12
_symmetry_cell_setting 'monoclinic'
loop_
_space_group_symop_operation_xyz
x,y,z
-x,y,-z
-x,-y,-z
x,-y,z
1/2+x,1/2+y,z
1/2-x,1/2+y,-z
1/2-x,1/2-y,-z
1/2+x,1/2-y,z
loop_
_atom_site_type_symbol
_atom_site_label
_atom_site_fract_x
_atom_site_fract_y
_atom_site_fract_z
Si Si1 0.406470 0.816309 0.401723
Si Si2 0.316373 0.181681 0.712423
Si Si3 0.218784 0.184171 0.399242
Si Si4 0.418504 0.816428 0.097657
Si Si5 0.488043 0.312600 0.289471
Si Si6 0.690590 0.315362 0.897796
Si Si7 0.969988 0.815700 0.591066
O O1 0.500000 0.756146 0.500000
O O2 0.282805 0.723634 0.322250
O O3 0.456810 0.782404 0.391708
O O4 0.381710 0.000000 0.390105
O O5 0.300311 0.289658 0.661860
O O6 0.445185 0.214687 0.821841
O O7 0.305189 0.000000 0.691545
O O8 0.330052 0.284457 0.491341
O O9 0.105814 0.248272 0.346942
O O10 0.243536 0.000000 0.423601
O O11 0.394253 0.724431 0.122609
O O12 0.393727 0.000000 0.089009
O O13 0.326244 0.754286 0.999170
O O14 0.491057 0.500000 0.290409
O O15 0.370455 0.244635 0.185191
O O16 0.485860 0.253760 0.334493
O O17 0.692828 0.500000 0.893588
O O18 0.995275 0.000000 0.602250
#
# Coordination Sequence:
#
# PCOD8113835 Si02
#       7
#     8   8   8   8   8   8   8
#     4  11  23  38  55  74  98 133 177 217 257 306
#     4  11  21  33  52  79 107 134 169 214 258 298
#     4  11  20  33  51  76 107 141 173 203 249 308
#     4   9  18  30  49  79 107 132 168 210 252 298
#     4   9  19  33  52  77 106 141 174 204 249 306
#     4   9  16  31  52  74 106 140 167 202 250 304
#     4  11  22  36  53  75 103 137 176 215 254 299
#
# _framework density 17.969918
#
# number of rings (size 3 to 8) (size 9 to 14) (size 15 to 20)
#    0.000    1.857    2.857    2.143    0.000    1.143 
#    0.000    3.571    0.000    0.857    0.000    6.000 
#    0.000    0.000    0.000    0.000    0.000    0.000 
#
# Total GULP energy -347153.574323 kJ/mol
# GULP energy per Si atom -12398.341940 kJ/mol
# Density = 1.792902 g / cm^3
# Si number density = 17.969918 Si / 1000 Ang^3
#
#
#
# Elastic Constant Matrix: (Units=GPa)
#
#
# Indices 1 2 3 4 5 6 
#
# 1 104.8963 5.6277 69.2853 0.0009 -8.6776 -0.0015
# 2 5.6277 23.3637 16.0252 0.0028 3.1576 -0.0055
# 3 69.2853 16.0252 157.2410 -0.0089 -2.6268 -0.0024
# 4 0.0009 0.0028 -0.0089 18.4386 0.0015 0.9152
# 5 -8.6776 3.1576 -2.6268 0.0015 26.0222 0.0008
# 6 -0.0015 -0.0055 -0.0024 0.9152 0.0008 19.4504
#
#
#
# Elastic Compliance Matrix: (Units=1/GPa)
#
#
# Indices 1 2 3 4 5 6 
#
# 1 0.013854 0.000288 -0.006067 -0.000004 0.003973 0.000000
# 2 0.000288 0.047001 -0.005019 -0.000010 -0.006114 0.000013
# 3 -0.006067 -0.005019 0.009537 0.000006 -0.000452 -0.000001
# 4 -0.000004 -0.000010 0.000006 0.054361 -0.000003 -0.002558
# 5 0.003973 -0.006114 -0.000452 -0.000003 0.040450 -0.000003
# 6 0.000000 0.000013 -0.000001 -0.002558 -0.000003 0.051533
#
#
# Mechanical properties :
#
#
# Convention : Reuss Voigt Hill
#
# Bulk Modulus (GPa) = 20.49407 51.93081 36.21244
# Shear Modulus (GPa) = 19.63875 25.75309 22.69592
#
# Velocity S-wave (km/s) = 3.30944 3.78977 3.55772
# Velocity P-wave (km/s) = 5.10222 6.93623 6.08867
#
# Compressibility (1/GPa) = 0.04879461
#
# Stress axis : x y z
#
# Youngs Moduli (GPa) = 72.18097 21.27617 104.85296
#
# Poissons Ratio (x) = -0.00612 0.63619
# Poissons Ratio (y) = -0.02077 0.52626
# Poissons Ratio (z) = 0.43796 0.10679
#
# Static dielectric constant tensor:
#      x y z
#    x 3.208290 0.000000 -0.144170 
#    y 0.000000 3.180420 0.000000 
#    z -0.144170 0.000000 3.875590 
# 
# 
# High freq. dielectric constant tensor:
#      x y z
#    x 1.669860 0.000000 0.000420 
#    y 0.000000 1.687430 0.000000 
#    z 0.000420 0.000000 1.705080 
# 
# From -- ./inp_files/348491.got.cif
#   From: 2010.06.25/outbox.cif.g09.slc.cpg/sg12_175_cif.got.tgz:348491.got - 2010.06.28 00:19:55.
