data_PCOD8113590
_publ_section_title
;
Structure prediction by ZEFSAII (Michael W. Deem and Ramdas Pophale) SiO2 
 PCOD8113590
Probable space group: C 2/M
;
_chemical_formula_sum "Si O2"
_cell_formula_units_Z 56
_cell_length_a 16.597318
_cell_length_b 25.675255
_cell_length_c 8.861730
_cell_angle_alpha 90.000000
_cell_angle_beta 137.526217
_cell_angle_gamma 90.000000
_cell_volume 2549.984699
_symmetry_space_group_name_H-M "C 2/M"
_symmetry_group_IT_number 12
_symmetry_cell_setting 'monoclinic'
loop_
_space_group_symop_operation_xyz
x,y,z
-x,y,-z
-x,-y,-z
x,-y,z
1/2+x,1/2+y,z
1/2-x,1/2+y,-z
1/2-x,1/2-y,-z
1/2+x,1/2-y,z
loop_
_atom_site_type_symbol
_atom_site_label
_atom_site_fract_x
_atom_site_fract_y
_atom_site_fract_z
Si Si1 0.098129 0.898040 0.738989
Si Si2 0.047916 0.306354 0.715236
Si Si3 0.702942 0.845902 0.166106
Si Si4 0.268005 0.348322 0.577728
Si Si5 0.871055 0.058695 0.892449
Si Si6 0.499650 0.700579 0.756578
Si Si7 0.245073 0.729752 0.786080
O O1 0.219848 0.888896 0.814941
O O2 0.036473 0.843059 0.689266
O O3 0.000000 0.928311 0.500000
O O4 0.126477 0.931369 0.925461
O O5 0.963112 0.255259 0.622706
O O6 0.181193 0.284785 0.856549
O O7 0.000000 0.337171 0.500000
O O8 0.074104 0.340609 0.901378
O O9 0.688331 0.862817 0.320334
O O10 0.772311 0.790522 0.276758
O O11 0.281205 0.401835 0.688165
O O12 0.394840 0.322256 0.713928
O O13 0.193632 0.307824 0.579476
O O14 0.826111 0.000000 0.802015
O O15 0.000000 0.067803 0.000000
O O16 0.614394 0.715505 0.016504
#
# Coordination Sequence:
#
# PCOD8113590 Si02
#       7
#     8   8   8   8   8   8   8
#     4  12  19  34  56  77 106 145 188 217 260 316
#     4  11  21  34  49  71 109 148 188 222 259 309
#     4  11  21  32  52  78 102 141 187 224 258 319
#     4  12  21  36  55  79 112 149 183 220 268 325
#     4  11  22  36  52  76 109 145 181 223 272 319
#     4  11  18  31  54  75 104 151 187 207 257 318
#     4  11  20  33  52  78 108 145 186 223 258 320
#
# _framework density 21.960915
#
# number of rings (size 3 to 8) (size 9 to 14) (size 15 to 20)
#    0.000    0.714    7.143    3.000    0.000    0.286 
#    0.000    2.857    0.000    0.000    0.000    0.000 
#    0.000   18.857    0.000    0.000    0.000    0.143 
#
# Total GULP energy -347086.869381 kJ/mol
# GULP energy per Si atom -12395.959621 kJ/mol
# Density = 2.191093 g / cm^3
# Si number density = 21.960915 Si / 1000 Ang^3
#
#
#
# Elastic Constant Matrix: (Units=GPa)
#
#
# Indices 1 2 3 4 5 6 
#
# 1 42.8586 24.5570 4.1699 0.0000 -13.8227 0.0000
# 2 24.5570 77.1975 37.6925 0.0000 -9.0822 0.0000
# 3 4.1699 37.6925 126.5915 0.0000 -30.2728 0.0000
# 4 0.0000 0.0000 0.0000 13.8989 0.0000 -2.0810
# 5 -13.8227 -9.0822 -30.2728 0.0000 33.9399 0.0000
# 6 0.0000 0.0000 0.0000 -2.0810 0.0000 10.5255
#
#
#
# Elastic Compliance Matrix: (Units=1/GPa)
#
#
# Indices 1 2 3 4 5 6 
#
# 1 0.035281 -0.012451 0.006590 0.000000 0.016915 0.000000
# 2 -0.012451 0.019551 -0.006829 0.000000 -0.005930 0.000000
# 3 0.006590 -0.006829 0.012610 0.000000 0.012104 0.000000
# 4 0.000000 0.000000 0.000000 0.074143 0.000000 0.014659
# 5 0.016915 -0.005930 0.012104 0.000000 0.045562 0.000000
# 6 0.000000 0.000000 0.000000 0.014659 0.000000 0.097906
#
#
# Mechanical properties :
#
#
# Convention : Reuss Voigt Hill
#
# Bulk Modulus (GPa) = 23.77423 42.16515 32.96969
# Shear Modulus (GPa) = 15.41049 23.68805 19.54927
#
# Velocity S-wave (km/s) = 2.65188 3.28784 2.98683
# Velocity P-wave (km/s) = 4.49731 5.80129 5.19041
#
# Compressibility (1/GPa) = 0.04206235
#
# Stress axis : x y z
#
# Youngs Moduli (GPa) = 28.34409 51.14762 79.29947
#
# Poissons Ratio (x) = 0.63682 -0.52259
# Poissons Ratio (y) = 0.35290 0.54157
# Poissons Ratio (z) = -0.18679 0.34931
#
# Static dielectric constant tensor:
#      x y z
#    x 4.012300 0.000000 -0.161050 
#    y 0.000000 3.521330 0.000000 
#    z -0.161050 0.000000 4.259490 
# 
# 
# High freq. dielectric constant tensor:
#      x y z
#    x 1.860580 0.000000 -0.017820 
#    y 0.000000 1.795370 0.000000 
#    z -0.017820 0.000000 1.893120 
# 
# From -- ./inp_files/79174.got.cif
#   From: 2010.06.25/outbox.cif.g09.slc.cpg/sg12_40_cif.got.tgz:79174.got - 2010.06.28 00:19:55.
