data_PCOD8113294
_publ_section_title
;
Structure prediction by ZEFSAII (Michael W. Deem and Ramdas Pophale) SiO2 
 PCOD8113294
Probable space group: C 2/M
;
_chemical_formula_sum "Si O2"
_cell_formula_units_Z 56
_cell_length_a 21.394946
_cell_length_b 14.100827
_cell_length_c 18.859440
_cell_angle_alpha 90.000000
_cell_angle_beta 151.516639
_cell_angle_gamma 90.000000
_cell_volume 2713.408032
_symmetry_space_group_name_H-M "C 2/M"
_symmetry_group_IT_number 12
_symmetry_cell_setting 'monoclinic'
loop_
_space_group_symop_operation_xyz
x,y,z
-x,y,-z
-x,-y,-z
x,-y,z
1/2+x,1/2+y,z
1/2-x,1/2+y,-z
1/2-x,1/2-y,-z
1/2+x,1/2-y,z
loop_
_atom_site_type_symbol
_atom_site_label
_atom_site_fract_x
_atom_site_fract_y
_atom_site_fract_z
Si Si1 0.348221 0.295148 0.350335
Si Si2 0.286987 0.607053 0.784489
Si Si3 0.999461 0.394999 0.216602
Si Si4 0.778502 0.891323 0.423787
Si Si5 0.768537 0.891991 0.129589
Si Si6 0.505880 0.392740 0.888308
Si Si7 0.509283 0.301928 0.741793
O O1 0.500000 0.321123 0.500000
O O2 0.331679 0.181403 0.335753
O O3 0.280843 0.341924 0.350468
O O4 0.276769 0.337168 0.211159
O O5 0.230821 0.500000 0.726470
O O6 0.376706 0.625982 0.805517
O O7 0.367813 0.623599 0.937003
O O8 0.996656 0.500000 0.250067
O O9 0.132648 0.380900 0.306617
O O10 0.988515 0.312845 0.265172
O O11 0.880864 0.385950 0.043400
O O12 0.877809 0.841159 0.576354
O O13 0.821700 0.000000 0.458953
O O14 0.861183 0.844199 0.163641
O O15 0.814723 0.000000 0.186154
O O16 0.504953 0.500000 0.857785
O O17 0.509729 0.322128 0.826102
#
# Coordination Sequence:
#
# PCOD8113294 Si02
#       7
#     8   8   8   8   8   8   8
#     4  12  24  40  61  86 122 162 208 256 304 362
#     4   9  20  38  60  90 121 158 203 254 304 360
#     4  10  24  42  61  93 127 156 200 257 306 361
#     4  11  24  42  65  92 123 160 207 255 305 361
#     4  11  24  42  65  92 123 160 207 255 305 361
#     4   9  18  36  65  93 118 152 208 257 297 360
#     4  12  21  39  67  92 124 166 203 243 305 370
#
# _framework density 20.638252000000001
#
# number of rings (size 3 to 8) (size 9 to 14) (size 15 to 20)
#    0.000    1.429    1.429    5.143    0.000    2.571 
#    0.000    6.429    0.000    0.000    0.000    0.000 
#    0.000    0.000    0.000    0.000    0.000    0.000 
#
# Total GULP energy -347281.678584 kJ/mol
# GULP energy per Si atom -12402.917092 kJ/mol
# Density = 2.059128 g / cm^3
# Si number density = 20.638252 Si / 1000 Ang^3
#
#
#
# Elastic Constant Matrix: (Units=GPa)
#
#
# Indices 1 2 3 4 5 6 
#
# 1 45.0585 21.2165 18.2602 -0.0001 -25.3670 -0.0001
# 2 21.2165 151.8030 31.7067 -0.0001 -12.6881 0.0000
# 3 18.2602 31.7067 79.4674 0.0000 1.8064 0.0000
# 4 -0.0001 -0.0001 0.0000 33.2672 0.0000 6.3884
# 5 -25.3670 -12.6881 1.8064 0.0000 29.9187 0.0000
# 6 -0.0001 0.0000 0.0000 6.3884 0.0000 29.8272
#
#
#
# Elastic Compliance Matrix: (Units=1/GPa)
#
#
# Indices 1 2 3 4 5 6 
#
# 1 0.053842 -0.000954 -0.013038 0.000000 0.046033 0.000000
# 2 -0.000954 0.007528 -0.002842 0.000000 0.002555 0.000000
# 3 -0.013038 -0.002842 0.017016 0.000000 -0.013287 0.000000
# 4 0.000000 0.000000 0.000000 0.031349 0.000000 -0.006714
# 5 0.046033 0.002555 -0.013287 0.000000 0.074340 0.000000
# 6 0.000000 0.000000 0.000000 -0.006714 0.000000 0.034965
#
#
# Mechanical properties :
#
#
# Convention : Reuss Voigt Hill
#
# Bulk Modulus (GPa) = 22.36279 46.52174 34.44227
# Shear Modulus (GPa) = 18.68364 32.27898 25.48131
#
# Velocity S-wave (km/s) = 3.01207 3.95908 3.51759
# Velocity P-wave (km/s) = 4.79123 6.59466 5.76391
#
# Compressibility (1/GPa) = 0.04471713
#
# Stress axis : x y z
#
# Youngs Moduli (GPa) = 18.57280 132.83534 58.76925
#
# Poissons Ratio (x) = 0.12679 0.76621
# Poissons Ratio (y) = 0.01773 0.16705
# Poissons Ratio (z) = 0.24214 0.37757
#
# Static dielectric constant tensor:
#      x y z
#    x 3.603300 0.000000 0.009030 
#    y 0.000000 4.159380 0.000000 
#    z 0.009030 0.000000 3.637130 
# 
# 
# High freq. dielectric constant tensor:
#      x y z
#    x 1.800600 0.000000 0.003100 
#    y 0.000000 1.829810 0.000000 
#    z 0.003100 0.000000 1.806390 
# 
# From -- ./inp_files/284592.got.cif
#   From: 2010.06.25/outbox.cif.g09.slc.cpg/sg12_143_cif.got.tgz:284592.got - 2010.06.28 00:19:55.
