data_PCOD8113868
_publ_section_title
;
Structure prediction by ZEFSAII (Michael W. Deem and Ramdas Pophale) SiO2 
 PCOD8113868
Probable space group: C 2/M
;
_chemical_formula_sum "Si O2"
_cell_formula_units_Z 48
_cell_length_a 19.983742
_cell_length_b 10.099182
_cell_length_c 13.458289
_cell_angle_alpha 90.000000
_cell_angle_beta 107.028552
_cell_angle_gamma 90.000000
_cell_volume 2597.065800
_symmetry_space_group_name_H-M "C 2/M"
_symmetry_group_IT_number 12
_symmetry_cell_setting 'monoclinic'
loop_
_space_group_symop_operation_xyz
x,y,z
-x,y,-z
-x,-y,-z
x,-y,z
1/2+x,1/2+y,z
1/2-x,1/2+y,-z
1/2-x,1/2-y,-z
1/2+x,1/2-y,z
loop_
_atom_site_type_symbol
_atom_site_label
_atom_site_fract_x
_atom_site_fract_y
_atom_site_fract_z
Si Si1 0.308359 0.500000 0.561511
Si Si2 0.361095 0.240916 0.324314
Si Si3 0.333100 0.000000 0.625183
Si Si4 0.198768 0.763112 0.288795
Si Si5 0.823841 0.852476 0.934145
Si Si6 0.417613 0.000000 0.472988
Si Si7 0.340985 0.851383 0.102718
Si Si8 0.580511 0.500000 0.561785
O O1 0.238823 0.500000 0.466543
O O2 0.309861 0.369596 0.628553
O O3 0.375511 0.500000 0.520353
O O4 0.279504 0.269057 0.303788
O O5 0.384203 0.128512 0.409852
O O6 0.378345 0.196149 0.219784
O O7 0.403717 0.373120 0.364145
O O8 0.339210 0.128444 0.696858
O O9 0.399160 0.000000 0.580903
O O10 0.160974 0.815173 0.173205
O O11 0.741589 0.850470 0.917476
O O12 0.853292 0.000000 0.968119
O O13 0.862338 0.747924 0.023124
O O14 0.500000 0.000000 0.500000
O O15 0.366336 0.000000 0.087134
O O16 0.500000 0.500000 0.500000
#
# Coordination Sequence:
#
# PCOD8113868 Si02
#       8
#     4   8   4   8   8   4   8   4
#     4  12  20  38  57  79 111 151 190 228 276 332
#     4  11  20  37  56  81 114 150 186 231 279 330
#     4  12  22  34  57  83 109 151 192 224 278 332
#     4  11  20  34  57  85 113 147 186 229 279 334
#     4   9  18  31  49  81 115 142 174 229 282 332
#     4  12  24  38  57  81 113 149 192 232 274 327
#     4   9  18  31  52  78 112 144 180 225 283 334
#     4  12  26  38  53  83 117 151 192 230 270 331
#
# _framework density 18.482396999999999
#
# number of rings (size 3 to 8) (size 9 to 14) (size 15 to 20)
#    0.000    1.333    5.000    2.000    2.333    0.000 
#    0.000    0.000    0.000    0.000    0.000    7.000 
#    0.000    0.000    0.000    0.000    0.000    0.000 
#
# Total GULP energy -297668.676321 kJ/mol
# GULP energy per Si atom -12402.861513 kJ/mol
# Density = 1.844033 g / cm^3
# Si number density = 18.482397 Si / 1000 Ang^3
#
#
#
# Elastic Constant Matrix: (Units=GPa)
#
#
# Indices 1 2 3 4 5 6 
#
# 1 64.8585 17.9995 22.7735 0.0000 -5.2908 0.0000
# 2 17.9995 181.0183 67.2732 0.0000 -11.8388 0.0000
# 3 22.7735 67.2732 101.6074 0.0000 -21.1368 0.0000
# 4 0.0000 0.0000 0.0000 31.1191 0.0000 -11.6799
# 5 -5.2908 -11.8388 -21.1368 0.0000 18.3212 0.0000
# 6 0.0000 0.0000 0.0000 -11.6799 0.0000 14.9999
#
#
#
# Elastic Compliance Matrix: (Units=1/GPa)
#
#
# Indices 1 2 3 4 5 6 
#
# 1 0.016760 -0.000370 -0.003361 0.000000 0.000723 0.000000
# 2 -0.000370 0.007353 -0.005025 0.000000 -0.001153 0.000000
# 3 -0.003361 -0.005025 0.017164 0.000000 0.015584 0.000000
# 4 0.000000 0.000000 0.000000 0.045404 0.000000 0.035355
# 5 0.000723 -0.001153 0.015584 0.000000 0.072024 0.000000
# 6 0.000000 0.000000 0.000000 0.035355 0.000000 0.094197
#
#
# Mechanical properties :
#
#
# Convention : Reuss Voigt Hill
#
# Bulk Modulus (GPa) = 42.07950 62.61963 52.34957
# Shear Modulus (GPa) = 17.96379 28.85057 23.40718
#
# Velocity S-wave (km/s) = 3.12098 3.95520 3.56259
# Velocity P-wave (km/s) = 5.98365 7.40354 6.73114
#
# Compressibility (1/GPa) = 0.02376454
#
# Stress axis : x y z
#
# Youngs Moduli (GPa) = 59.66586 135.99222 58.26053
#
# Poissons Ratio (x) = 0.05034 0.19581
# Poissons Ratio (y) = 0.02209 0.29279
# Poissons Ratio (z) = 0.20053 0.68343
#
# Static dielectric constant tensor:
#      x y z
#    x 3.027210 0.000000 -0.230860 
#    y 0.000000 3.788520 0.000000 
#    z -0.230860 0.000000 3.630310 
# 
# 
# High freq. dielectric constant tensor:
#      x y z
#    x 1.662230 0.000000 -0.020490 
#    y 0.000000 1.742120 0.000000 
#    z -0.020490 0.000000 1.721650 
# 
# From -- ./inp_files/230505.got.cif
#   From: 2010.06.25/outbox.cif.g09.slc.cpg/sg12_116_cif.got.tgz:230505.got - 2010.06.28 00:19:55.
