data_PCOD8113652
_publ_section_title
;
Structure prediction by ZEFSAII (Michael W. Deem and Ramdas Pophale) SiO2 
 PCOD8113652
Probable space group: C 2/M
;
_chemical_formula_sum "Si O2"
_cell_formula_units_Z 64
_cell_length_a 16.355992
_cell_length_b 29.850597
_cell_length_c 9.363756
_cell_angle_alpha 90.000000
_cell_angle_beta 54.591131
_cell_angle_gamma 90.000000
_cell_volume 3726.129282
_symmetry_space_group_name_H-M "C 2/M"
_symmetry_group_IT_number 12
_symmetry_cell_setting 'monoclinic'
loop_
_space_group_symop_operation_xyz
x,y,z
-x,y,-z
-x,-y,-z
x,-y,z
1/2+x,1/2+y,z
1/2-x,1/2+y,-z
1/2-x,1/2-y,-z
1/2+x,1/2-y,z
loop_
_atom_site_type_symbol
_atom_site_label
_atom_site_fract_x
_atom_site_fract_y
_atom_site_fract_z
Si Si1 0.342090 0.048980 0.711287
Si Si2 0.608379 0.860477 0.696518
Si Si3 0.081476 0.314892 0.247385
Si Si4 0.972560 0.549374 0.294951
Si Si5 0.412499 0.285956 0.686511
Si Si6 0.602987 0.701887 0.970092
Si Si7 0.688689 0.200554 0.861391
Si Si8 0.777844 0.637746 0.695607
O O1 0.411445 0.051458 0.502588
O O2 0.410449 0.056924 0.783153
O O3 0.257886 0.087601 0.778334
O O4 0.289973 0.000000 0.774418
O O5 0.520719 0.830653 0.719565
O O6 0.566862 0.910958 0.769209
O O7 0.642867 0.837787 0.807804
O O8 0.703442 0.862007 0.493457
O O9 0.063925 0.266252 0.329205
O O10 0.116916 0.346493 0.340061
O O11 0.171979 0.314151 0.041348
O O12 0.958603 0.500000 0.237015
O O13 0.500000 0.308202 0.500000
O O14 0.306913 0.294424 0.714270
O O15 0.410079 0.306117 0.847982
O O16 0.633227 0.752127 0.894230
O O17 0.685685 0.668778 0.825171
O O18 0.500000 0.688960 0.000000
#
# Coordination Sequence:
#
# PCOD8113652 Si02
#       8
#     8   8   8   8   8   8   8   8
#     4   8  14  26  47  75 104 134 166 209 258 303
#     4  11  21  29  54  80 103 138 177 204 252 313
#     4  11  19  36  49  72 102 139 172 208 252 295
#     4   8  14  26  45  74 108 134 166 208 250 301
#     4  11  22  37  55  71  99 140 178 212 252 304
#     4  11  23  38  52  73 105 135 172 222 261 288
#     4  11  22  37  49  72 106 142 170 211 255 304
#     4  11  19  32  53  77 104 132 175 216 251 306
#
# _framework density 17.176000999999999
#
# number of rings (size 3 to 8) (size 9 to 14) (size 15 to 20)
#    0.000    1.750    3.750    4.500    1.750    0.500 
#    0.000    0.000    0.000    2.625    0.000    0.000 
#    0.000    1.000    0.000    0.000    0.000    0.000 
#
# Total GULP energy -396661.969777 kJ/mol
# GULP energy per Si atom -12395.686556 kJ/mol
# Density = 1.713691 g / cm^3
# Si number density = 17.176001 Si / 1000 Ang^3
#
#
#
# Elastic Constant Matrix: (Units=GPa)
#
#
# Indices 1 2 3 4 5 6 
#
# 1 67.7970 22.4990 13.7400 0.0000 -4.6331 0.0000
# 2 22.4990 105.1967 21.1594 0.0000 0.7447 0.0000
# 3 13.7400 21.1594 69.0221 0.0000 -6.0652 0.0000
# 4 0.0000 0.0000 0.0000 -3.5870 0.0000 -3.6457
# 5 -4.6331 0.7447 -6.0652 0.0000 18.5552 0.0000
# 6 0.0000 0.0000 0.0000 -3.6457 0.0000 20.1911
#
#
#
# Elastic Compliance Matrix: (Units=1/GPa)
#
#
# Indices 1 2 3 4 5 6 
#
# 1 0.016441 -0.003140 -0.001996 0.000000 0.003579 0.000000
# 2 -0.003140 0.010769 -0.002865 0.000000 -0.002153 0.000000
# 3 -0.001996 -0.002865 0.016195 0.000000 0.004910 0.000000
# 4 0.000000 0.000000 0.000000 -0.235557 0.000000 -0.042532
# 5 0.003579 -0.002153 0.004910 0.000000 0.056478 0.000000
# 6 0.000000 0.000000 0.000000 -0.042532 0.000000 0.041847
#
#
# Mechanical properties :
#
#
# Convention : Reuss Voigt Hill
#
# Bulk Modulus (GPa) = 36.49270 39.64585 38.06928
# Shear Modulus (GPa) = -72.79252 19.33967 -26.72642
#
# Velocity S-wave (km/s) = -6.51708 3.35919 -3.94894
# Velocity P-wave (km/s) = 5.94452 6.17882 1.19172
#
# Compressibility (1/GPa) = 0.02740274
#
# Stress axis : x y z
#
# Youngs Moduli (GPa) = 60.82329 92.85713 61.74618
#
# Poissons Ratio (x) = 0.29160 0.12323
# Poissons Ratio (y) = 0.19100 0.17693
# Poissons Ratio (z) = 0.12139 0.26608
#
# Static dielectric constant tensor:
#      x y z
#    x 3.013460 0.000000 0.058840 
#    y 0.000000 3.479430 0.000000 
#    z 0.058840 0.000000 3.115750 
# 
# 
# High freq. dielectric constant tensor:
#      x y z
#    x 1.640640 0.000000 0.007690 
#    y 0.000000 1.657030 0.000000 
#    z 0.007690 0.000000 1.649270 
# 
# From -- ./inp_files/68228.got.cif
#   From: 2010.06.25/outbox.cif.g09.slc.cpg/sg12_35_cif.got.tgz:68228.got - 2010.06.28 00:19:55.
