data_PCOD8113934
_publ_section_title
;
Structure prediction by ZEFSAII (Michael W. Deem and Ramdas Pophale) SiO2 
 PCOD8113934
Probable space group: C 2/M
;
_chemical_formula_sum "Si O2"
_cell_formula_units_Z 48
_cell_length_a 11.549175
_cell_length_b 20.904731
_cell_length_c 13.301922
_cell_angle_alpha 90.000000
_cell_angle_beta 136.290268
_cell_angle_gamma 90.000000
_cell_volume 2219.173505
_symmetry_space_group_name_H-M "C 2/M"
_symmetry_group_IT_number 12
_symmetry_cell_setting 'monoclinic'
loop_
_space_group_symop_operation_xyz
x,y,z
-x,y,-z
-x,-y,-z
x,-y,z
1/2+x,1/2+y,z
1/2-x,1/2+y,-z
1/2-x,1/2-y,-z
1/2+x,1/2-y,z
loop_
_atom_site_type_symbol
_atom_site_label
_atom_site_fract_x
_atom_site_fract_y
_atom_site_fract_z
Si Si1 0.800047 0.874138 0.607637
Si Si2 0.226771 0.500000 0.270838
Si Si3 0.402569 0.500000 0.575904
Si Si4 0.545799 0.712756 0.645080
Si Si5 0.821691 0.074853 0.835947
Si Si6 0.974371 0.651702 0.285984
Si Si7 0.121168 0.637465 0.163756
O O1 0.898388 0.937506 0.640027
O O2 0.806250 0.876423 0.732150
O O3 0.609046 0.874177 0.450833
O O4 0.891080 0.812993 0.615179
O O5 0.240166 0.500000 0.400515
O O6 0.419544 0.500000 0.364007
O O7 0.126696 0.560814 0.168494
O O8 0.500000 0.720119 0.500000
O O9 0.599820 0.780993 0.722683
O O10 0.696439 0.663313 0.747940
O O11 0.674621 0.099372 0.818153
O O12 0.792973 0.000000 0.790395
O O13 0.000000 0.084463 0.000000
O O14 0.057943 0.663603 0.230421
O O15 0.000000 0.661253 0.000000
#
# Coordination Sequence:
#
# PCOD8113934 Si02
#       7
#     8   4   4   8   8   8   8
#     4  12  23  45  72 105 136 179 237 282 340 407
#     4  11  21  44  65 106 141 179 223 290 349 397
#     4  11  20  36  75 103 134 176 231 288 341 395
#     4  12  25  48  73 102 140 180 232 288 343 404
#     4  11  28  48  68 101 144 185 227 282 349 410
#     4  12  28  45  75 100 137 187 232 285 337 414
#     4  12  28  45  69 108 141 179 231 286 347 410
#
# _framework density 21.629674000000001
#
# number of rings (size 3 to 8) (size 9 to 14) (size 15 to 20)
#    0.000    0.333    5.833    2.250    7.000    2.000 
#    0.000    0.000    0.000    0.000    0.000    0.000 
#    0.000    0.000    0.000    0.000    0.000    0.000 
#
# Total GULP energy -297674.222203 kJ/mol
# GULP energy per Si atom -12403.092592 kJ/mol
# Density = 2.158044 g / cm^3
# Si number density = 21.629674 Si / 1000 Ang^3
#
#
#
# Elastic Constant Matrix: (Units=GPa)
#
#
# Indices 1 2 3 4 5 6 
#
# 1 74.7355 31.6497 33.1859 0.0000 6.6014 0.0000
# 2 31.6497 111.9823 24.8445 0.0000 2.1146 0.0000
# 3 33.1859 24.8445 112.1703 0.0000 0.1635 0.0000
# 4 0.0000 0.0000 0.0000 19.3650 0.0000 -1.3337
# 5 6.6014 2.1146 0.1635 0.0000 35.0975 0.0000
# 6 0.0000 0.0000 0.0000 -1.3337 0.0000 13.0205
#
#
#
# Elastic Compliance Matrix: (Units=1/GPa)
#
#
# Indices 1 2 3 4 5 6 
#
# 1 0.017147 -0.003855 -0.004215 0.000000 -0.002973 0.000000
# 2 -0.003855 0.010269 -0.001134 0.000000 0.000112 0.000000
# 3 -0.004215 -0.001134 0.010412 0.000000 0.000813 0.000000
# 4 0.000000 0.000000 0.000000 0.052006 0.000000 0.005327
# 5 -0.002973 0.000112 0.000813 0.000000 0.029041 0.000000
# 6 0.000000 0.000000 0.000000 0.005327 0.000000 0.077348
#
#
# Mechanical properties :
#
#
# Convention : Reuss Voigt Hill
#
# Bulk Modulus (GPa) = 51.49273 53.13868 52.31570
# Shear Modulus (GPa) = 22.61369 27.44380 25.02875
#
# Velocity S-wave (km/s) = 3.23692 3.56589 3.40538
# Velocity P-wave (km/s) = 6.15048 6.44786 6.30092
#
# Compressibility (1/GPa) = 0.01942022
#
# Stress axis : x y z
#
# Youngs Moduli (GPa) = 58.31805 97.37985 96.04289
#
# Poissons Ratio (x) = 0.37541 0.40481
# Poissons Ratio (y) = 0.22482 0.10892
# Poissons Ratio (z) = 0.24580 0.11044
#
# Static dielectric constant tensor:
#      x y z
#    x 4.019230 0.000000 -0.039720 
#    y 0.000000 3.929810 0.000000 
#    z -0.039720 0.000000 3.792950 
# 
# 
# High freq. dielectric constant tensor:
#      x y z
#    x 1.860530 0.000000 0.003090 
#    y 0.000000 1.858110 0.000000 
#    z 0.003090 0.000000 1.841170 
# 
# From -- ./inp_files/208045.got.cif
#   From: 2010.06.25/outbox.cif.g09.slc.cpg/sg12_105_cif.got.tgz:208045.got - 2010.06.28 00:19:55.
