data_PCOD8113528
_publ_section_title
;
Structure prediction by ZEFSAII (Michael W. Deem and Ramdas Pophale) SiO2 
 PCOD8113528
Probable space group: C 2/M
;
_chemical_formula_sum "Si O2"
_cell_formula_units_Z 24
_cell_length_a 5.040815
_cell_length_b 34.575894
_cell_length_c 5.365488
_cell_angle_alpha 90.000000
_cell_angle_beta 84.468315
_cell_angle_gamma 90.000000
_cell_volume 930.799605
_symmetry_space_group_name_H-M "C 2/M"
_symmetry_group_IT_number 12
_symmetry_cell_setting 'monoclinic'
loop_
_space_group_symop_operation_xyz
x,y,z
-x,y,-z
-x,-y,-z
x,-y,z
1/2+x,1/2+y,z
1/2-x,1/2+y,-z
1/2-x,1/2-y,-z
1/2+x,1/2-y,z
loop_
_atom_site_type_symbol
_atom_site_label
_atom_site_fract_x
_atom_site_fract_y
_atom_site_fract_z
Si Si1 0.665421 0.457030 0.737573
Si Si2 0.282197 0.657215 0.840500
Si Si3 0.500000 0.277292 0.500000
Si Si4 0.500000 0.104493 0.500000
O O1 0.500000 0.451051 0.500000
O O2 0.796098 0.500000 0.725782
O O3 0.888645 0.423725 0.726252
O O4 0.500000 0.451310 0.000000
O O5 0.435067 0.696254 0.745284
O O6 0.228108 0.631043 0.602358
O O7 0.500000 0.636055 0.000000
O O8 0.000000 0.666084 0.000000
O O9 0.250000 0.250000 0.500000
#
# Coordination Sequence:
#
# PCOD8113528 Si02
#       4
#     8   8   4   4
#     4  10  25  47  74 111 157 213 277 339 406 478
#     4  12  29  49  77 118 158 205 265 330 404 485
#     4  12  27  52  80 113 157 204 261 327 398 484
#     4  12  28  44  78 111 160 206 268 335 406 474
#
# _framework density 25.784286000000002
#
# number of rings (size 3 to 8) (size 9 to 14) (size 15 to 20)
#    0.000    0.667    0.000    5.500   11.667    4.000 
#    0.000    5.000    0.000    3.000    0.000    0.000 
#    0.000    0.000    0.000    0.000    0.000    0.000 
#
# Total GULP energy -148783.297449 kJ/mol
# GULP energy per Si atom -12398.608121 kJ/mol
# Density = 2.572560 g / cm^3
# Si number density = 25.784286 Si / 1000 Ang^3
#
#
#
# Elastic Constant Matrix: (Units=GPa)
#
#
# Indices 1 2 3 4 5 6 
#
# 1 177.7740 81.7070 64.5593 0.0000 2.9180 0.0000
# 2 81.7070 169.4557 55.4842 0.0000 -2.9533 0.0000
# 3 64.5593 55.4842 160.9673 0.0000 1.9738 0.0000
# 4 0.0000 0.0000 0.0000 -16.5994 0.0000 -35.8722
# 5 2.9180 -2.9533 1.9738 0.0000 59.9027 0.0000
# 6 0.0000 0.0000 0.0000 -35.8722 0.0000 39.3302
#
#
#
# Elastic Compliance Matrix: (Units=1/GPa)
#
#
# Indices 1 2 3 4 5 6 
#
# 1 0.007803 -0.003097 -0.002056 0.000000 -0.000465 0.000000
# 2 -0.003097 0.007891 -0.001485 0.000000 0.000589 0.000000
# 3 -0.002056 -0.001485 0.007552 0.000000 -0.000222 0.000000
# 4 0.000000 0.000000 0.000000 -0.020277 0.000000 -0.018494
# 5 -0.000465 0.000589 -0.000222 0.000000 0.016753 0.000000
# 6 0.000000 0.000000 0.000000 -0.018494 0.000000 0.008558
#
#
# Mechanical properties :
#
#
# Convention : Reuss Voigt Hill
#
# Bulk Modulus (GPa) = 100.31242 101.29978 100.80610
# Shear Modulus (GPa) = 111.40867 36.95646 74.18257
#
# Velocity S-wave (km/s) = 6.58041 3.78999 5.36963
# Velocity P-wave (km/s) = 9.83487 7.65015 8.81049
#
# Compressibility (1/GPa) = 0.00996885
#
# Stress axis : x y z
#
# Youngs Moduli (GPa) = 128.15549 126.72427 132.41960
#
# Poissons Ratio (x) = 0.39249 0.27229
# Poissons Ratio (y) = 0.39693 0.19665
# Poissons Ratio (z) = 0.26352 0.18819
#
# Static dielectric constant tensor:
#      x y z
#    x 4.621960 0.000000 -0.146270 
#    y 0.000000 5.086130 0.000000 
#    z -0.146270 0.000000 4.880920 
# 
# 
# High freq. dielectric constant tensor:
#      x y z
#    x 2.037470 0.000000 -0.016230 
#    y 0.000000 2.046760 0.000000 
#    z -0.016230 0.000000 2.039440 
# 
# From -- ./inp_files/1158.got.cif
#   From: 2010.06.25/outbox.cif.g09.slc.cpg/sg12_1_cif.got.tgz:1158.got - 2010.06.28 00:19:55.
