data_PCOD8113347
_publ_section_title
;
Structure prediction by ZEFSAII (Michael W. Deem and Ramdas Pophale) SiO2 
 PCOD8113347
Probable space group: C 2/M
;
_chemical_formula_sum "Si O2"
_cell_formula_units_Z 36
_cell_length_a 9.447608
_cell_length_b 22.710783
_cell_length_c 8.251993
_cell_angle_alpha 90.000000
_cell_angle_beta 112.872270
_cell_angle_gamma 90.000000
_cell_volume 1631.355458
_symmetry_space_group_name_H-M "C 2/M"
_symmetry_group_IT_number 12
_symmetry_cell_setting 'monoclinic'
loop_
_space_group_symop_operation_xyz
x,y,z
-x,y,-z
-x,-y,-z
x,-y,z
1/2+x,1/2+y,z
1/2-x,1/2+y,-z
1/2-x,1/2-y,-z
1/2+x,1/2-y,z
loop_
_atom_site_type_symbol
_atom_site_label
_atom_site_fract_x
_atom_site_fract_y
_atom_site_fract_z
Si Si1 0.456370 0.318676 0.305961
Si Si2 0.688401 0.500000 0.902439
Si Si3 0.673638 0.122676 0.033316
Si Si4 0.242075 0.873893 0.300343
Si Si5 0.345341 0.500000 0.729586
Si Si6 0.500000 0.793865 0.500000
O O1 0.500000 0.347590 0.500000
O O2 0.282657 0.331583 0.176081
O O3 0.571004 0.346509 0.224059
O O4 0.476900 0.247597 0.330606
O O5 0.783466 0.556970 0.888731
O O6 0.520826 0.500000 0.743243
O O7 0.658156 0.500000 0.078957
O O8 0.500000 0.137952 0.000000
O O9 0.692697 0.128815 0.850481
O O10 0.351717 0.835016 0.464573
O O11 0.240109 0.940798 0.368982
#
# Coordination Sequence:
#
# PCOD8113347 Si02
#       6
#     8   4   8   8   4   4
#     4  10  24  43  66  95 134 177 220 265 335 385
#     4   9  17  38  62  98 134 167 210 274 331 386
#     4  11  23  39  69 102 133 171 224 267 327 402
#     4  11  22  43  70  95 135 174 219 275 324 399
#     4   9  18  35  70  98 122 175 217 261 338 395
#     4  10  26  41  68  91 140 174 224 276 324 372
#
# _framework density 22.067540999999999
#
# number of rings (size 3 to 8) (size 9 to 14) (size 15 to 20)
#    0.667    1.111    2.222    1.667    3.111    1.333 
#    0.000    2.222    0.000    0.000    0.000    0.000 
#    0.000    0.000    0.000    0.000    0.000    0.000 
#
# Total GULP energy -223173.580479 kJ/mol
# GULP energy per Si atom -12398.532249 kJ/mol
# Density = 2.201731 g / cm^3
# Si number density = 22.067541 Si / 1000 Ang^3
#
#
#
# Elastic Constant Matrix: (Units=GPa)
#
#
# Indices 1 2 3 4 5 6 
#
# 1 175.1456 69.9624 48.5080 0.0000 26.0981 0.0000
# 2 69.9624 186.1000 47.0375 0.0000 30.4550 0.0000
# 3 48.5080 47.0375 58.8429 0.0000 23.6136 0.0000
# 4 0.0000 0.0000 0.0000 31.4482 0.0000 18.3424
# 5 26.0981 30.4550 23.6136 0.0000 35.4266 0.0000
# 6 0.0000 0.0000 0.0000 18.3424 0.0000 33.6108
#
#
#
# Elastic Compliance Matrix: (Units=1/GPa)
#
#
# Indices 1 2 3 4 5 6 
#
# 1 0.007818 -0.001540 -0.004688 0.000000 -0.001311 0.000000
# 2 -0.001540 0.007280 -0.003405 0.000000 -0.002855 0.000000
# 3 -0.004688 -0.003405 0.028696 0.000000 -0.012747 0.000000
# 4 0.000000 0.000000 0.000000 0.046646 0.000000 -0.025456
# 5 -0.001311 -0.002855 -0.012747 0.000000 0.040144 0.000000
# 6 0.000000 0.000000 0.000000 -0.025456 0.000000 0.043644
#
#
# Mechanical properties :
#
#
# Convention : Reuss Voigt Hill
#
# Bulk Modulus (GPa) = 40.76743 83.45603 62.11173
# Shear Modulus (GPa) = 24.79304 37.06915 30.93110
#
# Velocity S-wave (km/s) = 3.35551 4.10299 3.74793
# Velocity P-wave (km/s) = 5.79022 7.76831 6.85103
#
# Compressibility (1/GPa) = 0.02452939
#
# Stress axis : x y z
#
# Youngs Moduli (GPa) = 127.90350 137.36299 34.84805
#
# Poissons Ratio (x) = 0.21150 0.16338
# Poissons Ratio (y) = 0.19694 0.11864
# Poissons Ratio (z) = 0.59965 0.46765
#
# Static dielectric constant tensor:
#      x y z
#    x 3.837260 0.000000 0.142170 
#    y 0.000000 4.212990 0.000000 
#    z 0.142170 0.000000 3.541800 
# 
# 
# High freq. dielectric constant tensor:
#      x y z
#    x 1.869160 0.000000 0.010670 
#    y 0.000000 1.878010 0.000000 
#    z 0.010670 0.000000 1.834000 
# 
# From -- ./inp_files/39557.got.cif
#   From: 2010.06.25/outbox.cif.g09.slc.cpg/sg12_20_cif.got.tgz:39557.got - 2010.06.28 00:19:55.
