data_PCOD8113822
_publ_section_title
;
Structure prediction by ZEFSAII (Michael W. Deem and Ramdas Pophale) SiO2 
 PCOD8113822
Probable space group: C 2/M
;
_chemical_formula_sum "Si O2"
_cell_formula_units_Z 48
_cell_length_a 20.580169
_cell_length_b 8.849858
_cell_length_c 16.364969
_cell_angle_alpha 90.000000
_cell_angle_beta 117.803334
_cell_angle_gamma 90.000000
_cell_volume 2636.481303
_symmetry_space_group_name_H-M "C 2/M"
_symmetry_group_IT_number 12
_symmetry_cell_setting 'monoclinic'
loop_
_space_group_symop_operation_xyz
x,y,z
-x,y,-z
-x,-y,-z
x,-y,z
1/2+x,1/2+y,z
1/2-x,1/2+y,-z
1/2-x,1/2-y,-z
1/2+x,1/2-y,z
loop_
_atom_site_type_symbol
_atom_site_label
_atom_site_fract_x
_atom_site_fract_y
_atom_site_fract_z
Si Si1 0.778736 0.178638 0.433774
Si Si2 0.152610 0.328852 0.772328
Si Si3 0.581775 0.320241 0.046797
Si Si4 0.917009 0.321943 0.436323
Si Si5 0.797542 0.173309 0.759876
Si Si6 0.171210 0.177582 0.945662
O O1 0.750000 0.250000 0.500000
O O2 0.861048 0.237584 0.464027
O O3 0.722392 0.222926 0.328630
O O4 0.780830 0.000000 0.443739
O O5 0.135603 0.500000 0.788722
O O6 0.100899 0.278620 0.667344
O O7 0.237267 0.312353 0.795817
O O8 0.134708 0.221056 0.837807
O O9 0.579484 0.500000 0.042174
O O10 0.626040 0.271291 0.154666
O O11 0.500000 0.251291 0.000000
O O12 0.620374 0.257547 0.988014
O O13 0.906642 0.500000 0.445280
O O14 0.000000 0.267930 0.500000
O O15 0.801627 0.000000 0.731566
O O16 0.179903 0.000000 0.957469
O O17 0.250000 0.250000 0.000000
#
# Coordination Sequence:
#
# PCOD8113822 Si02
#       6
#     8   8   8   8   8   8
#     4  11  22  37  58  83 110 143 188 231 272 325
#     4   9  17  32  54  81 107 138 176 215 265 321
#     4   9  18  34  54  76 106 142 178 218 268 319
#     4   9  19  38  61  82 112 148 178 220 282 335
#     4   9  17  34  57  78 105 141 181 220 270 325
#     4  11  20  32  53  79 105 138 180 221 262 315
#
# _framework density 18.206084000000001
#
# number of rings (size 3 to 8) (size 9 to 14) (size 15 to 20)
#    0.000    2.333    1.667    3.000    0.000    3.000 
#    3.000    0.000    0.000    3.500    0.000    0.000 
#    0.000    0.000    0.000    0.000    0.000    0.000 
#
# Total GULP energy -297589.560098 kJ/mol
# GULP energy per Si atom -12399.565004 kJ/mol
# Density = 1.816465 g / cm^3
# Si number density = 18.206084 Si / 1000 Ang^3
#
#
#
# Elastic Constant Matrix: (Units=GPa)
#
#
# Indices 1 2 3 4 5 6 
#
# 1 140.6536 46.6927 88.3193 0.0000 9.4674 0.0000
# 2 46.6927 76.5286 44.2068 0.0000 -7.5047 0.0000
# 3 88.3193 44.2068 123.1213 0.0000 2.9123 0.0000
# 4 0.0000 0.0000 0.0000 32.9778 0.0000 -3.8701
# 5 9.4674 -7.5047 2.9123 0.0000 38.6201 0.0000
# 6 0.0000 0.0000 0.0000 -3.8701 0.0000 21.6749
#
#
#
# Elastic Compliance Matrix: (Units=1/GPa)
#
#
# Indices 1 2 3 4 5 6 
#
# 1 0.014047 -0.003973 -0.008566 0.000000 -0.003570 0.000000
# 2 -0.003973 0.018142 -0.003777 0.000000 0.004784 0.000000
# 3 -0.008566 -0.003777 0.015618 0.000000 0.000188 0.000000
# 4 0.000000 0.000000 0.000000 0.030972 0.000000 0.005530
# 5 -0.003570 0.004784 0.000188 0.000000 0.027684 0.000000
# 6 0.000000 0.000000 0.000000 0.005530 0.000000 0.047124
#
#
# Mechanical properties :
#
#
# Convention : Reuss Voigt Hill
#
# Bulk Modulus (GPa) = 65.89301 77.63788 71.76545
# Shear Modulus (GPa) = 26.13989 29.39354 27.76671
#
# Velocity S-wave (km/s) = 3.79328 4.02243 3.90953
# Velocity P-wave (km/s) = 7.44692 8.01934 7.73843
#
# Compressibility (1/GPa) = 0.01517612
#
# Stress axis : x y z
#
# Youngs Moduli (GPa) = 71.18711 55.12059 64.02678
#
# Poissons Ratio (x) = 0.21898 0.54845
# Poissons Ratio (y) = 0.28281 0.24184
# Poissons Ratio (z) = 0.60978 0.20820
#
# Static dielectric constant tensor:
#      x y z
#    x 3.426770 0.000000 0.053110 
#    y 0.000000 3.180780 0.000000 
#    z 0.053110 0.000000 3.621940 
# 
# 
# High freq. dielectric constant tensor:
#      x y z
#    x 1.692710 0.000000 0.002440 
#    y 0.000000 1.685720 0.000000 
#    z 0.002440 0.000000 1.717080 
# 
# From -- ./inp_files/230421.got.cif
#   From: 2010.06.25/outbox.cif.g09.slc.cpg/sg12_116_cif.got.tgz:230421.got - 2010.06.28 00:19:55.
