data_PCOD8113489
_publ_section_title
;
Structure prediction by ZEFSAII (Michael W. Deem and Ramdas Pophale) SiO2 
 PCOD8113489
Probable space group: C 2/M
;
_chemical_formula_sum "Si O2"
_cell_formula_units_Z 48
_cell_length_a 11.376134
_cell_length_b 26.071250
_cell_length_c 14.361212
_cell_angle_alpha 90.000000
_cell_angle_beta 31.145164
_cell_angle_gamma 90.000000
_cell_volume 2202.992351
_symmetry_space_group_name_H-M "C 2/M"
_symmetry_group_IT_number 12
_symmetry_cell_setting 'monoclinic'
loop_
_space_group_symop_operation_xyz
x,y,z
-x,y,-z
-x,-y,-z
x,-y,z
1/2+x,1/2+y,z
1/2-x,1/2+y,-z
1/2-x,1/2-y,-z
1/2+x,1/2-y,z
loop_
_atom_site_type_symbol
_atom_site_label
_atom_site_fract_x
_atom_site_fract_y
_atom_site_fract_z
Si Si1 0.801236 0.219070 0.700968
Si Si2 0.025824 0.186263 0.079969
Si Si3 0.990348 0.556571 0.854118
Si Si4 0.868931 0.943310 0.739734
Si Si5 0.591773 0.342810 0.640074
Si Si6 0.480921 0.160353 0.247732
O O1 0.612228 0.261771 0.846462
O O2 0.680413 0.171699 0.730808
O O3 0.000000 0.241321 0.500000
O O4 0.903519 0.197092 0.728239
O O5 0.921177 0.156777 0.239376
O O6 0.295698 0.196048 0.909737
O O7 0.000000 0.154003 0.000000
O O8 0.955818 0.500000 0.832759
O O9 0.243379 0.560215 0.725501
O O10 0.952146 0.600184 0.802141
O O11 0.810615 0.566180 0.057074
O O12 0.059827 0.899703 0.619383
O O13 0.981136 0.000000 0.673282
O O14 0.844833 0.326204 0.435307
#
# Coordination Sequence:
#
# PCOD8113489 Si02
#       6
#     8   8   8   8   8   8
#     4  10  25  42  65  95 126 160 211 262 320 377
#     4  12  29  42  63  88 122 175 220 260 308 367
#     4   9  17  32  61  99 131 160 202 251 316 390
#     4   9  17  33  62  99 133 163 196 251 321 384
#     4  11  24  42  65  94 132 161 207 267 310 380
#     4  11  23  41  64  95 128 168 203 254 322 373
#
# _framework density 21.788546
#
# number of rings (size 3 to 8) (size 9 to 14) (size 15 to 20)
#    0.000    1.667    3.333    1.500    7.000    2.000 
#    0.000    1.667    0.000    2.000    0.000    2.333 
#    0.000    0.000    0.000    0.000    0.000    0.000 
#
# Total GULP energy -297496.125311 kJ/mol
# GULP energy per Si atom -12395.671888 kJ/mol
# Density = 2.173895 g / cm^3
# Si number density = 21.788546 Si / 1000 Ang^3
#
#
#
# Elastic Constant Matrix: (Units=GPa)
#
#
# Indices 1 2 3 4 5 6 
#
# 1 76.7479 29.1247 39.6034 0.0003 20.2255 -0.0001
# 2 29.1247 113.4851 38.2863 -0.0001 -7.0124 0.0002
# 3 39.6034 38.2863 115.3343 0.0001 -3.9188 0.0002
# 4 0.0003 -0.0001 0.0001 23.6699 -0.0002 2.0666
# 5 20.2255 -7.0124 -3.9188 -0.0002 30.1372 0.0001
# 6 -0.0001 0.0002 0.0002 2.0666 0.0001 12.1038
#
#
#
# Elastic Compliance Matrix: (Units=1/GPa)
#
#
# Indices 1 2 3 4 5 6 
#
# 1 0.022939 -0.004621 -0.006933 0.000000 -0.017371 0.000001
# 2 -0.004621 0.010962 -0.001868 0.000000 0.005409 0.000000
# 3 -0.006933 -0.001868 0.011867 0.000000 0.005761 0.000000
# 4 0.000000 0.000000 0.000000 0.042887 0.000001 -0.007322
# 5 -0.017371 0.005409 0.005761 0.000001 0.046848 -0.000001
# 6 0.000001 0.000000 0.000000 -0.007322 -0.000001 0.083869
#
#
# Mechanical properties :
#
#
# Convention : Reuss Voigt Hill
#
# Bulk Modulus (GPa) = 52.84599 57.73288 55.28944
# Shear Modulus (GPa) = 19.80007 26.41905 23.10956
#
# Velocity S-wave (km/s) = 3.01780 3.48590 3.26026
# Velocity P-wave (km/s) = 6.03734 6.53884 6.29309
#
# Compressibility (1/GPa) = 0.01892291
#
# Stress axis : x y z
#
# Youngs Moduli (GPa) = 43.59422 91.22129 84.26744
#
# Poissons Ratio (x) = 0.42158 0.58421
# Poissons Ratio (y) = 0.20147 0.15744
# Poissons Ratio (z) = 0.30223 0.17043
#
# Static dielectric constant tensor:
#      x y z
#    x 3.759030 0.000000 -0.013930 
#    y 0.000000 3.842200 0.000000 
#    z -0.013930 0.000000 4.040710 
# 
# 
# High freq. dielectric constant tensor:
#      x y z
#    x 1.815890 0.000000 0.007660 
#    y 0.000000 1.844620 0.000000 
#    z 0.007660 0.000000 1.872240 
# 
# From -- ./inp_files/209270.got.cif
#   From: 2010.06.25/outbox.cif.g09.slc.cpg/sg12_105_cif.got.tgz:209270.got - 2010.06.28 00:19:55.
