data_PCOD8113839
_publ_section_title
;
Structure prediction by ZEFSAII (Michael W. Deem and Ramdas Pophale) SiO2 
 PCOD8113839
Probable space group: C 2/M
;
_chemical_formula_sum "Si O2"
_cell_formula_units_Z 64
_cell_length_a 13.079855
_cell_length_b 26.780631
_cell_length_c 15.393762
_cell_angle_alpha 90.000000
_cell_angle_beta 40.134141
_cell_angle_gamma 90.000000
_cell_volume 3475.720656
_symmetry_space_group_name_H-M "C 2/M"
_symmetry_group_IT_number 12
_symmetry_cell_setting 'monoclinic'
loop_
_space_group_symop_operation_xyz
x,y,z
-x,y,-z
-x,-y,-z
x,-y,z
1/2+x,1/2+y,z
1/2-x,1/2+y,-z
1/2-x,1/2-y,-z
1/2+x,1/2-y,z
loop_
_atom_site_type_symbol
_atom_site_label
_atom_site_fract_x
_atom_site_fract_y
_atom_site_fract_z
Si Si1 0.067510 0.301571 0.045803
Si Si2 0.064203 0.802606 0.551899
Si Si3 0.098281 0.443346 0.798582
Si Si4 0.929140 0.192974 0.131771
Si Si5 0.596147 0.347071 0.181521
Si Si6 0.735387 0.056330 0.894313
Si Si7 0.554674 0.192648 0.371033
Si Si8 0.896592 0.649055 0.316491
O O1 0.030617 0.243370 0.073544
O O2 0.982574 0.327425 0.179585
O O3 0.254555 0.310909 0.931719
O O4 0.000000 0.325219 0.000000
O O5 0.247044 0.817215 0.437795
O O6 0.000000 0.817555 0.500000
O O7 0.971668 0.835414 0.680696
O O8 0.039261 0.744012 0.587352
O O9 0.118697 0.500000 0.751909
O O10 0.211677 0.433460 0.807238
O O11 0.141758 0.407850 0.687990
O O12 0.921293 0.433985 0.947599
O O13 0.742285 0.203623 0.246618
O O14 0.962554 0.160396 0.195134
O O15 0.000000 0.165303 0.000000
O O16 0.635731 0.405554 0.152872
O O17 0.796243 0.000000 0.869097
O O18 0.500000 0.171561 0.500000
O O19 0.510878 0.151424 0.326706
#
# Coordination Sequence:
#
# PCOD8113839 Si02
#       8
#     8   8   8   8   8   8   8   8
#     4  11  20  33  53  81 110 140 181 227 278 332
#     4  11  22  35  53  83 114 144 184 226 273 331
#     4   9  18  34  57  87 113 135 175 229 283 339
#     4  11  23  36  51  78 113 146 188 233 269 310
#     4  12  21  35  56  79 111 149 183 223 278 333
#     4   9  18  34  57  85 114 140 171 223 289 344
#     4  11  23  40  53  74 114 156 193 226 262 317
#     4  12  21  35  60  81 106 152 191 222 272 331
#
# _framework density 18.413447999999999
#
# number of rings (size 3 to 8) (size 9 to 14) (size 15 to 20)
#    0.000    1.250    1.250    9.000    0.000    0.000 
#    0.000    0.625    0.000    3.750    0.000    0.000 
#    0.000    0.000    0.000    0.000    0.000    0.000 
#
# Total GULP energy -396797.075498 kJ/mol
# GULP energy per Si atom -12399.908609 kJ/mol
# Density = 1.837154 g / cm^3
# Si number density = 18.413448 Si / 1000 Ang^3
#
#
#
# Elastic Constant Matrix: (Units=GPa)
#
#
# Indices 1 2 3 4 5 6 
#
# 1 103.1628 53.4711 38.7575 0.0002 9.4552 -0.0001
# 2 53.4711 105.1262 36.1170 0.0001 1.7704 0.0000
# 3 38.7575 36.1170 107.0175 0.0003 1.7639 -0.0001
# 4 0.0002 0.0001 0.0003 22.8000 -0.0003 1.2175
# 5 9.4552 1.7704 1.7639 -0.0003 33.5299 0.0001
# 6 -0.0001 0.0000 -0.0001 1.2175 0.0001 22.9366
#
#
#
# Elastic Compliance Matrix: (Units=1/GPa)
#
#
# Indices 1 2 3 4 5 6 
#
# 1 0.014386 -0.006207 -0.003056 0.000000 -0.003568 0.000000
# 2 -0.006207 0.013443 -0.002308 0.000000 0.001162 0.000000
# 3 -0.003056 -0.002308 0.011224 0.000000 0.000393 0.000000
# 4 0.000000 0.000000 0.000000 0.043984 0.000000 -0.002335
# 5 -0.003568 0.001162 0.000393 0.000000 0.030748 0.000000
# 6 0.000000 0.000000 0.000000 -0.002335 0.000000 0.043722
#
#
# Mechanical properties :
#
#
# Convention : Reuss Voigt Hill
#
# Bulk Modulus (GPa) = 62.85552 63.55529 63.20540
# Shear Modulus (GPa) = 26.88841 28.31735 27.60288
#
# Velocity S-wave (km/s) = 3.82548 3.92581 3.87597
# Velocity P-wave (km/s) = 7.32954 7.42563 7.37774
#
# Compressibility (1/GPa) = 0.01590950
#
# Stress axis : x y z
#
# Youngs Moduli (GPa) = 69.51225 74.38876 89.09794
#
# Poissons Ratio (x) = 0.46174 0.27232
# Poissons Ratio (y) = 0.43147 0.20564
# Poissons Ratio (z) = 0.21246 0.17169
#
# Static dielectric constant tensor:
#      x y z
#    x 3.948040 0.000000 0.467500 
#    y 0.000000 3.386590 0.000000 
#    z 0.467500 0.000000 3.597090 
# 
# 
# High freq. dielectric constant tensor:
#      x y z
#    x 1.709630 0.000000 0.007140 
#    y 0.000000 1.689710 0.000000 
#    z 0.007140 0.000000 1.719470 
# 
# From -- ./inp_files/209376.got.cif
#   From: 2010.06.25/outbox.cif.g09.slc.cpg/sg12_105_cif.got.tgz:209376.got - 2010.06.28 00:19:55.
