data_PCOD8113906
_publ_section_title
;
Structure prediction by ZEFSAII (Michael W. Deem and Ramdas Pophale) SiO2 
 PCOD8113906
Probable space group: C 2/M
;
_chemical_formula_sum "Si O2"
_cell_formula_units_Z 40
_cell_length_a 20.235429
_cell_length_b 10.263321
_cell_length_c 19.950700
_cell_angle_alpha 90.000000
_cell_angle_beta 147.808553
_cell_angle_gamma 90.000000
_cell_volume 2207.404308
_symmetry_space_group_name_H-M "C 2/M"
_symmetry_group_IT_number 12
_symmetry_cell_setting 'monoclinic'
loop_
_space_group_symop_operation_xyz
x,y,z
-x,y,-z
-x,-y,-z
x,-y,z
1/2+x,1/2+y,z
1/2-x,1/2+y,-z
1/2-x,1/2-y,-z
1/2+x,1/2-y,z
loop_
_atom_site_type_symbol
_atom_site_label
_atom_site_fract_x
_atom_site_fract_y
_atom_site_fract_z
Si Si1 0.198822 0.756227 0.251517
Si Si2 0.228064 0.000000 0.053519
Si Si3 0.730498 0.000000 0.067500
Si Si4 0.936741 0.353530 0.516825
Si Si5 0.458544 0.000000 0.887895
Si Si6 0.967884 0.000000 0.894788
Si Si7 0.825040 0.741814 0.216468
O O1 0.312008 0.768421 0.401267
O O2 0.126157 0.623287 0.201897
O O3 0.107433 0.872842 0.188944
O O4 0.244582 0.769053 0.214676
O O5 0.290721 0.872655 0.137064
O O6 0.084549 0.000000 0.947002
O O7 0.243606 0.000000 0.988082
O O8 0.796542 0.122349 0.157735
O O9 0.582135 0.000000 0.949427
O O10 0.909999 0.500000 0.522207
O O11 0.000000 0.371787 0.500000
O O12 0.028129 0.271755 0.643276
O O13 0.500000 0.000000 0.000000
O O14 0.000000 0.000000 0.000000
#
# Coordination Sequence:
#
# PCOD8113906 Si02
#       7
#     8   4   4   8   4   4   8
#     4  11  20  35  61  91 114 147 191 247 291 335
#     4  12  24  37  59  85 117 160 194 235 289 340
#     4  12  26  39  55  85 125 160 192 227 287 360
#     4   9  18  33  58  90 116 142 189 247 292 332
#     4  12  22  39  57  81 129 156 184 236 295 342
#     4  12  20  33  61  87 115 142 196 248 283 326
#     4  11  20  38  60  84 120 153 191 240 288 340
#
# _framework density 18.120830999999999
#
# number of rings (size 3 to 8) (size 9 to 14) (size 15 to 20)
#    0.000    1.000    6.000    2.400    0.000    0.800 
#    0.000    3.000    0.000    7.200    0.000    0.000 
#    0.000    0.000    0.000    0.000    0.000    0.000 
#
# Total GULP energy -248015.717637 kJ/mol
# GULP energy per Si atom -12400.785882 kJ/mol
# Density = 1.807959 g / cm^3
# Si number density = 18.120831 Si / 1000 Ang^3
#
#
#
# Elastic Constant Matrix: (Units=GPa)
#
#
# Indices 1 2 3 4 5 6 
#
# 1 79.7662 10.3624 50.0889 0.0000 14.1200 0.0000
# 2 10.3624 138.2217 72.5086 0.0000 26.5661 0.0000
# 3 50.0889 72.5086 149.6253 0.0000 31.3130 0.0000
# 4 0.0000 0.0000 0.0000 57.0369 0.0000 -18.8504
# 5 14.1200 26.5661 31.3130 0.0000 21.8958 0.0000
# 6 0.0000 0.0000 0.0000 -18.8504 0.0000 66.3977
#
#
#
# Elastic Compliance Matrix: (Units=1/GPa)
#
#
# Indices 1 2 3 4 5 6 
#
# 1 0.016886 0.002964 -0.005791 0.000000 -0.006205 0.000000
# 2 0.002964 0.011088 -0.004496 0.000000 -0.008936 0.000000
# 3 -0.005791 -0.004496 0.012669 0.000000 -0.008929 0.000000
# 4 0.000000 0.000000 0.000000 0.019348 0.000000 0.005493
# 5 -0.006205 -0.008936 -0.008929 0.000000 0.073283 0.000000
# 6 0.000000 0.000000 0.000000 0.005493 0.000000 0.016620
#
#
# Mechanical properties :
#
#
# Convention : Reuss Voigt Hill
#
# Bulk Modulus (GPa) = 38.46266 70.39256 54.42761
# Shear Modulus (GPa) = 28.86731 44.70961 36.78846
#
# Velocity S-wave (km/s) = 3.99563 4.97259 4.51063
# Velocity P-wave (km/s) = 6.52368 8.47935 7.56498
#
# Compressibility (1/GPa) = 0.02599924
#
# Stress axis : x y z
#
# Youngs Moduli (GPa) = 59.21965 90.18463 78.93127
#
# Poissons Ratio (x) = -0.26734 0.45709
# Poissons Ratio (y) = -0.17555 0.35486
# Poissons Ratio (z) = 0.34294 0.40545
#
# Static dielectric constant tensor:
#      x y z
#    x 2.990400 0.000000 0.027150 
#    y 0.000000 3.497160 0.000000 
#    z 0.027150 0.000000 3.400780 
# 
# 
# High freq. dielectric constant tensor:
#      x y z
#    x 1.669480 0.000000 0.018960 
#    y 0.000000 1.717990 0.000000 
#    z 0.018960 0.000000 1.713920 
# 
# From -- ./inp_files/283453.got.cif
#   From: 2010.06.25/outbox.cif.g09.slc.cpg/sg12_142_cif.got.tgz:283453.got - 2010.06.28 00:19:55.
