data_PCOD8113453
_publ_section_title
;
Structure prediction by ZEFSAII (Michael W. Deem and Ramdas Pophale) SiO2 
 PCOD8113453
Probable space group: C 2/M
;
_chemical_formula_sum "Si O2"
_cell_formula_units_Z 52
_cell_length_a 8.899416
_cell_length_b 26.298496
_cell_length_c 11.190758
_cell_angle_alpha 90.000000
_cell_angle_beta 80.470580
_cell_angle_gamma 90.000000
_cell_volume 2582.957387
_symmetry_space_group_name_H-M "C 2/M"
_symmetry_group_IT_number 12
_symmetry_cell_setting 'monoclinic'
loop_
_space_group_symop_operation_xyz
x,y,z
-x,y,-z
-x,-y,-z
x,-y,z
1/2+x,1/2+y,z
1/2-x,1/2+y,-z
1/2-x,1/2-y,-z
1/2+x,1/2-y,z
loop_
_atom_site_type_symbol
_atom_site_label
_atom_site_fract_x
_atom_site_fract_y
_atom_site_fract_z
Si Si1 0.934203 0.299546 0.630714
Si Si2 0.859542 0.267465 0.086255
Si Si3 0.916242 0.798536 0.289782
Si Si4 0.747140 0.000000 0.037853
Si Si5 0.500000 0.922316 0.000000
Si Si6 0.995930 0.000000 0.798058
Si Si7 0.141669 0.359455 0.770539
Si Si8 0.944099 0.098572 0.644323
O O1 0.754993 0.299126 0.641205
O O2 0.000000 0.320524 0.500000
O O3 0.988763 0.242044 0.646498
O O4 0.992529 0.340098 0.720355
O O5 0.917930 0.217837 0.150434
O O6 0.778913 0.307986 0.185807
O O7 0.750000 0.250000 0.000000
O O8 0.000000 0.294505 0.000000
O O9 0.979156 0.854788 0.297467
O O10 0.846728 0.000000 0.146643
O O11 0.633418 0.952465 0.050548
O O12 0.854459 0.000000 0.907106
O O13 0.412511 0.892026 0.112180
O O14 0.988594 0.048566 0.712144
O O15 0.261301 0.390777 0.673038
O O16 0.000000 0.093584 0.500000
#
# Coordination Sequence:
#
# PCOD8113453 Si02
#       8
#     8   8   8   4   4   4   8   8
#     4  11  22  40  61  93 133 173 221 261 308 390
#     4  11  21  36  54  89 131 165 204 257 309 378
#     4  11  23  38  62  93 127 177 220 261 325 386
#     4  10  24  46  71  96 127 164 218 275 331 398
#     4  11  22  44  72  94 130 166 206 275 334 390
#     4  11  25  46  69 100 127 164 225 272 331 395
#     4  11  23  39  65  96 128 172 212 257 332 383
#     4  12  25  45  67  94 132 174 220 274 330 386
#
# _framework density 20.131961
#
# number of rings (size 3 to 8) (size 9 to 14) (size 15 to 20)
#    0.000    0.923    2.308    6.692    2.154    0.000 
#    2.769    0.000    0.000    0.923    0.000    0.000 
#    0.000    0.000    0.000    0.000    0.000    0.000 
#
# Total GULP energy -322300.057161 kJ/mol
# GULP energy per Si atom -12396.156045 kJ/mol
# Density = 2.008614 g / cm^3
# Si number density = 20.131961 Si / 1000 Ang^3
#
#
#
# Elastic Constant Matrix: (Units=GPa)
#
#
# Indices 1 2 3 4 5 6 
#
# 1 81.0630 36.3345 10.2930 0.0000 -11.6313 0.0000
# 2 36.3345 122.7432 41.5348 0.0000 6.8683 0.0000
# 3 10.2930 41.5348 108.6896 0.0000 -8.4730 0.0000
# 4 0.0000 0.0000 0.0000 25.8444 0.0000 -8.2180
# 5 -11.6313 6.8683 -8.4730 0.0000 38.6736 0.0000
# 6 0.0000 0.0000 0.0000 -8.2180 0.0000 -6.4723
#
#
#
# Elastic Compliance Matrix: (Units=1/GPa)
#
#
# Indices 1 2 3 4 5 6 
#
# 1 0.015371 -0.005205 0.000983 0.000000 0.005763 0.000000
# 2 -0.005205 0.011361 -0.004200 0.000000 -0.004503 0.000000
# 3 0.000983 -0.004200 0.010981 0.000000 0.003447 0.000000
# 4 0.000000 0.000000 0.000000 0.027564 0.000000 -0.034999
# 5 0.005763 -0.004503 0.003447 0.000000 0.029146 0.000000
# 6 0.000000 0.000000 0.000000 -0.034999 0.000000 -0.110066
#
#
# Mechanical properties :
#
#
# Convention : Reuss Voigt Hill
#
# Bulk Modulus (GPa) = 47.91784 54.31335 51.11559
# Shear Modulus (GPa) = 612.89708 26.56471 319.73090
#
# Velocity S-wave (km/s) = 17.46713 3.63647 12.61596
# Velocity P-wave (km/s) = 20.75222 6.68350 15.41629
#
# Compressibility (1/GPa) = 0.02086906
#
# Stress axis : x y z
#
# Youngs Moduli (GPa) = 65.05635 88.02021 91.06610
#
# Poissons Ratio (x) = 0.45816 -0.08949
# Poissons Ratio (y) = 0.33863 0.38244
# Poissons Ratio (z) = -0.06393 0.36965
#
# Static dielectric constant tensor:
#      x y z
#    x 3.313190 0.000000 0.108150 
#    y 0.000000 3.636940 0.000000 
#    z 0.108150 0.000000 3.719480 
# 
# 
# High freq. dielectric constant tensor:
#      x y z
#    x 1.798590 0.000000 -0.006450 
#    y 0.000000 1.779100 0.000000 
#    z -0.006450 0.000000 1.797510 
# 
# From -- ./inp_files/123675.got.cif
#   From: 2010.06.25/outbox.cif.g09.slc.cpg/sg12_62_cif.got.tgz:123675.got - 2010.06.28 00:19:55.
