data_PCOD8113355
_publ_section_title
;
Structure prediction by ZEFSAII (Michael W. Deem and Ramdas Pophale) SiO2 
 PCOD8113355
Probable space group: C 2/M
;
_chemical_formula_sum "Si O2"
_cell_formula_units_Z 56
_cell_length_a 16.750900
_cell_length_b 14.968819
_cell_length_c 11.611105
_cell_angle_alpha 90.000000
_cell_angle_beta 61.875992
_cell_angle_gamma 90.000000
_cell_volume 2567.633709
_symmetry_space_group_name_H-M "C 2/M"
_symmetry_group_IT_number 12
_symmetry_cell_setting 'monoclinic'
loop_
_space_group_symop_operation_xyz
x,y,z
-x,y,-z
-x,-y,-z
x,-y,z
1/2+x,1/2+y,z
1/2-x,1/2+y,-z
1/2-x,1/2-y,-z
1/2+x,1/2-y,z
loop_
_atom_site_type_symbol
_atom_site_label
_atom_site_fract_x
_atom_site_fract_y
_atom_site_fract_z
Si Si1 0.596288 0.283774 0.423649
Si Si2 0.404810 0.338084 0.833613
Si Si3 0.579009 0.854298 0.094881
Si Si4 0.218413 0.779691 0.702186
Si Si5 0.592679 0.599852 0.638331
Si Si6 0.757562 0.099375 0.099150
Si Si7 0.882844 0.399932 0.191208
O O1 0.500000 0.231088 0.500000
O O2 0.622938 0.310772 0.276259
O O3 0.677106 0.219720 0.411302
O O4 0.582997 0.371518 0.511983
O O5 0.423228 0.252780 0.901722
O O6 0.496194 0.396289 0.769220
O O7 0.320706 0.392283 0.943268
O O8 0.652500 0.888414 0.137139
O O9 0.478128 0.888231 0.194363
O O10 0.603468 0.891077 0.953905
O O11 0.163231 0.833926 0.647075
O O12 0.209680 0.826960 0.832047
O O13 0.187247 0.676296 0.722914
O O14 0.630399 0.500000 0.619581
O O15 0.769713 0.000000 0.142897
O O16 0.845059 0.500000 0.243723
#
# Coordination Sequence:
#
# PCOD8113355 Si02
#       7
#     8   8   8   8   8   8   8
#     4  10  24  43  69  90 118 174 226 270 320 371
#     4  11  21  41  66  96 132 174 212 267 334 381
#     4  11  20  40  59  92 135 170 216 261 315 387
#     4  12  23  43  67  95 137 168 211 274 329 396
#     4  11  25  44  66  95 130 175 223 270 320 384
#     4  12  24  38  65 101 137 174 208 261 333 402
#     4  11  23  38  64  96 131 176 215 260 322 385
#
# _framework density 21.809965999999999
#
# number of rings (size 3 to 8) (size 9 to 14) (size 15 to 20)
#    0.000    0.857    4.286    4.286    0.000    4.286 
#    0.000    1.429    0.000    1.714    0.000    0.000 
#    0.000    0.000    0.000    0.000    0.000    0.000 
#
# Total GULP energy -347176.539061 kJ/mol
# GULP energy per Si atom -12399.162109 kJ/mol
# Density = 2.176033 g / cm^3
# Si number density = 21.809966 Si / 1000 Ang^3
#
#
#
# Elastic Constant Matrix: (Units=GPa)
#
#
# Indices 1 2 3 4 5 6 
#
# 1 129.2890 47.6516 36.4260 0.0000 -11.4038 0.0000
# 2 47.6516 143.1328 28.7566 0.0000 -4.8219 0.0000
# 3 36.4260 28.7566 71.4703 0.0000 -11.6636 0.0000
# 4 0.0000 0.0000 0.0000 20.4419 0.0000 -0.5805
# 5 -11.4038 -4.8219 -11.6636 0.0000 33.0971 0.0000
# 6 0.0000 0.0000 0.0000 -0.5805 0.0000 11.1906
#
#
#
# Elastic Compliance Matrix: (Units=1/GPa)
#
#
# Indices 1 2 3 4 5 6 
#
# 1 0.009852 -0.002469 -0.003748 0.000000 0.001714 0.000000
# 2 -0.002469 0.008220 -0.002114 0.000000 -0.000398 0.000000
# 3 -0.003748 -0.002114 0.017498 0.000000 0.004567 0.000000
# 4 0.000000 0.000000 0.000000 0.048991 0.000000 0.002542
# 5 0.001714 -0.000398 0.004567 0.000000 0.032356 0.000000
# 6 0.000000 0.000000 0.000000 0.002542 0.000000 0.089493
#
#
# Mechanical properties :
#
#
# Convention : Reuss Voigt Hill
#
# Bulk Modulus (GPa) = 52.88866 63.28450 58.08658
# Shear Modulus (GPa) = 21.79844 28.34978 25.07411
#
# Velocity S-wave (km/s) = 3.16487 3.60926 3.39435
# Velocity P-wave (km/s) = 6.13658 6.81530 6.48483
#
# Compressibility (1/GPa) = 0.01890765
#
# Stress axis : x y z
#
# Youngs Moduli (GPa) = 101.50465 121.65741 57.14979
#
# Poissons Ratio (x) = 0.30038 0.21419
# Poissons Ratio (y) = 0.25063 0.12081
# Poissons Ratio (z) = 0.38043 0.25717
#
# Static dielectric constant tensor:
#      x y z
#    x 4.204940 0.000000 -0.115890 
#    y 0.000000 3.890680 0.000000 
#    z -0.115890 0.000000 3.795130 
# 
# 
# High freq. dielectric constant tensor:
#      x y z
#    x 1.876110 0.000000 -0.006050 
#    y 0.000000 1.846360 0.000000 
#    z -0.006050 0.000000 1.839650 
# 
# From -- ./inp_files/156519.got.cif
#   From: 2010.06.25/outbox.cif.g09.slc.cpg/sg12_79_cif.got.tgz:156519.got - 2010.06.28 00:19:55.
