data_PCOD8113653
_publ_section_title
;
Structure prediction by ZEFSAII (Michael W. Deem and Ramdas Pophale) SiO2 
 PCOD8113653
Probable space group: C 2/M
;
_chemical_formula_sum "Si O2"
_cell_formula_units_Z 64
_cell_length_a 11.469513
_cell_length_b 29.701730
_cell_length_c 11.282407
_cell_angle_alpha 90.000000
_cell_angle_beta 100.422226
_cell_angle_gamma 90.000000
_cell_volume 3780.101450
_symmetry_space_group_name_H-M "C 2/M"
_symmetry_group_IT_number 12
_symmetry_cell_setting 'monoclinic'
loop_
_space_group_symop_operation_xyz
x,y,z
-x,y,-z
-x,-y,-z
x,-y,z
1/2+x,1/2+y,z
1/2-x,1/2+y,-z
1/2-x,1/2-y,-z
1/2+x,1/2-y,z
loop_
_atom_site_type_symbol
_atom_site_label
_atom_site_fract_x
_atom_site_fract_y
_atom_site_fract_z
Si Si1 0.365223 0.794515 0.636985
Si Si2 0.007120 0.548123 0.310034
Si Si3 0.530853 0.700188 0.375248
Si Si4 0.195696 0.549080 0.532332
Si Si5 0.744467 0.853916 0.592896
Si Si6 0.691267 0.278716 0.806700
Si Si7 0.874632 0.700341 0.030788
Si Si8 0.441981 0.140464 0.230663
O O1 0.436702 0.752514 0.596941
O O2 0.307662 0.825149 0.525229
O O3 0.265702 0.770994 0.700713
O O4 0.448369 0.825987 0.730833
O O5 0.997833 0.500000 0.240350
O O6 0.908108 0.550403 0.391925
O O7 0.988306 0.589846 0.219599
O O8 0.136553 0.552333 0.392244
O O9 0.500000 0.680654 0.500000
O O10 0.635984 0.669805 0.340823
O O11 0.426860 0.695193 0.257862
O O12 0.263304 0.500000 0.555552
O O13 0.275742 0.593979 0.563272
O O14 0.648235 0.853742 0.678304
O O15 0.659446 0.232474 0.865636
O O16 0.771447 0.306150 0.915190
O O17 0.885213 0.651583 0.093113
O O18 0.000000 0.717476 0.000000
#
# Coordination Sequence:
#
# PCOD8113653 Si02
#       8
#     8   8   8   8   8   8   8   8
#     4  12  21  34  51  76 107 137 168 213 255 306
#     4   8  14  25  45  75 106 129 160 209 260 309
#     4  12  23  33  49  74 108 138 166 210 253 301
#     4   8  14  26  45  72 105 136 163 202 255 308
#     4  11  21  32  51  79 108 135 169 212 260 312
#     4  11  23  38  52  72  99 140 178 212 248 293
#     4  11  22  38  54  70  98 138 183 217 245 295
#     4  11  19  32  54  78 101 137 174 207 262 306
#
# _framework density 16.930762000000001
#
# number of rings (size 3 to 8) (size 9 to 14) (size 15 to 20)
#    0.000    1.500    5.000    3.000    0.000    1.000 
#    0.000    0.000    0.000    0.750    0.000    0.875 
#    0.000    4.000    0.000    0.000    0.000    0.500 
#
# Total GULP energy -396488.122918 kJ/mol
# GULP energy per Si atom -12390.253841 kJ/mol
# Density = 1.689223 g / cm^3
# Si number density = 16.930762 Si / 1000 Ang^3
#
#
#
# Elastic Constant Matrix: (Units=GPa)
#
#
# Indices 1 2 3 4 5 6 
#
# 1 65.3581 40.2855 27.1633 0.0000 9.4547 0.0000
# 2 40.2855 118.8442 31.6482 0.0000 11.8780 0.0000
# 3 27.1633 31.6482 74.2327 0.0000 16.9888 0.0000
# 4 0.0000 0.0000 0.0000 22.2804 0.0000 1.6478
# 5 9.4547 11.8780 16.9888 0.0000 33.2822 0.0000
# 6 0.0000 0.0000 0.0000 1.6478 0.0000 16.9628
#
#
#
# Elastic Compliance Matrix: (Units=1/GPa)
#
#
# Indices 1 2 3 4 5 6 
#
# 1 0.021069 -0.005678 -0.004963 0.000000 -0.001426 0.000000
# 2 -0.005678 0.011088 -0.002393 0.000000 -0.001123 0.000000
# 3 -0.004963 -0.002393 0.017878 0.000000 -0.006862 0.000000
# 4 0.000000 0.000000 0.000000 0.045207 0.000000 -0.004392
# 5 -0.001426 -0.001123 -0.006862 0.000000 0.034355 0.000000
# 6 0.000000 0.000000 0.000000 -0.004392 0.000000 0.059379
#
#
# Mechanical properties :
#
#
# Convention : Reuss Voigt Hill
#
# Bulk Modulus (GPa) = 41.72144 50.73655 46.22899
# Shear Modulus (GPa) = 22.41834 25.12759 23.77297
#
# Velocity S-wave (km/s) = 3.64279 3.85663 3.75124
# Velocity P-wave (km/s) = 6.51069 7.06142 6.79164
#
# Compressibility (1/GPa) = 0.02396849
#
# Stress axis : x y z
#
# Youngs Moduli (GPa) = 47.46372 90.18381 55.93592
#
# Poissons Ratio (x) = 0.51205 0.27759
# Poissons Ratio (y) = 0.26949 0.13384
# Poissons Ratio (z) = 0.23554 0.21579
#
# Static dielectric constant tensor:
#      x y z
#    x 3.166630 0.000000 0.105620 
#    y 0.000000 3.512670 0.000000 
#    z 0.105620 0.000000 3.153560 
# 
# 
# High freq. dielectric constant tensor:
#      x y z
#    x 1.635080 0.000000 0.002390 
#    y 0.000000 1.644750 0.000000 
#    z 0.002390 0.000000 1.639110 
# 
# From -- ./inp_files/137449.got.cif
#   From: 2010.06.25/outbox.cif.g09.slc.cpg/sg12_69_cif.got.tgz:137449.got - 2010.06.28 00:19:55.
