data_PCOD8113320
_publ_section_title
;
Structure prediction by ZEFSAII (Michael W. Deem and Ramdas Pophale) SiO2 
 PCOD8113320
Probable space group: C 2/M
;
_chemical_formula_sum "Si O2"
_cell_formula_units_Z 56
_cell_length_a 19.511341
_cell_length_b 29.908777
_cell_length_c 8.599820
_cell_angle_alpha 90.000000
_cell_angle_beta 148.977305
_cell_angle_gamma 90.000000
_cell_volume 2586.429474
_symmetry_space_group_name_H-M "C 2/M"
_symmetry_group_IT_number 12
_symmetry_cell_setting 'monoclinic'
loop_
_space_group_symop_operation_xyz
x,y,z
-x,y,-z
-x,-y,-z
x,-y,z
1/2+x,1/2+y,z
1/2-x,1/2+y,-z
1/2-x,1/2-y,-z
1/2+x,1/2-y,z
loop_
_atom_site_type_symbol
_atom_site_label
_atom_site_fract_x
_atom_site_fract_y
_atom_site_fract_z
Si Si1 0.372846 0.856887 0.345443
Si Si2 0.097087 0.500000 0.534412
Si Si3 0.640678 0.615739 0.339330
Si Si4 0.124582 0.746798 0.649443
Si Si5 0.613315 0.082975 0.344836
Si Si6 0.157680 0.000000 0.788944
Si Si7 0.361389 0.717339 0.657229
Si Si8 0.355867 0.401942 0.298464
O O1 0.500000 0.875784 0.500000
O O2 0.391437 0.805084 0.418794
O O3 0.370786 0.874924 0.514453
O O4 0.241479 0.871697 0.995920
O O5 0.072992 0.541717 0.375314
O O6 0.000000 0.500000 0.500000
O O7 0.253715 0.500000 0.881946
O O8 0.747888 0.580407 0.480456
O O9 0.670595 0.666941 0.348269
O O10 0.637395 0.617820 0.518184
O O11 0.500000 0.599167 0.000000
O O12 0.136189 0.778534 0.523529
O O13 0.000000 0.766316 0.500000
O O14 0.250000 0.750000 0.000000
O O15 0.500000 0.091619 0.000000
O O16 0.196963 0.953288 0.782635
O O17 0.000000 0.000000 0.500000
O O18 0.250000 0.750000 0.500000
O O19 0.500000 0.733375 0.000000
O O20 0.500000 0.401421 0.500000
#
# Coordination Sequence:
#
# PCOD8113320 Si02
#       8
#     8   4   8   8   8   4   8   8
#     4  11  23  41  65  95 131 176 225 279 334 399
#     4  12  27  48  74 102 141 176 224 273 333 401
#     4  11  26  43  66  99 135 176 224 279 339 398
#     4  11  24  40  64  97 129 170 229 285 332 390
#     4  12  26  44  67 101 138 176 223 279 335 400
#     4  10  24  42  72 100 129 175 221 259 330 388
#     4  11  24  43  65  93 134 181 221 274 345 409
#     4  11  23  43  69  95 133 175 225 271 333 400
#
# _framework density 21.65147
#
# number of rings (size 3 to 8) (size 9 to 14) (size 15 to 20)
#    0.000    0.857    1.429    4.929    4.000    9.714 
#    0.000    0.714    0.000    0.000    0.000    0.000 
#    0.000    0.000    0.000    0.000    0.000    0.000 
#
# Total GULP energy -347110.064931 kJ/mol
# GULP energy per Si atom -12396.788033 kJ/mol
# Density = 2.160219 g / cm^3
# Si number density = 21.651470 Si / 1000 Ang^3
#
#
#
# Elastic Constant Matrix: (Units=GPa)
#
#
# Indices 1 2 3 4 5 6 
#
# 1 136.7996 20.6886 53.7399 0.0000 -0.3040 0.0000
# 2 20.6886 49.9576 0.5275 0.0000 1.6082 0.0000
# 3 53.7399 0.5275 165.6639 0.0000 -10.4495 0.0000
# 4 0.0000 0.0000 0.0000 144.6564 0.0000 -82.7158
# 5 -0.3040 1.6082 -10.4495 0.0000 41.6907 0.0000
# 6 0.0000 0.0000 0.0000 -82.7158 0.0000 87.5399
#
#
#
# Elastic Compliance Matrix: (Units=1/GPa)
#
#
# Indices 1 2 3 4 5 6 
#
# 1 0.009025 -0.003689 -0.002950 0.000000 -0.000531 0.000000
# 2 -0.003689 0.021552 0.001091 0.000000 -0.000585 0.000000
# 3 -0.002950 0.001091 0.007098 0.000000 0.001715 0.000000
# 4 0.000000 0.000000 0.000000 0.015038 0.000000 0.014209
# 5 -0.000531 -0.000585 0.001715 0.000000 0.024435 0.000000
# 6 0.000000 0.000000 0.000000 0.014209 0.000000 0.024849
#
#
# Mechanical properties :
#
#
# Convention : Reuss Voigt Hill
#
# Bulk Modulus (GPa) = 37.62203 55.81480 46.71841
# Shear Modulus (GPa) = 40.99945 73.27506 57.13726
#
# Velocity S-wave (km/s) = 4.35628 5.82378 5.14265
# Velocity P-wave (km/s) = 6.53581 8.42951 7.54233
#
# Compressibility (1/GPa) = 0.02658017
#
# Stress axis : x y z
#
# Youngs Moduli (GPa) = 110.79816 46.39907 140.88787
#
# Poissons Ratio (x) = 0.17118 0.41555
# Poissons Ratio (y) = 0.40878 -0.15375
# Poissons Ratio (z) = 0.32680 -0.05063
#
# Static dielectric constant tensor:
#      x y z
#    x 3.989240 0.000000 0.090020 
#    y 0.000000 4.044980 0.000000 
#    z 0.090020 0.000000 4.078080 
# 
# 
# High freq. dielectric constant tensor:
#      x y z
#    x 1.853050 0.000000 -0.000470 
#    y 0.000000 1.858340 0.000000 
#    z -0.000470 0.000000 1.869380 
# 
# From -- ./inp_files/91679.got.cif
#   From: 2010.06.25/outbox.cif.g09.slc.cpg/sg12_46_cif.got.tgz:91679.got - 2010.06.28 00:19:55.
