data_PCOD8113358
_publ_section_title
;
Structure prediction by ZEFSAII (Michael W. Deem and Ramdas Pophale) SiO2 
 PCOD8113358
Probable space group: C 2/M
;
_chemical_formula_sum "Si O2"
_cell_formula_units_Z 28
_cell_length_a 13.027974
_cell_length_b 13.819178
_cell_length_c 7.521899
_cell_angle_alpha 90.000000
_cell_angle_beta 64.184168
_cell_angle_gamma 90.000000
_cell_volume 1219.059390
_symmetry_space_group_name_H-M "C 2/M"
_symmetry_group_IT_number 12
_symmetry_cell_setting 'monoclinic'
loop_
_space_group_symop_operation_xyz
x,y,z
-x,y,-z
-x,-y,-z
x,-y,z
1/2+x,1/2+y,z
1/2-x,1/2+y,-z
1/2-x,1/2-y,-z
1/2+x,1/2-y,z
loop_
_atom_site_type_symbol
_atom_site_label
_atom_site_fract_x
_atom_site_fract_y
_atom_site_fract_z
Si Si1 0.853549 0.294103 0.313757
Si Si2 0.891269 0.000000 0.864857
Si Si3 0.000000 0.649589 0.500000
Si Si4 0.755242 0.500000 0.355620
Si Si5 0.500000 0.659627 0.000000
Si Si6 0.694756 0.000000 0.294421
O O1 0.750000 0.250000 0.500000
O O2 0.829437 0.402992 0.260447
O O3 0.965430 0.288531 0.354997
O O4 0.888134 0.224536 0.125394
O O5 0.965596 0.094102 0.856609
O O6 0.772818 0.000000 0.063308
O O7 0.858452 0.000000 0.680081
O O8 0.887293 0.591756 0.640758
O O9 0.724222 0.500000 0.589748
#
# Coordination Sequence:
#
# PCOD8113358 Si02
#       6
#     8   4   4   4   4   4
#     4  11  25  44  68 105 137 178 233 282 341 413
#     4  11  25  45  68  99 140 181 228 292 331 413
#     4   9  20  38  66  93 134 178 216 283 344 391
#     4  10  24  43  71  97 134 183 223 283 340 402
#     4  11  26  43  66 102 140 179 232 279 350 402
#     4   9  19  43  64  96 132 174 226 280 336 400
#
# _framework density 22.968529
#
# number of rings (size 3 to 8) (size 9 to 14) (size 15 to 20)
#    0.000    1.714    0.000    4.286    8.000    2.857 
#    0.000    2.857    0.000    0.000    0.000    0.000 
#    0.000    0.000    0.000    0.000    0.000    0.000 
#
# Total GULP energy -173556.108625 kJ/mol
# GULP energy per Si atom -12396.864902 kJ/mol
# Density = 2.291625 g / cm^3
# Si number density = 22.968529 Si / 1000 Ang^3
#
#
#
# Elastic Constant Matrix: (Units=GPa)
#
#
# Indices 1 2 3 4 5 6 
#
# 1 143.2504 44.8262 15.4088 0.0000 26.8926 0.0000
# 2 44.8262 159.1995 35.7416 0.0000 -4.2909 0.0000
# 3 15.4088 35.7416 70.7637 0.0000 -20.5807 0.0000
# 4 0.0000 0.0000 0.0000 16.0552 0.0000 1.7237
# 5 26.8926 -4.2909 -20.5807 0.0000 44.1474 0.0000
# 6 0.0000 0.0000 0.0000 1.7237 0.0000 16.7670
#
#
#
# Elastic Compliance Matrix: (Units=1/GPa)
#
#
# Indices 1 2 3 4 5 6 
#
# 1 0.009365 -0.002140 -0.003098 0.000000 -0.007357 0.000000
# 2 -0.002140 0.007623 -0.003227 0.000000 0.000540 0.000000
# 3 -0.003098 -0.003227 0.019544 0.000000 0.010684 0.000000
# 4 0.000000 0.000000 0.000000 0.062980 0.000000 -0.006475
# 5 -0.007357 0.000540 0.010684 0.000000 0.032166 0.000000
# 6 0.000000 0.000000 0.000000 -0.006475 0.000000 0.060307
#
#
# Mechanical properties :
#
#
# Convention : Reuss Voigt Hill
#
# Bulk Modulus (GPa) = 51.01733 62.79631 56.90682
# Shear Modulus (GPa) = 23.20742 33.87637 28.54189
#
# Velocity S-wave (km/s) = 3.18213 3.84461 3.52895
# Velocity P-wave (km/s) = 5.98008 6.86350 6.43696
#
# Compressibility (1/GPa) = 0.01960118
#
# Stress axis : x y z
#
# Youngs Moduli (GPa) = 106.78463 131.18211 51.16742
#
# Poissons Ratio (x) = 0.28067 0.15852
# Poissons Ratio (y) = 0.22847 0.16514
# Poissons Ratio (z) = 0.33083 0.42338
#
# Static dielectric constant tensor:
#      x y z
#    x 4.341630 0.000000 0.164450 
#    y 0.000000 4.388530 0.000000 
#    z 0.164450 0.000000 3.725030 
# 
# 
# High freq. dielectric constant tensor:
#      x y z
#    x 1.911430 0.000000 -0.001350 
#    y 0.000000 1.920730 0.000000 
#    z -0.001350 0.000000 1.881940 
# 
# From -- ./inp_files/45195.got.cif
#   From: 2010.06.25/outbox.cif.g09.slc.cpg/sg12_23_cif.got.tgz:45195.got - 2010.06.28 00:19:55.
