data_PCOD8113880
_publ_section_title
;
Structure prediction by ZEFSAII (Michael W. Deem and Ramdas Pophale) SiO2 
 PCOD8113880
Probable space group: C 2/M
;
_chemical_formula_sum "Si O2"
_cell_formula_units_Z 56
_cell_length_a 30.295162
_cell_length_b 17.671854
_cell_length_c 10.028920
_cell_angle_alpha 90.000000
_cell_angle_beta 31.202880
_cell_angle_gamma 90.000000
_cell_volume 2781.621334
_symmetry_space_group_name_H-M "C 2/M"
_symmetry_group_IT_number 12
_symmetry_cell_setting 'monoclinic'
loop_
_space_group_symop_operation_xyz
x,y,z
-x,y,-z
-x,-y,-z
x,-y,z
1/2+x,1/2+y,z
1/2-x,1/2+y,-z
1/2-x,1/2-y,-z
1/2+x,1/2-y,z
loop_
_atom_site_type_symbol
_atom_site_label
_atom_site_fract_x
_atom_site_fract_y
_atom_site_fract_z
Si Si1 0.393415 0.197628 0.419321
Si Si2 0.780502 0.410852 0.310723
Si Si3 0.809029 0.846955 0.711741
Si Si4 0.243875 0.409622 0.154011
Si Si5 0.411350 0.798180 0.060852
Si Si6 0.515052 0.586984 0.816666
Si Si7 0.151775 0.857392 0.867727
O O1 0.329629 0.257738 0.652850
O O2 0.351421 0.115530 0.554852
O O3 0.397186 0.214178 0.253419
O O4 0.488430 0.202656 0.235242
O O5 0.789571 0.500000 0.267219
O O6 0.752926 0.371763 0.245949
O O7 0.872425 0.378154 0.115660
O O8 0.711921 0.393148 0.600916
O O9 0.898087 0.889411 0.474478
O O10 0.762938 0.870567 0.965168
O O11 0.247280 0.500000 0.136740
O O12 0.313011 0.377789 0.078853
O O13 0.358592 0.732829 0.121106
O O14 0.520126 0.500000 0.833655
O O15 0.500000 0.628613 0.000000
O O16 0.440806 0.605727 0.905715
#
# Coordination Sequence:
#
# PCOD8113880 Si02
#       7
#     8   8   8   8   8   8   8
#     4  11  23  44  69  96 129 174 215 270 323 385
#     4  12  23  39  67  99 129 170 220 268 318 379
#     4  12  24  44  65  94 133 173 219 259 324 393
#     4  12  27  44  64  97 137 174 212 264 330 388
#     4  11  23  42  70 100 127 165 224 273 320 377
#     4  11  20  34  62  94 126 163 210 266 318 374
#     4  12  22  41  64  94 130 167 215 268 318 382
#
# _framework density 20.132142999999999
#
# number of rings (size 3 to 8) (size 9 to 14) (size 15 to 20)
#    0.000    0.429    5.714    4.286    0.000    1.143 
#    0.000    5.000    0.000    1.714    0.000    0.000 
#    0.000    0.000    0.000    0.000    0.000    0.000 
#
# Total GULP energy -347270.844789 kJ/mol
# GULP energy per Si atom -12402.530171 kJ/mol
# Density = 2.008632 g / cm^3
# Si number density = 20.132143 Si / 1000 Ang^3
#
#
#
# Elastic Constant Matrix: (Units=GPa)
#
#
# Indices 1 2 3 4 5 6 
#
# 1 92.7087 33.4704 24.2125 0.0000 -13.2857 0.0000
# 2 33.4704 93.9609 35.4867 0.0000 -22.9510 0.0000
# 3 24.2125 35.4867 59.0172 0.0000 -16.8914 0.0000
# 4 0.0000 0.0000 0.0000-2292.1210 0.0000 1356.9652
# 5 -13.2857 -22.9510 -16.8914 0.0000 19.3324 0.0000
# 6 0.0000 0.0000 0.0000 1356.9652 0.0000 -789.4977
#
#
#
# Elastic Compliance Matrix: (Units=1/GPa)
#
#
# Indices 1 2 3 4 5 6 
#
# 1 0.012970 -0.002813 -0.002713 0.000000 0.003203 0.000000
# 2 -0.002813 0.016915 -0.005097 0.000000 0.013694 0.000000
# 3 -0.002713 -0.005097 0.025145 0.000000 0.014054 0.000000
# 4 0.000000 0.000000 0.000000 0.024882 0.000000 0.042766
# 5 0.003203 0.013694 0.014054 0.000000 0.082465 0.000000
# 6 0.000000 0.000000 0.000000 0.042766 0.000000 0.072238
#
#
# Mechanical properties :
#
#
# Convention : Reuss Voigt Hill
#
# Bulk Modulus (GPa) = 29.60077 48.00289 38.80183
# Shear Modulus (GPa) = 18.71819 -602.28943 -291.78562
#
# Velocity S-wave (km/s) = 3.05252 -17.31524 -12.05196
# Velocity P-wave (km/s) = 5.21143 19.38714 13.20421
#
# Compressibility (1/GPa) = 0.03378290
#
# Stress axis : x y z
#
# Youngs Moduli (GPa) = 77.10366 59.11989 39.77007
#
# Poissons Ratio (x) = 0.16631 0.10788
# Poissons Ratio (y) = 0.21689 0.20272
# Poissons Ratio (z) = 0.20915 0.30135
#
# Static dielectric constant tensor:
#      x y z
#    x 3.995570 0.000000 -0.139770 
#    y 0.000000 3.841570 0.000000 
#    z -0.139770 0.000000 3.606510 
# 
# 
# High freq. dielectric constant tensor:
#      x y z
#    x 1.790820 0.000000 -0.010200 
#    y 0.000000 1.797090 0.000000 
#    z -0.010200 0.000000 1.776810 
# 
# From -- ./inp_files/105960.got.cif
#   From: 2010.06.25/outbox.cif.g09.slc.cpg/sg12_53_cif.got.tgz:105960.got - 2010.06.28 00:19:55.
