data_PCOD8113098
_publ_section_title
;
Structure prediction by ZEFSAII (Michael W. Deem and Ramdas Pophale) SiO2 
 PCOD8113098
Probable space group: C 2/M
;
_chemical_formula_sum "Si O2"
_cell_formula_units_Z 48
_cell_length_a 8.579333
_cell_length_b 24.573733
_cell_length_c 11.781189
_cell_angle_alpha 90.000000
_cell_angle_beta 76.212883
_cell_angle_gamma 90.000000
_cell_volume 2412.220710
_symmetry_space_group_name_H-M "C 2/M"
_symmetry_group_IT_number 12
_symmetry_cell_setting 'monoclinic'
loop_
_space_group_symop_operation_xyz
x,y,z
-x,y,-z
-x,-y,-z
x,-y,z
1/2+x,1/2+y,z
1/2-x,1/2+y,-z
1/2-x,1/2-y,-z
1/2+x,1/2-y,z
loop_
_atom_site_type_symbol
_atom_site_label
_atom_site_fract_x
_atom_site_fract_y
_atom_site_fract_z
Si Si1 0.745951 0.658136 0.776116
Si Si2 0.903680 0.148508 0.750239
Si Si3 0.550075 0.139532 0.610988
Si Si4 0.738559 0.267219 0.369790
Si Si5 0.311565 0.190228 0.010547
Si Si6 0.167242 0.063396 0.407307
O O1 0.574888 0.634307 0.773411
O O2 0.752465 0.718232 0.719542
O O3 0.887887 0.619666 0.701802
O O4 0.765476 0.656329 0.907264
O O5 0.913976 0.195151 0.646979
O O6 0.778457 0.165647 0.866946
O O7 0.843212 0.090573 0.714029
O O8 0.500000 0.165946 0.500000
O O9 0.617095 0.189481 0.675206
O O10 0.677534 0.091627 0.560904
O O11 0.750000 0.250000 0.500000
O O12 0.500000 0.189727 0.000000
O O13 0.250000 0.250000 0.000000
O O14 0.000000 0.075525 0.500000
O O15 0.202519 0.000000 0.390706
#
# Coordination Sequence:
#
# PCOD8113098 Si02
#       6
#     8   8   8   8   8   8
#     4  12  23  37  59  91 130 167 208 252 310 378
#     4  11  24  39  63  90 125 167 210 260 311 376
#     4  11  22  37  58  90 125 164 211 258 310 382
#     4  11  22  35  54  87 132 172 203 245 304 380
#     4  12  24  40  59  87 128 174 215 251 302 370
#     4  10  23  44  67  91 121 162 214 273 327 372
#
# _framework density 19.898675999999998
#
# number of rings (size 3 to 8) (size 9 to 14) (size 15 to 20)
#    0.000    0.833    3.333    5.500    2.333    0.333 
#    0.000    0.833    0.000    6.500    0.000    0.000 
#    0.000    0.000    0.000    0.000    0.000    0.000 
#
# Total GULP energy -297373.762780 kJ/mol
# GULP energy per Si atom -12390.573449 kJ/mol
# Density = 1.985339 g / cm^3
# Si number density = 19.898676 Si / 1000 Ang^3
#
#
#
# Elastic Constant Matrix: (Units=GPa)
#
#
# Indices 1 2 3 4 5 6 
#
# 1 146.3333 30.8408 44.9736 0.0000 -4.9527 0.0000
# 2 30.8408 83.4245 29.5378 0.0000 -5.9902 0.0000
# 3 44.9736 29.5378 117.8962 0.0000 2.4934 0.0000
# 4 0.0000 0.0000 0.0000 22.1543 0.0000 -4.4331
# 5 -4.9527 -5.9902 2.4934 0.0000 43.9694 0.0000
# 6 0.0000 0.0000 0.0000 -4.4331 0.0000 19.3012
#
#
#
# Elastic Compliance Matrix: (Units=1/GPa)
#
#
# Indices 1 2 3 4 5 6 
#
# 1 0.008082 -0.002013 -0.002595 0.000000 0.000783 0.000000
# 2 -0.002013 0.013830 -0.002735 0.000000 0.001813 0.000000
# 3 -0.002595 -0.002735 0.010184 0.000000 -0.001242 0.000000
# 4 0.000000 0.000000 0.000000 0.047312 0.000000 0.010867
# 5 0.000783 0.001813 -0.001242 0.000000 0.023149 0.000000
# 6 0.000000 0.000000 0.000000 0.010867 0.000000 0.054306
#
#
# Mechanical properties :
#
#
# Convention : Reuss Voigt Hill
#
# Bulk Modulus (GPa) = 57.44335 62.03982 59.74158
# Shear Modulus (GPa) = 28.19248 33.23843 30.71545
#
# Velocity S-wave (km/s) = 3.76813 4.09147 3.93312
# Velocity P-wave (km/s) = 6.91826 7.31886 7.12138
#
# Compressibility (1/GPa) = 0.01740846
#
# Stress axis : x y z
#
# Youngs Moduli (GPa) = 123.73086 72.30861 98.19606
#
# Poissons Ratio (x) = 0.14553 0.25485
# Poissons Ratio (y) = 0.24903 0.26861
# Poissons Ratio (z) = 0.32113 0.19780
#
# Static dielectric constant tensor:
#      x y z
#    x 4.200440 0.000000 0.210690 
#    y 0.000000 3.223420 0.000000 
#    z 0.210690 0.000000 3.765740 
# 
# 
# High freq. dielectric constant tensor:
#      x y z
#    x 1.810320 0.000000 0.009940 
#    y 0.000000 1.724270 0.000000 
#    z 0.009940 0.000000 1.776710 
# 
# From -- ./inp_files/122005.got.cif
#   From: 2010.06.25/outbox.cif.g09.slc.cpg/sg12_62_cif.got.tgz:122005.got - 2010.06.28 00:19:55.
