data_PCOD8113959
_publ_section_title
;
Structure prediction by ZEFSAII (Michael W. Deem and Ramdas Pophale) SiO2 
 PCOD8113959
Probable space group: C 2/M
;
_chemical_formula_sum "Si O2"
_cell_formula_units_Z 56
_cell_length_a 28.172139
_cell_length_b 15.286463
_cell_length_c 11.887130
_cell_angle_alpha 90.000000
_cell_angle_beta 34.542350
_cell_angle_gamma 90.000000
_cell_volume 2902.676055
_symmetry_space_group_name_H-M "C 2/M"
_symmetry_group_IT_number 12
_symmetry_cell_setting 'monoclinic'
loop_
_space_group_symop_operation_xyz
x,y,z
-x,y,-z
-x,-y,-z
x,-y,z
1/2+x,1/2+y,z
1/2-x,1/2+y,-z
1/2-x,1/2-y,-z
1/2+x,1/2-y,z
loop_
_atom_site_type_symbol
_atom_site_label
_atom_site_fract_x
_atom_site_fract_y
_atom_site_fract_z
Si Si1 0.282117 0.100906 0.244006
Si Si2 0.913406 0.598666 0.610454
Si Si3 0.928646 0.741638 0.398721
Si Si4 0.745208 0.156033 0.950587
Si Si5 0.327933 0.298112 0.396391
Si Si6 0.923192 0.099196 0.570194
Si Si7 0.435746 0.794719 0.032530
O O1 0.264642 0.159134 0.166229
O O2 0.203630 0.111144 0.485411
O O3 0.365742 0.132649 0.143409
O O4 0.290026 0.000000 0.193777
O O5 0.921022 0.500000 0.549031
O O6 0.898697 0.665204 0.538692
O O7 0.000000 0.626751 0.500000
O O8 0.834701 0.603199 0.847957
O O9 0.864088 0.736343 0.423202
O O10 0.925988 0.836816 0.459234
O O11 0.021957 0.727144 0.169125
O O12 0.833372 0.108697 0.808408
O O13 0.750000 0.250000 0.000000
O O14 0.250000 0.250000 0.500000
O O15 0.397066 0.296902 0.160752
O O16 0.000000 0.125783 0.500000
O O17 0.933705 0.000000 0.506463
O O18 0.500000 0.834322 0.000000
#
# Coordination Sequence:
#
# PCOD8113959 Si02
#       7
#     8   8   8   8   8   8   8
#     4  11  21  36  62  89 119 155 198 247 301 367
#     4  11  23  38  59  92 128 156 193 243 299 372
#     4  11  20  38  61  83 117 160 193 247 301 357
#     4  12  23  38  62  89 122 165 201 244 301 361
#     4   9  19  38  57  82 112 149 197 242 294 352
#     4  11  24  40  60  87 120 158 208 253 294 357
#     4   9  21  37  60  86 114 152 200 243 303 362
#
# _framework density 19.292542000000001
#
# number of rings (size 3 to 8) (size 9 to 14) (size 15 to 20)
#    0.000    1.429    2.857    2.571    2.000    2.000 
#    0.000    6.429    0.000    2.571    0.000    0.000 
#    0.000    0.000    0.000    0.000    0.000    0.000 
#
# Total GULP energy -346926.637243 kJ/mol
# GULP energy per Si atom -12390.237044 kJ/mol
# Density = 1.924863 g / cm^3
# Si number density = 19.292542 Si / 1000 Ang^3
#
#
#
# Elastic Constant Matrix: (Units=GPa)
#
#
# Indices 1 2 3 4 5 6 
#
# 1 97.6955 30.1667 31.4616 0.0000 -17.1729 0.0000
# 2 30.1667 89.3639 18.6262 0.0000 7.7774 0.0000
# 3 31.4616 18.6262 117.6199 0.0000 -4.5112 0.0000
# 4 0.0000 0.0000 0.0000 20.7382 0.0000 -7.1325
# 5 -17.1729 7.7774 -4.5112 0.0000 37.6079 0.0000
# 6 0.0000 0.0000 0.0000 -7.1325 0.0000 11.6014
#
#
#
# Elastic Compliance Matrix: (Units=1/GPa)
#
#
# Indices 1 2 3 4 5 6 
#
# 1 0.013765 -0.004693 -0.002673 0.000000 0.006935 0.000000
# 2 -0.004693 0.013436 -0.001066 0.000000 -0.005050 0.000000
# 3 -0.002673 -0.001066 0.009391 0.000000 0.000126 0.000000
# 4 0.000000 0.000000 0.000000 0.061150 0.000000 0.037595
# 5 0.006935 -0.005050 0.000126 0.000000 0.030816 0.000000
# 6 0.000000 0.000000 0.000000 0.037595 0.000000 0.109310
#
#
# Mechanical properties :
#
#
# Convention : Reuss Voigt Hill
#
# Bulk Modulus (GPa) = 50.69003 51.68758 51.18880
# Shear Modulus (GPa) = 19.13452 28.95117 24.04284
#
# Velocity S-wave (km/s) = 3.15272 3.87801 3.53402
# Velocity P-wave (km/s) = 6.29160 6.84848 6.57594
#
# Compressibility (1/GPa) = 0.01972774
#
# Stress axis : x y z
#
# Youngs Moduli (GPa) = 72.64877 74.42617 106.49010
#
# Poissons Ratio (x) = 0.34929 0.28462
# Poissons Ratio (y) = 0.34095 0.11352
# Poissons Ratio (z) = 0.19417 0.07934
#
# Static dielectric constant tensor:
#      x y z
#    x 3.676090 0.000000 -0.165030 
#    y 0.000000 3.391730 0.000000 
#    z -0.165030 0.000000 4.203460 
# 
# 
# High freq. dielectric constant tensor:
#      x y z
#    x 1.762440 0.000000 -0.013860 
#    y 0.000000 1.724420 0.000000 
#    z -0.013860 0.000000 1.768660 
# 
# From -- ./inp_files/189632.got.cif
#   From: 2010.06.25/outbox.cif.g09.slc.cpg/sg12_95_cif.got.tgz:189632.got - 2010.06.28 00:19:55.
