data_PCOD8113232
_publ_section_title
;
Structure prediction by ZEFSAII (Michael W. Deem and Ramdas Pophale) SiO2 
 PCOD8113232
Probable space group: C 2/M
;
_chemical_formula_sum "Si O2"
_cell_formula_units_Z 36
_cell_length_a 9.074084
_cell_length_b 19.989574
_cell_length_c 16.725134
_cell_angle_alpha 90.000000
_cell_angle_beta 146.222244
_cell_angle_gamma 90.000000
_cell_volume 1686.668017
_symmetry_space_group_name_H-M "C 2/M"
_symmetry_group_IT_number 12
_symmetry_cell_setting 'monoclinic'
loop_
_space_group_symop_operation_xyz
x,y,z
-x,y,-z
-x,-y,-z
x,-y,z
1/2+x,1/2+y,z
1/2-x,1/2+y,-z
1/2-x,1/2-y,-z
1/2+x,1/2-y,z
loop_
_atom_site_type_symbol
_atom_site_label
_atom_site_fract_x
_atom_site_fract_y
_atom_site_fract_z
Si Si1 0.500000 0.741374 0.000000
Si Si2 0.062351 0.770836 0.199332
Si Si3 0.923375 0.500000 0.827445
Si Si4 0.789652 0.112289 0.639597
Si Si5 0.655778 0.370253 0.653092
Si Si6 0.383966 0.500000 0.145213
O O1 0.418784 0.701011 0.883454
O O2 0.240627 0.784283 0.908103
O O3 0.251667 0.814656 0.340010
O O4 0.157887 0.693965 0.246850
O O5 0.847399 0.434957 0.740809
O O6 0.789287 0.500000 0.853117
O O7 0.233547 0.500000 0.991953
O O8 0.500000 0.080238 0.500000
O O9 0.933667 0.119991 0.620105
O O10 0.942318 0.066918 0.772413
O O11 0.500000 0.363760 0.500000
#
# Coordination Sequence:
#
# PCOD8113232 Si02
#       6
#     4   8   4   8   8   4
#     4  10  24  38  62  96 130 160 202 264 308 364
#     4  11  23  40  66  92 130 160 210 252 316 364
#     4   9  21  40  65  89 120 161 212 257 308 366
#     4  11  24  41  64  92 126 167 207 255 310 368
#     4  11  24  41  64  92 126 167 207 255 310 368
#     4   9  21  40  65  89 120 161 212 257 308 366
#
# _framework density 21.343857
#
# number of rings (size 3 to 8) (size 9 to 14) (size 15 to 20)
#    0.000    1.556    2.222    1.333    9.333    1.778 
#    0.000    0.000    0.000    2.667    0.000    0.000 
#    0.000    0.000    0.000    0.000    0.000    0.000 
#
# Total GULP energy -223051.012157 kJ/mol
# GULP energy per Si atom -12391.722898 kJ/mol
# Density = 2.129528 g / cm^3
# Si number density = 21.343857 Si / 1000 Ang^3
#
#
#
# Elastic Constant Matrix: (Units=GPa)
#
#
# Indices 1 2 3 4 5 6 
#
# 1 100.1005 28.7149 52.8527 -0.0019 -5.1863 0.0027
# 2 28.7149 122.1787 52.1824 0.0032 1.7410 0.0035
# 3 52.8527 52.1824 161.3984 0.0139 -5.2125 0.0224
# 4 -0.0019 0.0032 0.0139 7.2283 0.0060 -4.1721
# 5 -5.1863 1.7410 -5.2125 0.0060 40.4796 0.0101
# 6 0.0027 0.0035 0.0224 -4.1721 0.0101 10.8951
#
#
#
# Elastic Compliance Matrix: (Units=1/GPa)
#
#
# Indices 1 2 3 4 5 6 
#
# 1 0.012325 -0.001399 -0.003545 0.000015 0.001183 0.000009
# 2 -0.001399 0.009681 -0.002702 0.000004 -0.000944 0.000005
# 3 -0.003545 -0.002702 0.008254 -0.000033 0.000725 -0.000028
# 4 0.000015 0.000004 -0.000033 0.177600 -0.000046 0.068009
# 5 0.001183 -0.000944 0.000725 -0.000046 0.024989 -0.000042
# 6 0.000009 0.000005 -0.000028 0.068009 -0.000042 0.117827
#
#
# Mechanical properties :
#
#
# Convention : Reuss Voigt Hill
#
# Bulk Modulus (GPa) = 66.81841 72.35307 69.58574
# Shear Modulus (GPa) = 13.47858 28.38244 20.93051
#
# Velocity S-wave (km/s) = 2.51569 3.65056 3.13490
# Velocity P-wave (km/s) = 6.30967 7.19313 6.76583
#
# Compressibility (1/GPa) = 0.01496594
#
# Stress axis : x y z
#
# Youngs Moduli (GPa) = 81.13904 103.29304 121.15423
#
# Poissons Ratio (x) = 0.14453 0.42953
# Poissons Ratio (y) = 0.11353 0.32740
# Poissons Ratio (z) = 0.28766 0.27913
#
# Static dielectric constant tensor:
#      x y z
#    x 3.819390 -0.000010 -0.007450 
#    y -0.000010 3.731310 -0.000020 
#    z -0.007450 -0.000020 4.102920 
# 
# 
# High freq. dielectric constant tensor:
#      x y z
#    x 1.823370 0.000000 -0.000820 
#    y 0.000000 1.822770 0.000000 
#    z -0.000820 0.000000 1.860060 
# 
# From -- ./inp_files/197629.got.cif
#   From: 2010.06.25/outbox.cif.g09.slc.cpg/sg12_99_cif.got.tgz:197629.got - 2010.06.28 00:19:55.
