data_PCOD8113331
_publ_section_title
;
Structure prediction by ZEFSAII (Michael W. Deem and Ramdas Pophale) SiO2 
 PCOD8113331
Probable space group: C 2/M
;
_chemical_formula_sum "Si O2"
_cell_formula_units_Z 48
_cell_length_a 8.919424
_cell_length_b 30.185697
_cell_length_c 16.406551
_cell_angle_alpha 90.000000
_cell_angle_beta 30.451419
_cell_angle_gamma 90.000000
_cell_volume 2238.713072
_symmetry_space_group_name_H-M "C 2/M"
_symmetry_group_IT_number 12
_symmetry_cell_setting 'monoclinic'
loop_
_space_group_symop_operation_xyz
x,y,z
-x,y,-z
-x,-y,-z
x,-y,z
1/2+x,1/2+y,z
1/2-x,1/2+y,-z
1/2-x,1/2-y,-z
1/2+x,1/2-y,z
loop_
_atom_site_type_symbol
_atom_site_label
_atom_site_fract_x
_atom_site_fract_y
_atom_site_fract_z
Si Si1 0.936213 0.048599 0.124973
Si Si2 0.660113 0.694032 0.773014
Si Si3 0.963536 0.393969 0.424390
Si Si4 0.991362 0.766226 0.323132
Si Si5 0.105795 0.851217 0.363510
Si Si6 0.734547 0.369522 0.964412
O O1 0.611206 0.069070 0.296557
O O2 0.969279 0.000000 0.151304
O O3 0.000000 0.042678 0.000000
O O4 0.173437 0.085319 0.045707
O O5 0.646698 0.725390 0.700402
O O6 0.896324 0.654835 0.650891
O O7 0.766655 0.726753 0.795809
O O8 0.339304 0.673279 0.945042
O O9 0.616871 0.389533 0.563817
O O10 0.000000 0.410328 0.500000
O O11 0.750000 0.750000 0.500000
O O12 0.133670 0.812194 0.285406
O O13 0.432192 0.871226 0.223009
O O14 0.000000 0.832414 0.500000
O O15 0.500000 0.368784 0.000000
#
# Coordination Sequence:
#
# PCOD8113331 Si02
#       6
#     8   8   8   8   8   8
#     4   9  19  40  69  94 126 167 203 254 322 389
#     4  11  23  42  60  88 128 171 209 260 311 366
#     4  11  21  41  65  96 129 160 211 263 319 372
#     4  12  23  38  63  88 123 169 214 264 304 364
#     4  12  23  39  65  90 121 172 213 260 312 369
#     4  10  24  43  63  91 128 165 211 260 315 376
#
# _framework density 21.440888999999999
#
# number of rings (size 3 to 8) (size 9 to 14) (size 15 to 20)
#    0.000    1.167    3.333    4.500    2.333    1.667 
#    0.000    0.833    0.000    7.000    0.000    0.000 
#    0.000    0.000    0.000    0.000    0.000    0.000 
#
# Total GULP energy -297468.201222 kJ/mol
# GULP energy per Si atom -12394.508384 kJ/mol
# Density = 2.139209 g / cm^3
# Si number density = 21.440889 Si / 1000 Ang^3
#
#
#
# Elastic Constant Matrix: (Units=GPa)
#
#
# Indices 1 2 3 4 5 6 
#
# 1 81.8368 25.7586 36.7078 0.0000 -6.1036 0.0000
# 2 25.7586 141.6932 57.4800 0.0000 -3.1873 0.0000
# 3 36.7078 57.4800 145.0049 0.0000 -20.7255 0.0000
# 4 0.0000 0.0000 0.0000 9.9380 0.0000 -8.6418
# 5 -6.1036 -3.1873 -20.7255 0.0000 29.4031 0.0000
# 6 0.0000 0.0000 0.0000 -8.6418 0.0000 -0.6770
#
#
#
# Elastic Compliance Matrix: (Units=1/GPa)
#
#
# Indices 1 2 3 4 5 6 
#
# 1 0.014002 -0.001350 -0.002908 0.000000 0.000710 0.000000
# 2 -0.001350 0.008608 -0.003311 0.000000 -0.001681 0.000000
# 3 -0.002908 -0.003311 0.009794 0.000000 0.005941 0.000000
# 4 0.000000 0.000000 0.000000 0.008316 0.000000 -0.106154
# 5 0.000710 -0.001681 0.005941 0.000000 0.038163 0.000000
# 6 0.000000 0.000000 0.000000 -0.106154 0.000000 -0.122076
#
#
# Mechanical properties :
#
#
# Convention : Reuss Voigt Hill
#
# Bulk Modulus (GPa) = 57.91451 67.60306 62.75879
# Shear Modulus (GPa) = -224.20730 24.30539 -99.95096
#
# Velocity S-wave (km/s) = -10.23704 3.37055 -6.83507
# Velocity P-wave (km/s) = 10.61411 6.83710 5.74080
#
# Compressibility (1/GPa) = 0.01726683
#
# Stress axis : x y z
#
# Youngs Moduli (GPa) = 71.42042 116.16894 102.10326
#
# Poissons Ratio (x) = 0.15680 0.29690
# Poissons Ratio (y) = 0.09640 0.33805
# Poissons Ratio (z) = 0.20768 0.38461
#
# Static dielectric constant tensor:
#      x y z
#    x 3.744160 0.000000 0.058080 
#    y 0.000000 4.459950 0.000000 
#    z 0.058080 0.000000 4.028610 
# 
# 
# High freq. dielectric constant tensor:
#      x y z
#    x 1.817860 0.000000 0.009030 
#    y 0.000000 1.832690 0.000000 
#    z 0.009030 0.000000 1.844170 
# 
# From -- ./inp_files/260218.got.cif
#   From: 2010.06.25/outbox.cif.g09.slc.cpg/sg12_131_cif.got.tgz:260218.got - 2010.06.28 00:19:55.
