data_PCOD8113245
_publ_section_title
;
Structure prediction by ZEFSAII (Michael W. Deem and Ramdas Pophale) SiO2 
 PCOD8113245
Probable space group: C 2/M
;
_chemical_formula_sum "Si O2"
_cell_formula_units_Z 28
_cell_length_a 8.957403
_cell_length_b 30.244184
_cell_length_c 5.014645
_cell_angle_alpha 90.000000
_cell_angle_beta 99.872348
_cell_angle_gamma 90.000000
_cell_volume 1338.397567
_symmetry_space_group_name_H-M "C 2/M"
_symmetry_group_IT_number 12
_symmetry_cell_setting 'monoclinic'
loop_
_space_group_symop_operation_xyz
x,y,z
-x,y,-z
-x,-y,-z
x,-y,z
1/2+x,1/2+y,z
1/2-x,1/2+y,-z
1/2-x,1/2-y,-z
1/2+x,1/2-y,z
loop_
_atom_site_type_symbol
_atom_site_label
_atom_site_fract_x
_atom_site_fract_y
_atom_site_fract_z
Si Si1 0.745645 0.309319 0.325110
Si Si2 0.500000 0.254631 0.500000
Si Si3 0.603662 0.952161 0.283308
Si Si4 0.324941 0.862707 0.865930
O O1 0.584824 0.285154 0.308315
O O2 0.795507 0.329069 0.621796
O O3 0.877856 0.274090 0.294190
O O4 0.728908 0.346763 0.092781
O O5 0.500000 0.936769 0.500000
O O6 0.721383 0.912422 0.248009
O O7 0.683877 0.000000 0.372015
O O8 0.500000 0.960273 0.000000
O O9 0.500000 0.863495 0.000000
#
# Coordination Sequence:
#
# PCOD8113245 Si02
#       4
#     8   4   8   8
#     4  11  23  37  56  76 108 142 182 225 266 314
#     4  10  24  40  54  78 104 144 190 226 264 312
#     4   9  17  29  49  78 111 139 169 212 265 320
#     4  11  19  34  54  81 108 141 173 219 271 321
#
# _framework density 20.920538000000001
#
# number of rings (size 3 to 8) (size 9 to 14) (size 15 to 20)
#    0.000    1.714    2.857    3.429    0.000    8.000 
#    0.000    0.000    0.000    0.000    0.000    6.000 
#    0.000    0.000    0.000    0.000    0.000    0.000 
#
# Total GULP energy -173490.530070 kJ/mol
# GULP energy per Si atom -12392.180719 kJ/mol
# Density = 2.087292 g / cm^3
# Si number density = 20.920538 Si / 1000 Ang^3
#
#
#
# Elastic Constant Matrix: (Units=GPa)
#
#
# Indices 1 2 3 4 5 6 
#
# 1 79.7821 54.0822 22.4137 0.0000 -21.1753 0.0000
# 2 54.0822 144.9625 39.4204 0.0000 -19.8386 0.0000
# 3 22.4137 39.4204 118.3645 0.0000 -21.1354 0.0000
# 4 0.0000 0.0000 0.0000 37.2579 0.0000 -18.9560
# 5 -21.1753 -19.8386 -21.1354 0.0000 21.1696 0.0000
# 6 0.0000 0.0000 0.0000 -18.9560 0.0000 23.6633
#
#
#
# Elastic Compliance Matrix: (Units=1/GPa)
#
#
# Indices 1 2 3 4 5 6 
#
# 1 0.020345 -0.005648 0.000873 0.000000 0.015929 0.000000
# 2 -0.005648 0.009737 -0.001890 0.000000 0.001589 0.000000
# 3 0.000873 -0.001890 0.010651 0.000000 0.009736 0.000000
# 4 0.000000 0.000000 0.000000 0.045305 0.000000 0.036292
# 5 0.015929 0.001589 0.009736 0.000000 0.074380 0.000000
# 6 0.000000 0.000000 0.000000 0.036292 0.000000 0.071332
#
#
# Mechanical properties :
#
#
# Convention : Reuss Voigt Hill
#
# Bulk Modulus (GPa) = 36.49127 63.88241 50.18684
# Shear Modulus (GPa) = 19.66845 31.56433 25.61639
#
# Velocity S-wave (km/s) = 3.06951 3.88851 3.50303
# Velocity P-wave (km/s) = 5.48117 7.12479 6.35633
#
# Compressibility (1/GPa) = 0.02740382
#
# Stress axis : x y z
#
# Youngs Moduli (GPa) = 49.15142 102.70505 93.88790
#
# Poissons Ratio (x) = 0.58004 -0.08193
# Poissons Ratio (y) = 0.27759 0.17741
# Poissons Ratio (z) = -0.04289 0.19407
#
# Static dielectric constant tensor:
#      x y z
#    x 3.358380 0.000000 -0.214670 
#    y 0.000000 4.816080 0.000000 
#    z -0.214670 0.000000 3.698320 
# 
# 
# High freq. dielectric constant tensor:
#      x y z
#    x 1.748100 0.000000 -0.018540 
#    y 0.000000 1.843520 0.000000 
#    z -0.018540 0.000000 1.830640 
# 
# From -- ./inp_files/3332.got.cif
#   From: 2010.06.25/outbox.cif.g09.slc.cpg/sg12_2_cif.got.tgz:3332.got - 2010.06.28 00:19:55.
