data_PCOD8113527
_publ_section_title
;
Structure prediction by ZEFSAII (Michael W. Deem and Ramdas Pophale) SiO2 
 PCOD8113527
Probable space group: C 2/M
;
_chemical_formula_sum "Si O2"
_cell_formula_units_Z 32
_cell_length_a 17.501114
_cell_length_b 16.874458
_cell_length_c 4.854367
_cell_angle_alpha 90.000000
_cell_angle_beta 109.587100
_cell_angle_gamma 90.000000
_cell_volume 1350.642242
_symmetry_space_group_name_H-M "C 2/M"
_symmetry_group_IT_number 12
_symmetry_cell_setting 'monoclinic'
loop_
_space_group_symop_operation_xyz
x,y,z
-x,y,-z
-x,-y,-z
x,-y,z
1/2+x,1/2+y,z
1/2-x,1/2+y,-z
1/2-x,1/2-y,-z
1/2+x,1/2-y,z
loop_
_atom_site_type_symbol
_atom_site_label
_atom_site_fract_x
_atom_site_fract_y
_atom_site_fract_z
Si Si1 0.443321 0.088771 0.672670
Si Si2 0.692183 0.803237 0.242066
Si Si3 0.341620 0.343950 0.123005
Si Si4 0.577204 0.590244 0.260231
O O1 0.500000 0.124052 0.500000
O O2 0.367318 0.145868 0.639732
O O3 0.411745 0.000000 0.556821
O O4 0.500000 0.083190 0.000000
O O5 0.750000 0.750000 0.500000
O O6 0.751191 0.859281 0.132053
O O7 0.644226 0.745711 0.972255
O O8 0.407591 0.360134 0.443441
O O9 0.349605 0.403010 0.871708
O O10 0.563613 0.500000 0.334854
O O11 0.500000 0.625077 0.000000
#
# Coordination Sequence:
#
# PCOD8113527 Si02
#       4
#     8   8   8   8
#     4  10  25  47  73 103 138 187 242 295 357 427
#     4  11  25  47  70 106 147 182 237 309 357 439
#     4  11  24  43  68 101 140 190 239 292 367 426
#     4  11  24  44  68 101 147 189 238 291 350 436
#
# _framework density 23.692432
#
# number of rings (size 3 to 8) (size 9 to 14) (size 15 to 20)
#    0.000    1.250    2.500    1.500    7.000    5.000 
#    4.500    0.000    0.000    0.000    0.000    0.000 
#    0.000    0.000    0.000    0.000    0.000    0.000 
#
# Total GULP energy -198339.880240 kJ/mol
# GULP energy per Si atom -12396.242515 kJ/mol
# Density = 2.363851 g / cm^3
# Si number density = 23.692432 Si / 1000 Ang^3
#
#
#
# Elastic Constant Matrix: (Units=GPa)
#
#
# Indices 1 2 3 4 5 6 
#
# 1 133.9102 69.5646 27.2632 0.0000 -27.2003 0.0000
# 2 69.5646 99.5455 52.2948 0.0000 6.3969 0.0000
# 3 27.2632 52.2948 148.7080 0.0000 -9.9820 0.0000
# 4 0.0000 0.0000 0.0000 31.1473 0.0000 0.1461
# 5 -27.2003 6.3969 -9.9820 0.0000 45.4088 0.0000
# 6 0.0000 0.0000 0.0000 0.1461 0.0000 45.0229
#
#
#
# Elastic Compliance Matrix: (Units=1/GPa)
#
#
# Indices 1 2 3 4 5 6 
#
# 1 0.016657 -0.013838 0.002652 0.000000 0.012510 0.000000
# 2 -0.013838 0.024160 -0.006845 0.000000 -0.013197 0.000000
# 3 0.002652 -0.006845 0.008949 0.000000 0.004520 0.000000
# 4 0.000000 0.000000 0.000000 0.032106 0.000000 -0.000104
# 5 0.012510 -0.013197 0.004520 0.000000 0.032369 0.000000
# 6 0.000000 0.000000 0.000000 -0.000104 0.000000 0.022211
#
#
# Mechanical properties :
#
#
# Convention : Reuss Voigt Hill
#
# Bulk Modulus (GPa) = 72.96712 75.60099 74.28406
# Shear Modulus (GPa) = 28.23557 39.85184 34.04371
#
# Velocity S-wave (km/s) = 3.45593 4.10573 3.79476
# Velocity P-wave (km/s) = 6.84025 7.37934 7.11490
#
# Compressibility (1/GPa) = 0.01370480
#
# Stress axis : x y z
#
# Youngs Moduli (GPa) = 60.03333 41.39119 111.74567
#
# Poissons Ratio (x) = 0.57276 -0.29636
# Poissons Ratio (y) = 0.83072 0.76490
# Poissons Ratio (z) = -0.15921 0.28332
#
# Static dielectric constant tensor:
#      x y z
#    x 4.604360 0.000000 -0.326840 
#    y 0.000000 4.184960 0.000000 
#    z -0.326840 0.000000 4.456970 
# 
# 
# High freq. dielectric constant tensor:
#      x y z
#    x 1.943780 0.000000 -0.023980 
#    y 0.000000 1.914990 0.000000 
#    z -0.023980 0.000000 1.955830 
# 
# From -- ./inp_files/14869.got.cif
#   From: 2010.06.25/outbox.cif.g09.slc.cpg/sg12_8_cif.got.tgz:14869.got - 2010.06.28 00:19:55.
