data_PCOD8113892
_publ_section_title
;
Structure prediction by ZEFSAII (Michael W. Deem and Ramdas Pophale) SiO2 
 PCOD8113892
Probable space group: C 2/M
;
_chemical_formula_sum "Si O2"
_cell_formula_units_Z 64
_cell_length_a 9.735635
_cell_length_b 19.766124
_cell_length_c 22.316773
_cell_angle_alpha 90.000000
_cell_angle_beta 51.759516
_cell_angle_gamma 90.000000
_cell_volume 3373.020716
_symmetry_space_group_name_H-M "C 2/M"
_symmetry_group_IT_number 12
_symmetry_cell_setting 'monoclinic'
loop_
_space_group_symop_operation_xyz
x,y,z
-x,y,-z
-x,-y,-z
x,-y,z
1/2+x,1/2+y,z
1/2-x,1/2+y,-z
1/2-x,1/2-y,-z
1/2+x,1/2-y,z
loop_
_atom_site_type_symbol
_atom_site_label
_atom_site_fract_x
_atom_site_fract_y
_atom_site_fract_z
Si Si1 0.389394 0.287823 0.085114
Si Si2 0.123542 0.427247 0.712555
Si Si3 0.964789 0.789461 0.824386
Si Si4 0.269934 0.785620 0.329732
Si Si5 0.755575 0.426055 0.858605
Si Si6 0.591954 0.784434 0.576713
Si Si7 0.609157 0.574170 0.765181
Si Si8 0.522333 0.926474 0.380983
O O1 0.511071 0.287046 0.110672
O O2 0.330606 0.364056 0.081987
O O3 0.219161 0.242628 0.143943
O O4 0.500000 0.257629 0.000000
O O5 0.217219 0.500000 0.700513
O O6 0.256978 0.364532 0.681788
O O7 0.043268 0.430064 0.668636
O O8 0.965122 0.416536 0.802291
O O9 0.129073 0.751695 0.750547
O O10 0.964965 0.866594 0.798728
O O11 0.386358 0.780278 0.357934
O O12 0.081737 0.755368 0.393940
O O13 0.707470 0.500000 0.899693
O O14 0.689049 0.422019 0.809265
O O15 0.750000 0.750000 0.500000
O O16 0.572116 0.863111 0.560659
O O17 0.523212 0.500000 0.777088
O O18 0.768165 0.586164 0.675536
O O19 0.481150 0.000000 0.423006
#
# Coordination Sequence:
#
# PCOD8113892 Si02
#       8
#     8   8   8   8   8   8   8   8
#     4  11  22  34  51  79 112 140 169 214 267 311
#     4   8  14  27  50  77 101 129 171 219 258 299
#     4  11  20  35  56  78 103 137 180 216 257 309
#     4  11  20  35  57  79 104 140 179 215 255 311
#     4   8  14  27  48  75 103 129 168 220 262 296
#     4  11  22  35  53  81 112 138 168 217 268 311
#     4   8  14  27  51  77  96 126 179 223 247 292
#     4   8  14  28  51  76  99 131 175 217 255 298
#
# _framework density 18.97409
#
# number of rings (size 3 to 8) (size 9 to 14) (size 15 to 20)
#    0.000    2.500    2.500    3.000    0.000    0.250 
#    0.000    0.625    0.000   10.125    0.000    0.000 
#    0.000    0.000    0.000    0.000    0.000    0.000 
#
# Total GULP energy -396512.377100 kJ/mol
# GULP energy per Si atom -12391.011784 kJ/mol
# Density = 1.893090 g / cm^3
# Si number density = 18.974090 Si / 1000 Ang^3
#
#
#
# Elastic Constant Matrix: (Units=GPa)
#
#
# Indices 1 2 3 4 5 6 
#
# 1 29.7307 21.3301 -2.3970 -0.0003 -7.1651 0.0005
# 2 21.3301 160.0389 34.0009 -0.0001 -16.3687 0.0001
# 3 -2.3970 34.0009 60.4788 -0.0002 -9.4121 0.0001
# 4 -0.0003 -0.0001 -0.0002 20.8208 0.0002 -2.6544
# 5 -7.1651 -16.3687 -9.4121 0.0002 24.4485 -0.0002
# 6 0.0005 0.0001 0.0001 -2.6544 -0.0002 22.2625
#
#
#
# Elastic Compliance Matrix: (Units=1/GPa)
#
#
# Indices 1 2 3 4 5 6 
#
# 1 0.040836 -0.005736 0.006497 0.000000 0.010629 -0.000001
# 2 -0.005736 0.008181 -0.004506 0.000000 0.002062 0.000000
# 3 0.006497 -0.004506 0.020373 0.000000 0.006730 0.000000
# 4 0.000000 0.000000 0.000000 0.048770 0.000000 0.005815
# 5 0.010629 0.002062 0.006730 0.000000 0.047989 0.000000
# 6 -0.000001 0.000000 0.000000 0.005815 0.000000 0.045612
#
#
# Mechanical properties :
#
#
# Convention : Reuss Voigt Hill
#
# Bulk Modulus (GPa) = 16.15489 39.56851 27.86170
# Shear Modulus (GPa) = 20.84348 26.66065 23.75207
#
# Velocity S-wave (km/s) = 3.31799 3.75254 3.54194
# Velocity P-wave (km/s) = 4.81783 6.29878 5.60741
#
# Compressibility (1/GPa) = 0.06190078
#
# Stress axis : x y z
#
# Youngs Moduli (GPa) = 24.48833 122.23243 49.08489
#
# Poissons Ratio (x) = 0.70111 -0.31892
# Poissons Ratio (y) = 0.14046 0.22117
# Poissons Ratio (z) = -0.15911 0.55076
#
# Static dielectric constant tensor:
#      x y z
#    x 3.045410 0.000000 -0.077480 
#    y 0.000000 4.290980 0.000000 
#    z -0.077480 0.000000 3.169390 
# 
# 
# High freq. dielectric constant tensor:
#      x y z
#    x 1.690870 0.000000 -0.005660 
#    y 0.000000 1.762870 0.000000 
#    z -0.005660 0.000000 1.709250 
# 
# From -- ./inp_files/333735.got.cif
#   From: 2010.06.25/outbox.cif.g09.slc.cpg/sg12_167_cif.got.tgz:333735.got - 2010.06.28 00:19:55.
