data_PCOD8113636
_publ_section_title
;
Structure prediction by ZEFSAII (Michael W. Deem and Ramdas Pophale) SiO2 
 PCOD8113636
Probable space group: C 2/M
;
_chemical_formula_sum "Si O2"
_cell_formula_units_Z 56
_cell_length_a 28.907357
_cell_length_b 9.144836
_cell_length_c 28.677793
_cell_angle_alpha 90.000000
_cell_angle_beta 29.013167
_cell_angle_gamma 90.000000
_cell_volume 3676.895311
_symmetry_space_group_name_H-M "C 2/M"
_symmetry_group_IT_number 12
_symmetry_cell_setting 'monoclinic'
loop_
_space_group_symop_operation_xyz
x,y,z
-x,y,-z
-x,-y,-z
x,-y,z
1/2+x,1/2+y,z
1/2-x,1/2+y,-z
1/2-x,1/2-y,-z
1/2+x,1/2-y,z
loop_
_atom_site_type_symbol
_atom_site_label
_atom_site_fract_x
_atom_site_fract_y
_atom_site_fract_z
Si Si1 0.794397 0.327733 0.721888
Si Si2 0.119736 0.666365 0.206773
Si Si3 0.847688 0.330721 0.923414
Si Si4 0.420715 0.161741 0.530047
Si Si5 0.449543 0.327264 0.647753
Si Si6 0.096614 0.173395 0.936350
Si Si7 0.343348 0.670615 0.015807
O O1 0.809007 0.500000 0.719540
O O2 0.822918 0.291689 0.642915
O O3 0.859808 0.240307 0.700165
O O4 0.685502 0.278324 0.825704
O O5 0.101003 0.500000 0.239205
O O6 0.089320 0.687457 0.179213
O O7 0.054804 0.773818 0.294923
O O8 0.230904 0.704542 0.116180
O O9 0.827180 0.500000 0.951588
O O10 0.750000 0.250000 0.000000
O O11 0.894598 0.257128 0.927930
O O12 0.500000 0.159580 0.500000
O O13 0.450414 0.274444 0.463390
O O14 0.410275 0.000000 0.517094
O O15 0.445247 0.500000 0.649041
O O16 0.110690 0.229451 0.976760
O O17 0.089900 0.000000 0.943153
O O18 0.000000 0.241894 0.000000
O O19 0.362553 0.500000 0.991191
#
# Coordination Sequence:
#
# PCOD8113636 Si02
#       7
#     8   8   8   8   8   8   8
#     4   9  16  29  43  55  77 109 141 169 202 241
#     4   9  16  27  40  55  79 110 139 164 196 244
#     4   9  17  27  40  57  78 106 137 168 201 244
#     4   8  15  26  40  54  74 107 138 164 197 243
#     4  11  19  24  37  60  83 106 134 169 204 242
#     4   9  16  27  45  65  82 106 144 181 205 232
#     4   9  16  27  42  58  80 108 137 172 206 238
#
# _framework density 15.230240999999999
#
# number of rings (size 3 to 8) (size 9 to 14) (size 15 to 20)
#    0.000    2.857    1.429    3.429    0.000    5.429 
#    0.000    0.000    0.000    1.714    0.000    0.000 
#    0.000    1.143    0.000    2.286    0.000    3.000 
#
# Total GULP energy -346975.902741 kJ/mol
# GULP energy per Si atom -12391.996526 kJ/mol
# Density = 1.519558 g / cm^3
# Si number density = 15.230241 Si / 1000 Ang^3
#
#
#
# Elastic Constant Matrix: (Units=GPa)
#
#
# Indices 1 2 3 4 5 6 
#
# 1 79.9437 32.7907 55.7321 0.0056 18.4831 -0.0003
# 2 32.7907 76.8612 46.0293 -0.0133 19.6534 0.0167
# 3 55.7321 46.0293 101.2030 0.0071 22.2065 -0.0125
# 4 0.0056 -0.0133 0.0071 15.4613 -0.0014 9.6446
# 5 18.4831 19.6534 22.2065 -0.0014 22.7082 0.0004
# 6 -0.0003 0.0167 -0.0125 9.6446 0.0004 17.6172
#
#
#
# Elastic Compliance Matrix: (Units=1/GPa)
#
#
# Indices 1 2 3 4 5 6 
#
# 1 0.021400 -0.001724 -0.009557 -0.000004 -0.006581 -0.000003
# 2 -0.001724 0.019820 -0.005869 0.000051 -0.010012 -0.000051
# 3 -0.009557 -0.005869 0.019088 -0.000035 -0.005808 0.000038
# 4 -0.000004 0.000051 -0.000035 0.098219 0.000000 -0.053771
# 5 -0.006581 -0.010012 -0.005808 0.000000 0.063738 0.000004
# 6 -0.000003 -0.000051 0.000038 -0.053771 0.000004 0.086200
#
#
# Mechanical properties :
#
#
# Convention : Reuss Voigt Hill
#
# Bulk Modulus (GPa) = 38.44739 58.56801 48.50770
# Shear Modulus (GPa) = 14.22744 19.38771 16.80758
#
# Velocity S-wave (km/s) = 3.05971 3.57175 3.32560
# Velocity P-wave (km/s) = 6.14666 7.45308 6.83117
#
# Compressibility (1/GPa) = 0.02600957
#
# Stress axis : x y z
#
# Youngs Moduli (GPa) = 46.72959 50.45287 52.38989
#
# Poissons Ratio (x) = 0.08697 0.50068
# Poissons Ratio (y) = 0.08055 0.30746
# Poissons Ratio (z) = 0.44659 0.29609
#
# Static dielectric constant tensor:
#      x y z
#    x 3.019490 -0.000050 0.425050 
#    y -0.000050 2.846240 0.000020 
#    z 0.425050 0.000020 3.193120 
# 
# 
# High freq. dielectric constant tensor:
#      x y z
#    x 1.545390 0.000000 0.043200 
#    y 0.000000 1.571620 0.000000 
#    z 0.043200 0.000000 1.567660 
# 
# From -- ./inp_files/384411.got.cif
#   From: 2010.06.25/outbox.cif.g09.slc.cpg/sg12_193_cif.got.tgz:384411.got - 2010.06.28 00:19:55.
