data_PCOD8113458
_publ_section_title
;
Structure prediction by ZEFSAII (Michael W. Deem and Ramdas Pophale) SiO2 
 PCOD8113458
Probable space group: C 2/M
;
_chemical_formula_sum "Si O2"
_cell_formula_units_Z 48
_cell_length_a 8.531728
_cell_length_b 30.542200
_cell_length_c 16.900003
_cell_angle_alpha 90.000000
_cell_angle_beta 30.379716
_cell_angle_gamma 90.000000
_cell_volume 2227.108769
_symmetry_space_group_name_H-M "C 2/M"
_symmetry_group_IT_number 12
_symmetry_cell_setting 'monoclinic'
loop_
_space_group_symop_operation_xyz
x,y,z
-x,y,-z
-x,-y,-z
x,-y,z
1/2+x,1/2+y,z
1/2-x,1/2+y,-z
1/2-x,1/2-y,-z
1/2+x,1/2-y,z
loop_
_atom_site_type_symbol
_atom_site_label
_atom_site_fract_x
_atom_site_fract_y
_atom_site_fract_z
Si Si1 0.880268 0.412899 0.714853
Si Si2 0.288001 0.500000 0.167825
Si Si3 0.727729 0.148431 0.670442
Si Si4 0.265000 0.702197 0.029380
Si Si5 0.142140 0.000000 0.180499
Si Si6 0.429165 0.412682 0.364763
Si Si7 0.843956 0.872264 0.875805
O O1 0.927674 0.457034 0.744656
O O2 0.509147 0.408891 0.859217
O O3 0.966239 0.369394 0.725151
O O4 0.077304 0.418096 0.548033
O O5 0.446262 0.500000 0.185337
O O6 0.500000 0.500000 0.000000
O O7 0.572147 0.184402 0.795735
O O8 0.000000 0.171292 0.500000
O O9 0.857572 0.104650 0.656050
O O10 0.500000 0.700061 0.000000
O O11 0.250000 0.750000 0.000000
O O12 0.365907 0.673875 0.909820
O O13 0.061007 0.957334 0.269116
O O14 0.500000 0.000000 0.000000
O O15 0.445901 0.372269 0.294806
O O16 0.500000 0.887013 0.000000
#
# Coordination Sequence:
#
# PCOD8113458 Si02
#       7
#     8   4   8   8   4   8   8
#     4  11  25  44  65  99 134 187 224 280 333 391
#     4  12  29  37  62  94 139 180 236 275 326 387
#     4  10  24  46  72  99 135 177 224 274 335 405
#     4  12  26  46  72 102 134 172 218 278 342 405
#     4  12  27  41  62 100 138 182 229 290 326 380
#     4  11  24  43  69  95 139 181 230 273 337 394
#     4  12  23  40  71  99 134 174 226 276 328 400
#
# _framework density 21.552607999999999
#
# number of rings (size 3 to 8) (size 9 to 14) (size 15 to 20)
#    0.000    0.667    5.000    2.000    4.667    0.667 
#    0.000    5.000    0.000    0.000    0.000    0.000 
#    0.000    0.000    0.000    0.000    0.000    0.000 
#
# Total GULP energy -297367.541808 kJ/mol
# GULP energy per Si atom -12390.314242 kJ/mol
# Density = 2.150355 g / cm^3
# Si number density = 21.552608 Si / 1000 Ang^3
#
#
#
# Elastic Constant Matrix: (Units=GPa)
#
#
# Indices 1 2 3 4 5 6 
#
# 1 79.6040 36.7572 47.8510 0.0000 2.6381 0.0000
# 2 36.7572 143.2262 92.5811 0.0000 12.5055 0.0000
# 3 47.8510 92.5811 148.8774 0.0000 15.8057 0.0000
# 4 0.0000 0.0000 0.0000 32.2244 0.0000 12.5757
# 5 2.6381 12.5055 15.8057 0.0000 46.7125 0.0000
# 6 0.0000 0.0000 0.0000 12.5757 0.0000 33.1957
#
#
#
# Elastic Compliance Matrix: (Units=1/GPa)
#
#
# Indices 1 2 3 4 5 6 
#
# 1 0.015749 -0.001316 -0.004342 0.000000 0.000932 0.000000
# 2 -0.001316 0.011807 -0.006837 0.000000 -0.000773 0.000000
# 3 -0.004342 -0.006837 0.012596 0.000000 -0.002187 0.000000
# 4 0.000000 0.000000 0.000000 0.036416 0.000000 -0.013796
# 5 0.000932 -0.000773 -0.002187 0.000000 0.022302 0.000000
# 6 0.000000 0.000000 0.000000 -0.013796 0.000000 0.035351
#
#
# Mechanical properties :
#
#
# Convention : Reuss Voigt Hill
#
# Bulk Modulus (GPa) = 65.95852 80.67623 73.31738
# Shear Modulus (GPa) = 30.43838 35.39440 32.91639
#
# Velocity S-wave (km/s) = 3.76211 4.05684 3.91225
# Velocity P-wave (km/s) = 7.03855 7.71087 7.38237
#
# Compressibility (1/GPa) = 0.01516104
#
# Stress axis : x y z
#
# Youngs Moduli (GPa) = 63.49446 84.69781 79.38761
#
# Poissons Ratio (x) = 0.11149 0.34474
# Poissons Ratio (y) = 0.08358 0.54277
# Poissons Ratio (z) = 0.27572 0.57908
#
# Static dielectric constant tensor:
#      x y z
#    x 4.176570 0.000000 0.124050 
#    y 0.000000 3.795060 0.000000 
#    z 0.124050 0.000000 4.106790 
# 
# 
# High freq. dielectric constant tensor:
#      x y z
#    x 1.864420 0.000000 0.008730 
#    y 0.000000 1.826280 0.000000 
#    z 0.008730 0.000000 1.853820 
# 
# From -- ./inp_files/260258.got.cif
#   From: 2010.06.25/outbox.cif.g09.slc.cpg/sg12_131_cif.got.tgz:260258.got - 2010.06.28 00:19:55.
