data_PCOD8113279
_publ_section_title
;
Structure prediction by ZEFSAII (Michael W. Deem and Ramdas Pophale) SiO2 
 PCOD8113279
Probable space group: C 2/M
;
_chemical_formula_sum "Si O2"
_cell_formula_units_Z 36
_cell_length_a 21.623997
_cell_length_b 13.922492
_cell_length_c 8.687160
_cell_angle_alpha 90.000000
_cell_angle_beta 139.898291
_cell_angle_gamma 90.000000
_cell_volume 1684.672103
_symmetry_space_group_name_H-M "C 2/M"
_symmetry_group_IT_number 12
_symmetry_cell_setting 'monoclinic'
loop_
_space_group_symop_operation_xyz
x,y,z
-x,y,-z
-x,-y,-z
x,-y,z
1/2+x,1/2+y,z
1/2-x,1/2+y,-z
1/2-x,1/2-y,-z
1/2+x,1/2-y,z
loop_
_atom_site_type_symbol
_atom_site_label
_atom_site_fract_x
_atom_site_fract_y
_atom_site_fract_z
Si Si1 0.338433 0.819776 0.489240
Si Si2 0.002231 0.796529 0.321929
Si Si3 0.161165 0.692724 0.159385
Si Si4 0.760792 0.500000 0.837932
Si Si5 0.892801 0.500000 0.380244
Si Si6 0.467319 0.500000 0.609298
O O1 0.390097 0.726544 0.521715
O O2 0.226458 0.789288 0.268834
O O3 0.368274 0.833521 0.723109
O O4 0.373878 0.908912 0.453834
O O5 0.000000 0.792377 0.500000
O O6 0.932487 0.717664 0.117144
O O7 0.986962 0.904642 0.225800
O O8 0.206333 0.596193 0.182372
O O9 0.647025 0.500000 0.617210
O O10 0.806877 0.500000 0.094740
O O11 0.000000 0.500000 0.500000
O O12 0.500000 0.500000 0.500000
#
# Coordination Sequence:
#
# PCOD8113279 Si02
#       6
#     8   8   8   4   4   4
#     4  11  24  44  64  98 139 177 223 270 342 404
#     4  11  23  42  68  98 133 175 226 275 332 396
#     4  11  25  42  70  97 136 180 219 278 336 406
#     4  12  23  45  71 101 131 178 225 281 334 396
#     4  12  27  42  69 103 133 177 233 284 337 398
#     4  10  24  41  64  99 137 170 218 280 337 394
#
# _framework density 21.369143999999999
#
# number of rings (size 3 to 8) (size 9 to 14) (size 15 to 20)
#    0.000    0.889    2.222    4.667    6.222    1.778 
#    0.000    6.667    0.000    0.000    0.000    0.000 
#    0.000    0.000    0.000    0.000    0.000    0.000 
#
# Total GULP energy -223010.675962 kJ/mol
# GULP energy per Si atom -12389.481998 kJ/mol
# Density = 2.132051 g / cm^3
# Si number density = 21.369144 Si / 1000 Ang^3
#
#
#
# Elastic Constant Matrix: (Units=GPa)
#
#
# Indices 1 2 3 4 5 6 
#
# 1 138.1905 66.6981 41.6999 0.0000 -13.1771 0.0000
# 2 66.6981 146.9864 28.6949 0.0000 -11.2522 0.0000
# 3 41.6999 28.6949 87.7632 0.0000 -11.9316 0.0000
# 4 0.0000 0.0000 0.0000 30.1699 0.0000 2.2601
# 5 -13.1771 -11.2522 -11.9316 0.0000 34.3729 0.0000
# 6 0.0000 0.0000 0.0000 2.2601 0.0000 49.6200
#
#
#
# Elastic Compliance Matrix: (Units=1/GPa)
#
#
# Indices 1 2 3 4 5 6 
#
# 1 0.010284 -0.003886 -0.003414 0.000000 0.001485 0.000000
# 2 -0.003886 0.008824 -0.000890 0.000000 0.001090 0.000000
# 3 -0.003414 -0.000890 0.013738 0.000000 0.003169 0.000000
# 4 0.000000 0.000000 0.000000 0.033259 0.000000 -0.001515
# 5 0.001485 0.001090 0.003169 0.000000 0.031119 0.000000
# 6 0.000000 0.000000 0.000000 -0.001515 0.000000 0.020222
#
#
# Mechanical properties :
#
#
# Convention : Reuss Voigt Hill
#
# Bulk Modulus (GPa) = 60.73399 71.90290 66.31844
# Shear Modulus (GPa) = 35.88973 38.55570 37.22271
#
# Velocity S-wave (km/s) = 4.10263 4.25228 4.17812
# Velocity P-wave (km/s) = 7.13619 7.60462 7.37412
#
# Compressibility (1/GPa) = 0.01646524
#
# Stress axis : x y z
#
# Youngs Moduli (GPa) = 97.23935 113.32565 72.78977
#
# Poissons Ratio (x) = 0.44043 0.24848
# Poissons Ratio (y) = 0.37791 0.06481
# Poissons Ratio (z) = 0.33195 0.10090
#
# Static dielectric constant tensor:
#      x y z
#    x 4.288610 0.000000 -0.117090 
#    y 0.000000 4.287650 0.000000 
#    z -0.117090 0.000000 3.771690 
# 
# 
# High freq. dielectric constant tensor:
#      x y z
#    x 1.858190 0.000000 0.007000 
#    y 0.000000 1.860500 0.000000 
#    z 0.007000 0.000000 1.828100 
# 
# From -- ./inp_files/86279.got.cif
#   From: 2010.06.25/outbox.cif.g09.slc.cpg/sg12_44_cif.got.tgz:86279.got - 2010.06.28 00:19:55.
