data_PCOD8113939
_publ_section_title
;
Structure prediction by ZEFSAII (Michael W. Deem and Ramdas Pophale) SiO2 
 PCOD8113939
Probable space group: C 2/M
;
_chemical_formula_sum "Si O2"
_cell_formula_units_Z 60
_cell_length_a 12.613292
_cell_length_b 21.770478
_cell_length_c 11.406166
_cell_angle_alpha 90.000000
_cell_angle_beta 95.954289
_cell_angle_gamma 90.000000
_cell_volume 3115.205697
_symmetry_space_group_name_H-M "C 2/M"
_symmetry_group_IT_number 12
_symmetry_cell_setting 'monoclinic'
loop_
_space_group_symop_operation_xyz
x,y,z
-x,y,-z
-x,-y,-z
x,-y,z
1/2+x,1/2+y,z
1/2-x,1/2+y,-z
1/2-x,1/2-y,-z
1/2+x,1/2-y,z
loop_
_atom_site_type_symbol
_atom_site_label
_atom_site_fract_x
_atom_site_fract_y
_atom_site_fract_z
Si Si1 0.646061 0.071299 0.814565
Si Si2 0.140776 0.778033 0.824126
Si Si3 0.030789 0.798479 0.374070
Si Si4 0.256610 0.173381 0.319301
Si Si5 0.688904 0.870555 0.065980
Si Si6 0.899258 0.568593 0.737776
Si Si7 0.600615 0.833313 0.448246
Si Si8 0.500000 0.787450 0.000000
O O1 0.702461 0.106538 0.714502
O O2 0.520033 0.082032 0.791682
O O3 0.676566 0.000000 0.810713
O O4 0.692961 0.100086 0.938491
O O5 0.215072 0.724803 0.775437
O O6 0.208215 0.828868 0.900312
O O7 0.073449 0.811236 0.715313
O O8 0.058779 0.752022 0.908821
O O9 0.130833 0.833054 0.327735
O O10 0.057347 0.726048 0.374904
O O11 0.000000 0.822373 0.500000
O O12 0.310485 0.189624 0.450160
O O13 0.678313 0.925303 0.159079
O O14 0.585835 0.828700 0.076415
O O15 0.888946 0.500000 0.685393
O O16 0.854951 0.616750 0.637234
O O17 0.500000 0.865384 0.500000
#
# Coordination Sequence:
#
# PCOD8113939 Si02
#       8
#     8   8   8   8   8   8   8   4
#     4  11  23  40  61  88 119 159 200 246 303 354
#     4  12  24  37  61  93 123 159 196 246 298 363
#     4  11  24  39  61  90 122 160 198 240 303 365
#     4  12  22  40  63  88 126 160 195 245 301 358
#     4  12  23  38  61  86 126 158 196 245 302 358
#     4  11  22  38  60  88 122 159 200 248 296 356
#     4  11  20  37  59  91 124 154 193 240 302 363
#     4  12  22  38  57  94 125 156 194 242 302 364
#
# _framework density 19.260366000000001
#
# number of rings (size 3 to 8) (size 9 to 14) (size 15 to 20)
#    0.000    0.533    6.667    3.600    3.733    1.867 
#    0.000    0.000    0.000    2.800    0.000    0.000 
#    0.000    0.000    0.000    0.000    0.000    0.000 
#
# Total GULP energy -372059.331764 kJ/mol
# GULP energy per Si atom -12401.977725 kJ/mol
# Density = 1.921653 g / cm^3
# Si number density = 19.260366 Si / 1000 Ang^3
#
#
#
# Elastic Constant Matrix: (Units=GPa)
#
#
# Indices 1 2 3 4 5 6 
#
# 1 80.0782 26.7288 18.3314 0.0000 -8.1074 0.0000
# 2 26.7288 75.9540 24.9882 0.0000 6.2399 0.0000
# 3 18.3314 24.9882 78.1937 0.0000 -2.0447 0.0000
# 4 0.0000 0.0000 0.0000 24.4265 0.0000 1.0554
# 5 -8.1074 6.2399 -2.0447 0.0000 32.4396 0.0000
# 6 0.0000 0.0000 0.0000 1.0554 0.0000 20.9053
#
#
#
# Elastic Compliance Matrix: (Units=1/GPa)
#
#
# Indices 1 2 3 4 5 6 
#
# 1 0.015066 -0.005096 -0.001782 0.000000 0.004633 0.000000
# 2 -0.005096 0.016761 -0.004286 0.000000 -0.004768 0.000000
# 3 -0.001782 -0.004286 0.014610 0.000000 0.001300 0.000000
# 4 0.000000 0.000000 0.000000 0.041029 0.000000 -0.002071
# 5 0.004633 -0.004768 0.001300 0.000000 0.032983 0.000000
# 6 0.000000 0.000000 0.000000 -0.002071 0.000000 0.047939
#
#
# Mechanical properties :
#
#
# Convention : Reuss Voigt Hill
#
# Bulk Modulus (GPa) = 41.48001 41.59141 41.53571
# Shear Modulus (GPa) = 25.15672 26.49944 25.82808
#
# Velocity S-wave (km/s) = 3.61798 3.71327 3.66593
# Velocity P-wave (km/s) = 6.24790 6.32659 6.28737
#
# Compressibility (1/GPa) = 0.02410800
#
# Stress axis : x y z
#
# Youngs Moduli (GPa) = 66.37521 59.66209 68.44478
#
# Poissons Ratio (x) = 0.30404 0.12199
# Poissons Ratio (y) = 0.33825 0.29337
# Poissons Ratio (z) = 0.11830 0.25573
#
# Static dielectric constant tensor:
#      x y z
#    x 3.480440 0.000000 -0.049800 
#    y 0.000000 3.319290 0.000000 
#    z -0.049800 0.000000 3.683940 
# 
# 
# High freq. dielectric constant tensor:
#      x y z
#    x 1.735660 0.000000 -0.003090 
#    y 0.000000 1.722880 0.000000 
#    z -0.003090 0.000000 1.768010 
# 
# From -- ./inp_files/133946.got.cif
#   From: 2010.06.25/outbox.cif.g09.slc.cpg/sg12_67_cif.got.tgz:133946.got - 2010.06.28 00:19:55.
