data_PCOD8113923
_publ_section_title
;
Structure prediction by ZEFSAII (Michael W. Deem and Ramdas Pophale) SiO2 
 PCOD8113923
Probable space group: C 2/M
;
_chemical_formula_sum "Si O2"
_cell_formula_units_Z 64
_cell_length_a 30.687877
_cell_length_b 8.425134
_cell_length_c 19.462800
_cell_angle_alpha 90.000000
_cell_angle_beta 142.524917
_cell_angle_gamma 90.000000
_cell_volume 3061.609956
_symmetry_space_group_name_H-M "C 2/M"
_symmetry_group_IT_number 12
_symmetry_cell_setting 'monoclinic'
loop_
_space_group_symop_operation_xyz
x,y,z
-x,y,-z
-x,-y,-z
x,-y,z
1/2+x,1/2+y,z
1/2-x,1/2+y,-z
1/2-x,1/2-y,-z
1/2+x,1/2-y,z
loop_
_atom_site_type_symbol
_atom_site_label
_atom_site_fract_x
_atom_site_fract_y
_atom_site_fract_z
Si Si1 0.348690 0.184592 0.790045
Si Si2 0.420563 0.684521 0.005415
Si Si3 0.580852 0.187405 0.764622
Si Si4 0.176542 0.315846 0.761960
Si Si5 0.680402 0.185131 0.010210
Si Si6 0.578787 0.684884 0.245177
Si Si7 0.189721 0.183632 0.630437
Si Si8 0.573856 0.184947 0.386859
O O1 0.406369 0.282671 0.907266
O O2 0.363813 0.221593 0.729307
O O3 0.268831 0.241482 0.708897
O O4 0.358028 0.000000 0.817233
O O5 0.409890 0.500000 0.009282
O O6 0.363438 0.789895 0.974706
O O7 0.499393 0.742198 0.125230
O O8 0.607994 0.233682 0.722480
O O9 0.634456 0.255811 0.889516
O O10 0.501112 0.254336 0.677366
O O11 0.580357 0.000000 0.772367
O O12 0.173335 0.500000 0.736774
O O13 0.176610 0.208274 0.694683
O O14 0.246597 0.284500 0.895584
O O15 0.698571 0.000000 0.024782
O O16 0.588819 0.500000 0.244039
O O17 0.595004 0.723023 0.344418
O O18 0.134092 0.289133 0.518936
O O19 0.178308 0.000000 0.597792
O O20 0.566886 0.000000 0.361008
#
# Coordination Sequence:
#
# PCOD8113923 Si02
#       8
#     8   8   8   8   8   8   8   8
#     4  11  24  41  64  90 123 164 205 249 304 367
#     4  11  22  37  61  93 127 161 198 247 306 364
#     4   9  21  39  62  92 125 160 203 250 302 366
#     4  11  22  39  63  92 124 162 204 250 305 364
#     4  11  20  36  61  91 127 163 199 247 301 364
#     4  11  24  41  63  94 128 158 199 253 306 364
#     4  11  25  44  62  88 122 159 207 259 306 358
#     4  11  23  43  67  89 118 162 209 253 305 363
#
# _framework density 20.904035
#
# number of rings (size 3 to 8) (size 9 to 14) (size 15 to 20)
#    0.000    1.250    2.500    3.375    0.000    5.500 
#    0.000    6.875    0.000    0.000    0.000    0.000 
#    0.000    0.000    0.000    0.000    0.000    0.000 
#
# Total GULP energy -397014.459310 kJ/mol
# GULP energy per Si atom -12406.701853 kJ/mol
# Density = 2.085646 g / cm^3
# Si number density = 20.904035 Si / 1000 Ang^3
#
#
#
# Elastic Constant Matrix: (Units=GPa)
#
#
# Indices 1 2 3 4 5 6 
#
# 1 126.6011 20.5218 38.5994 0.0000 -8.5011 0.0000
# 2 20.5218 42.7161 12.8344 0.0000 3.6739 0.0000
# 3 38.5994 12.8344 112.5477 0.0000 -3.0950 0.0000
# 4 0.0000 0.0000 0.0000 31.1084 0.0000 -3.5504
# 5 -8.5011 3.6739 -3.0950 0.0000 15.0413 0.0000
# 6 0.0000 0.0000 0.0000 -3.5504 0.0000 26.8370
#
#
#
# Elastic Compliance Matrix: (Units=1/GPa)
#
#
# Indices 1 2 3 4 5 6 
#
# 1 0.009854 -0.004446 -0.002705 0.000000 0.006098 0.000000
# 2 -0.004446 0.026901 -0.001803 0.000000 -0.009454 0.000000
# 3 -0.002705 -0.001803 0.010045 0.000000 0.000979 0.000000
# 4 0.000000 0.000000 0.000000 0.032638 0.000000 0.004318
# 5 0.006098 -0.009454 0.000979 0.000000 0.072441 0.000000
# 6 0.000000 0.000000 0.000000 0.004318 0.000000 0.037833
#
#
# Mechanical properties :
#
#
# Convention : Reuss Voigt Hill
#
# Bulk Modulus (GPa) = 34.61035 47.30846 40.95940
# Shear Modulus (GPa) = 23.01489 28.59129 25.80309
#
# Velocity S-wave (km/s) = 3.32170 3.70231 3.51716
# Velocity P-wave (km/s) = 5.59503 6.39973 6.01086
#
# Compressibility (1/GPa) = 0.02889309
#
# Stress axis : x y z
#
# Youngs Moduli (GPa) = 101.48546 37.17324 99.54958
#
# Poissons Ratio (x) = 0.16526 0.26925
# Poissons Ratio (y) = 0.45118 0.17948
# Poissons Ratio (z) = 0.27449 0.06702
#
# Static dielectric constant tensor:
#      x y z
#    x 3.901800 0.000000 0.092570 
#    y 0.000000 3.526010 0.000000 
#    z 0.092570 0.000000 3.706450 
# 
# 
# High freq. dielectric constant tensor:
#      x y z
#    x 1.830220 0.000000 -0.002450 
#    y 0.000000 1.810130 0.000000 
#    z -0.002450 0.000000 1.813890 
# 
# From -- ./inp_files/295802.got.cif
#   From: 2010.06.25/outbox.cif.g09.slc.cpg/sg12_148_cif.got.tgz:295802.got - 2010.06.28 00:19:55.
