data_PCOD8113564
_publ_section_title
;
Structure prediction by ZEFSAII (Michael W. Deem and Ramdas Pophale) SiO2 
 PCOD8113564
Probable space group: C 2/M
;
_chemical_formula_sum "Si O2"
_cell_formula_units_Z 48
_cell_length_a 21.236774
_cell_length_b 12.498780
_cell_length_c 11.307781
_cell_angle_alpha 90.000000
_cell_angle_beta 64.614171
_cell_angle_gamma 90.000000
_cell_volume 2711.649318
_symmetry_space_group_name_H-M "C 2/M"
_symmetry_group_IT_number 12
_symmetry_cell_setting 'monoclinic'
loop_
_space_group_symop_operation_xyz
x,y,z
-x,y,-z
-x,-y,-z
x,-y,z
1/2+x,1/2+y,z
1/2-x,1/2+y,-z
1/2-x,1/2-y,-z
1/2+x,1/2-y,z
loop_
_atom_site_type_symbol
_atom_site_label
_atom_site_fract_x
_atom_site_fract_y
_atom_site_fract_z
Si Si1 0.942913 0.809202 0.877890
Si Si2 0.609971 0.500000 0.502394
Si Si3 0.673897 0.700273 0.568855
Si Si4 0.433451 0.881253 0.718406
Si Si5 0.454319 0.500000 0.704028
Si Si6 0.091289 0.873205 0.846062
Si Si7 0.407489 0.118667 0.482421
O O1 0.920835 0.695895 0.839771
O O2 0.926141 0.896037 0.792059
O O3 0.024063 0.813685 0.846893
O O4 0.895629 0.830977 0.031504
O O5 0.657540 0.603916 0.490473
O O6 0.539325 0.500000 0.638206
O O7 0.582103 0.500000 0.392722
O O8 0.750000 0.750000 0.500000
O O9 0.658603 0.656643 0.713419
O O10 0.624691 0.799023 0.582100
O O11 0.512104 0.881441 0.612623
O O12 0.392007 0.847686 0.631870
O O13 0.410785 0.000000 0.778068
O O14 0.077510 0.000000 0.859508
O O15 0.376184 0.000000 0.486309
#
# Coordination Sequence:
#
# PCOD8113564 Si02
#       7
#     8   4   8   8   4   8   8
#     4  11  17  31  56  85 112 141 173 233 299 336
#     4  11  22  35  54  93 114 140 191 235 298 314
#     4  12  23  36  55  77 113 150 183 229 264 348
#     4   9  17  31  53  78 112 137 176 230 267 334
#     4  11  18  32  65  88 115 132 176 266 291 321
#     4  11  20  35  52  81 116 143 181 222 293 351
#     4   9  18  33  52  78 105 145 182 217 279 317
#
# _framework density 17.701404
#
# number of rings (size 3 to 8) (size 9 to 14) (size 15 to 20)
#    0.000    1.500    5.833    2.500    1.167    2.667 
#    0.000    2.500    0.000    4.000    0.000    0.000 
#    0.000    0.000    0.000    0.000    0.000    0.000 
#
# Total GULP energy -297457.626848 kJ/mol
# GULP energy per Si atom -12394.067785 kJ/mol
# Density = 1.766112 g / cm^3
# Si number density = 17.701404 Si / 1000 Ang^3
#
#
#
# Elastic Constant Matrix: (Units=GPa)
#
#
# Indices 1 2 3 4 5 6 
#
# 1 43.1795 29.6407 25.9049 0.0000 4.3335 0.0000
# 2 29.6407 111.9220 40.8345 0.0000 16.1783 0.0000
# 3 25.9049 40.8345 93.7032 0.0000 16.8768 0.0000
# 4 0.0000 0.0000 0.0000 30.5759 0.0000 9.2079
# 5 4.3335 16.1783 16.8768 0.0000 24.0671 0.0000
# 6 0.0000 0.0000 0.0000 9.2079 0.0000 25.0415
#
#
#
# Elastic Compliance Matrix: (Units=1/GPa)
#
#
# Indices 1 2 3 4 5 6 
#
# 1 0.031026 -0.006345 -0.006380 0.000000 0.003153 0.000000
# 2 -0.006345 0.012356 -0.002679 0.000000 -0.005285 0.000000
# 3 -0.006380 -0.002679 0.014962 0.000000 -0.007542 0.000000
# 4 0.000000 0.000000 0.000000 0.036778 0.000000 -0.013523
# 5 0.003153 -0.005285 -0.007542 0.000000 0.049825 0.000000
# 6 0.000000 0.000000 0.000000 -0.013523 0.000000 0.044906
#
#
# Mechanical properties :
#
#
# Convention : Reuss Voigt Hill
#
# Bulk Modulus (GPa) = 36.31531 49.06277 42.68904
# Shear Modulus (GPa) = 21.75439 26.09855 23.92647
#
# Velocity S-wave (km/s) = 3.50946 3.84393 3.68050
# Velocity P-wave (km/s) = 6.08127 6.89043 6.49846
#
# Compressibility (1/GPa) = 0.02753659
#
# Stress axis : x y z
#
# Youngs Moduli (GPa) = 32.23134 80.92986 66.83751
#
# Poissons Ratio (x) = 0.51346 0.42644
# Poissons Ratio (y) = 0.20449 0.17904
# Poissons Ratio (z) = 0.20564 0.21680
#
# Static dielectric constant tensor:
#      x y z
#    x 2.662370 0.000000 0.221090 
#    y 0.000000 2.907360 0.000000 
#    z 0.221090 0.000000 3.334060 
# 
# 
# High freq. dielectric constant tensor:
#      x y z
#    x 1.648200 0.000000 0.031360 
#    y 0.000000 1.698010 0.000000 
#    z 0.031360 0.000000 1.672360 
# 
# From -- ./inp_files/164741.got.cif
#   From: 2010.06.25/outbox.cif.g09.slc.cpg/sg12_83_cif.got.tgz:164741.got - 2010.06.28 00:19:55.
