data_PCOD8113632
_publ_section_title
;
Structure prediction by ZEFSAII (Michael W. Deem and Ramdas Pophale) SiO2 
 PCOD8113632
Probable space group: C 2/M
;
_chemical_formula_sum "Si O2"
_cell_formula_units_Z 40
_cell_length_a 20.157090
_cell_length_b 11.060810
_cell_length_c 11.873561
_cell_angle_alpha 90.000000
_cell_angle_beta 52.811724
_cell_angle_gamma 90.000000
_cell_volume 2108.945159
_symmetry_space_group_name_H-M "C 2/M"
_symmetry_group_IT_number 12
_symmetry_cell_setting 'monoclinic'
loop_
_space_group_symop_operation_xyz
x,y,z
-x,y,-z
-x,-y,-z
x,-y,z
1/2+x,1/2+y,z
1/2-x,1/2+y,-z
1/2-x,1/2-y,-z
1/2+x,1/2-y,z
loop_
_atom_site_type_symbol
_atom_site_label
_atom_site_fract_x
_atom_site_fract_y
_atom_site_fract_z
Si Si1 0.895997 0.500000 0.988078
Si Si2 0.193984 0.749935 0.948271
Si Si3 0.479145 0.639355 0.895980
Si Si4 0.264533 0.856177 0.651202
Si Si5 0.371616 0.756462 0.360267
Si Si6 0.422057 0.000000 0.216207
O O1 0.839495 0.615201 0.025390
O O2 0.930561 0.500000 0.076090
O O3 0.983447 0.500000 0.826811
O O4 0.248910 0.793528 0.786813
O O5 0.250000 0.750000 0.000000
O O6 0.116702 0.841873 0.037288
O O7 0.502163 0.500000 0.869961
O O8 0.534516 0.706088 0.744424
O O9 0.500000 0.692360 0.000000
O O10 0.342992 0.781698 0.518272
O O11 0.187079 0.837930 0.645803
O O12 0.281673 0.000000 0.647849
O O13 0.366733 0.886331 0.307304
#
# Coordination Sequence:
#
# PCOD8113632 Si02
#       6
#     4   8   8   8   8   4
#     4  11  22  38  63  89 122 161 204 263 298 356
#     4  12  26  41  62  91 127 166 208 250 308 371
#     4  11  21  40  66  92 123 162 210 258 303 364
#     4  11  23  39  60  91 130 162 202 257 312 368
#     4  11  21  37  62  95 121 157 204 257 314 362
#     4  11  18  38  63  91 120 147 208 261 305 359
#
# _framework density 18.966826999999999
#
# number of rings (size 3 to 8) (size 9 to 14) (size 15 to 20)
#    0.000    0.800    7.000    1.200    2.800    0.000 
#    1.800    1.000    0.000    3.600    0.000    0.000 
#    0.000    0.000    0.000    0.000    0.000    0.000 
#
# Total GULP energy -247921.669741 kJ/mol
# GULP energy per Si atom -12396.083487 kJ/mol
# Density = 1.892366 g / cm^3
# Si number density = 18.966827 Si / 1000 Ang^3
#
#
#
# Elastic Constant Matrix: (Units=GPa)
#
#
# Indices 1 2 3 4 5 6 
#
# 1 98.6413 22.9036 53.7553 0.0000 1.4411 0.0000
# 2 22.9036 99.1135 37.7028 0.0000 -0.5856 0.0000
# 3 53.7553 37.7028 148.0535 0.0000 -11.4949 0.0000
# 4 0.0000 0.0000 0.0000 31.9839 0.0000 -13.3667
# 5 1.4411 -0.5856 -11.4949 0.0000 22.0127 0.0000
# 6 0.0000 0.0000 0.0000 -13.3667 0.0000 44.2682
#
#
#
# Elastic Compliance Matrix: (Units=1/GPa)
#
#
# Indices 1 2 3 4 5 6 
#
# 1 0.013020 -0.001253 -0.004666 0.000000 -0.003322 0.000000
# 2 -0.001253 0.011325 -0.002500 0.000000 -0.000922 0.000000
# 3 -0.004666 -0.002500 0.009488 0.000000 0.005194 0.000000
# 4 0.000000 0.000000 0.000000 0.035781 0.000000 0.010804
# 5 -0.003322 -0.000922 0.005194 0.000000 0.048333 0.000000
# 6 0.000000 0.000000 0.000000 0.010804 0.000000 0.025852
#
#
# Mechanical properties :
#
#
# Convention : Reuss Voigt Hill
#
# Bulk Modulus (GPa) = 58.84607 63.83685 61.34146
# Shear Modulus (GPa) = 30.06541 35.08274 32.57407
#
# Velocity S-wave (km/s) = 3.98572 4.30547 4.14868
# Velocity P-wave (km/s) = 7.23011 7.64501 7.44045
#
# Compressibility (1/GPa) = 0.01699349
#
# Stress axis : x y z
#
# Youngs Moduli (GPa) = 76.80410 88.30167 105.39083
#
# Poissons Ratio (x) = 0.11068 0.49177
# Poissons Ratio (y) = 0.09627 0.26353
# Poissons Ratio (z) = 0.35838 0.22080
#
# Static dielectric constant tensor:
#      x y z
#    x 2.237070 0.000000 0.367950 
#    y 0.000000 3.625460 0.000000 
#    z 0.367950 0.000000 3.389870 
# 
# 
# High freq. dielectric constant tensor:
#      x y z
#    x 1.694670 0.000000 -0.026230 
#    y 0.000000 1.757310 0.000000 
#    z -0.026230 0.000000 1.746660 
# 
# From -- ./inp_files/153327.got.cif
#   From: 2010.06.25/outbox.cif.g09.slc.cpg/sg12_77_cif.got.tgz:153327.got - 2010.06.28 00:19:55.
