data_PCOD8113944
_publ_section_title
;
Structure prediction by ZEFSAII (Michael W. Deem and Ramdas Pophale) SiO2 
 PCOD8113944
Probable space group: C 2/M
;
_chemical_formula_sum "Si O2"
_cell_formula_units_Z 64
_cell_length_a 27.105988
_cell_length_b 23.123669
_cell_length_c 13.389016
_cell_angle_alpha 90.000000
_cell_angle_beta 158.415745
_cell_angle_gamma 90.000000
_cell_volume 3087.193695
_symmetry_space_group_name_H-M "C 2/M"
_symmetry_group_IT_number 12
_symmetry_cell_setting 'monoclinic'
loop_
_space_group_symop_operation_xyz
x,y,z
-x,y,-z
-x,-y,-z
x,-y,z
1/2+x,1/2+y,z
1/2-x,1/2+y,-z
1/2-x,1/2-y,-z
1/2+x,1/2-y,z
loop_
_atom_site_type_symbol
_atom_site_label
_atom_site_fract_x
_atom_site_fract_y
_atom_site_fract_z
Si Si1 0.911764 0.359853 0.433540
Si Si2 0.830969 0.932199 0.094090
Si Si3 0.612779 0.734551 0.296023
Si Si4 0.123099 0.112279 0.610076
Si Si5 0.020124 0.346422 0.223196
Si Si6 0.141677 0.437293 0.320491
Si Si7 0.859928 0.237307 0.288435
Si Si8 0.269289 0.375206 0.392210
O O1 0.998407 0.368216 0.697029
O O2 0.857190 0.294955 0.349729
O O3 0.000000 0.363703 0.500000
O O4 0.792805 0.406414 0.201261
O O5 0.807960 0.923092 0.169583
O O6 0.963271 0.897100 0.311485
O O7 0.845713 0.000000 0.098317
O O8 0.750000 0.750000 0.500000
O O9 0.574941 0.781978 0.308599
O O10 0.626268 0.674806 0.381854
O O11 0.500000 0.728545 0.000000
O O12 0.168773 0.179695 0.702229
O O13 0.178764 0.090805 0.608422
O O14 0.131678 0.389557 0.387718
O O15 0.878011 0.348764 0.901255
O O16 0.178755 0.500000 0.436286
O O17 0.258683 0.420716 0.462528
O O18 0.000000 0.441479 0.000000
O O19 0.000000 0.225855 0.500000
O O20 0.750000 0.250000 0.000000
#
# Coordination Sequence:
#
# PCOD8113944 Si02
#       8
#     8   8   8   8   8   8   8   8
#     4  11  24  40  64  98 130 172 219 275 332 395
#     4  11  24  44  64  91 137 183 225 277 335 403
#     4  12  22  42  68  97 135 173 213 270 340 407
#     4  11  21  41  64  93 125 175 224 272 342 394
#     4  11  22  40  63  93 133 169 214 268 333 397
#     4   9  19  38  62  86 117 160 210 268 322 379
#     4  11  20  37  62  87 129 164 211 266 325 389
#     4  11  23  39  66  98 127 163 223 273 324 404
#
# _framework density 20.730801
#
# number of rings (size 3 to 8) (size 9 to 14) (size 15 to 20)
#    0.000    1.125    5.000    2.625    1.750    2.750 
#    4.500    2.500    0.000    0.375    0.000    0.000 
#    0.000    0.000    0.000    0.000    0.000    0.000 
#
# Total GULP energy -396706.455956 kJ/mol
# GULP energy per Si atom -12397.076749 kJ/mol
# Density = 2.068362 g / cm^3
# Si number density = 20.730801 Si / 1000 Ang^3
#
#
#
# Elastic Constant Matrix: (Units=GPa)
#
#
# Indices 1 2 3 4 5 6 
#
# 1 118.5090 25.1645 20.0533 0.0000 -2.3850 0.0000
# 2 25.1645 128.3157 24.2864 0.0000 -1.8621 0.0000
# 3 20.0533 24.2864 89.1949 0.0000 -8.1414 0.0000
# 4 0.0000 0.0000 0.0000 23.1447 0.0000 1.0678
# 5 -2.3850 -1.8621 -8.1414 0.0000 26.5494 0.0000
# 6 0.0000 0.0000 0.0000 1.0678 0.0000 12.1044
#
#
#
# Elastic Compliance Matrix: (Units=1/GPa)
#
#
# Indices 1 2 3 4 5 6 
#
# 1 0.009026 -0.001462 -0.001612 0.000000 0.000214 0.000000
# 2 -0.001462 0.008454 -0.001987 0.000000 -0.000148 0.000000
# 3 -0.001612 -0.001987 0.012437 0.000000 0.003530 0.000000
# 4 0.000000 0.000000 0.000000 0.043383 0.000000 -0.003827
# 5 0.000214 -0.000148 0.003530 0.000000 0.038757 0.000000
# 6 0.000000 0.000000 0.000000 -0.003827 0.000000 0.082952
#
#
# Mechanical properties :
#
#
# Convention : Reuss Voigt Hill
#
# Bulk Modulus (GPa) = 50.51528 52.78087 51.64807
# Shear Modulus (GPa) = 23.61528 30.12739 26.87133
#
# Velocity S-wave (km/s) = 3.37878 3.81631 3.60419
# Velocity P-wave (km/s) = 6.29616 6.70331 6.50292
#
# Compressibility (1/GPa) = 0.01979599
#
# Stress axis : x y z
#
# Youngs Moduli (GPa) = 110.79574 118.28923 80.40628
#
# Poissons Ratio (x) = 0.17293 0.12958
# Poissons Ratio (y) = 0.16197 0.15974
# Poissons Ratio (z) = 0.17856 0.23500
#
# Static dielectric constant tensor:
#      x y z
#    x 3.792900 0.000000 -0.085910 
#    y 0.000000 3.878930 0.000000 
#    z -0.085910 0.000000 3.824010 
# 
# 
# High freq. dielectric constant tensor:
#      x y z
#    x 1.809450 0.000000 0.000610 
#    y 0.000000 1.809590 0.000000 
#    z 0.000610 0.000000 1.798430 
# 
# From -- ./inp_files/251949.got.cif
#   From: 2010.06.25/outbox.cif.g09.slc.cpg/sg12_126_cif.got.tgz:251949.got - 2010.06.28 00:19:55.
