data_PCOD8113116
_publ_section_title
;
Structure prediction by ZEFSAII (Michael W. Deem and Ramdas Pophale) SiO2 
 PCOD8113116
Probable space group: C 2/M
;
_chemical_formula_sum "Si O2"
_cell_formula_units_Z 56
_cell_length_a 31.084557
_cell_length_b 8.784114
_cell_length_c 11.685160
_cell_angle_alpha 90.000000
_cell_angle_beta 123.308114
_cell_angle_gamma 90.000000
_cell_volume 2666.509252
_symmetry_space_group_name_H-M "C 2/M"
_symmetry_group_IT_number 12
_symmetry_cell_setting 'monoclinic'
loop_
_space_group_symop_operation_xyz
x,y,z
-x,y,-z
-x,-y,-z
x,-y,z
1/2+x,1/2+y,z
1/2-x,1/2+y,-z
1/2-x,1/2-y,-z
1/2+x,1/2-y,z
loop_
_atom_site_type_symbol
_atom_site_label
_atom_site_fract_x
_atom_site_fract_y
_atom_site_fract_z
Si Si1 0.694248 0.321047 0.403184
Si Si2 0.117929 0.675778 0.676474
Si Si3 0.490205 0.677124 0.853892
Si Si4 0.725618 0.674266 0.854472
Si Si5 0.894559 0.675335 0.596976
Si Si6 0.675236 0.826538 0.142321
Si Si7 0.909078 0.178954 0.135721
O O1 0.700573 0.500000 0.414396
O O2 0.750000 0.250000 0.500000
O O3 0.656703 0.270815 0.450420
O O4 0.667608 0.269973 0.245927
O O5 0.118249 0.500000 0.714247
O O6 0.175988 0.731817 0.746244
O O7 0.090310 0.699971 0.513894
O O8 0.086893 0.771294 0.726063
O O9 0.478173 0.500000 0.816657
O O10 0.441627 0.773014 0.743558
O O11 0.539571 0.730762 0.854111
O O12 0.500000 0.714147 0.000000
O O13 0.710677 0.500000 0.860666
O O14 0.765341 0.682614 0.807698
O O15 0.750000 0.750000 0.000000
O O16 0.882264 0.500000 0.604531
O O17 0.658893 0.000000 0.142346
O O18 0.640237 0.760107 0.990522
O O19 0.900946 0.000000 0.114148
#
# Coordination Sequence:
#
# PCOD8113116 Si02
#       7
#     8   8   8   8   8   8   8
#     4  12  25  42  65  93 128 167 210 260 314 378
#     4  11  24  41  61  90 129 169 213 261 315 382
#     4  10  23  44  68  95 125 161 208 262 322 383
#     4  11  22  36  59  90 126 167 211 257 311 373
#     4  11  25  44  67  94 126 168 213 262 320 377
#     4  11  23  39  62  93 128 166 211 263 318 377
#     4  11  23  39  64  95 126 164 211 263 317 375
#
# _framework density 21.001239999999999
#
# number of rings (size 3 to 8) (size 9 to 14) (size 15 to 20)
#    0.000    1.000    1.429    5.143    0.000    9.429 
#    0.000    2.857    0.000    0.000    0.000    0.000 
#    0.000    0.000    0.000    0.000    0.000    0.000 
#
# Total GULP energy -347405.964740 kJ/mol
# GULP energy per Si atom -12407.355884 kJ/mol
# Density = 2.095344 g / cm^3
# Si number density = 21.001240 Si / 1000 Ang^3
#
#
#
# Elastic Constant Matrix: (Units=GPa)
#
#
# Indices 1 2 3 4 5 6 
#
# 1 126.7134 45.3030 36.4764 0.0000 -5.7142 0.0000
# 2 45.3030 122.2568 41.3266 0.0000 -2.9442 0.0000
# 3 36.4764 41.3266 98.5900 0.0000 -6.1999 0.0000
# 4 0.0000 0.0000 0.0000 36.7995 0.0000 -2.8618
# 5 -5.7142 -2.9442 -6.1999 0.0000 34.4688 0.0000
# 6 0.0000 0.0000 0.0000 -2.8618 0.0000 33.9722
#
#
#
# Elastic Compliance Matrix: (Units=1/GPa)
#
#
# Indices 1 2 3 4 5 6 
#
# 1 0.009587 -0.002739 -0.002340 0.000000 0.000934 0.000000
# 2 -0.002739 0.010313 -0.003320 0.000000 -0.000170 0.000000
# 3 -0.002340 -0.003320 0.012500 0.000000 0.001577 0.000000
# 4 0.000000 0.000000 0.000000 0.027353 0.000000 0.002304
# 5 0.000934 -0.000170 0.001577 0.000000 0.029436 0.000000
# 6 0.000000 0.000000 0.000000 0.002304 0.000000 0.029630
#
#
# Mechanical properties :
#
#
# Convention : Reuss Voigt Hill
#
# Bulk Modulus (GPa) = 64.09936 65.97471 65.03703
# Shear Modulus (GPa) = 35.50708 36.01171 35.75940
#
# Velocity S-wave (km/s) = 4.11629 4.14544 4.13089
# Velocity P-wave (km/s) = 7.29244 7.37535 7.33401
#
# Compressibility (1/GPa) = 0.01560078
#
# Stress axis : x y z
#
# Youngs Moduli (GPa) = 104.30982 96.96823 80.00196
#
# Poissons Ratio (x) = 0.26559 0.18721
# Poissons Ratio (y) = 0.28570 0.26562
# Poissons Ratio (z) = 0.24409 0.32195
#
# Static dielectric constant tensor:
#      x y z
#    x 3.947400 0.000000 -0.130540 
#    y 0.000000 3.914640 0.000000 
#    z -0.130540 0.000000 3.739570 
# 
# 
# High freq. dielectric constant tensor:
#      x y z
#    x 1.828650 0.000000 -0.010590 
#    y 0.000000 1.833450 0.000000 
#    z -0.010590 0.000000 1.828320 
# 
# From -- ./inp_files/187711.got.cif
#   From: 2010.06.25/outbox.cif.g09.slc.cpg/sg12_94_cif.got.tgz:187711.got - 2010.06.28 00:19:55.
