data_PCOD8113837
_publ_section_title
;
Structure prediction by ZEFSAII (Michael W. Deem and Ramdas Pophale) SiO2 
 PCOD8113837
Probable space group: C 2/M
;
_chemical_formula_sum "Si O2"
_cell_formula_units_Z 56
_cell_length_a 9.946898
_cell_length_b 27.618363
_cell_length_c 18.546120
_cell_angle_alpha 90.000000
_cell_angle_beta 142.406791
_cell_angle_gamma 90.000000
_cell_volume 3108.171594
_symmetry_space_group_name_H-M "C 2/M"
_symmetry_group_IT_number 12
_symmetry_cell_setting 'monoclinic'
loop_
_space_group_symop_operation_xyz
x,y,z
-x,y,-z
-x,-y,-z
x,-y,z
1/2+x,1/2+y,z
1/2-x,1/2+y,-z
1/2-x,1/2-y,-z
1/2+x,1/2-y,z
loop_
_atom_site_type_symbol
_atom_site_label
_atom_site_fract_x
_atom_site_fract_y
_atom_site_fract_z
Si Si1 0.134379 0.056093 0.234113
Si Si2 0.350193 0.056510 0.999999
Si Si3 0.063572 0.400429 0.355482
Si Si4 0.315545 0.055236 0.738064
Si Si5 0.744231 0.697015 0.581267
Si Si6 0.745147 0.801567 0.582097
Si Si7 0.396735 0.401192 0.629284
O O1 0.312317 0.088668 0.268314
O O2 0.151288 0.060578 0.327963
O O3 0.898022 0.077097 0.107610
O O4 0.171627 0.000000 0.229280
O O5 0.328222 0.000000 0.974224
O O6 0.500000 0.079866 0.000000
O O7 0.457599 0.067088 0.123387
O O8 0.149416 0.437832 0.332024
O O9 0.084434 0.346416 0.329177
O O10 0.207207 0.405603 0.488708
O O11 0.128862 0.090104 0.689838
O O12 0.242894 0.000000 0.721277
O O13 0.500000 0.680119 0.500000
O O14 0.809695 0.749203 0.645953
O O15 0.740637 0.706109 0.495929
O O16 0.500000 0.816652 0.500000
O O17 0.900794 0.847279 0.667769
#
# Coordination Sequence:
#
# PCOD8113837 Si02
#       7
#     8   8   8   8   8   8   8
#     4  11  22  35  53  74 103 140 174 214 253 293
#     4   9  18  37  57  71  90 130 190 229 243 280
#     4  11  22  33  48  80 113 135 164 205 263 321
#     4  11  22  35  53  74 103 142 178 212 249 300
#     4   9  17  32  50  69 102 140 169 205 246 295
#     4   9  17  30  50  73  98 134 175 209 244 291
#     4  11  20  33  52  78 109 139 168 205 256 318
#
# _framework density 18.017022999999998
#
# number of rings (size 3 to 8) (size 9 to 14) (size 15 to 20)
#    0.000    1.857    1.429    5.143    0.000    4.000 
#    0.000    2.143    0.000    0.000    0.000    6.000 
#    0.000    0.000    0.000    0.000    0.000    0.000 
#
# Total GULP energy -346992.574499 kJ/mol
# GULP energy per Si atom -12392.591946 kJ/mol
# Density = 1.797602 g / cm^3
# Si number density = 18.017023 Si / 1000 Ang^3
#
#
#
# Elastic Constant Matrix: (Units=GPa)
#
#
# Indices 1 2 3 4 5 6 
#
# 1 119.6694 34.6723 37.1330 0.0006 29.1924 0.0000
# 2 34.6723 88.2654 51.8809 -0.0005 19.2422 -0.0002
# 3 37.1330 51.8809 74.0419 0.0027 24.9823 -0.0009
# 4 0.0006 -0.0005 0.0027 4.2195 0.0004 6.7739
# 5 29.1924 19.2422 24.9823 0.0004 30.7212 0.0000
# 6 0.0000 -0.0002 -0.0009 6.7739 0.0000 29.5404
#
#
#
# Elastic Compliance Matrix: (Units=1/GPa)
#
#
# Indices 1 2 3 4 5 6 
#
# 1 0.011423 -0.001623 -0.001753 0.000000 -0.008412 0.000000
# 2 -0.001623 0.019544 -0.012776 0.000018 -0.000310 -0.000004
# 3 -0.001753 -0.012776 0.027666 -0.000030 -0.012830 0.000008
# 4 0.000000 0.000018 -0.000030 0.375071 0.000008 -0.086007
# 5 -0.008412 -0.000310 -0.012830 0.000008 0.051172 -0.000002
# 6 0.000000 -0.000004 0.000008 -0.086007 -0.000002 0.053574
#
#
# Mechanical properties :
#
#
# Convention : Reuss Voigt Hill
#
# Bulk Modulus (GPa) = 37.98121 58.81657 48.39889
# Shear Modulus (GPa) = 8.62769 23.44890 16.03830
#
# Velocity S-wave (km/s) = 2.19067 3.61153 2.98682
# Velocity P-wave (km/s) = 5.24645 7.07861 6.23024
#
# Compressibility (1/GPa) = 0.02632881
#
# Stress axis : x y z
#
# Youngs Moduli (GPa) = 87.54585 51.16677 36.14533
#
# Poissons Ratio (x) = 0.08302 0.06338
# Poissons Ratio (y) = 0.14205 0.46179
# Poissons Ratio (z) = 0.15350 0.65371
#
# Static dielectric constant tensor:
#      x y z
#    x 3.437370 -0.000010 0.074640 
#    y -0.000010 3.862120 0.000000 
#    z 0.074640 0.000000 3.125180 
# 
# 
# High freq. dielectric constant tensor:
#      x y z
#    x 1.718650 0.000000 0.009580 
#    y 0.000000 1.693270 0.000000 
#    z 0.009580 0.000000 1.652170 
# 
# From -- ./inp_files/125346.got.cif
#   From: 2010.06.25/outbox.cif.g09.slc.cpg/sg12_63_cif.got.tgz:125346.got - 2010.06.28 00:19:55.
