data_PCOD8113891
_publ_section_title
;
Structure prediction by ZEFSAII (Michael W. Deem and Ramdas Pophale) SiO2 
 PCOD8113891
Probable space group: C 2/M
;
_chemical_formula_sum "Si O2"
_cell_formula_units_Z 32
_cell_length_a 9.615661
_cell_length_b 19.696140
_cell_length_c 13.329181
_cell_angle_alpha 90.000000
_cell_angle_beta 138.073091
_cell_angle_gamma 90.000000
_cell_volume 1686.780358
_symmetry_space_group_name_H-M "C 2/M"
_symmetry_group_IT_number 12
_symmetry_cell_setting 'monoclinic'
loop_
_space_group_symop_operation_xyz
x,y,z
-x,y,-z
-x,-y,-z
x,-y,z
1/2+x,1/2+y,z
1/2-x,1/2+y,-z
1/2-x,1/2-y,-z
1/2+x,1/2-y,z
loop_
_atom_site_type_symbol
_atom_site_label
_atom_site_fract_x
_atom_site_fract_y
_atom_site_fract_z
Si Si1 0.820581 0.213823 0.333557
Si Si2 0.792679 0.925609 0.234224
Si Si3 0.356220 0.788472 0.148736
Si Si4 0.316838 0.073910 0.042768
O O1 0.900943 0.137664 0.348057
O O2 0.605562 0.214636 0.278216
O O3 0.781889 0.257921 0.213477
O O4 0.000000 0.246034 0.500000
O O5 0.551323 0.922104 0.130399
O O6 0.883355 0.000000 0.315580
O O7 0.826271 0.916218 0.132738
O O8 0.276985 0.866732 0.101955
O O9 0.250000 0.750000 0.000000
O O10 0.271670 0.000000 0.068043
#
# Coordination Sequence:
#
# PCOD8113891 Si02
#       4
#     8   8   8   8
#     4  11  22  34  51  79 111 138 166 211 264 307
#     4   8  14  27  48  75 102 128 165 212 257 300
#     4  11  20  35  56  77 102 138 178 213 251 305
#     4   8  14  27  50  75  97 127 172 217 249 289
#
# _framework density 18.971053000000001
#
# number of rings (size 3 to 8) (size 9 to 14) (size 15 to 20)
#    0.000    2.500    2.500    3.000    0.000    0.500 
#    0.000    0.000    0.000    5.250    0.000    0.000 
#    0.000    0.000    0.000    0.000    0.000    0.000 
#
# Total GULP energy -198267.457207 kJ/mol
# GULP energy per Si atom -12391.716075 kJ/mol
# Density = 1.892787 g / cm^3
# Si number density = 18.971053 Si / 1000 Ang^3
#
#
#
# Elastic Constant Matrix: (Units=GPa)
#
#
# Indices 1 2 3 4 5 6 
#
# 1 23.4243 8.2826 -4.0904 0.0000 -4.0988 0.0000
# 2 8.2826 113.9443 8.0478 0.0000 -12.6196 0.0000
# 3 -4.0904 8.0478 67.0980 0.0000 -3.1477 0.0000
# 4 0.0000 0.0000 0.0000 19.5735 0.0000 -3.2625
# 5 -4.0988 -12.6196 -3.1477 0.0000 24.0266 0.0000
# 6 0.0000 0.0000 0.0000 -3.2625 0.0000 21.9420
#
#
#
# Elastic Compliance Matrix: (Units=1/GPa)
#
#
# Indices 1 2 3 4 5 6 
#
# 1 0.045457 -0.002800 0.003423 0.000000 0.006732 0.000000
# 2 -0.002800 0.009544 -0.001110 0.000000 0.004390 0.000000
# 3 0.003423 -0.001110 0.015340 0.000000 0.002011 0.000000
# 4 0.000000 0.000000 0.000000 0.052388 0.000000 0.007789
# 5 0.006732 0.004390 0.002011 0.000000 0.045338 0.000000
# 6 0.000000 0.000000 0.000000 0.007789 0.000000 0.046733
#
#
# Mechanical properties :
#
#
# Convention : Reuss Voigt Hill
#
# Bulk Modulus (GPa) = 14.41618 25.43850 19.92734
# Shear Modulus (GPa) = 20.92962 25.92353 23.42658
#
# Velocity S-wave (km/s) = 3.32511 3.70060 3.51787
# Velocity P-wave (km/s) = 4.72835 5.63005 5.19879
#
# Compressibility (1/GPa) = 0.06936648
#
# Stress axis : x y z
#
# Youngs Moduli (GPa) = 21.99897 104.77421 65.19059
#
# Poissons Ratio (x) = 0.29341 -0.22314
# Poissons Ratio (y) = 0.06161 0.07233
# Poissons Ratio (z) = -0.07530 0.11625
#
# Static dielectric constant tensor:
#      x y z
#    x 3.020300 0.000000 -0.109470 
#    y 0.000000 4.132090 0.000000 
#    z -0.109470 0.000000 3.209450 
# 
# 
# High freq. dielectric constant tensor:
#      x y z
#    x 1.688730 0.000000 -0.008530 
#    y 0.000000 1.754080 0.000000 
#    z -0.008530 0.000000 1.716650 
# 
# From -- ./inp_files/37496.got.cif
#   From: 2010.06.25/outbox.cif.g09.slc.cpg/sg12_19_cif.got.tgz:37496.got - 2010.06.28 00:19:55.
