data_PCOD8113159
_publ_section_title
;
Structure prediction by ZEFSAII (Michael W. Deem and Ramdas Pophale) SiO2 
 PCOD8113159
Probable space group: C 2/M
;
_chemical_formula_sum "Si O2"
_cell_formula_units_Z 48
_cell_length_a 18.590282
_cell_length_b 11.587990
_cell_length_c 11.053366
_cell_angle_alpha 90.000000
_cell_angle_beta 115.183250
_cell_angle_gamma 90.000000
_cell_volume 2154.834590
_symmetry_space_group_name_H-M "C 2/M"
_symmetry_group_IT_number 12
_symmetry_cell_setting 'monoclinic'
loop_
_space_group_symop_operation_xyz
x,y,z
-x,y,-z
-x,-y,-z
x,-y,z
1/2+x,1/2+y,z
1/2-x,1/2+y,-z
1/2-x,1/2-y,-z
1/2+x,1/2-y,z
loop_
_atom_site_type_symbol
_atom_site_label
_atom_site_fract_x
_atom_site_fract_y
_atom_site_fract_z
Si Si1 0.536680 0.632209 0.210999
Si Si2 0.261718 0.273329 0.820574
Si Si3 0.830127 0.725851 0.624253
Si Si4 0.055076 0.500000 0.856567
Si Si5 0.832734 0.500000 0.277388
Si Si6 0.591696 0.000000 0.419583
Si Si7 0.500000 0.809528 0.000000
Si Si8 0.353439 0.633594 0.109683
O O1 0.549647 0.500000 0.178465
O O2 0.605043 0.670747 0.354927
O O3 0.555408 0.720279 0.113724
O O4 0.447896 0.650932 0.198057
O O5 0.310656 0.210472 0.751440
O O6 0.222458 0.389612 0.740890
O O7 0.191099 0.186794 0.807553
O O8 0.324485 0.297922 0.971517
O O9 0.750000 0.750000 0.500000
O O10 0.864539 0.609016 0.600922
O O11 0.138141 0.500000 0.842917
O O12 0.995619 0.500000 0.700189
O O13 0.048243 0.612017 0.938035
O O14 0.903509 0.500000 0.429698
O O15 0.331395 0.500000 0.080002
#
# Coordination Sequence:
#
# PCOD8113159 Si02
#       8
#     8   8   8   4   4   4   4   8
#     4  11  24  43  72 100 140 181 230 282 348 419
#     4  11  24  42  69 100 143 173 226 282 345 412
#     4  12  27  46  69 100 132 181 238 288 338 406
#     4  11  25  42  70 108 140 177 232 283 352 406
#     4  12  24  45  70  97 138 185 225 282 340 413
#     4  12  26  49  70  94 135 187 237 288 335 415
#     4  11  21  42  66 112 137 167 222 288 342 415
#     4  10  23  45  67 102 139 181 221 280 354 416
#
# _framework density 22.275492
#
# number of rings (size 3 to 8) (size 9 to 14) (size 15 to 20)
#    0.000    0.833    4.167    2.500    3.500    2.667 
#    0.000    0.833    0.000    2.000    0.000    0.000 
#    0.000    0.000    0.000    0.000    0.000    0.000 
#
# Total GULP energy -297488.341247 kJ/mol
# GULP energy per Si atom -12395.347552 kJ/mol
# Density = 2.222479 g / cm^3
# Si number density = 22.275492 Si / 1000 Ang^3
#
#
#
# Elastic Constant Matrix: (Units=GPa)
#
#
# Indices 1 2 3 4 5 6 
#
# 1 112.5797 44.7051 48.0938 0.0000 1.6805 0.0000
# 2 44.7051 136.5173 40.1787 0.0000 -3.5166 0.0000
# 3 48.0938 40.1787 70.8246 0.0000 4.3186 0.0000
# 4 0.0000 0.0000 0.0000 40.6443 0.0000 25.5179
# 5 1.6805 -3.5166 4.3186 0.0000 50.3980 0.0000
# 6 0.0000 0.0000 0.0000 25.5179 0.0000 53.3179
#
#
#
# Elastic Compliance Matrix: (Units=1/GPa)
#
#
# Indices 1 2 3 4 5 6 
#
# 1 0.012945 -0.001978 -0.007673 0.000000 0.000088 0.000000
# 2 -0.001978 0.009151 -0.003911 0.000000 0.001040 0.000000
# 3 -0.007673 -0.003911 0.021663 0.000000 -0.001873 0.000000
# 4 0.000000 0.000000 0.000000 0.035172 0.000000 -0.016834
# 5 0.000088 0.001040 -0.001873 0.000000 0.020072 0.000000
# 6 0.000000 0.000000 0.000000 -0.016834 0.000000 0.026812
#
#
# Mechanical properties :
#
#
# Convention : Reuss Voigt Hill
#
# Bulk Modulus (GPa) = 60.12170 65.09744 62.60957
# Shear Modulus (GPa) = 31.54860 41.33495 36.44178
#
# Velocity S-wave (km/s) = 3.76745 4.31237 4.04909
# Velocity P-wave (km/s) = 6.78038 7.35409 7.07305
#
# Compressibility (1/GPa) = 0.01663293
#
# Stress axis : x y z
#
# Youngs Moduli (GPa) = 77.25017 109.27953 46.16156
#
# Poissons Ratio (x) = 0.21620 0.35421
# Poissons Ratio (y) = 0.15284 0.18055
# Poissons Ratio (z) = 0.59277 0.42741
#
# Static dielectric constant tensor:
#      x y z
#    x 3.850120 0.000000 0.123460 
#    y 0.000000 4.037630 0.000000 
#    z 0.123460 0.000000 4.270110 
# 
# 
# High freq. dielectric constant tensor:
#      x y z
#    x 1.888930 0.000000 0.014520 
#    y 0.000000 1.887810 0.000000 
#    z 0.014520 0.000000 1.866750 
# 
# From -- ./inp_files/154356.got.cif
#   From: 2010.06.25/outbox.cif.g09.slc.cpg/sg12_78_cif.got.tgz:154356.got - 2010.06.28 00:19:55.
