data_PCOD8113671
_publ_section_title
;
Structure prediction by ZEFSAII (Michael W. Deem and Ramdas Pophale) SiO2 
 PCOD8113671
Probable space group: C 2/M
;
_chemical_formula_sum "Si O2"
_cell_formula_units_Z 52
_cell_length_a 24.829827
_cell_length_b 26.073489
_cell_length_c 9.025552
_cell_angle_alpha 90.000000
_cell_angle_beta 29.204601
_cell_angle_gamma 90.000000
_cell_volume 2851.043999
_symmetry_space_group_name_H-M "C 2/M"
_symmetry_group_IT_number 12
_symmetry_cell_setting 'monoclinic'
loop_
_space_group_symop_operation_xyz
x,y,z
-x,y,-z
-x,-y,-z
x,-y,z
1/2+x,1/2+y,z
1/2-x,1/2+y,-z
1/2-x,1/2-y,-z
1/2+x,1/2-y,z
loop_
_atom_site_type_symbol
_atom_site_label
_atom_site_fract_x
_atom_site_fract_y
_atom_site_fract_z
Si Si1 0.500000 0.760359 0.500000
Si Si2 0.815730 0.676479 0.418769
Si Si3 0.678437 0.703025 0.223789
Si Si4 0.573129 0.151778 0.144352
Si Si5 0.625475 0.289600 0.673811
Si Si6 0.178705 0.372936 0.290673
Si Si7 0.371501 0.944876 0.816717
O O1 0.554114 0.721639 0.488108
O O2 0.406459 0.795506 0.811051
O O3 0.694368 0.688348 0.646504
O O4 0.866768 0.728234 0.363505
O O5 0.809445 0.632653 0.560649
O O6 0.898286 0.656453 0.095703
O O7 0.679790 0.687323 0.394076
O O8 0.750000 0.750000 0.000000
O O9 0.717790 0.655028 0.033233
O O10 0.440611 0.147117 0.480200
O O11 0.645260 0.103710 0.032574
O O12 0.500000 0.307039 0.000000
O O13 0.180288 0.431101 0.222035
O O14 0.500000 0.954560 0.500000
O O15 0.318614 0.000000 0.995473
#
# Coordination Sequence:
#
# PCOD8113671 Si02
#       7
#     4   8   8   8   8   8   8
#     4  12  20  30  53  74 107 144 180 212 244 312
#     4  11  22  32  49  72 108 143 176 217 261 313
#     4  12  21  33  50  73 106 145 186 208 253 314
#     4  11  19  34  52  78 107 141 176 214 265 314
#     4  11  23  34  46  70 108 148 184 216 254 304
#     4  11  20  34  52  77 106 140 180 219 259 315
#     4   9  18  34  56  77 102 137 178 222 268 317
#
# _framework density 18.238932999999999
#
# number of rings (size 3 to 8) (size 9 to 14) (size 15 to 20)
#    0.000    1.077    5.385    4.154    4.308    0.000 
#    0.000    0.769    0.000    3.692    0.000    0.538 
#    0.000    3.692    0.000    0.000    0.000    0.000 
#
# Total GULP energy -322147.078780 kJ/mol
# GULP energy per Si atom -12390.272261 kJ/mol
# Density = 1.819742 g / cm^3
# Si number density = 18.238933 Si / 1000 Ang^3
#
#
#
# Elastic Constant Matrix: (Units=GPa)
#
#
# Indices 1 2 3 4 5 6 
#
# 1 89.1127 37.7909 21.0263 0.0000 18.7235 0.0000
# 2 37.7909 89.6210 25.2450 0.0000 7.9001 0.0000
# 3 21.0263 25.2450 79.6312 -0.0001 17.5844 0.0000
# 4 0.0000 0.0000 -0.0001 3.7346 0.0000 14.2592
# 5 18.7235 7.9001 17.5844 0.0000 36.0639 0.0000
# 6 0.0000 0.0000 0.0000 14.2592 0.0000 0.4604
#
#
#
# Elastic Compliance Matrix: (Units=1/GPa)
#
#
# Indices 1 2 3 4 5 6 
#
# 1 0.015090 -0.005578 -0.000847 0.000000 -0.006199 0.000000
# 2 -0.005578 0.014339 -0.003383 0.000000 0.001404 0.000000
# 3 -0.000847 -0.003383 0.015234 0.000000 -0.006247 0.000000
# 4 0.000000 0.000000 0.000000 -0.002284 0.000000 0.070728
# 5 -0.006199 0.001404 -0.006247 0.000000 0.033685 0.000000
# 6 0.000000 0.000000 0.000000 0.070728 0.000000 -0.018524
#
#
# Mechanical properties :
#
#
# Convention : Reuss Voigt Hill
#
# Bulk Modulus (GPa) = 39.92625 47.38771 43.65698
# Shear Modulus (GPa) = 58.47612 19.67195 39.07404
#
# Velocity S-wave (km/s) = 5.66840 3.28772 4.63357
# Velocity P-wave (km/s) = 8.04855 6.36005 7.25360
#
# Compressibility (1/GPa) = 0.02504618
#
# Stress axis : x y z
#
# Youngs Moduli (GPa) = 66.27088 69.73825 65.64454
#
# Poissons Ratio (x) = 0.38899 0.05561
# Poissons Ratio (y) = 0.36965 0.22209
# Poissons Ratio (z) = 0.05614 0.23594
#
# Static dielectric constant tensor:
#      x y z
#    x 3.476040 0.000000 0.220580 
#    y 0.000000 4.240760 0.000000 
#    z 0.220580 0.000000 2.909250 
# 
# 
# High freq. dielectric constant tensor:
#      x y z
#    x 1.717440 0.000000 0.009680 
#    y 0.000000 1.659160 0.000000 
#    z 0.009680 0.000000 1.692760 
# 
# From -- ./inp_files/106952.got.cif
#   From: 2010.06.25/outbox.cif.g09.slc.cpg/sg12_54_cif.got.tgz:106952.got - 2010.06.28 00:19:55.
