data_PCOD8113190
_publ_section_title
;
Structure prediction by ZEFSAII (Michael W. Deem and Ramdas Pophale) SiO2 
 PCOD8113190
Probable space group: C 2/M
;
_chemical_formula_sum "Si O2"
_cell_formula_units_Z 64
_cell_length_a 9.432218
_cell_length_b 28.392369
_cell_length_c 14.032236
_cell_angle_alpha 90.000000
_cell_angle_beta 50.743143
_cell_angle_gamma 90.000000
_cell_volume 2909.786261
_symmetry_space_group_name_H-M "C 2/M"
_symmetry_group_IT_number 12
_symmetry_cell_setting 'monoclinic'
loop_
_space_group_symop_operation_xyz
x,y,z
-x,y,-z
-x,-y,-z
x,-y,z
1/2+x,1/2+y,z
1/2-x,1/2+y,-z
1/2-x,1/2-y,-z
1/2+x,1/2-y,z
loop_
_atom_site_type_symbol
_atom_site_label
_atom_site_fract_x
_atom_site_fract_y
_atom_site_fract_z
Si Si1 0.588037 0.624294 0.358263
Si Si2 0.226123 0.213234 0.693108
Si Si3 0.061779 0.723290 0.080441
Si Si4 0.469332 0.276449 0.402765
Si Si5 0.829910 0.053989 0.008641
Si Si6 0.488666 0.123885 0.801689
Si Si7 0.554498 0.446860 0.729739
Si Si8 0.866264 0.384628 0.645947
O O1 0.500000 0.622235 0.500000
O O2 0.558532 0.675634 0.320762
O O3 0.479129 0.585058 0.346938
O O4 0.802998 0.612443 0.260155
O O5 0.412515 0.229646 0.665773
O O6 0.216708 0.157390 0.705083
O O7 0.063029 0.238311 0.815221
O O8 0.220663 0.228736 0.579983
O O9 0.071791 0.675267 0.136170
O O10 0.250000 0.750000 0.000000
O O11 0.000000 0.711232 0.000000
O O12 0.500000 0.287837 0.500000
O O13 0.649121 0.085302 0.096880
O O14 0.784810 0.000000 0.056744
O O15 0.000000 0.072905 0.000000
O O16 0.887459 0.057529 0.874295
O O17 0.486061 0.120612 0.688970
O O18 0.577431 0.500000 0.684273
O O19 0.747440 0.432257 0.697055
O O20 0.000000 0.381306 0.500000
#
# Coordination Sequence:
#
# PCOD8113190 Si02
#       8
#     8   8   8   8   8   8   8   8
#     4  11  25  46  68 104 147 184 233 293 355 431
#     4  12  24  43  64  96 137 184 228 281 347 411
#     4  12  28  44  63  97 138 183 236 284 344 420
#     4  11  23  39  66  94 135 177 227 281 337 411
#     4  10  23  45  73 103 135 177 233 295 355 419
#     4  12  26  43  74 103 141 186 233 296 358 418
#     4  11  25  48  74 100 139 188 236 299 362 416
#     4  12  26  44  70 106 140 185 240 287 350 434
#
# _framework density 21.994741999999999
#
# number of rings (size 3 to 8) (size 9 to 14) (size 15 to 20)
#    0.000    0.625    3.750    3.750    5.250    1.500 
#    0.000    2.500    0.000    0.000    0.000    0.000 
#    0.000    0.000    0.000    0.000    0.000    0.000 
#
# Total GULP energy -396651.923126 kJ/mol
# GULP energy per Si atom -12395.372598 kJ/mol
# Density = 2.194468 g / cm^3
# Si number density = 21.994742 Si / 1000 Ang^3
#
#
#
# Elastic Constant Matrix: (Units=GPa)
#
#
# Indices 1 2 3 4 5 6 
#
# 1 91.5695 18.6637 -2.3372 0.0000 4.1774 0.0000
# 2 18.6637 112.8985 34.3620 0.0000 -2.0844 0.0000
# 3 -2.3372 34.3620 74.2105 0.0000 3.1733 0.0000
# 4 0.0000 0.0000 0.0000 78.0755 0.0000 -37.2799
# 5 4.1774 -2.0844 3.1733 0.0000 40.5304 0.0000
# 6 0.0000 0.0000 0.0000 -37.2799 0.0000 57.5104
#
#
#
# Elastic Compliance Matrix: (Units=1/GPa)
#
#
# Indices 1 2 3 4 5 6 
#
# 1 0.011513 -0.002396 0.001533 0.000000 -0.001430 0.000000
# 2 -0.002396 0.010843 -0.005148 0.000000 0.001208 0.000000
# 3 0.001533 -0.005148 0.015979 0.000000 -0.001674 0.000000
# 4 0.000000 0.000000 0.000000 0.018550 0.000000 0.012024
# 5 -0.001430 0.001208 -0.001674 0.000000 0.025013 0.000000
# 6 0.000000 0.000000 0.000000 0.012024 0.000000 0.025183
#
#
# Mechanical properties :
#
#
# Convention : Reuss Voigt Hill
#
# Bulk Modulus (GPa) = 38.00353 42.22840 40.11597
# Shear Modulus (GPa) = 39.10126 50.42258 44.76192
#
# Velocity S-wave (km/s) = 4.22092 4.79318 4.51612
# Velocity P-wave (km/s) = 6.40865 7.06214 6.74332
#
# Compressibility (1/GPa) = 0.02631335
#
# Stress axis : x y z
#
# Youngs Moduli (GPa) = 86.85470 92.22769 62.58375
#
# Poissons Ratio (x) = 0.22102 -0.09597
# Poissons Ratio (y) = 0.20814 0.32216
# Poissons Ratio (z) = -0.13318 0.47476
#
# Static dielectric constant tensor:
#      x y z
#    x 4.152780 0.000000 0.148760 
#    y 0.000000 4.188040 0.000000 
#    z 0.148760 0.000000 3.939810 
# 
# 
# High freq. dielectric constant tensor:
#      x y z
#    x 1.879880 0.000000 0.007150 
#    y 0.000000 1.870480 0.000000 
#    z 0.007150 0.000000 1.865880 
# 
# From -- ./inp_files/201292.got.cif
#   From: 2010.06.25/outbox.cif.g09.slc.cpg/sg12_101_cif.got.tgz:201292.got - 2010.06.28 00:19:55.
