data_PCOD8113706
_publ_section_title
;
Structure prediction by ZEFSAII (Michael W. Deem and Ramdas Pophale) SiO2 
 PCOD8113706
Probable space group: C 2/M
;
_chemical_formula_sum "Si O2"
_cell_formula_units_Z 40
_cell_length_a 15.366479
_cell_length_b 19.314224
_cell_length_c 8.893394
_cell_angle_alpha 90.000000
_cell_angle_beta 129.832346
_cell_angle_gamma 90.000000
_cell_volume 2026.918521
_symmetry_space_group_name_H-M "C 2/M"
_symmetry_group_IT_number 12
_symmetry_cell_setting 'monoclinic'
loop_
_space_group_symop_operation_xyz
x,y,z
-x,y,-z
-x,-y,-z
x,-y,z
1/2+x,1/2+y,z
1/2-x,1/2+y,-z
1/2-x,1/2-y,-z
1/2+x,1/2-y,z
loop_
_atom_site_type_symbol
_atom_site_label
_atom_site_fract_x
_atom_site_fract_y
_atom_site_fract_z
Si Si1 0.030440 0.842482 0.731874
Si Si2 0.303449 0.269440 0.899065
Si Si3 0.114156 0.637713 0.187520
Si Si4 0.915975 0.302648 0.524451
Si Si5 0.150126 0.078696 0.600360
O O1 0.116649 0.869231 0.697876
O O2 0.974176 0.770213 0.623743
O O3 0.927477 0.898292 0.630236
O O4 0.102689 0.830017 0.964378
O O5 0.367042 0.206029 0.891435
O O6 0.209304 0.296334 0.681556
O O7 0.250000 0.250000 0.000000
O O8 0.096906 0.652480 0.342500
O O9 0.217842 0.584913 0.288427
O O10 0.000000 0.601280 0.000000
O O11 0.000000 0.341568 0.500000
O O12 0.122525 0.000000 0.613685
#
# Coordination Sequence:
#
# PCOD8113706 Si02
#       5
#     8   8   8   8   8
#     4  11  19  37  62  91 119 153 204 254 313 344
#     4  12  19  34  58  95 129 148 195 262 321 369
#     4  12  23  36  62  96 124 161 202 253 322 359
#     4  12  21  35  59  96 129 154 194 267 322 363
#     4  11  23  41  61  87 127 169 214 243 281 385
#
# _framework density 19.734389
#
# number of rings (size 3 to 8) (size 9 to 14) (size 15 to 20)
#    0.000    0.400   10.000    1.800    0.000    0.400 
#    0.000    0.000    0.000    4.200    0.000    0.000 
#    0.000    0.000    0.000    0.000    0.000    0.000 
#
# Total GULP energy -247852.015585 kJ/mol
# GULP energy per Si atom -12392.600779 kJ/mol
# Density = 1.968947 g / cm^3
# Si number density = 19.734389 Si / 1000 Ang^3
#
#
#
# Elastic Constant Matrix: (Units=GPa)
#
#
# Indices 1 2 3 4 5 6 
#
# 1 95.0298 17.3029 41.6122 0.0000 15.9756 0.0000
# 2 17.3029 54.5714 31.6434 0.0000 6.2239 0.0000
# 3 41.6122 31.6434 145.9890 0.0000 27.7699 0.0000
# 4 0.0000 0.0000 0.0000 15.5729 0.0000 0.8457
# 5 15.9756 6.2239 27.7699 0.0000 43.5803 0.0000
# 6 0.0000 0.0000 0.0000 0.8457 0.0000 9.6606
#
#
#
# Elastic Compliance Matrix: (Units=1/GPa)
#
#
# Indices 1 2 3 4 5 6 
#
# 1 0.012492 -0.002158 -0.002595 0.000000 -0.002618 0.000000
# 2 -0.002158 0.021332 -0.004073 0.000000 0.000340 0.000000
# 3 -0.002595 -0.004073 0.009309 0.000000 -0.004399 0.000000
# 4 0.000000 0.000000 0.000000 0.064521 0.000000 -0.005648
# 5 -0.002618 0.000340 -0.004399 0.000000 0.026660 0.000000
# 6 0.000000 0.000000 0.000000 -0.005648 0.000000 0.104008
#
#
# Mechanical properties :
#
#
# Convention : Reuss Voigt Hill
#
# Bulk Modulus (GPa) = 39.24480 52.96746 46.10613
# Shear Modulus (GPa) = 18.90584 27.43153 23.16869
#
# Velocity S-wave (km/s) = 3.09854 3.73236 3.43012
# Velocity P-wave (km/s) = 5.72110 6.74333 6.25314
#
# Compressibility (1/GPa) = 0.02548109
#
# Stress axis : x y z
#
# Youngs Moduli (GPa) = 80.04930 46.87808 107.42021
#
# Poissons Ratio (x) = 0.10114 0.27878
# Poissons Ratio (y) = 0.17271 0.43757
# Poissons Ratio (z) = 0.20774 0.19096
#
# Static dielectric constant tensor:
#      x y z
#    x 2.864870 0.000000 -1.586410 
#    y 0.000000 3.180880 0.000000 
#    z -1.586410 0.000000 0.924010 
# 
# 
# High freq. dielectric constant tensor:
#      x y z
#    x 1.778080 0.000000 0.025420 
#    y 0.000000 1.714650 0.000000 
#    z 0.025420 0.000000 1.787260 
# 
# From -- ./inp_files/62598.got.cif
#   From: 2010.06.25/outbox.cif.g09.slc.cpg/sg12_32_cif.got.tgz:62598.got - 2010.06.28 00:19:55.
