data_PCOD8113935
_publ_section_title
;
Structure prediction by ZEFSAII (Michael W. Deem and Ramdas Pophale) SiO2 
 PCOD8113935
Probable space group: C 2/M
;
_chemical_formula_sum "Si O2"
_cell_formula_units_Z 40
_cell_length_a 8.833562
_cell_length_b 18.219647
_cell_length_c 13.481370
_cell_angle_alpha 90.000000
_cell_angle_beta 75.972650
_cell_angle_gamma 90.000000
_cell_volume 2105.049080
_symmetry_space_group_name_H-M "C 2/M"
_symmetry_group_IT_number 12
_symmetry_cell_setting 'monoclinic'
loop_
_space_group_symop_operation_xyz
x,y,z
-x,y,-z
-x,-y,-z
x,-y,z
1/2+x,1/2+y,z
1/2-x,1/2+y,-z
1/2-x,1/2-y,-z
1/2+x,1/2-y,z
loop_
_atom_site_type_symbol
_atom_site_label
_atom_site_fract_x
_atom_site_fract_y
_atom_site_fract_z
Si Si1 0.887281 0.824518 0.609330
Si Si2 0.621477 0.418013 0.214695
Si Si3 0.518417 0.300548 0.883581
Si Si4 0.138761 0.304994 0.241155
Si Si5 0.386748 0.083044 0.313153
O O1 0.970291 0.876326 0.680016
O O2 0.843977 0.746169 0.664486
O O3 0.727096 0.865896 0.599844
O O4 0.000000 0.811723 0.500000
O O5 0.556055 0.500000 0.210933
O O6 0.593153 0.371034 0.119785
O O7 0.805467 0.418406 0.215922
O O8 0.694775 0.323155 0.831729
O O9 0.469456 0.231947 0.824803
O O10 0.500000 0.277487 0.000000
O O11 0.058297 0.382069 0.282696
O O12 0.398380 0.000000 0.353548
#
# Coordination Sequence:
#
# PCOD8113935 Si02
#       5
#     8   8   8   8   8
#     4   9  18  33  60  82 108 149 188 226 270 332
#     4   8  18  36  52  78 114 144 184 228 270 330
#     4  11  21  35  58  80 107 149 192 231 281 333
#     4  11  20  37  54  85 113 142 187 240 274 326
#     4   9  19  36  56  79 116 151 181 222 278 328
#
# _framework density 19.001933000000001
#
# number of rings (size 3 to 8) (size 9 to 14) (size 15 to 20)
#    1.200    1.200    2.000    0.600    0.000    3.600 
#    0.000    0.000    0.000    3.600    0.000    0.000 
#    0.000    0.000    0.000    0.000    0.000    0.000 
#
# Total GULP energy -247779.777363 kJ/mol
# GULP energy per Si atom -12388.988868 kJ/mol
# Density = 1.895868 g / cm^3
# Si number density = 19.001933 Si / 1000 Ang^3
#
#
#
# Elastic Constant Matrix: (Units=GPa)
#
#
# Indices 1 2 3 4 5 6 
#
# 1 52.2009 22.5318 8.7916 0.0000 -20.6795 0.0000
# 2 22.5318 114.5694 23.4504 0.0000 -8.1424 0.0000
# 3 8.7916 23.4504 56.4075 0.0000 -10.0525 0.0000
# 4 0.0000 0.0000 0.0000 11.8384 0.0000 -7.9884
# 5 -20.6795 -8.1424 -10.0525 0.0000 27.4720 0.0000
# 6 0.0000 0.0000 0.0000 -7.9884 0.0000 27.2004
#
#
#
# Elastic Compliance Matrix: (Units=1/GPa)
#
#
# Indices 1 2 3 4 5 6 
#
# 1 0.029264 -0.004473 0.001057 0.000000 0.021089 0.000000
# 2 -0.004473 0.010280 -0.003887 0.000000 -0.001742 0.000000
# 3 0.001057 -0.003887 0.020449 0.000000 0.007126 0.000000
# 4 0.000000 0.000000 0.000000 0.105348 0.000000 0.030939
# 5 0.021089 -0.001742 0.007126 0.000000 0.054367 0.000000
# 6 0.000000 0.000000 0.000000 0.030939 0.000000 0.045851
#
#
# Mechanical properties :
#
#
# Convention : Reuss Voigt Hill
#
# Bulk Modulus (GPa) = 22.03266 36.96950 29.50108
# Shear Modulus (GPa) = 16.93230 24.52910 20.73070
#
# Velocity S-wave (km/s) = 2.98834 3.59677 3.30658
# Velocity P-wave (km/s) = 4.85047 6.06192 5.48971
#
# Compressibility (1/GPa) = 0.04538717
#
# Stress axis : x y z
#
# Youngs Moduli (GPa) = 34.17179 97.27882 48.90128
#
# Poissons Ratio (x) = 0.43510 -0.05168
# Poissons Ratio (y) = 0.15284 0.19008
# Poissons Ratio (z) = -0.03611 0.37812
#
# Static dielectric constant tensor:
#      x y z
#    x 3.367500 0.000000 0.037480 
#    y 0.000000 3.441360 0.000000 
#    z 0.037480 0.000000 3.044380 
# 
# 
# High freq. dielectric constant tensor:
#      x y z
#    x 1.726240 0.000000 -0.001680 
#    y 0.000000 1.742030 0.000000 
#    z -0.001680 0.000000 1.698620 
# 
# From -- ./inp_files/130854.got.cif
#   From: 2010.06.25/outbox.cif.g09.slc.cpg/sg12_66_cif.got.tgz:130854.got - 2010.06.28 00:19:55.
