data_PCOD8113110
_publ_section_title
;
Structure prediction by ZEFSAII (Michael W. Deem and Ramdas Pophale) SiO2 
 PCOD8113110
Probable space group: C 2/M
;
_chemical_formula_sum "Si O2"
_cell_formula_units_Z 64
_cell_length_a 30.107865
_cell_length_b 8.712665
_cell_length_c 11.176198
_cell_angle_alpha 90.000000
_cell_angle_beta 94.990538
_cell_angle_gamma 90.000000
_cell_volume 2920.623383
_symmetry_space_group_name_H-M "C 2/M"
_symmetry_group_IT_number 12
_symmetry_cell_setting 'monoclinic'
loop_
_space_group_symop_operation_xyz
x,y,z
-x,y,-z
-x,-y,-z
x,-y,z
1/2+x,1/2+y,z
1/2-x,1/2+y,-z
1/2-x,1/2-y,-z
1/2+x,1/2-y,z
loop_
_atom_site_type_symbol
_atom_site_label
_atom_site_fract_x
_atom_site_fract_y
_atom_site_fract_z
Si Si1 0.862772 0.672489 0.893927
Si Si2 0.722309 0.316949 0.606336
Si Si3 0.574980 0.674962 0.264575
Si Si4 0.240751 0.673841 0.127525
Si Si5 0.992234 0.329572 0.137602
Si Si6 0.051192 0.674400 0.489851
Si Si7 0.398965 0.322426 0.128227
Si Si8 0.135879 0.676376 0.660901
O O1 0.875865 0.500000 0.938451
O O2 0.887477 0.711667 0.776908
O O3 0.811096 0.686555 0.857548
O O4 0.879249 0.796809 0.992742
O O5 0.725691 0.500000 0.599888
O O6 0.750000 0.250000 0.500000
O O7 0.737551 0.257576 0.744087
O O8 0.671173 0.258816 0.580271
O O9 0.587928 0.500000 0.241659
O O10 0.526771 0.709988 0.198908
O O11 0.572485 0.705915 0.403798
O O12 0.257203 0.500000 0.116927
O O13 0.250000 0.750000 0.000000
O O14 0.998555 0.500000 0.195354
O O15 0.943387 0.273848 0.158170
O O16 0.000000 0.336817 0.000000
O O17 0.052205 0.500000 0.441001
O O18 0.083990 0.691118 0.610257
O O19 0.000000 0.723163 0.500000
O O20 0.409194 0.500000 0.150499
O O21 0.361360 0.261946 0.210815
O O22 0.150182 0.500000 0.677574
#
# Coordination Sequence:
#
# PCOD8113110 Si02
#       8
#     8   8   8   8   8   8   8   8
#     4  11  23  41  64  92 127 170 214 262 322 396
#     4  11  25  46  70 102 138 178 228 286 347 410
#     4  12  25  39  61  94 129 164 209 269 329 383
#     4  10  24  44  69  97 130 170 220 276 333 401
#     4  11  22  38  61  87 123 173 217 260 316 388
#     4  10  23  44  68  92 125 172 222 266 317 391
#     4  12  24  39  63  97 134 168 213 273 328 386
#     4  11  24  43  69  98 131 176 224 270 327 397
#
# _framework density 21.913129000000001
#
# number of rings (size 3 to 8) (size 9 to 14) (size 15 to 20)
#    0.000    1.000    1.250    5.250    1.750    6.750 
#    0.000    0.000    0.000    0.000    0.000    0.000 
#    0.000    0.000    0.000    0.000    0.000    0.000 
#
# Total GULP energy -396744.826444 kJ/mol
# GULP energy per Si atom -12398.275826 kJ/mol
# Density = 2.186325 g / cm^3
# Si number density = 21.913129 Si / 1000 Ang^3
#
#
#
# Elastic Constant Matrix: (Units=GPa)
#
#
# Indices 1 2 3 4 5 6 
#
# 1 105.4127 34.9786 39.7353 0.0000 -18.3326 0.0000
# 2 34.9786 98.1339 41.1965 0.0000 -7.5120 0.0000
# 3 39.7353 41.1965 116.3047 0.0000 -15.6445 0.0000
# 4 0.0000 0.0000 0.0000 35.8772 0.0000 -3.5539
# 5 -18.3326 -7.5120 -15.6445 0.0000 34.6621 0.0000
# 6 0.0000 0.0000 0.0000 -3.5539 0.0000 31.2531
#
#
#
# Elastic Compliance Matrix: (Units=1/GPa)
#
#
# Indices 1 2 3 4 5 6 
#
# 1 0.012224 -0.002948 -0.002500 0.000000 0.004698 0.000000
# 2 -0.002948 0.012698 -0.003545 0.000000 -0.000407 0.000000
# 3 -0.002500 -0.003545 0.011101 0.000000 0.002920 0.000000
# 4 0.000000 0.000000 0.000000 0.028190 0.000000 0.003206
# 5 0.004698 -0.000407 0.002920 0.000000 0.032564 0.000000
# 6 0.000000 0.000000 0.000000 0.003206 0.000000 0.032361
#
#
# Mechanical properties :
#
#
# Convention : Reuss Voigt Hill
#
# Bulk Modulus (GPa) = 55.44503 61.29691 58.37097
# Shear Modulus (GPa) = 32.65021 33.95454 33.30237
#
# Velocity S-wave (km/s) = 3.86422 3.94065 3.90262
# Velocity P-wave (km/s) = 6.72805 6.98129 6.85584
#
# Compressibility (1/GPa) = 0.01803588
#
# Stress axis : x y z
#
# Youngs Moduli (GPa) = 81.80475 78.75189 90.08297
#
# Poissons Ratio (x) = 0.23216 0.22523
# Poissons Ratio (y) = 0.24116 0.31939
# Poissons Ratio (z) = 0.20453 0.27921
#
# Static dielectric constant tensor:
#      x y z
#    x 4.064730 0.000000 -0.037400 
#    y 0.000000 3.357890 0.000000 
#    z -0.037400 0.000000 3.995250 
# 
# 
# High freq. dielectric constant tensor:
#      x y z
#    x 1.872250 0.000000 -0.008680 
#    y 0.000000 1.859790 0.000000 
#    z -0.008680 0.000000 1.865780 
# 
# From -- ./inp_files/187464.got.cif
#   From: 2010.06.25/outbox.cif.g09.slc.cpg/sg12_94_cif.got.tgz:187464.got - 2010.06.28 00:19:55.
