data_PCOD8113833
_publ_section_title
;
Structure prediction by ZEFSAII (Michael W. Deem and Ramdas Pophale) SiO2 
 PCOD8113833
Probable space group: C 2/M
;
_chemical_formula_sum "Si O2"
_cell_formula_units_Z 48
_cell_length_a 27.078169
_cell_length_b 7.592512
_cell_length_c 13.629224
_cell_angle_alpha 90.000000
_cell_angle_beta 75.444054
_cell_angle_gamma 90.000000
_cell_volume 2712.111941
_symmetry_space_group_name_H-M "C 2/M"
_symmetry_group_IT_number 12
_symmetry_cell_setting 'monoclinic'
loop_
_space_group_symop_operation_xyz
x,y,z
-x,y,-z
-x,-y,-z
x,-y,z
1/2+x,1/2+y,z
1/2-x,1/2+y,-z
1/2-x,1/2-y,-z
1/2+x,1/2-y,z
loop_
_atom_site_type_symbol
_atom_site_label
_atom_site_fract_x
_atom_site_fract_y
_atom_site_fract_z
Si Si1 0.792764 0.709943 0.772216
Si Si2 0.057343 0.500000 0.091908
Si Si3 0.766199 0.205667 0.383011
Si Si4 0.803125 0.803514 0.070517
Si Si5 0.374429 0.703085 0.869675
Si Si6 0.133480 0.801523 0.765340
Si Si7 0.562492 0.000000 0.859025
O O1 0.792973 0.500000 0.772143
O O2 0.775972 0.781516 0.672704
O O3 0.750504 0.785420 0.871219
O O4 0.848796 0.782140 0.774020
O O5 0.076259 0.325494 0.140530
O O6 0.997042 0.500000 0.130941
O O7 0.074642 0.500000 0.969412
O O8 0.750000 0.250000 0.500000
O O9 0.823627 0.274591 0.332038
O O10 0.768899 0.000000 0.363077
O O11 0.841670 0.802996 0.141033
O O12 0.790891 0.000000 0.042541
O O13 0.831799 0.713295 0.964742
O O14 0.389652 0.500000 0.884446
O O15 0.085237 0.672146 0.793720
O O16 0.115263 0.000000 0.745914
#
# Coordination Sequence:
#
# PCOD8113833 Si02
#       7
#     8   4   8   8   8   8   4
#     4   9  17  31  48  70 106 141 172 209 255 316
#     4  11  24  36  50  77 107 135 197 234 249 308
#     4   9  19  33  52  81 113 139 169 213 261 321
#     4   8  15  28  46  70 101 137 170 206 251 307
#     4  11  20  33  49  71 103 141 175 219 264 306
#     4   9  18  34  52  75 107 137 176 219 259 315
#     4  11  22  36  56  75  97 153 185 220 279 295
#
# _framework density 17.698384000000001
#
# number of rings (size 3 to 8) (size 9 to 14) (size 15 to 20)
#    0.000    2.500    2.500    2.500    1.167    1.333 
#    6.000    1.667    0.000    0.000    0.000    2.333 
#    0.000    4.000    0.000    0.000    0.000    0.000 
#
# Total GULP energy -297333.581623 kJ/mol
# GULP energy per Si atom -12388.899234 kJ/mol
# Density = 1.765810 g / cm^3
# Si number density = 17.698384 Si / 1000 Ang^3
#
#
#
# Elastic Constant Matrix: (Units=GPa)
#
#
# Indices 1 2 3 4 5 6 
#
# 1 106.3862 46.0955 44.0987 0.0000 -0.6241 0.0000
# 2 46.0955 83.2392 24.9832 0.0000 -4.5110 0.0000
# 3 44.0987 24.9832 79.7025 0.0000 -6.7653 0.0000
# 4 0.0000 0.0000 0.0000 19.7498 0.0000 -1.9696
# 5 -0.6241 -4.5110 -6.7653 0.0000 13.8761 0.0000
# 6 0.0000 0.0000 0.0000 -1.9696 0.0000 22.5035
#
#
#
# Elastic Compliance Matrix: (Units=1/GPa)
#
#
# Indices 1 2 3 4 5 6 
#
# 1 0.014953 -0.006548 -0.006618 0.000000 -0.004683 0.000000
# 2 -0.006548 0.016204 -0.001079 0.000000 0.004447 0.000000
# 3 -0.006618 -0.001079 0.017204 0.000000 0.007739 0.000000
# 4 0.000000 0.000000 0.000000 0.051079 0.000000 0.004471
# 5 -0.004683 0.004447 0.007739 0.000000 0.077075 0.000000
# 6 0.000000 0.000000 0.000000 0.004471 0.000000 0.044829
#
#
# Mechanical properties :
#
#
# Convention : Reuss Voigt Hill
#
# Bulk Modulus (GPa) = 50.32557 55.52029 52.92293
# Shear Modulus (GPa) = 19.49646 21.50260 20.49953
#
# Velocity S-wave (km/s) = 3.32263 3.48939 3.40703
# Velocity P-wave (km/s) = 6.57394 6.90455 6.74127
#
# Compressibility (1/GPa) = 0.01987061
#
# Stress axis : x y z
#
# Youngs Moduli (GPa) = 66.87787 61.71161 58.12739
#
# Poissons Ratio (x) = 0.40407 0.38470
# Poissons Ratio (y) = 0.43790 0.06272
# Poissons Ratio (z) = 0.44261 0.06659
#
# Static dielectric constant tensor:
#      x y z
#    x 3.123130 0.000000 0.018890 
#    y 0.000000 3.300390 0.000000 
#    z 0.018890 0.000000 2.816950 
# 
# 
# High freq. dielectric constant tensor:
#      x y z
#    x 1.661180 0.000000 0.010460 
#    y 0.000000 1.684130 0.000000 
#    z 0.010460 0.000000 1.650930 
# 
# From -- ./inp_files/242617.got.cif
#   From: 2010.06.25/outbox.cif.g09.slc.cpg/sg12_122_cif.got.tgz:242617.got - 2010.06.28 00:19:55.
