data_PCOD8113811
_publ_section_title
;
Structure prediction by ZEFSAII (Michael W. Deem and Ramdas Pophale) SiO2 
 PCOD8113811
Probable space group: C 2/M
;
_chemical_formula_sum "Si O2"
_cell_formula_units_Z 64
_cell_length_a 29.765741
_cell_length_b 8.625579
_cell_length_c 15.077196
_cell_angle_alpha 90.000000
_cell_angle_beta 78.715831
_cell_angle_gamma 90.000000
_cell_volume 3796.189448
_symmetry_space_group_name_H-M "C 2/M"
_symmetry_group_IT_number 12
_symmetry_cell_setting 'monoclinic'
loop_
_space_group_symop_operation_xyz
x,y,z
-x,y,-z
-x,-y,-z
x,-y,z
1/2+x,1/2+y,z
1/2-x,1/2+y,-z
1/2-x,1/2-y,-z
1/2+x,1/2-y,z
loop_
_atom_site_type_symbol
_atom_site_label
_atom_site_fract_x
_atom_site_fract_y
_atom_site_fract_z
Si Si1 0.290657 0.317710 0.802075
Si Si2 0.956151 0.179741 0.132120
Si Si3 0.941803 0.819841 0.933115
Si Si4 0.650697 0.179663 0.069966
Si Si5 0.694238 0.319678 0.881610
Si Si6 0.129330 0.320121 0.762094
Si Si7 0.312910 0.181081 0.424600
Si Si8 0.284208 0.317438 0.606261
O O1 0.300050 0.500000 0.809181
O O2 0.326283 0.220537 0.845830
O O3 0.238922 0.284483 0.851767
O O4 0.298232 0.258848 0.698304
O O5 0.924491 0.281685 0.209285
O O6 0.009140 0.223184 0.128883
O O7 0.947705 0.000000 0.155545
O O8 0.942703 0.218614 0.036714
O O9 0.903276 0.716278 0.901256
O O10 0.930743 0.000000 0.922309
O O11 0.658122 0.000000 0.044637
O O12 0.673100 0.284432 0.985440
O O13 0.707444 0.500000 0.872119
O O14 0.657025 0.282618 0.821223
O O15 0.139022 0.500000 0.778755
O O16 0.144908 0.277764 0.656254
O O17 0.320259 0.259424 0.518062
O O18 0.266475 0.247105 0.397383
O O19 0.308705 0.000000 0.442565
O O20 0.283063 0.500000 0.607749
#
# Coordination Sequence:
#
# PCOD8113811 Si02
#       8
#     8   8   8   8   8   8   8   8
#     4  11  22  38  54  71 100 135 173 213 251 292
#     4   9  18  32  52  75 101 131 167 207 250 301
#     4   9  18  34  52  73 100 132 168 208 252 294
#     4  12  24  36  51  74 101 134 175 211 248 297
#     4  12  23  35  50  71 101 138 176 210 246 290
#     4  11  20  32  50  76 106 136 168 205 250 301
#     4   9  18  32  49  72 102 131 162 204 251 296
#     4   9  18  33  51  72  97 129 168 207 247 293
#
# _framework density 16.859010000000001
#
# number of rings (size 3 to 8) (size 9 to 14) (size 15 to 20)
#    0.000    1.750    2.500    4.125    0.000    2.500 
#    0.000    1.250    0.000    0.000    0.000    0.875 
#    0.000    7.000    0.000    0.000    0.000    0.000 
#
# Total GULP energy -396857.347282 kJ/mol
# GULP energy per Si atom -12401.792103 kJ/mol
# Density = 1.682064 g / cm^3
# Si number density = 16.859010 Si / 1000 Ang^3
#
#
#
# Elastic Constant Matrix: (Units=GPa)
#
#
# Indices 1 2 3 4 5 6 
#
# 1 81.7153 17.5416 53.9808 0.0000 -9.0301 0.0000
# 2 17.5416 44.2821 24.6910 0.0000 -2.6480 0.0000
# 3 53.9808 24.6910 102.4396 0.0000 -6.4109 0.0000
# 4 0.0000 0.0000 0.0000 26.3061 0.0000 -2.7971
# 5 -9.0301 -2.6480 -6.4109 0.0000 22.5284 0.0000
# 6 0.0000 0.0000 0.0000 -2.7971 0.0000 27.3044
#
#
#
# Elastic Compliance Matrix: (Units=1/GPa)
#
#
# Indices 1 2 3 4 5 6 
#
# 1 0.019472 -0.002162 -0.009436 0.000000 0.004866 0.000000
# 2 -0.002162 0.026366 -0.005168 0.000000 0.000762 0.000000
# 3 -0.009436 -0.005168 0.015990 0.000000 0.000161 0.000000
# 4 0.000000 0.000000 0.000000 0.038433 0.000000 0.003937
# 5 0.004866 0.000762 0.000161 0.000000 0.046474 0.000000
# 6 0.000000 0.000000 0.000000 0.003937 0.000000 0.037028
#
#
# Mechanical properties :
#
#
# Convention : Reuss Voigt Hill
#
# Bulk Modulus (GPa) = 35.33889 46.76263 41.05076
# Shear Modulus (GPa) = 22.05310 24.04270 23.04790
#
# Velocity S-wave (km/s) = 3.62068 3.78048 3.70144
# Velocity P-wave (km/s) = 6.20371 6.84497 6.53222
#
# Compressibility (1/GPa) = 0.02829743
#
# Stress axis : x y z
#
# Youngs Moduli (GPa) = 51.35470 37.92752 62.54032
#
# Poissons Ratio (x) = 0.08198 0.59010
# Poissons Ratio (y) = 0.11101 0.32323
# Poissons Ratio (z) = 0.48456 0.19602
#
# Static dielectric constant tensor:
#      x y z
#    x 3.137510 0.000000 -0.091900 
#    y 0.000000 3.088770 0.000000 
#    z -0.091900 0.000000 3.199900 
# 
# 
# High freq. dielectric constant tensor:
#      x y z
#    x 1.629760 0.000000 -0.012010 
#    y 0.000000 1.653290 0.000000 
#    z -0.012010 0.000000 1.636460 
# 
# From -- ./inp_files/248320.got.cif
#   From: 2010.06.25/outbox.cif.g09.slc.cpg/sg12_125_cif.got.tgz:248320.got - 2010.06.28 00:19:55.
