data_PCOD8113894
_publ_section_title
;
Structure prediction by ZEFSAII (Michael W. Deem and Ramdas Pophale) SiO2 
 PCOD8113894
Probable space group: C 2/M
;
_chemical_formula_sum "Si O2"
_cell_formula_units_Z 64
_cell_length_a 9.857251
_cell_length_b 16.746861
_cell_length_c 30.937330
_cell_angle_alpha 90.000000
_cell_angle_beta 140.883513
_cell_angle_gamma 90.000000
_cell_volume 3222.047675
_symmetry_space_group_name_H-M "C 2/M"
_symmetry_group_IT_number 12
_symmetry_cell_setting 'monoclinic'
loop_
_space_group_symop_operation_xyz
x,y,z
-x,y,-z
-x,-y,-z
x,-y,z
1/2+x,1/2+y,z
1/2-x,1/2+y,-z
1/2-x,1/2-y,-z
1/2+x,1/2-y,z
loop_
_atom_site_type_symbol
_atom_site_label
_atom_site_fract_x
_atom_site_fract_y
_atom_site_fract_z
Si Si1 0.553836 0.315363 0.577877
Si Si2 0.066740 0.594878 0.082843
Si Si3 0.702686 0.092400 0.801683
Si Si4 0.260798 0.868433 0.288849
Si Si5 0.162726 0.332839 0.432115
Si Si6 0.167899 0.910159 0.772831
Si Si7 0.172408 0.094712 0.933983
Si Si8 0.219468 0.321462 0.281717
O O1 0.358426 0.370168 0.509426
O O2 0.731876 0.295781 0.585442
O O3 0.452540 0.232314 0.567025
O O4 0.665532 0.356909 0.646773
O O5 0.085912 0.500000 0.087472
O O6 0.148419 0.625710 0.149588
O O7 0.222316 0.629562 0.083875
O O8 0.819735 0.621262 0.011548
O O9 0.705921 0.101934 0.751212
O O10 0.523304 0.146730 0.779756
O O11 0.927404 0.124399 0.877693
O O12 0.661012 0.000000 0.803143
O O13 0.475239 0.892957 0.369519
O O14 0.223663 0.773617 0.282078
O O15 0.059194 0.913524 0.259021
O O16 0.150992 0.853144 0.727503
O O17 0.226727 0.000000 0.772805
O O18 0.171547 0.000000 0.930134
#
# Coordination Sequence:
#
# PCOD8113894 Si02
#       8
#     8   8   8   8   8   8   8   8
#     4   9  18  33  53  80 109 142 185 227 270 312
#     4   8  14  28  51  79 104 135 183 230 263 305
#     4  11  20  35  57  83 109 142 184 226 270 323
#     4  11  21  36  58  83 108 143 187 225 266 323
#     4   9  18  32  54  81 108 140 185 233 264 313
#     4  11  22  37  57  82 112 146 182 225 275 327
#     4   8  14  27  52  80 103 133 184 233 260 304
#     4  11  23  36  54  82 117 145 172 225 284 326
#
# _framework density 19.863144999999999
#
# number of rings (size 3 to 8) (size 9 to 14) (size 15 to 20)
#    0.000    2.250    2.500    2.250    5.250    0.000 
#    0.000    0.625    0.000   12.000    0.000    0.000 
#    0.000    0.000    0.000    0.000    0.000    0.000 
#
# Total GULP energy -396498.007135 kJ/mol
# GULP energy per Si atom -12390.562723 kJ/mol
# Density = 1.981794 g / cm^3
# Si number density = 19.863145 Si / 1000 Ang^3
#
#
#
# Elastic Constant Matrix: (Units=GPa)
#
#
# Indices 1 2 3 4 5 6 
#
# 1 58.3043 3.1541 12.3969 0.0002 -4.6557 0.0001
# 2 3.1541 37.0594 13.0618 0.0001 0.0077 -0.0001
# 3 12.3969 13.0618 135.2174 0.0006 4.2629 -0.0003
# 4 0.0002 0.0001 0.0006 18.3616 0.0001 2.7099
# 5 -4.6557 0.0077 4.2629 0.0001 33.3053 0.0000
# 6 0.0001 -0.0001 -0.0003 2.7099 0.0000 12.1146
#
#
#
# Elastic Compliance Matrix: (Units=1/GPa)
#
#
# Indices 1 2 3 4 5 6 
#
# 1 0.017762 -0.000940 -0.001622 0.000000 0.002691 0.000000
# 2 -0.000940 0.027988 -0.002624 0.000000 0.000198 0.000000
# 3 -0.001622 -0.002624 0.007836 0.000000 -0.001229 0.000000
# 4 0.000000 0.000000 0.000000 0.056321 0.000000 -0.012598
# 5 0.002691 0.000198 -0.001229 0.000000 0.030559 0.000000
# 6 0.000000 0.000000 0.000000 -0.012598 0.000000 0.085363
#
#
# Mechanical properties :
#
#
# Convention : Reuss Voigt Hill
#
# Bulk Modulus (GPa) = 23.14072 31.97853 27.55962
# Shear Modulus (GPa) = 19.95152 26.22084 23.08618
#
# Velocity S-wave (km/s) = 3.17274 3.63723 3.41289
# Velocity P-wave (km/s) = 5.00970 5.81150 5.42543
#
# Compressibility (1/GPa) = 0.04321386
#
# Stress axis : x y z
#
# Youngs Moduli (GPa) = 56.29965 35.72904 127.60900
#
# Poissons Ratio (x) = 0.03360 0.20704
# Poissons Ratio (y) = 0.05295 0.33480
# Poissons Ratio (z) = 0.09134 0.09374
#
# Static dielectric constant tensor:
#      x y z
#    x 3.553180 0.000000 0.122070 
#    y 0.000000 3.050040 0.000000 
#    z 0.122070 0.000000 4.590730 
# 
# 
# High freq. dielectric constant tensor:
#      x y z
#    x 1.770900 0.000000 0.006590 
#    y 0.000000 1.712360 0.000000 
#    z 0.006590 0.000000 1.803920 
# 
# From -- ./inp_files/372979.got.cif
#   From: 2010.06.25/outbox.cif.g09.slc.cpg/sg12_187_cif.got.tgz:372979.got - 2010.06.28 00:19:55.
