data_PCOD8113680
_publ_section_title
;
Structure prediction by ZEFSAII (Michael W. Deem and Ramdas Pophale) SiO2 
 PCOD8113680
Probable space group: C 2/M
;
_chemical_formula_sum "Si O2"
_cell_formula_units_Z 44
_cell_length_a 12.553177
_cell_length_b 21.474143
_cell_length_c 12.389713
_cell_angle_alpha 90.000000
_cell_angle_beta 141.326393
_cell_angle_gamma 90.000000
_cell_volume 2087.033937
_symmetry_space_group_name_H-M "C 2/M"
_symmetry_group_IT_number 12
_symmetry_cell_setting 'monoclinic'
loop_
_space_group_symop_operation_xyz
x,y,z
-x,y,-z
-x,-y,-z
x,-y,z
1/2+x,1/2+y,z
1/2-x,1/2+y,-z
1/2-x,1/2-y,-z
1/2+x,1/2-y,z
loop_
_atom_site_type_symbol
_atom_site_label
_atom_site_fract_x
_atom_site_fract_y
_atom_site_fract_z
Si Si1 0.596698 0.933952 0.690682
Si Si2 0.736746 0.713470 0.878311
Si Si3 0.848419 0.183594 0.584861
Si Si4 0.196986 0.683066 0.686577
Si Si5 0.322295 0.930643 0.658837
Si Si6 0.500000 0.119513 0.000000
O O1 0.500000 0.929688 0.500000
O O2 0.717881 0.873799 0.789072
O O3 0.473007 0.928823 0.692901
O O4 0.696804 0.000000 0.775914
O O5 0.546344 0.688566 0.717954
O O6 0.775622 0.756841 0.805656
O O7 0.750000 0.750000 0.000000
O O8 0.875978 0.659352 0.980007
O O9 0.750000 0.250000 0.500000
O O10 0.811213 0.161523 0.676430
O O11 0.794442 0.129439 0.458421
O O12 0.000000 0.696737 0.500000
O O13 0.390187 0.923802 0.834229
O O14 0.233587 0.000000 0.581191
#
# Coordination Sequence:
#
# PCOD8113680 Si02
#       6
#     8   8   8   8   8   4
#     4   9  16  31  58  90 120 156 205 259 317 388
#     4  12  25  41  63  94 133 174 219 270 335 395
#     4  12  22  38  66  97 127 162 221 277 325 387
#     4  11  19  34  61  92 126 158 211 267 326 381
#     4  11  23  42  67  97 129 174 225 273 333 404
#     4  12  27  44  62  90 135 182 220 266 339 404
#
# _framework density 21.082550999999999
#
# number of rings (size 3 to 8) (size 9 to 14) (size 15 to 20)
#    0.000    0.909    5.455    4.636    0.000    0.000 
#    0.000    2.727    0.000    1.091    0.000    5.727 
#    0.000    0.000    0.000    0.000    0.000    0.000 
#
# Total GULP energy -272602.460498 kJ/mol
# GULP energy per Si atom -12391.020932 kJ/mol
# Density = 2.103457 g / cm^3
# Si number density = 21.082551 Si / 1000 Ang^3
#
#
#
# Elastic Constant Matrix: (Units=GPa)
#
#
# Indices 1 2 3 4 5 6 
#
# 1 82.0449 16.3788 27.9075 0.0000 -5.7267 0.0000
# 2 16.3788 144.5736 43.3958 0.0000 5.4538 0.0000
# 3 27.9075 43.3958 71.1066 0.0000 -9.2289 0.0000
# 4 0.0000 0.0000 0.0000 29.3476 0.0000 -18.3154
# 5 -5.7267 5.4538 -9.2289 0.0000 37.1393 0.0000
# 6 0.0000 0.0000 0.0000 -18.3154 0.0000 89.0631
#
#
#
# Elastic Compliance Matrix: (Units=1/GPa)
#
#
# Indices 1 2 3 4 5 6 
#
# 1 0.014091 0.000000 -0.005423 0.000000 0.000825 0.000000
# 2 0.000000 0.008721 -0.005671 0.000000 -0.002690 0.000000
# 3 -0.005423 -0.005671 0.020308 0.000000 0.005043 0.000000
# 4 0.000000 0.000000 0.000000 0.039091 0.000000 0.008039
# 5 0.000825 -0.002690 0.005043 0.000000 0.028701 0.000000
# 6 0.000000 0.000000 0.000000 0.008039 0.000000 0.012881
#
#
# Mechanical properties :
#
#
# Convention : Reuss Voigt Hill
#
# Bulk Modulus (GPa) = 47.77778 52.56547 50.17162
# Shear Modulus (GPa) = 32.68864 45.11286 38.90075
#
# Velocity S-wave (km/s) = 3.94192 4.63084 4.30020
# Velocity P-wave (km/s) = 6.59012 7.31985 6.96455
#
# Compressibility (1/GPa) = 0.02093023
#
# Stress axis : x y z
#
# Youngs Moduli (GPa) = 70.96870 114.66994 49.24235
#
# Poissons Ratio (x) = -0.00005 0.26706
# Poissons Ratio (y) = -0.00003 0.27928
# Poissons Ratio (z) = 0.38489 0.65035
#
# Static dielectric constant tensor:
#      x y z
#    x 3.997960 0.000000 -0.261200 
#    y 0.000000 4.637140 0.000000 
#    z -0.261200 0.000000 3.596950 
# 
# 
# High freq. dielectric constant tensor:
#      x y z
#    x 1.833350 0.000000 -0.026770 
#    y 0.000000 1.845730 0.000000 
#    z -0.026770 0.000000 1.789500 
# 
# From -- ./inp_files/136096.got.cif
#   From: 2010.06.25/outbox.cif.g09.slc.cpg/sg12_69_cif.got.tgz:136096.got - 2010.06.28 00:19:55.
