data_PCOD8113730
_publ_section_title
;
Structure prediction by ZEFSAII (Michael W. Deem and Ramdas Pophale) SiO2 
 PCOD8113730
Probable space group: C 2/M
;
_chemical_formula_sum "Si O2"
_cell_formula_units_Z 64
_cell_length_a 28.867685
_cell_length_b 14.514795
_cell_length_c 11.452508
_cell_angle_alpha 90.000000
_cell_angle_beta 139.683086
_cell_angle_gamma 90.000000
_cell_volume 3104.829432
_symmetry_space_group_name_H-M "C 2/M"
_symmetry_group_IT_number 12
_symmetry_cell_setting 'monoclinic'
loop_
_space_group_symop_operation_xyz
x,y,z
-x,y,-z
-x,-y,-z
x,-y,z
1/2+x,1/2+y,z
1/2-x,1/2+y,-z
1/2-x,1/2-y,-z
1/2+x,1/2-y,z
loop_
_atom_site_type_symbol
_atom_site_label
_atom_site_fract_x
_atom_site_fract_y
_atom_site_fract_z
Si Si1 0.171717 0.101111 0.950098
Si Si2 0.418209 0.269112 0.363218
Si Si3 0.165914 0.600920 0.352255
Si Si4 0.721000 0.141074 0.213024
Si Si5 0.699166 0.339744 0.247500
Si Si6 0.679171 0.105862 0.876337
Si Si7 0.116351 0.895927 0.484316
Si Si8 0.919270 0.220930 0.805272
O O1 0.110429 0.174912 0.804216
O O2 0.149712 0.000000 0.860811
O O3 0.182474 0.091704 0.109597
O O4 0.243187 0.134360 0.022075
O O5 0.500000 0.244743 0.500000
O O6 0.377740 0.171572 0.297525
O O7 0.407851 0.332846 0.455385
O O8 0.137542 0.500000 0.336822
O O9 0.173733 0.600873 0.227471
O O10 0.244739 0.616823 0.555645
O O11 0.111391 0.679037 0.292386
O O12 0.733509 0.249179 0.255870
O O13 0.798221 0.094226 0.355979
O O14 0.676831 0.120728 0.010840
O O15 0.626236 0.318187 0.174791
O O16 0.660997 0.000000 0.809365
O O17 0.084214 0.851090 0.306334
O O18 0.085428 0.000000 0.437499
O O19 0.000000 0.234593 0.000000
#
# Coordination Sequence:
#
# PCOD8113730 Si02
#       8
#     8   8   8   8   8   8   8   8
#     4  11  23  39  64  96 126 162 210 265 319 369
#     4  12  27  43  62  92 135 168 205 256 316 382
#     4  11  22  39  67  97 128 165 211 265 318 373
#     4  11  19  39  67  95 122 161 215 272 311 363
#     4  11  21  40  64  94 128 164 208 268 320 362
#     4  11  23  42  70  96 123 165 216 264 313 370
#     4  12  24  42  67  93 124 168 215 259 313 378
#     4  11  26  43  62  93 132 170 212 254 315 377
#
# _framework density 20.613049
#
# number of rings (size 3 to 8) (size 9 to 14) (size 15 to 20)
#    0.000    0.750    5.000    3.750    1.750    2.250 
#    0.000    0.000    0.000    0.000    0.000    0.000 
#    0.000    0.000    0.000    0.000    0.000    0.000 
#
# Total GULP energy -396916.276885 kJ/mol
# GULP energy per Si atom -12403.633653 kJ/mol
# Density = 2.056613 g / cm^3
# Si number density = 20.613049 Si / 1000 Ang^3
#
#
#
# Elastic Constant Matrix: (Units=GPa)
#
#
# Indices 1 2 3 4 5 6 
#
# 1 61.5001 30.2631 48.4943 0.0000 -16.1310 0.0000
# 2 30.2631 137.3273 44.1946 0.0000 4.0135 0.0000
# 3 48.4943 44.1946 91.7650 0.0000 12.5307 0.0000
# 4 0.0000 0.0000 0.0000 16.1001 0.0000 -7.6509
# 5 -16.1310 4.0135 12.5307 0.0000 31.5911 0.0000
# 6 0.0000 0.0000 0.0000 -7.6509 0.0000 8.7956
#
#
#
# Elastic Compliance Matrix: (Units=1/GPa)
#
#
# Indices 1 2 3 4 5 6 
#
# 1 0.054650 -0.002531 -0.033321 0.000000 0.041444 0.000000
# 2 -0.002531 0.008745 -0.002691 0.000000 -0.001336 0.000000
# 3 -0.033321 -0.002691 0.033916 0.000000 -0.030125 0.000000
# 4 0.000000 0.000000 0.000000 0.105877 0.000000 0.092098
# 5 0.041444 -0.001336 -0.030125 0.000000 0.064936 0.000000
# 6 0.000000 0.000000 0.000000 0.092098 0.000000 0.193806
#
#
# Mechanical properties :
#
#
# Convention : Reuss Voigt Hill
#
# Bulk Modulus (GPa) = 49.44578 59.61070 54.52824
# Shear Modulus (GPa) = 9.16156 22.47339 15.81747
#
# Velocity S-wave (km/s) = 2.11050 3.30548 2.77312
# Velocity P-wave (km/s) = 5.47527 6.59924 6.06335
#
# Compressibility (1/GPa) = 0.02022417
#
# Stress axis : x y z
#
# Youngs Moduli (GPa) = 18.29812 114.35211 29.48454
#
# Poissons Ratio (x) = 0.28947 0.98245
# Poissons Ratio (y) = 0.04632 0.07936
# Poissons Ratio (z) = 0.60971 0.30777
#
# Static dielectric constant tensor:
#      x y z
#    x 3.649810 0.000000 -0.210160 
#    y 0.000000 3.995610 0.000000 
#    z -0.210160 0.000000 3.622870 
# 
# 
# High freq. dielectric constant tensor:
#      x y z
#    x 1.797410 0.000000 -0.020220 
#    y 0.000000 1.823990 0.000000 
#    z -0.020220 0.000000 1.791490 
# 
# From -- ./inp_files/183820.got.cif
#   From: 2010.06.25/outbox.cif.g09.slc.cpg/sg12_92_cif.got.tgz:183820.got - 2010.06.28 00:19:55.
