data_PCOD8113383
_publ_section_title
;
Structure prediction by ZEFSAII (Michael W. Deem and Ramdas Pophale) SiO2 
 PCOD8113383
Probable space group: C 2/M
;
_chemical_formula_sum "Si O2"
_cell_formula_units_Z 64
_cell_length_a 30.799900
_cell_length_b 8.495346
_cell_length_c 14.127195
_cell_angle_alpha 90.000000
_cell_angle_beta 123.535149
_cell_angle_gamma 90.000000
_cell_volume 3081.175582
_symmetry_space_group_name_H-M "C 2/M"
_symmetry_group_IT_number 12
_symmetry_cell_setting 'monoclinic'
loop_
_space_group_symop_operation_xyz
x,y,z
-x,y,-z
-x,-y,-z
x,-y,z
1/2+x,1/2+y,z
1/2-x,1/2+y,-z
1/2-x,1/2-y,-z
1/2+x,1/2-y,z
loop_
_atom_site_type_symbol
_atom_site_label
_atom_site_fract_x
_atom_site_fract_y
_atom_site_fract_z
Si Si1 0.159240 0.182371 0.128661
Si Si2 0.951046 0.817037 0.502777
Si Si3 0.295180 0.183850 0.489187
Si Si4 0.474584 0.182925 0.728904
Si Si5 0.905976 0.315761 0.116428
Si Si6 0.727996 0.317312 0.740278
Si Si7 0.882850 0.817056 0.718570
Si Si8 0.635897 0.817580 0.730144
O O1 0.211248 0.281496 0.175751
O O2 0.132052 0.234309 0.193591
O O3 0.174417 0.000000 0.149463
O O4 0.119021 0.215396 0.996980
O O5 0.949875 0.717709 0.597135
O O6 0.898543 0.785976 0.382138
O O7 0.000000 0.759831 0.500000
O O8 0.955312 0.000000 0.534032
O O9 0.250000 0.250000 0.500000
O O10 0.293747 0.271859 0.388219
O O11 0.350217 0.214347 0.604744
O O12 0.286306 0.000000 0.460966
O O13 0.534305 0.238335 0.802604
O O14 0.443376 0.277791 0.772532
O O15 0.469769 0.000000 0.745705
O O16 0.901048 0.500000 0.087595
O O17 0.876349 0.271131 0.177023
O O18 0.718834 0.500000 0.747060
O O19 0.696197 0.221213 0.781816
O O20 0.871251 0.000000 0.687641
O O21 0.623417 0.000000 0.697331
#
# Coordination Sequence:
#
# PCOD8113383 Si02
#       8
#     8   8   8   8   8   8   8   8
#     4  11  25  44  67  91 123 165 212 264 314 371
#     4  11  22  37  62  95 130 166 205 255 313 375
#     4  12  23  39  65  96 129 168 206 254 314 375
#     4  11  23  41  65  94 127 167 210 257 312 374
#     4  10  24  44  66  91 123 165 213 263 314 369
#     4  12  25  42  66  95 129 166 207 259 313 375
#     4  11  24  42  64  94 129 166 208 258 313 374
#     4  11  23  42  66  93 128 167 209 258 311 376
#
# _framework density 20.771293
#
# number of rings (size 3 to 8) (size 9 to 14) (size 15 to 20)
#    0.000    0.875    2.500    4.875    0.000    5.000 
#    0.000    2.500    0.000    0.000    0.000    0.000 
#    0.000    0.000    0.000    0.000    0.000    0.000 
#
# Total GULP energy -397069.312294 kJ/mol
# GULP energy per Si atom -12408.416009 kJ/mol
# Density = 2.072402 g / cm^3
# Si number density = 20.771293 Si / 1000 Ang^3
#
#
#
# Elastic Constant Matrix: (Units=GPa)
#
#
# Indices 1 2 3 4 5 6 
#
# 1 149.7519 20.9871 35.9716 0.0000 6.7297 0.0000
# 2 20.9871 57.1753 18.4876 0.0000 4.1300 0.0000
# 3 35.9716 18.4876 99.4794 0.0000 -6.4684 0.0000
# 4 0.0000 0.0000 0.0000 33.6837 0.0000 2.2465
# 5 6.7297 4.1300 -6.4684 0.0000 9.4459 0.0000
# 6 0.0000 0.0000 0.0000 2.2465 0.0000 36.1556
#
#
#
# Elastic Compliance Matrix: (Units=1/GPa)
#
#
# Indices 1 2 3 4 5 6 
#
# 1 0.007933 -0.001403 -0.003072 0.000000 -0.007143 0.000000
# 2 -0.001403 0.020015 -0.003890 0.000000 -0.010416 0.000000
# 3 -0.003072 -0.003890 0.012705 0.000000 0.012590 0.000000
# 4 0.000000 0.000000 0.000000 0.029811 0.000000 -0.001852
# 5 -0.007143 -0.010416 0.012590 0.000000 0.124131 0.000000
# 6 0.000000 0.000000 0.000000 -0.001852 0.000000 0.027773
#
#
# Mechanical properties :
#
#
# Convention : Reuss Voigt Hill
#
# Bulk Modulus (GPa) = 41.79976 50.81103 46.30539
# Shear Modulus (GPa) = 20.23695 31.25439 25.74567
#
# Velocity S-wave (km/s) = 3.12472 3.88324 3.52445
# Velocity P-wave (km/s) = 5.76073 6.67992 6.23728
#
# Compressibility (1/GPa) = 0.02392358
#
# Stress axis : x y z
#
# Youngs Moduli (GPa) = 126.05095 49.96246 78.71030
#
# Poissons Ratio (x) = 0.07008 0.24183
# Poissons Ratio (y) = 0.17680 0.30616
# Poissons Ratio (z) = 0.38728 0.19434
#
# Static dielectric constant tensor:
#      x y z
#    x 4.018560 0.000000 0.001050 
#    y 0.000000 3.698390 0.000000 
#    z 0.001050 0.000000 3.616170 
# 
# 
# High freq. dielectric constant tensor:
#      x y z
#    x 1.833780 0.000000 0.001730 
#    y 0.000000 1.818750 0.000000 
#    z 0.001730 0.000000 1.803190 
# 
# From -- ./inp_files/249945.got.cif
#   From: 2010.06.25/outbox.cif.g09.slc.cpg/sg12_125_cif.got.tgz:249945.got - 2010.06.28 00:19:55.
