data_PCOD8113619
_publ_section_title
;
Structure prediction by ZEFSAII (Michael W. Deem and Ramdas Pophale) SiO2 
 PCOD8113619
Probable space group: C 2/M
;
_chemical_formula_sum "Si O2"
_cell_formula_units_Z 56
_cell_length_a 16.062210
_cell_length_b 25.652533
_cell_length_c 9.472992
_cell_angle_alpha 90.000000
_cell_angle_beta 125.237515
_cell_angle_gamma 90.000000
_cell_volume 3188.020213
_symmetry_space_group_name_H-M "C 2/M"
_symmetry_group_IT_number 12
_symmetry_cell_setting 'monoclinic'
loop_
_space_group_symop_operation_xyz
x,y,z
-x,y,-z
-x,-y,-z
x,-y,z
1/2+x,1/2+y,z
1/2-x,1/2+y,-z
1/2-x,1/2-y,-z
1/2+x,1/2-y,z
loop_
_atom_site_type_symbol
_atom_site_label
_atom_site_fract_x
_atom_site_fract_y
_atom_site_fract_z
Si Si1 0.858361 0.388352 0.619213
Si Si2 0.695090 0.170851 0.160739
Si Si3 0.133867 0.500000 0.485087
Si Si4 0.597722 0.110839 0.820865
Si Si5 0.697935 0.171349 0.692784
Si Si6 0.393166 0.000000 0.229304
Si Si7 0.099075 0.221912 0.681709
Si Si8 0.601247 0.279258 0.019315
O O1 0.831131 0.373437 0.752036
O O2 0.825147 0.448144 0.555099
O O3 0.796772 0.345966 0.465301
O O4 0.978129 0.380505 0.716279
O O5 0.815819 0.178856 0.268529
O O6 0.637091 0.225512 0.128813
O O7 0.657952 0.150710 0.975099
O O8 0.169164 0.500000 0.683564
O O9 0.013009 0.500000 0.373832
O O10 0.635035 0.123598 0.699644
O O11 0.631779 0.051350 0.886670
O O12 0.632875 0.223320 0.650073
O O13 0.811153 0.177833 0.867528
O O14 0.000000 0.203022 0.500000
O O15 0.081298 0.227118 0.832591
O O16 0.500000 0.298366 0.000000
#
# Coordination Sequence:
#
# PCOD8113619 Si02
#       8
#     8   8   4   8   8   4   8   8
#     4  11  22  32  57  82 113 147 179 220 268 329
#     4  11  23  37  53  80 115 145 182 218 270 325
#     4   9  18  33  47  83 112 137 180 227 264 315
#     4  11  18  36  53  81 109 149 178 219 272 315
#     4  11  21  35  56  79 110 146 183 213 269 325
#     4   9  18  29  55  77 108 143 185 220 264 325
#     4  11  23  38  56  79 111 144 183 226 267 317
#     4  11  23  38  55  80 113 140 182 233 262 313
#
# _framework density 17.565759
#
# number of rings (size 3 to 8) (size 9 to 14) (size 15 to 20)
#    0.000    1.286    4.286    3.429    4.000    1.714 
#    0.000    2.143    0.000    0.000    0.000    6.000 
#    0.000    0.000    0.000    0.000    0.000    0.000 
#
# Total GULP energy -347156.719507 kJ/mol
# GULP energy per Si atom -12398.454268 kJ/mol
# Density = 1.752578 g / cm^3
# Si number density = 17.565759 Si / 1000 Ang^3
#
#
#
# Elastic Constant Matrix: (Units=GPa)
#
#
# Indices 1 2 3 4 5 6 
#
# 1 82.4405 28.5817 27.9063 0.0000 4.3236 0.0000
# 2 28.5817 84.0365 24.2359 0.0000 5.4906 0.0000
# 3 27.9063 24.2359 81.3989 0.0000 11.3749 0.0000
# 4 0.0000 0.0000 0.0000 5.6806 0.0000 8.9114
# 5 4.3236 5.4906 11.3749 0.0000 28.6141 0.0000
# 6 0.0000 0.0000 0.0000 8.9114 0.0000 10.0467
#
#
#
# Elastic Compliance Matrix: (Units=1/GPa)
#
#
# Indices 1 2 3 4 5 6 
#
# 1 0.014810 -0.003910 -0.003923 0.000000 0.000072 0.000000
# 2 -0.003910 0.014078 -0.002706 0.000000 -0.001035 0.000000
# 3 -0.003923 -0.002706 0.015121 0.000000 -0.004899 0.000000
# 4 0.000000 0.000000 0.000000 -0.449682 0.000000 0.398867
# 5 0.000072 -0.001035 -0.004899 0.000000 0.037083 0.000000
# 6 0.000000 0.000000 0.000000 0.398867 0.000000 -0.254260
#
#
# Mechanical properties :
#
#
# Convention : Reuss Voigt Hill
#
# Bulk Modulus (GPa) = 43.61394 45.48042 44.54718
# Shear Modulus (GPa) = -8.41569 20.01176 5.79803
#
# Velocity S-wave (km/s) = -2.19120 3.37894 1.81877
# Velocity P-wave (km/s) = 4.29896 6.41644 5.46131
#
# Compressibility (1/GPa) = 0.02292845
#
# Stress axis : x y z
#
# Youngs Moduli (GPa) = 67.52262 71.03479 66.13529
#
# Poissons Ratio (x) = 0.27777 0.25946
# Poissons Ratio (y) = 0.26403 0.17898
# Poissons Ratio (z) = 0.26490 0.19224
#
# Static dielectric constant tensor:
#      x y z
#    x 3.139530 0.000000 -0.043060 
#    y 0.000000 3.352500 0.000000 
#    z -0.043060 0.000000 3.241320 
# 
# 
# High freq. dielectric constant tensor:
#      x y z
#    x 1.662580 0.000000 -0.014640 
#    y 0.000000 1.671850 0.000000 
#    z -0.014640 0.000000 1.677500 
# 
# From -- ./inp_files/65817.got.cif
#   From: 2010.06.25/outbox.cif.g09.slc.cpg/sg12_33_cif.got.tgz:65817.got - 2010.06.28 00:19:55.
