data_PCOD8113048
_publ_section_title
;
Structure prediction by ZEFSAII (Michael W. Deem and Ramdas Pophale) SiO2 
 PCOD8113048
Probable space group: C 2/M
;
_chemical_formula_sum "Si O2"
_cell_formula_units_Z 56
_cell_length_a 8.977891
_cell_length_b 15.108439
_cell_length_c 21.644110
_cell_angle_alpha 90.000000
_cell_angle_beta 114.357256
_cell_angle_gamma 90.000000
_cell_volume 2674.533398
_symmetry_space_group_name_H-M "C 2/M"
_symmetry_group_IT_number 12
_symmetry_cell_setting 'monoclinic'
loop_
_space_group_symop_operation_xyz
x,y,z
-x,y,-z
-x,-y,-z
x,-y,z
1/2+x,1/2+y,z
1/2-x,1/2+y,-z
1/2-x,1/2-y,-z
1/2+x,1/2-y,z
loop_
_atom_site_type_symbol
_atom_site_label
_atom_site_fract_x
_atom_site_fract_y
_atom_site_fract_z
Si Si1 0.636345 0.748967 0.170356
Si Si2 0.355114 0.602697 0.929661
Si Si3 0.517265 0.746680 0.732510
Si Si4 0.303505 0.400443 0.633647
Si Si5 0.537144 0.900437 0.365788
Si Si6 0.677997 0.654278 0.500318
Si Si7 0.493245 0.100504 0.071002
O O1 0.635548 0.658647 0.131386
O O2 0.488644 0.748336 0.193864
O O3 0.623721 0.834665 0.124707
O O4 0.788318 0.756179 0.243964
O O5 0.372309 0.500000 0.913827
O O6 0.187775 0.622069 0.936557
O O7 0.500000 0.632165 0.000000
O O8 0.434108 0.660841 0.689693
O O9 0.444426 0.835058 0.689022
O O10 0.335997 0.500000 0.662169
O O11 0.331220 0.397704 0.565319
O O12 0.118169 0.371489 0.618854
O O13 0.701347 0.897873 0.433892
O O14 0.514760 0.000000 0.336510
O O15 0.500000 0.660561 0.500000
O O16 0.750000 0.750000 0.500000
O O17 0.544060 0.000000 0.095379
O O18 0.500000 0.118759 0.000000
#
# Coordination Sequence:
#
# PCOD8113048 Si02
#       7
#     8   8   8   8   8   8   8
#     4  12  25  42  67  94 132 173 218 261 323 385
#     4  10  23  43  68  96 128 169 216 265 320 383
#     4  12  26  43  64  97 130 176 218 265 319 386
#     4  11  25  46  69  97 132 172 220 271 330 391
#     4  11  25  46  70  96 131 175 219 270 332 390
#     4  12  25  42  71 100 131 169 219 278 330 382
#     4  10  23  43  67  97 130 166 213 270 323 376
#
# _framework density 20.938231999999999
#
# number of rings (size 3 to 8) (size 9 to 14) (size 15 to 20)
#    0.000    0.857    4.286    2.143    4.000    5.714 
#    0.000    0.000    0.000    0.000    0.000    0.000 
#    0.000    0.000    0.000    0.000    0.000    0.000 
#
# Total GULP energy -347320.745609 kJ/mol
# GULP energy per Si atom -12404.312343 kJ/mol
# Density = 2.089058 g / cm^3
# Si number density = 20.938232 Si / 1000 Ang^3
#
#
#
# Elastic Constant Matrix: (Units=GPa)
#
#
# Indices 1 2 3 4 5 6 
#
# 1 91.0009 37.3320 39.9269 0.0000 -8.0188 0.0000
# 2 37.3320 129.1092 64.0023 0.0000 -1.8731 0.0000
# 3 39.9269 64.0023 121.0573 0.0000 0.4322 0.0000
# 4 0.0000 0.0000 0.0000 8.8552 0.0000 1.6548
# 5 -8.0188 -1.8731 0.4322 0.0000 45.1301 0.0000
# 6 0.0000 0.0000 0.0000 1.6548 0.0000 29.2636
#
#
#
# Elastic Compliance Matrix: (Units=1/GPa)
#
#
# Indices 1 2 3 4 5 6 
#
# 1 0.013565 -0.002258 -0.003289 0.000000 0.002348 0.000000
# 2 -0.002258 0.010883 -0.005009 0.000000 0.000098 0.000000
# 3 -0.003289 -0.005009 0.011997 0.000000 -0.000907 0.000000
# 4 0.000000 0.000000 0.000000 0.114134 0.000000 -0.006454
# 5 0.002348 0.000098 -0.000907 0.000000 0.022588 0.000000
# 6 0.000000 0.000000 0.000000 -0.006454 0.000000 0.034537
#
#
# Mechanical properties :
#
#
# Convention : Reuss Voigt Hill
#
# Bulk Modulus (GPa) = 65.21932 69.29886 67.25909
# Shear Modulus (GPa) = 21.37423 29.97686 25.67554
#
# Velocity S-wave (km/s) = 3.19850 3.78786 3.50559
# Velocity P-wave (km/s) = 6.69751 7.23182 6.96978
#
# Compressibility (1/GPa) = 0.01533288
#
# Stress axis : x y z
#
# Youngs Moduli (GPa) = 73.71907 91.88651 83.35525
#
# Poissons Ratio (x) = 0.20748 0.27412
# Poissons Ratio (y) = 0.16646 0.41756
# Poissons Ratio (z) = 0.24243 0.46029
#
# Static dielectric constant tensor:
#      x y z
#    x 3.943250 0.000000 -0.015100 
#    y 0.000000 3.831570 0.000000 
#    z -0.015100 0.000000 3.731130 
# 
# 
# High freq. dielectric constant tensor:
#      x y z
#    x 1.831300 0.000000 0.000520 
#    y 0.000000 1.829340 0.000000 
#    z 0.000520 0.000000 1.821360 
# 
# From -- ./inp_files/300157.got.cif
#   From: 2010.06.25/outbox.cif.g09.slc.cpg/sg12_151_cif.got.tgz:300157.got - 2010.06.28 00:19:55.
