data_PCOD8113289
_publ_section_title
;
Structure prediction by ZEFSAII (Michael W. Deem and Ramdas Pophale) SiO2 
 PCOD8113289
Probable space group: C 2/M
;
_chemical_formula_sum "Si O2"
_cell_formula_units_Z 20
_cell_length_a 11.425728
_cell_length_b 11.188869
_cell_length_c 15.551291
_cell_angle_alpha 90.000000
_cell_angle_beta 25.915210
_cell_angle_gamma 90.000000
_cell_volume 868.876949
_symmetry_space_group_name_H-M "C 2/M"
_symmetry_group_IT_number 12
_symmetry_cell_setting 'monoclinic'
loop_
_space_group_symop_operation_xyz
x,y,z
-x,y,-z
-x,-y,-z
x,-y,z
1/2+x,1/2+y,z
1/2-x,1/2+y,-z
1/2-x,1/2-y,-z
1/2+x,1/2-y,z
loop_
_atom_site_type_symbol
_atom_site_label
_atom_site_fract_x
_atom_site_fract_y
_atom_site_fract_z
Si Si1 0.549335 0.133796 0.372844
Si Si2 0.315930 0.500000 0.493139
Si Si3 0.907396 0.500000 0.175148
Si Si4 0.500000 0.795323 0.000000
O O1 0.500000 0.192159 0.500000
O O2 0.267811 0.118514 0.506379
O O3 0.744148 0.214831 0.188293
O O4 0.676318 0.000000 0.301193
O O5 0.623299 0.500000 0.312617
O O6 0.124170 0.500000 0.703067
O O7 0.062475 0.380893 0.041155
#
# Coordination Sequence:
#
# PCOD8113289 Si02
#       4
#     8   4   4   4
#     4   9  21  44  68  90 119 166 215 255 297 369
#     4   9  21  45  64  86 132 165 204 253 312 368
#     4  10  24  42  57 100 131 158 202 256 321 367
#     4  11  23  42  64  94 127 161 212 254 306 371
#
# _framework density 23.018217
#
# number of rings (size 3 to 8) (size 9 to 14) (size 15 to 20)
#    1.200    1.200    0.000    0.600    5.600    3.200 
#   14.400    0.000    0.000    0.000    0.000    0.000 
#    0.000    0.000    0.000    0.000    0.000    0.000 
#
# Total GULP energy -123895.900115 kJ/mol
# GULP energy per Si atom -12389.590011 kJ/mol
# Density = 2.296583 g / cm^3
# Si number density = 23.018217 Si / 1000 Ang^3
#
#
#
# Elastic Constant Matrix: (Units=GPa)
#
#
# Indices 1 2 3 4 5 6 
#
# 1 119.2048 9.0397 46.4719 -0.1066 20.5321 0.0080
# 2 9.0397 93.4130 47.4490 -0.0530 -2.2110 0.0037
# 3 46.4719 47.4490 122.2661 -0.0840 20.3220 0.0178
# 4 -0.1066 -0.0530 -0.0840 4.1719 0.0796 4.8453
# 5 20.5321 -2.2110 20.3220 0.0796 35.1392 -0.0043
# 6 0.0080 0.0037 0.0178 4.8453 -0.0043 -7.9480
#
#
#
# Elastic Compliance Matrix: (Units=1/GPa)
#
#
# Indices 1 2 3 4 5 6 
#
# 1 0.010413 0.000714 -0.003574 0.000160 -0.003972 0.000103
# 2 0.000714 0.013979 -0.006387 -0.000001 0.004156 -0.000010
# 3 -0.003574 -0.006387 0.012984 0.000100 -0.005823 0.000086
# 4 0.000160 -0.000001 0.000100 0.140343 -0.000459 0.085558
# 5 -0.003972 0.004156 -0.005823 -0.000459 0.034409 -0.000314
# 6 0.000103 -0.000010 0.000086 0.085558 -0.000314 -0.073658
#
#
# Mechanical properties :
#
#
# Convention : Reuss Voigt Hill
#
# Bulk Modulus (GPa) = 52.96495 60.08946 56.52721
# Shear Modulus (GPa) = 30.62643 21.73417 26.18030
#
# Velocity S-wave (km/s) = 3.65160 3.07614 3.37615
# Velocity P-wave (km/s) = 6.39053 6.22726 6.30942
#
# Compressibility (1/GPa) = 0.01888041
#
# Stress axis : x y z
#
# Youngs Moduli (GPa) = 96.03719 71.53735 77.01776
#
# Poissons Ratio (x) = -0.05108 0.27530
# Poissons Ratio (y) = -0.06858 0.49192
# Poissons Ratio (z) = 0.34328 0.45691
#
# Static dielectric constant tensor:
#      x y z
#    x 3.867610 0.000010 0.365070 
#    y 0.000010 4.311990 0.000120 
#    z 0.365070 0.000120 4.018570 
# 
# 
# High freq. dielectric constant tensor:
#      x y z
#    x 1.883840 0.000000 0.027970 
#    y 0.000000 1.917560 0.000010 
#    z 0.027970 0.000010 1.907150 
# 
# From -- ./inp_files/43466.got.cif
#   From: 2010.06.25/outbox.cif.g09.slc.cpg/sg12_22_cif.got.tgz:43466.got - 2010.06.28 00:19:55.
