data_PCOD8113015
_publ_section_title
;
Structure prediction by ZEFSAII (Michael W. Deem and Ramdas Pophale) SiO2 
 PCOD8113015
Probable space group: C 2/M
;
_chemical_formula_sum "Si O2"
_cell_formula_units_Z 56
_cell_length_a 13.888038
_cell_length_b 17.424576
_cell_length_c 20.203396
_cell_angle_alpha 90.000000
_cell_angle_beta 148.427876
_cell_angle_gamma 90.000000
_cell_volume 2559.784779
_symmetry_space_group_name_H-M "C 2/M"
_symmetry_group_IT_number 12
_symmetry_cell_setting 'monoclinic'
loop_
_space_group_symop_operation_xyz
x,y,z
-x,y,-z
-x,-y,-z
x,-y,z
1/2+x,1/2+y,z
1/2-x,1/2+y,-z
1/2-x,1/2-y,-z
1/2+x,1/2-y,z
loop_
_atom_site_type_symbol
_atom_site_label
_atom_site_fract_x
_atom_site_fract_y
_atom_site_fract_z
Si Si1 0.191533 0.733200 0.857964
Si Si2 0.764155 0.500000 0.928820
Si Si3 0.179669 0.149436 0.955014
Si Si4 0.383758 0.643224 0.366278
Si Si5 0.282624 0.702049 0.767978
Si Si6 0.634815 0.313400 0.397087
Si Si7 0.195347 0.500000 0.198628
Si Si8 0.465582 0.084923 0.555655
O O1 0.282566 0.792948 0.963560
O O2 0.308972 0.729678 0.859481
O O3 0.986569 0.766450 0.727228
O O4 0.203146 0.652739 0.906840
O O5 0.980194 0.500000 0.062360
O O6 0.673501 0.569407 0.914915
O O7 0.709062 0.500000 0.818562
O O8 0.967497 0.168513 0.846955
O O9 0.500000 0.626509 0.500000
O O10 0.282396 0.725469 0.314364
O O11 0.513205 0.641732 0.378443
O O12 0.242171 0.574445 0.270057
O O13 0.121820 0.638183 0.679457
O O14 0.750000 0.250000 0.500000
O O15 0.765689 0.375947 0.440808
O O16 0.500000 0.072915 0.500000
O O17 0.464341 0.000000 0.589227
#
# Coordination Sequence:
#
# PCOD8113015 Si02
#       8
#     8   4   8   8   8   8   4   8
#     4  10  23  43  66 100 132 179 234 283 344 400
#     4  11  26  50  69 101 137 185 232 291 352 413
#     4  11  25  43  73 100 133 182 235 286 348 420
#     4  11  25  43  71 103 141 182 230 285 349 415
#     4  11  23  43  69 101 139 184 228 292 343 417
#     4  11  22  42  67  97 139 180 231 282 338 408
#     4  11  27  48  70 101 144 182 233 292 353 407
#     4  11  24  41  65 100 139 184 225 280 343 410
#
# _framework density 21.876839
#
# number of rings (size 3 to 8) (size 9 to 14) (size 15 to 20)
#    0.000    1.143    2.857    3.643    8.000    0.000 
#    2.571    0.714    0.000    0.000    0.000    0.000 
#    0.000    0.000    0.000    0.000    0.000    0.000 
#
# Total GULP energy -347033.131556 kJ/mol
# GULP energy per Si atom -12394.040413 kJ/mol
# Density = 2.182705 g / cm^3
# Si number density = 21.876839 Si / 1000 Ang^3
#
#
#
# Elastic Constant Matrix: (Units=GPa)
#
#
# Indices 1 2 3 4 5 6 
#
# 1 108.4962 41.8949 42.3302 -0.0006 2.6941 0.0005
# 2 41.8949 137.4023 47.4648 -0.0074 6.3867 0.0016
# 3 42.3302 47.4648 116.5206 -0.0187 -10.7477 0.0050
# 4 -0.0006 -0.0074 -0.0187 61.0130 -0.0039 0.6152
# 5 2.6941 6.3867 -10.7477 -0.0039 41.7844 0.0011
# 6 0.0005 0.0016 0.0050 0.6152 0.0011 37.7827
#
#
#
# Elastic Compliance Matrix: (Units=1/GPa)
#
#
# Indices 1 2 3 4 5 6 
#
# 1 0.011429 -0.002272 -0.003342 -0.000001 -0.001249 0.000000
# 2 -0.002272 0.009130 -0.003082 0.000000 -0.002042 0.000000
# 3 -0.003342 -0.003082 0.011385 0.000003 0.003615 -0.000001
# 4 -0.000001 0.000000 0.000003 0.016393 0.000002 -0.000267
# 5 -0.001249 -0.002042 0.003615 0.000002 0.025255 -0.000001
# 6 0.000000 0.000000 -0.000001 -0.000267 -0.000001 0.026471
#
#
# Mechanical properties :
#
#
# Convention : Reuss Voigt Hill
#
# Bulk Modulus (GPa) = 68.71711 69.53321 69.12516
# Shear Modulus (GPa) = 40.88092 43.49797 42.18945
#
# Velocity S-wave (km/s) = 4.32752 4.46389 4.39623
# Velocity P-wave (km/s) = 7.51325 7.64338 7.57860
#
# Compressibility (1/GPa) = 0.01455242
#
# Stress axis : x y z
#
# Youngs Moduli (GPa) = 87.49565 109.52464 87.83450
#
# Poissons Ratio (x) = 0.24889 0.29351
# Poissons Ratio (y) = 0.19883 0.27071
# Poissons Ratio (z) = 0.29237 0.33756
#
# Static dielectric constant tensor:
#      x y z
#    x 3.951030 -0.000010 -0.414500 
#    y -0.000010 4.167460 -0.000340 
#    z -0.414500 -0.000340 -3.640540 
# 
# 
# High freq. dielectric constant tensor:
#      x y z
#    x 1.867180 0.000000 -0.005770 
#    y 0.000000 1.855690 0.000000 
#    z -0.005770 0.000000 1.867190 
# 
# From -- ./inp_files/311775.got.cif
#   From: 2010.06.25/outbox.cif.g09.slc.cpg/sg12_156_cif.got.tgz:311775.got - 2010.06.28 00:19:55.
