data_PCOD8113561
_publ_section_title
;
Structure prediction by ZEFSAII (Michael W. Deem and Ramdas Pophale) SiO2 
 PCOD8113561
Probable space group: C 2/M
;
_chemical_formula_sum "Si O2"
_cell_formula_units_Z 64
_cell_length_a 8.474138
_cell_length_b 17.972516
_cell_length_c 23.582390
_cell_angle_alpha 90.000000
_cell_angle_beta 87.981985
_cell_angle_gamma 90.000000
_cell_volume 3589.407760
_symmetry_space_group_name_H-M "C 2/M"
_symmetry_group_IT_number 12
_symmetry_cell_setting 'monoclinic'
loop_
_space_group_symop_operation_xyz
x,y,z
-x,y,-z
-x,-y,-z
x,-y,z
1/2+x,1/2+y,z
1/2-x,1/2+y,-z
1/2-x,1/2-y,-z
1/2+x,1/2-y,z
loop_
_atom_site_type_symbol
_atom_site_label
_atom_site_fract_x
_atom_site_fract_y
_atom_site_fract_z
Si Si1 0.113663 0.300541 0.715527
Si Si2 0.868192 0.295716 0.038023
Si Si3 0.674759 0.586090 0.613667
Si Si4 0.350117 0.914352 0.729182
Si Si5 0.817604 0.192767 0.188871
Si Si6 0.604142 0.715569 0.115610
Si Si7 0.585303 0.302884 0.357461
Si Si8 0.645613 0.801117 0.461749
O O1 0.187722 0.266679 0.771658
O O2 0.239911 0.322424 0.665805
O O3 0.019143 0.375001 0.731612
O O4 0.000442 0.236630 0.693470
O O5 0.747566 0.335207 0.085271
O O6 0.981130 0.238802 0.069156
O O7 0.750000 0.250000 0.000000
O O8 0.000000 0.344850 0.000000
O O9 0.653929 0.500000 0.598467
O O10 0.780977 0.598471 0.667650
O O11 0.501756 0.620686 0.625346
O O12 0.757620 0.627275 0.560203
O O13 0.231064 0.880728 0.776762
O O14 0.374088 0.000000 0.743439
O O15 0.690069 0.211554 0.141451
O O16 0.995141 0.174545 0.163768
O O17 0.584745 0.247443 0.410230
O O18 0.500000 0.832145 0.500000
O O19 0.750000 0.750000 0.500000
#
# Coordination Sequence:
#
# PCOD8113561 Si02
#       8
#     8   8   8   8   8   8   8   8
#     4  12  19  34  60  79 105 144 183 215 261 335
#     4   8  14  26  40  67 114 148 172 225 283 311
#     4  11  24  41  58  83 111 138 178 227 273 324
#     4  11  23  37  54  80 113 144 178 226 274 322
#     4  11  17  30  50  79 104 141 179 222 264 327
#     4   9  17  24  46  77 103 143 185 221 264 322
#     4  12  20  37  59  82 102 140 183 214 260 338
#     4  12  22  37  62  84 101 136 177 223 270 327
#
# _framework density 17.83024
#
# number of rings (size 3 to 8) (size 9 to 14) (size 15 to 20)
#    0.000    1.250    7.500    0.000    0.000    0.750 
#    0.000    1.250    0.000    0.000    0.000    0.000 
#    0.000   63.000    0.000    0.000    0.000    0.000 
#
# Total GULP energy -396462.846097 kJ/mol
# GULP energy per Si atom -12389.463941 kJ/mol
# Density = 1.778966 g / cm^3
# Si number density = 17.830240 Si / 1000 Ang^3
#
#
#
# Elastic Constant Matrix: (Units=GPa)
#
#
# Indices 1 2 3 4 5 6 
#
# 1 122.2749 45.2856 49.2015 0.0000 -40.6021 0.0000
# 2 45.2856 103.0760 35.9287 0.0000 -15.1740 0.0000
# 3 49.2015 35.9287 85.3628 0.0000 -23.8465 0.0000
# 4 0.0000 0.0000 0.0000 6.5064 0.0000 -1.9032
# 5 -40.6021 -15.1740 -23.8465 0.0000 52.2816 0.0000
# 6 0.0000 0.0000 0.0000 -1.9032 0.0000 23.6716
#
#
#
# Elastic Compliance Matrix: (Units=1/GPa)
#
#
# Indices 1 2 3 4 5 6 
#
# 1 0.013738 -0.003389 -0.004339 0.000000 0.007706 0.000000
# 2 -0.003389 0.012281 -0.003387 0.000000 -0.000612 0.000000
# 3 -0.004339 -0.003387 0.016532 0.000000 0.003187 0.000000
# 4 0.000000 0.000000 0.000000 0.157397 0.000000 0.012655
# 5 0.007706 -0.000612 0.003187 0.000000 0.026388 0.000000
# 6 0.000000 0.000000 0.000000 0.012655 0.000000 0.043262
#
#
# Mechanical properties :
#
#
# Convention : Reuss Voigt Hill
#
# Bulk Modulus (GPa) = 49.20977 63.50505 56.35741
# Shear Modulus (GPa) = 16.74469 28.51178 22.62824
#
# Velocity S-wave (km/s) = 3.06783 4.00317 3.56630
# Velocity P-wave (km/s) = 6.34096 7.55387 6.97383
#
# Compressibility (1/GPa) = 0.02032117
#
# Stress axis : x y z
#
# Youngs Moduli (GPa) = 72.78829 81.42795 60.48977
#
# Poissons Ratio (x) = 0.27595 0.26249
# Poissons Ratio (y) = 0.24667 0.20486
# Poissons Ratio (z) = 0.31586 0.27577
#
# Static dielectric constant tensor:
#      x y z
#    x 3.863460 0.000000 -0.198470 
#    y 0.000000 2.841640 0.000000 
#    z -0.198470 0.000000 3.398970 
# 
# 
# High freq. dielectric constant tensor:
#      x y z
#    x 1.717900 0.000000 -0.011180 
#    y 0.000000 1.621960 0.000000 
#    z -0.011180 0.000000 1.711610 
# 
# From -- ./inp_files/333184.got.cif
#   From: 2010.06.25/outbox.cif.g09.slc.cpg/sg12_167_cif.got.tgz:333184.got - 2010.06.28 00:19:55.
