data_PCOD8113464
_publ_section_title
;
Structure prediction by ZEFSAII (Michael W. Deem and Ramdas Pophale) SiO2 
 PCOD8113464
Probable space group: C 2/M
;
_chemical_formula_sum "Si O2"
_cell_formula_units_Z 56
_cell_length_a 29.153956
_cell_length_b 18.195995
_cell_length_c 5.560045
_cell_angle_alpha 90.000000
_cell_angle_beta 60.059542
_cell_angle_gamma 90.000000
_cell_volume 2555.891999
_symmetry_space_group_name_H-M "C 2/M"
_symmetry_group_IT_number 12
_symmetry_cell_setting 'monoclinic'
loop_
_space_group_symop_operation_xyz
x,y,z
-x,y,-z
-x,-y,-z
x,-y,z
1/2+x,1/2+y,z
1/2-x,1/2+y,-z
1/2-x,1/2-y,-z
1/2+x,1/2-y,z
loop_
_atom_site_type_symbol
_atom_site_label
_atom_site_fract_x
_atom_site_fract_y
_atom_site_fract_z
Si Si1 0.097350 0.780697 0.020463
Si Si2 0.294090 0.289429 0.538758
Si Si3 0.846592 0.308733 0.736635
Si Si4 0.469293 0.583258 0.831522
Si Si5 0.278809 0.917056 0.222799
Si Si6 0.970158 0.649398 0.834637
Si Si7 0.375219 0.918823 0.288361
O O1 0.112688 0.743491 0.232070
O O2 0.081900 0.865879 0.069425
O O3 0.045743 0.734552 0.073586
O O4 0.148013 0.776534 0.719300
O O5 0.250000 0.250000 0.500000
O O6 0.299615 0.245943 0.773679
O O7 0.277559 0.375032 0.603686
O O8 0.883525 0.351700 0.450322
O O9 0.815943 0.373927 0.945218
O O10 0.500000 0.593254 0.500000
O O11 0.449039 0.500000 0.909923
O O12 0.500000 0.604376 0.000000
O O13 0.313164 0.918760 0.376723
O O14 0.266835 0.000000 0.164138
O O15 0.000000 0.638044 0.500000
O O16 0.915581 0.600949 0.963140
O O17 0.000000 0.621808 0.000000
O O18 0.388928 0.000000 0.355069
#
# Coordination Sequence:
#
# PCOD8113464 Si02
#       7
#     8   8   8   8   8   8   8
#     4  12  25  40  69 102 134 179 232 287 348 415
#     4  12  23  42  66  97 134 176 229 284 348 414
#     4  12  21  42  68  95 134 183 225 289 338 418
#     4  10  24  47  73 103 143 188 233 288 357 421
#     4  11  24  43  67  97 134 178 224 276 347 422
#     4  12  25  43  67 100 139 179 237 290 343 412
#     4  11  24  43  66  95 136 182 226 281 349 413
#
# _framework density 21.910157999999999
#
# number of rings (size 3 to 8) (size 9 to 14) (size 15 to 20)
#    0.000    0.571    5.714    2.571    2.000    1.143 
#    0.000    0.714    0.000    0.000    0.000    0.000 
#    0.000    0.000    0.000    0.000    0.000    0.000 
#
# Total GULP energy -346870.355372 kJ/mol
# GULP energy per Si atom -12388.226978 kJ/mol
# Density = 2.186029 g / cm^3
# Si number density = 21.910158 Si / 1000 Ang^3
#
#
#
# Elastic Constant Matrix: (Units=GPa)
#
#
# Indices 1 2 3 4 5 6 
#
# 1 76.5144 66.5672 39.7198 0.0000 7.0680 0.0000
# 2 66.5672 177.0423 43.9286 0.0000 4.3132 0.0000
# 3 39.7198 43.9286 99.7475 0.0000 3.5370 0.0000
# 4 0.0000 0.0000 0.0000 25.2183 0.0000 -5.5866
# 5 7.0680 4.3132 3.5370 0.0000 30.6149 0.0000
# 6 0.0000 0.0000 0.0000 -5.5866 0.0000 41.8290
#
#
#
# Elastic Compliance Matrix: (Units=1/GPa)
#
#
# Indices 1 2 3 4 5 6 
#
# 1 0.022387 -0.006905 -0.005748 0.000000 -0.003532 0.000000
# 2 -0.006905 0.008481 -0.001004 0.000000 0.000515 0.000000
# 3 -0.005748 -0.001004 0.012757 0.000000 -0.000005 0.000000
# 4 0.000000 0.000000 0.000000 0.040863 0.000000 0.005458
# 5 -0.003532 0.000515 -0.000005 0.000000 0.033407 0.000000
# 6 0.000000 0.000000 0.000000 0.005458 0.000000 0.024636
#
#
# Mechanical properties :
#
#
# Convention : Reuss Voigt Hill
#
# Bulk Modulus (GPa) = 61.31061 72.63729 66.97395
# Shear Modulus (GPa) = 28.52546 33.07167 30.79856
#
# Velocity S-wave (km/s) = 3.61214 3.88934 3.75330
# Velocity P-wave (km/s) = 6.74094 7.30709 7.02972
#
# Compressibility (1/GPa) = 0.01631039
#
# Stress axis : x y z
#
# Youngs Moduli (GPa) = 44.66839 117.90833 78.39094
#
# Poissons Ratio (x) = 0.81417 0.45062
# Poissons Ratio (y) = 0.30844 0.07868
# Poissons Ratio (z) = 0.25677 0.11835
#
# Static dielectric constant tensor:
#      x y z
#    x 4.112050 0.000000 -0.127890 
#    y 0.000000 4.292830 0.000000 
#    z -0.127890 0.000000 4.223090 
# 
# 
# High freq. dielectric constant tensor:
#      x y z
#    x 1.854100 0.000000 0.000490 
#    y 0.000000 1.871160 0.000000 
#    z 0.000490 0.000000 1.860570 
# 
# From -- ./inp_files/28823.got.cif
#   From: 2010.06.25/outbox.cif.g09.slc.cpg/sg12_15_cif.got.tgz:28823.got - 2010.06.28 00:19:55.
