data_PCOD8113161
_publ_section_title
;
Structure prediction by ZEFSAII (Michael W. Deem and Ramdas Pophale) SiO2 
 PCOD8113161
Probable space group: C 2/M
;
_chemical_formula_sum "Si O2"
_cell_formula_units_Z 24
_cell_length_a 24.667085
_cell_length_b 5.264119
_cell_length_c 23.954546
_cell_angle_alpha 90.000000
_cell_angle_beta 20.058488
_cell_angle_gamma 90.000000
_cell_volume 1066.839948
_symmetry_space_group_name_H-M "C 2/M"
_symmetry_group_IT_number 12
_symmetry_cell_setting 'monoclinic'
loop_
_space_group_symop_operation_xyz
x,y,z
-x,y,-z
-x,-y,-z
x,-y,z
1/2+x,1/2+y,z
1/2-x,1/2+y,-z
1/2-x,1/2-y,-z
1/2+x,1/2-y,z
loop_
_atom_site_type_symbol
_atom_site_label
_atom_site_fract_x
_atom_site_fract_y
_atom_site_fract_z
Si Si1 0.432939 0.500000 0.127208
Si Si2 0.118196 0.500000 0.482304
Si Si3 0.068633 0.500000 0.995803
Si Si4 0.346418 0.500000 0.891528
Si Si5 0.305414 0.500000 0.414954
Si Si6 0.081407 0.000000 0.309035
O O1 0.241364 0.500000 0.311325
O O2 0.501493 0.249913 0.092297
O O3 0.500000 0.500000 0.000000
O O4 0.231511 0.500000 0.425769
O O5 0.012229 0.749751 0.582311
O O6 0.257082 0.500000 0.812666
O O7 0.000000 0.500000 0.000000
O O8 0.505921 0.500000 0.773113
O O9 0.387726 0.500000 0.786464
O O10 0.250000 0.250000 0.000000
O O11 0.250000 0.250000 0.500000
#
# Coordination Sequence:
#
# PCOD8113161 Si02
#       6
#     4   4   4   4   4   4
#     4  10  23  45  68  97 127 169 225 273 339 389
#     4  12  24  43  69  99 133 182 216 275 333 392
#     4  10  23  45  67  94 131 169 219 280 331 390
#     4  12  26  41  64 101 137 176 220 271 322 390
#     4  12  23  44  64  96 143 172 221 268 326 400
#     4  12  25  44  66 101 136 173 228 268 329 403
#
# _framework density 22.496345000000002
#
# number of rings (size 3 to 8) (size 9 to 14) (size 15 to 20)
#    0.000    0.667    3.333    4.000    4.667    0.000 
#    0.000   20.000    0.000    0.000    0.000    0.000 
#    0.000    0.000    0.000    0.000    0.000    0.000 
#
# Total GULP energy -148803.232881 kJ/mol
# GULP energy per Si atom -12400.269407 kJ/mol
# Density = 2.244514 g / cm^3
# Si number density = 22.496345 Si / 1000 Ang^3
#
#
#
# Elastic Constant Matrix: (Units=GPa)
#
#
# Indices 1 2 3 4 5 6 
#
# 1 71.4012 18.1998 42.4246 0.1514 -24.3001 0.2391
# 2 18.1998 270.0448 116.8443 1.2151 -14.1467 1.1182
# 3 42.4246 116.8443 214.2558 0.9484 -23.8314 1.0654
# 4 0.1514 1.2151 0.9484 77.5771 -0.2320 14.6232
# 5 -24.3001 -14.1467 -23.8314 -0.2320 55.6661 -0.2242
# 6 0.2391 1.1182 1.0654 14.6232 -0.2242 45.1563
#
#
#
# Elastic Compliance Matrix: (Units=1/GPa)
#
#
# Indices 1 2 3 4 5 6 
#
# 1 0.017976 0.000467 -0.003075 0.000016 0.006650 -0.000006
# 2 0.000467 0.004860 -0.002711 -0.000034 0.000278 -0.000046
# 3 -0.003075 -0.002711 0.006856 -0.000020 0.000903 -0.000067
# 4 0.000016 -0.000034 -0.000020 0.013729 0.000029 -0.004445
# 5 0.006650 0.000278 0.000903 0.000029 0.021325 0.000033
# 6 -0.000006 -0.000046 -0.000067 -0.004445 0.000033 0.023588
#
#
# Mechanical properties :
#
#
# Convention : Reuss Voigt Hill
#
# Bulk Modulus (GPa) = 52.48301 101.18214 76.83258
# Shear Modulus (GPa) = 47.47346 60.89546 54.18446
#
# Velocity S-wave (km/s) = 4.59876 5.20844 4.91306
# Velocity P-wave (km/s) = 7.18180 9.01361 8.14934
#
# Compressibility (1/GPa) = 0.01905378
#
# Stress axis : x y z
#
# Youngs Moduli (GPa) = 55.62903 205.77350 145.86362
#
# Poissons Ratio (x) = -0.09612 0.44847
# Poissons Ratio (y) = -0.02599 0.39550
# Poissons Ratio (z) = 0.17104 0.55795
#
# Static dielectric constant tensor:
#      x y z
#    x 3.950000 0.009690 0.011580 
#    y 0.009690 11.711090 0.011230 
#    z 0.011580 0.011230 4.599370 
# 
# 
# High freq. dielectric constant tensor:
#      x y z
#    x 1.867670 -0.000010 -0.009350 
#    y -0.000010 1.925080 0.000040 
#    z -0.009350 0.000040 1.904690 
# 
# From -- ./inp_files/348205.got.cif
#   From: 2010.06.25/outbox.cif.g09.slc.cpg/sg12_175_cif.got.tgz:348205.got - 2010.06.28 00:19:55.
