data_PCOD8113063
_publ_section_title
;
Structure prediction by ZEFSAII (Michael W. Deem and Ramdas Pophale) SiO2 
 PCOD8113063
Probable space group: C 2/M
;
_chemical_formula_sum "Si O2"
_cell_formula_units_Z 56
_cell_length_a 12.079394
_cell_length_b 15.370650
_cell_length_c 13.908297
_cell_angle_alpha 90.000000
_cell_angle_beta 90.921623
_cell_angle_gamma 90.000000
_cell_volume 2581.993531
_symmetry_space_group_name_H-M "C 2/M"
_symmetry_group_IT_number 12
_symmetry_cell_setting 'monoclinic'
loop_
_space_group_symop_operation_xyz
x,y,z
-x,y,-z
-x,-y,-z
x,-y,z
1/2+x,1/2+y,z
1/2-x,1/2+y,-z
1/2-x,1/2-y,-z
1/2+x,1/2-y,z
loop_
_atom_site_type_symbol
_atom_site_label
_atom_site_fract_x
_atom_site_fract_y
_atom_site_fract_z
Si Si1 0.767040 0.258779 0.389009
Si Si2 0.450109 0.900304 0.395873
Si Si3 0.016387 0.648905 0.199160
Si Si4 0.723511 0.097407 0.093957
Si Si5 0.139801 0.101430 0.725366
Si Si6 0.093550 0.829645 0.246102
Si Si7 0.216885 0.398644 0.883046
O O1 0.750000 0.250000 0.500000
O O2 0.852198 0.335497 0.367514
O O3 0.810563 0.164743 0.354842
O O4 0.652227 0.288727 0.340233
O O5 0.500000 0.874675 0.500000
O O6 0.536636 0.887083 0.308919
O O7 0.407490 0.000000 0.397678
O O8 0.096948 0.596706 0.129337
O O9 0.044548 0.749685 0.185994
O O10 0.888979 0.641714 0.169342
O O11 0.806231 0.138453 0.174444
O O12 0.765457 0.000000 0.079954
O O13 0.732679 0.143747 0.989781
O O14 0.006731 0.107495 0.724328
O O15 0.172345 0.000000 0.705891
O O16 0.175482 0.882550 0.179194
O O17 0.193924 0.500000 0.892618
#
# Coordination Sequence:
#
# PCOD8113063 Si02
#       7
#     8   8   8   8   8   8   8
#     4  12  26  46  71  99 139 180 228 284 344 412
#     4  11  24  42  71 105 134 175 228 283 347 408
#     4  12  22  42  68 100 139 175 228 291 342 404
#     4  10  23  43  68  99 135 180 233 287 342 410
#     4  11  25  47  70 101 141 186 230 280 347 414
#     4  12  24  44  67 100 139 182 226 286 342 410
#     4  11  24  44  68  97 134 183 235 284 343 409
#
# _framework density 21.688669000000001
#
# number of rings (size 3 to 8) (size 9 to 14) (size 15 to 20)
#    0.000    0.714    4.286    3.000    0.000    3.429 
#    2.571    2.857    0.000    0.000    0.000    0.000 
#    0.000    0.000    0.000    0.000    0.000    0.000 
#
# Total GULP energy -347184.549279 kJ/mol
# GULP energy per Si atom -12399.448189 kJ/mol
# Density = 2.163930 g / cm^3
# Si number density = 21.688669 Si / 1000 Ang^3
#
#
#
# Elastic Constant Matrix: (Units=GPa)
#
#
# Indices 1 2 3 4 5 6 
#
# 1 108.4204 20.4568 49.1238 0.0000 8.6746 0.0000
# 2 20.4568 84.2363 20.4190 0.0000 17.8656 0.0000
# 3 49.1238 20.4190 162.8472 0.0000 -3.2844 0.0000
# 4 0.0000 0.0000 0.0000 25.2094 0.0000 -3.9580
# 5 8.6746 17.8656 -3.2844 0.0000 23.3694 0.0000
# 6 0.0000 0.0000 0.0000 -3.9580 0.0000 36.4794
#
#
#
# Elastic Compliance Matrix: (Units=1/GPa)
#
#
# Indices 1 2 3 4 5 6 
#
# 1 0.011246 -0.001122 -0.003328 0.000000 -0.003785 0.000000
# 2 -0.001122 0.014962 -0.001765 0.000000 -0.011270 0.000000
# 3 -0.003328 -0.001765 0.007439 0.000000 0.003630 0.000000
# 4 0.000000 0.000000 0.000000 0.040355 0.000000 0.004378
# 5 -0.003785 -0.011270 0.003630 0.000000 0.053322 0.000000
# 6 0.000000 0.000000 0.000000 0.004378 0.000000 0.027888
#
#
# Mechanical properties :
#
#
# Convention : Reuss Voigt Hill
#
# Bulk Modulus (GPa) = 47.13117 59.50035 53.31576
# Shear Modulus (GPa) = 28.61839 34.71193 31.66516
#
# Velocity S-wave (km/s) = 3.63645 4.00492 3.82512
# Velocity P-wave (km/s) = 6.27771 6.99137 6.64413
#
# Compressibility (1/GPa) = 0.02121738
#
# Stress axis : x y z
#
# Youngs Moduli (GPa) = 88.92313 66.83694 134.42376
#
# Poissons Ratio (x) = 0.07497 0.44736
# Poissons Ratio (y) = 0.09974 0.23725
# Poissons Ratio (z) = 0.29594 0.11796
#
# Static dielectric constant tensor:
#      x y z
#    x 4.053000 0.000000 -0.003990 
#    y 0.000000 4.037240 0.000000 
#    z -0.003990 0.000000 4.333640 
# 
# 
# High freq. dielectric constant tensor:
#      x y z
#    x 1.851660 0.000000 0.002830 
#    y 0.000000 1.856250 0.000000 
#    z 0.002830 0.000000 1.861110 
# 
# From -- ./inp_files/205015.got.cif
#   From: 2010.06.25/outbox.cif.g09.slc.cpg/sg12_103_cif.got.tgz:205015.got - 2010.06.28 00:19:55.
