data_PCOD8113562
_publ_section_title
;
Structure prediction by ZEFSAII (Michael W. Deem and Ramdas Pophale) SiO2 
 PCOD8113562
Probable space group: C 2/M
;
_chemical_formula_sum "Si O2"
_cell_formula_units_Z 56
_cell_length_a 19.647525
_cell_length_b 18.576035
_cell_length_c 25.079746
_cell_angle_alpha 90.000000
_cell_angle_beta 159.127089
_cell_angle_gamma 90.000000
_cell_volume 3261.334061
_symmetry_space_group_name_H-M "C 2/M"
_symmetry_group_IT_number 12
_symmetry_cell_setting 'monoclinic'
loop_
_space_group_symop_operation_xyz
x,y,z
-x,y,-z
-x,-y,-z
x,-y,z
1/2+x,1/2+y,z
1/2-x,1/2+y,-z
1/2-x,1/2-y,-z
1/2+x,1/2-y,z
loop_
_atom_site_type_symbol
_atom_site_label
_atom_site_fract_x
_atom_site_fract_y
_atom_site_fract_z
Si Si1 0.212186 0.189578 0.669913
Si Si2 0.277929 0.421773 0.847714
Si Si3 0.786595 0.797007 0.110123
Si Si4 0.051136 0.583739 0.902246
Si Si5 0.308873 0.580372 0.992161
Si Si6 0.520088 0.290747 0.182745
Si Si7 0.725800 0.266883 0.175485
O O1 0.343515 0.119736 0.756331
O O2 0.271344 0.257350 0.675338
O O3 0.221197 0.215442 0.737432
O O4 0.000000 0.165581 0.500000
O O5 0.183168 0.500000 0.761985
O O6 0.236874 0.405949 0.879795
O O7 0.202773 0.350005 0.762018
O O8 0.500000 0.430135 0.000000
O O9 0.979151 0.789503 0.216101
O O10 0.829904 0.765023 0.199583
O O11 0.707720 0.879330 0.056492
O O12 0.621451 0.756818 0.956676
O O13 0.034495 0.500000 0.904732
O O14 0.128553 0.596914 0.898608
O O15 0.384456 0.500000 0.055474
O O16 0.494184 0.628438 0.141852
O O17 0.500000 0.266868 0.000000
#
# Coordination Sequence:
#
# PCOD8113562 Si02
#       7
#     8   8   8   8   8   8   8
#     4  11  23  35  49  71 104 139 176 207 248 305
#     4   9  16  24  42  74 105 125 152 200 257 299
#     4   9  16  27  51  76  95 124 165 209 257 295
#     4   9  18  32  52  76 102 129 167 212 256 301
#     4   9  15  26  50  83 103 123 162 212 259 300
#     4   9  15  29  48  70 101 131 158 205 254 293
#     4  11  17  31  51  75 100 129 167 216 253 292
#
# _framework density 17.170887
#
# number of rings (size 3 to 8) (size 9 to 14) (size 15 to 20)
#    0.000    2.429    4.286    1.714    0.000    0.286 
#    0.000    2.143    0.000    1.714    0.000    0.000 
#    0.000    0.000    0.000    0.000    0.000    0.000 
#
# Total GULP energy -346889.536003 kJ/mol
# GULP energy per Si atom -12388.912000 kJ/mol
# Density = 1.713181 g / cm^3
# Si number density = 17.170887 Si / 1000 Ang^3
#
#
#
# Elastic Constant Matrix: (Units=GPa)
#
#
# Indices 1 2 3 4 5 6 
#
# 1 92.4238 40.0989 20.0412 -0.0575 3.7287 0.0067
# 2 40.0989 123.6430 21.7626 0.0186 1.8049 0.0217
# 3 20.0412 21.7626 32.7081 -0.3235 5.5655 0.0709
# 4 -0.0575 0.0186 -0.3235 10.8806 0.0015 1.9920
# 5 3.7287 1.8049 5.5655 0.0015 13.5537 0.0146
# 6 0.0067 0.0217 0.0709 1.9920 0.0146 31.1684
#
#
#
# Elastic Compliance Matrix: (Units=1/GPa)
#
#
# Indices 1 2 3 4 5 6 
#
# 1 0.013599 -0.003349 -0.005961 -0.000103 -0.000847 0.000020
# 2 -0.003349 0.010010 -0.004881 -0.000183 0.001593 0.000016
# 3 -0.005961 -0.004881 0.039883 0.001193 -0.014087 -0.000156
# 4 -0.000103 -0.000183 0.001193 0.093031 -0.000441 -0.005948
# 5 -0.000847 0.001593 -0.014087 -0.000441 0.079586 0.000022
# 6 0.000020 0.000016 -0.000156 -0.005948 0.000022 0.032464
#
#
# Mechanical properties :
#
#
# Convention : Reuss Voigt Hill
#
# Bulk Modulus (GPa) = 28.48223 45.84224 37.16224
# Shear Modulus (GPa) = 16.19908 22.24534 19.22221
#
# Velocity S-wave (km/s) = 3.07482 3.60325 3.34947
# Velocity P-wave (km/s) = 5.40644 6.63828 6.05377
#
# Compressibility (1/GPa) = 0.03510961
#
# Stress axis : x y z
#
# Youngs Moduli (GPa) = 73.53250 99.90265 25.07335
#
# Poissons Ratio (x) = 0.33455 0.14947
# Poissons Ratio (y) = 0.24624 0.12238
# Poissons Ratio (z) = 0.43836 0.48763
#
# Static dielectric constant tensor:
#      x y z
#    x 3.570030 -0.000130 0.186210 
#    y -0.000130 3.724390 -0.000250 
#    z 0.186210 -0.000250 2.589190 
# 
# 
# High freq. dielectric constant tensor:
#      x y z
#    x 1.679890 -0.000010 0.018420 
#    y -0.000010 1.681540 -0.000030 
#    z 0.018420 -0.000030 1.575050 
# 
# From -- ./inp_files/366741.got.cif
#   From: 2010.06.25/outbox.cif.g09.slc.cpg/sg12_184_cif.got.tgz:366741.got - 2010.06.28 00:19:55.
