data_PCOD8113961
_publ_section_title
;
Structure prediction by ZEFSAII (Michael W. Deem and Ramdas Pophale) SiO2 
 PCOD8113961
Probable space group: C 2/M
;
_chemical_formula_sum "Si O2"
_cell_formula_units_Z 56
_cell_length_a 14.281710
_cell_length_b 17.385573
_cell_length_c 17.675281
_cell_angle_alpha 90.000000
_cell_angle_beta 140.760238
_cell_angle_gamma 90.000000
_cell_volume 2776.144321
_symmetry_space_group_name_H-M "C 2/M"
_symmetry_group_IT_number 12
_symmetry_cell_setting 'monoclinic'
loop_
_space_group_symop_operation_xyz
x,y,z
-x,y,-z
-x,-y,-z
x,-y,z
1/2+x,1/2+y,z
1/2-x,1/2+y,-z
1/2-x,1/2-y,-z
1/2+x,1/2-y,z
loop_
_atom_site_type_symbol
_atom_site_label
_atom_site_fract_x
_atom_site_fract_y
_atom_site_fract_z
Si Si1 0.219214 0.686929 0.263952
Si Si2 0.066748 0.087709 0.680948
Si Si3 0.084119 0.089482 0.129005
Si Si4 0.093439 0.676951 0.860995
Si Si5 0.869174 0.228479 0.512509
Si Si6 0.629482 0.646201 0.882655
Si Si7 0.359876 0.820648 0.276272
O O1 0.294385 0.606447 0.287018
O O2 0.295820 0.723930 0.385177
O O3 0.245410 0.747023 0.210441
O O4 0.049394 0.669738 0.175475
O O5 0.115519 0.096827 0.798292
O O6 0.934568 0.145830 0.577700
O O7 0.015976 0.000000 0.634890
O O8 0.259890 0.108112 0.242085
O O9 0.013229 0.132854 0.155241
O O10 0.060413 0.000000 0.125886
O O11 0.000000 0.117245 0.000000
O O12 0.141440 0.763955 0.874241
O O13 0.076442 0.649548 0.764257
O O14 0.219048 0.624434 0.978941
O O15 0.750000 0.250000 0.500000
O O16 0.995089 0.294948 0.585762
#
# Coordination Sequence:
#
# PCOD8113961 Si02
#       7
#     8   8   8   8   8   8   8
#     4  11  22  40  64  92 124 159 208 264 310 375
#     4  11  24  42  62  91 129 171 204 251 326 386
#     4  11  23  38  58  86 124 169 206 252 317 376
#     4  11  21  36  64  95 118 160 209 259 311 359
#     4  11  22  41  67  93 121 159 216 271 311 363
#     4  11  21  38  61  92 127 157 210 261 300 383
#     4  11  20  38  61  88 120 159 205 259 311 369
#
# _framework density 20.171862000000001
#
# number of rings (size 3 to 8) (size 9 to 14) (size 15 to 20)
#    0.000    1.000    7.143    2.143    0.000    1.714 
#    0.000    3.571    0.000    1.714    0.000    0.000 
#    0.000    0.000    0.000    0.000    0.000    0.000 
#
# Total GULP energy -346992.406809 kJ/mol
# GULP energy per Si atom -12392.585957 kJ/mol
# Density = 2.012595 g / cm^3
# Si number density = 20.171862 Si / 1000 Ang^3
#
#
#
# Elastic Constant Matrix: (Units=GPa)
#
#
# Indices 1 2 3 4 5 6 
#
# 1 135.2810 5.4029 17.6784 0.0000 10.5493 0.0000
# 2 5.4029 49.6102 7.8136 0.0000 0.5312 0.0000
# 3 17.6784 7.8136 59.1920 0.0000 5.2294 0.0000
# 4 0.0000 0.0000 0.0000 21.6235 0.0000 1.3956
# 5 10.5493 0.5312 5.2294 0.0000 35.5810 0.0000
# 6 0.0000 0.0000 0.0000 1.3956 0.0000 18.4582
#
#
#
# Elastic Compliance Matrix: (Units=1/GPa)
#
#
# Indices 1 2 3 4 5 6 
#
# 1 0.007843 -0.000502 -0.002099 0.000000 -0.002009 0.000000
# 2 -0.000502 0.020618 -0.002591 0.000000 0.000222 0.000000
# 3 -0.002099 -0.002591 0.018039 0.000000 -0.001990 0.000000
# 4 0.000000 0.000000 0.000000 0.046473 0.000000 -0.003514
# 5 -0.002009 0.000222 -0.001990 0.000000 0.028990 0.000000
# 6 0.000000 0.000000 0.000000 -0.003514 0.000000 0.054442
#
#
# Mechanical properties :
#
#
# Convention : Reuss Voigt Hill
#
# Bulk Modulus (GPa) = 27.68896 33.98590 30.83743
# Shear Modulus (GPa) = 25.14753 29.34509 27.24631
#
# Velocity S-wave (km/s) = 3.53464 3.81826 3.67919
# Velocity P-wave (km/s) = 5.51494 6.02690 5.77660
#
# Compressibility (1/GPa) = 0.03611547
#
# Stress axis : x y z
#
# Youngs Moduli (GPa) = 127.50207 48.50232 55.43596
#
# Poissons Ratio (x) = 0.02435 0.11634
# Poissons Ratio (y) = 0.06402 0.14365
# Poissons Ratio (z) = 0.26758 0.12568
#
# Static dielectric constant tensor:
#      x y z
#    x 4.212900 0.000000 -0.125230 
#    y 0.000000 3.468270 0.000000 
#    z -0.125230 0.000000 3.751350 
# 
# 
# High freq. dielectric constant tensor:
#      x y z
#    x 1.814020 0.000000 -0.002810 
#    y 0.000000 1.752610 0.000000 
#    z -0.002810 0.000000 1.777870 
# 
# From -- ./inp_files/271465.got.cif
#   From: 2010.06.25/outbox.cif.g09.slc.cpg/sg12_136_cif.got.tgz:271465.got - 2010.06.28 00:19:55.
