data_PCOD8113483
_publ_section_title
;
Structure prediction by ZEFSAII (Michael W. Deem and Ramdas Pophale) SiO2 
 PCOD8113483
Probable space group: C 2/M
;
_chemical_formula_sum "Si O2"
_cell_formula_units_Z 52
_cell_length_a 12.963920
_cell_length_b 19.959772
_cell_length_c 11.950385
_cell_angle_alpha 90.000000
_cell_angle_beta 125.845798
_cell_angle_gamma 90.000000
_cell_volume 2506.560926
_symmetry_space_group_name_H-M "C 2/M"
_symmetry_group_IT_number 12
_symmetry_cell_setting 'monoclinic'
loop_
_space_group_symop_operation_xyz
x,y,z
-x,y,-z
-x,-y,-z
x,-y,z
1/2+x,1/2+y,z
1/2-x,1/2+y,-z
1/2-x,1/2-y,-z
1/2+x,1/2-y,z
loop_
_atom_site_type_symbol
_atom_site_label
_atom_site_fract_x
_atom_site_fract_y
_atom_site_fract_z
Si Si1 0.628799 0.576971 0.760172
Si Si2 0.744025 0.623155 0.064699
Si Si3 0.942450 0.191353 0.580898
Si Si4 0.647524 0.000000 0.729118
Si Si5 0.283338 0.116533 0.640404
Si Si6 0.846806 0.500000 0.521902
Si Si7 0.490337 0.205828 0.195555
Si Si8 0.500000 0.695011 0.000000
O O1 0.581941 0.500000 0.736038
O O2 0.506593 0.625171 0.676518
O O3 0.715920 0.586138 0.706564
O O4 0.708231 0.594573 0.920974
O O5 0.806526 0.565821 0.178345
O O6 0.622442 0.648834 0.056379
O O7 0.842870 0.684212 0.107896
O O8 0.793750 0.177827 0.464631
O O9 0.967486 0.258198 0.664918
O O10 0.000000 0.209268 0.500000
O O11 0.497177 0.000000 0.629263
O O12 0.700555 0.000000 0.636390
O O13 0.289870 0.063834 0.545979
O O14 0.422927 0.140397 0.767133
O O15 0.521412 0.257949 0.118791
#
# Coordination Sequence:
#
# PCOD8113483 Si02
#       8
#     8   8   8   4   8   4   8   4
#     4  11  23  44  70  99 136 174 232 289 333 398
#     4  12  26  47  70 101 138 179 229 282 341 408
#     4  10  25  41  65 100 134 180 223 277 342 402
#     4  11  26  46  69 101 142 181 225 282 345 402
#     4  11  24  43  70 101 133 181 231 280 341 403
#     4  11  24  45  66 105 139 183 225 280 341 409
#     4  12  25  45  69  98 138 176 229 280 336 411
#     4  12  28  43  70 101 138 184 224 280 352 402
#
# _framework density 20.745556000000001
#
# number of rings (size 3 to 8) (size 9 to 14) (size 15 to 20)
#    0.000    0.769    4.615    1.846    7.538    2.462 
#    0.000    1.538    0.000    0.000    0.000    0.000 
#    0.000    0.000    0.000    0.000    0.000    0.000 
#
# Total GULP energy -322456.335303 kJ/mol
# GULP energy per Si atom -12402.166742 kJ/mol
# Density = 2.069834 g / cm^3
# Si number density = 20.745556 Si / 1000 Ang^3
#
#
#
# Elastic Constant Matrix: (Units=GPa)
#
#
# Indices 1 2 3 4 5 6 
#
# 1 90.6260 21.9857 29.8711 0.0000 1.4383 0.0000
# 2 21.9857 71.9180 19.6955 0.0000 -11.8316 0.0000
# 3 29.8711 19.6955 109.9534 0.0000 -18.5604 0.0000
# 4 0.0000 0.0000 0.0000 68.9460 0.0000 14.5876
# 5 1.4383 -11.8316 -18.5604 0.0000 32.9040 0.0000
# 6 0.0000 0.0000 0.0000 14.5876 0.0000 99.1239
#
#
#
# Elastic Compliance Matrix: (Units=1/GPa)
#
#
# Indices 1 2 3 4 5 6 
#
# 1 0.013172 -0.003692 -0.003579 0.000000 -0.003922 0.000000
# 2 -0.003692 0.016196 -0.000981 0.000000 0.005431 0.000000
# 3 -0.003579 -0.000981 0.011284 0.000000 0.006169 0.000000
# 4 0.000000 0.000000 0.000000 0.014970 0.000000 -0.002203
# 5 -0.003922 0.005431 0.006169 0.000000 0.035996 0.000000
# 6 0.000000 0.000000 0.000000 -0.002203 0.000000 0.010413
#
#
# Mechanical properties :
#
#
# Convention : Reuss Voigt Hill
#
# Bulk Modulus (GPa) = 41.41258 46.17799 43.79529
# Shear Modulus (GPa) = 39.49953 53.59112 46.54532
#
# Velocity S-wave (km/s) = 4.36822 5.08809 4.74183
# Velocity P-wave (km/s) = 6.74146 7.53829 7.15098
#
# Compressibility (1/GPa) = 0.02414725
#
# Stress axis : x y z
#
# Youngs Moduli (GPa) = 75.91879 61.74511 88.61949
#
# Poissons Ratio (x) = 0.22795 0.31719
# Poissons Ratio (y) = 0.28028 0.08696
# Poissons Ratio (z) = 0.27173 0.06059
#
# Static dielectric constant tensor:
#      x y z
#    x 3.770190 0.000000 0.044410 
#    y 0.000000 3.810480 0.000000 
#    z 0.044410 0.000000 3.868790 
# 
# 
# High freq. dielectric constant tensor:
#      x y z
#    x 1.820210 0.000000 -0.003650 
#    y 0.000000 1.819460 0.000000 
#    z -0.003650 0.000000 1.827470 
# 
# From -- ./inp_files/134073.got.cif
#   From: 2010.06.25/outbox.cif.g09.slc.cpg/sg12_68_cif.got.tgz:134073.got - 2010.06.28 00:19:55.
