data_PCOD8113123
_publ_section_title
;
Structure prediction by ZEFSAII (Michael W. Deem and Ramdas Pophale) SiO2 
 PCOD8113123
Probable space group: C 2/M
;
_chemical_formula_sum "Si O2"
_cell_formula_units_Z 48
_cell_length_a 19.632418
_cell_length_b 26.932965
_cell_length_c 12.146530
_cell_angle_alpha 90.000000
_cell_angle_beta 159.110106
_cell_angle_gamma 90.000000
_cell_volume 2290.123504
_symmetry_space_group_name_H-M "C 2/M"
_symmetry_group_IT_number 12
_symmetry_cell_setting 'monoclinic'
loop_
_space_group_symop_operation_xyz
x,y,z
-x,y,-z
-x,-y,-z
x,-y,z
1/2+x,1/2+y,z
1/2-x,1/2+y,-z
1/2-x,1/2-y,-z
1/2+x,1/2-y,z
loop_
_atom_site_type_symbol
_atom_site_label
_atom_site_fract_x
_atom_site_fract_y
_atom_site_fract_z
Si Si1 0.207977 0.619480 0.281939
Si Si2 0.974386 0.055904 0.837236
Si Si3 0.201553 0.444015 0.841508
Si Si4 0.783084 0.735781 0.671600
Si Si5 0.289291 0.628852 0.164145
Si Si6 0.562346 0.215465 0.717043
O O1 0.344692 0.593176 0.574027
O O2 0.238705 0.678158 0.334683
O O3 0.236325 0.602291 0.198787
O O4 0.000000 0.602176 0.000000
O O5 0.887593 0.000000 0.706497
O O6 0.000000 0.075756 0.000000
O O7 0.179229 0.056270 0.090076
O O8 0.176566 0.500000 0.849353
O O9 0.000000 0.420810 0.500000
O O10 0.303157 0.412312 0.089994
O O11 0.750000 0.750000 0.500000
O O12 0.629383 0.762476 0.518285
O O13 0.000000 0.754813 0.000000
O O14 0.500000 0.653587 0.500000
O O15 0.127021 0.668350 0.886757
O O16 0.500000 0.200019 0.500000
O O17 0.750000 0.250000 0.000000
#
# Coordination Sequence:
#
# PCOD8113123 Si02
#       6
#     8   8   8   8   8   8
#     4  11  24  42  65  96 133 173 217 274 331 395
#     4  10  23  44  68  98 134 172 218 272 331 398
#     4  10  23  44  69  97 133 176 220 270 332 404
#     4  11  24  45  64  91 131 176 223 268 330 399
#     4  12  24  43  66  97 135 170 223 277 333 403
#     4  12  24  41  68  98 134 179 227 284 338 392
#
# _framework density 20.959568000000001
#
# number of rings (size 3 to 8) (size 9 to 14) (size 15 to 20)
#    0.000    1.000    1.667    6.000    2.333    2.000 
#    6.000    0.000    0.000    0.000    0.000    0.000 
#    0.000    0.000    0.000    0.000    0.000    0.000 
#
# Total GULP energy -297458.705584 kJ/mol
# GULP energy per Si atom -12394.112733 kJ/mol
# Density = 2.091186 g / cm^3
# Si number density = 20.959568 Si / 1000 Ang^3
#
#
#
# Elastic Constant Matrix: (Units=GPa)
#
#
# Indices 1 2 3 4 5 6 
#
# 1 163.4309 35.4429 72.1568 0.0000 -9.4788 0.0000
# 2 35.4429 49.8366 46.8696 0.0000 -0.0477 0.0000
# 3 72.1568 46.8696 165.1936 0.0001 -0.1751 0.0001
# 4 0.0000 0.0000 0.0001 29.1918 0.0000 -3.4836
# 5 -9.4788 -0.0477 -0.1751 0.0000 52.9476 0.0001
# 6 0.0000 0.0000 0.0001 -3.4836 0.0001 35.8462
#
#
#
# Elastic Compliance Matrix: (Units=1/GPa)
#
#
# Indices 1 2 3 4 5 6 
#
# 1 0.008057 -0.003301 -0.002581 0.000000 0.001431 0.000000
# 2 -0.003301 0.028721 -0.006707 0.000000 -0.000587 0.000000
# 3 -0.002581 -0.006707 0.009084 0.000000 -0.000438 0.000000
# 4 0.000000 0.000000 0.000000 0.034658 0.000000 0.003368
# 5 0.001431 -0.000587 -0.000438 0.000000 0.019141 0.000000
# 6 0.000000 0.000000 0.000000 0.003368 0.000000 0.028224
#
#
# Mechanical properties :
#
#
# Convention : Reuss Voigt Hill
#
# Bulk Modulus (GPa) = 48.35156 76.37775 62.36466
# Shear Modulus (GPa) = 31.25796 38.52992 34.89394
#
# Velocity S-wave (km/s) = 3.86598 4.29219 4.08465
# Velocity P-wave (km/s) = 6.56101 7.81559 7.21562
#
# Compressibility (1/GPa) = 0.02068186
#
# Stress axis : x y z
#
# Youngs Moduli (GPa) = 124.10934 34.81780 110.08801
#
# Poissons Ratio (x) = 0.11494 0.28417
# Poissons Ratio (y) = 0.40972 0.73841
# Poissons Ratio (z) = 0.32037 0.23354
#
# Static dielectric constant tensor:
#      x y z
#    x 3.996780 0.000000 -0.016980 
#    y 0.000000 3.794660 0.000000 
#    z -0.016980 0.000000 3.993510 
# 
# 
# High freq. dielectric constant tensor:
#      x y z
#    x 1.842160 0.000000 -0.000610 
#    y 0.000000 1.807580 0.000000 
#    z -0.000610 0.000000 1.839310 
# 
# From -- ./inp_files/170665.got.cif
#   From: 2010.06.25/outbox.cif.g09.slc.cpg/sg12_86_cif.got.tgz:170665.got - 2010.06.28 00:19:55.
