data_PCOD8113097
_publ_section_title
;
Structure prediction by ZEFSAII (Michael W. Deem and Ramdas Pophale) SiO2 
 PCOD8113097
Probable space group: C 2/M
;
_chemical_formula_sum "Si O2"
_cell_formula_units_Z 48
_cell_length_a 13.608204
_cell_length_b 13.662589
_cell_length_c 26.594013
_cell_angle_alpha 90.000000
_cell_angle_beta 149.845762
_cell_angle_gamma 90.000000
_cell_volume 2483.741355
_symmetry_space_group_name_H-M "C 2/M"
_symmetry_group_IT_number 12
_symmetry_cell_setting 'monoclinic'
loop_
_space_group_symop_operation_xyz
x,y,z
-x,y,-z
-x,-y,-z
x,-y,z
1/2+x,1/2+y,z
1/2-x,1/2+y,-z
1/2-x,1/2-y,-z
1/2+x,1/2-y,z
loop_
_atom_site_type_symbol
_atom_site_label
_atom_site_fract_x
_atom_site_fract_y
_atom_site_fract_z
Si Si1 0.709896 0.391040 0.100604
Si Si2 0.311203 0.613741 0.267997
Si Si3 0.287272 0.105889 0.922290
Si Si4 0.032466 0.757144 0.745339
Si Si5 0.867772 0.347439 0.063102
Si Si6 0.809050 0.888907 0.382215
O O1 0.684552 0.500000 0.109990
O O2 0.817309 0.333129 0.192562
O O3 0.827997 0.392015 0.100327
O O4 0.500000 0.341211 0.000000
O O5 0.312094 0.500000 0.252464
O O6 0.469426 0.674672 0.304884
O O7 0.372401 0.625665 0.352705
O O8 0.102187 0.662511 0.163415
O O9 0.111960 0.179480 0.828459
O O10 0.250824 0.000000 0.880175
O O11 0.500000 0.148187 0.000000
O O12 0.290019 0.085592 0.983296
O O13 0.825704 0.703676 0.662598
O O14 0.750000 0.250000 0.000000
O O15 0.000000 0.880937 0.500000
O O16 0.715700 0.000000 0.347245
#
# Coordination Sequence:
#
# PCOD8113097 Si02
#       6
#     8   8   8   8   8   8
#     4  11  22  34  50  78 118 160 198 241 289 343
#     4  11  22  38  62  89 117 156 201 246 298 359
#     4  11  21  33  53  84 121 159 197 236 281 347
#     4  12  21  35  60  89 118 152 203 248 293 353
#     4  12  20  34  54  81 120 163 205 238 286 346
#     4  10  23  44  67  89 115 152 201 256 312 365
#
# _framework density 19.325685
#
# number of rings (size 3 to 8) (size 9 to 14) (size 15 to 20)
#    0.000    0.833    5.000    4.000    0.000    0.667 
#    0.000    0.000    0.000    5.000    0.000    0.000 
#    0.000    0.000    0.000    0.000    0.000    0.000 
#
# Total GULP energy -297315.951929 kJ/mol
# GULP energy per Si atom -12388.164664 kJ/mol
# Density = 1.928170 g / cm^3
# Si number density = 19.325685 Si / 1000 Ang^3
#
#
#
# Elastic Constant Matrix: (Units=GPa)
#
#
# Indices 1 2 3 4 5 6 
#
# 1 84.9451 38.7197 31.5409 -0.0002 -10.9013 -0.0001
# 2 38.7197 119.9640 45.0005 -0.0005 0.6616 -0.0005
# 3 31.5409 45.0005 97.3143 0.0013 -15.5611 0.0003
# 4 -0.0002 -0.0005 0.0013 40.8258 -0.0002 13.4237
# 5 -10.9013 0.6616 -15.5611 -0.0002 27.3828 -0.0003
# 6 -0.0001 -0.0005 0.0003 13.4237 -0.0003 35.9595
#
#
#
# Elastic Compliance Matrix: (Units=1/GPa)
#
#
# Indices 1 2 3 4 5 6 
#
# 1 0.015069 -0.004050 -0.002240 0.000000 0.004824 0.000000
# 2 -0.004050 0.011433 -0.004703 0.000000 -0.004561 0.000000
# 3 -0.002240 -0.004703 0.014357 -0.000001 0.007381 0.000000
# 4 0.000000 0.000000 -0.000001 0.027921 0.000000 -0.010423
# 5 0.004824 -0.004561 0.007381 0.000000 0.042744 0.000000
# 6 0.000000 0.000000 0.000000 -0.010423 0.000000 0.031700
#
#
# Mechanical properties :
#
#
# Convention : Reuss Voigt Hill
#
# Bulk Modulus (GPa) = 52.98812 59.19396 56.09104
# Shear Modulus (GPa) = 29.15414 33.29779 31.22596
#
# Velocity S-wave (km/s) = 3.88824 4.15538 4.02403
# Velocity P-wave (km/s) = 6.90188 7.32933 7.11882
#
# Compressibility (1/GPa) = 0.01887216
#
# Stress axis : x y z
#
# Youngs Moduli (GPa) = 66.36038 87.46955 69.65177
#
# Poissons Ratio (x) = 0.35427 0.15601
# Poissons Ratio (y) = 0.26877 0.32760
# Poissons Ratio (z) = 0.14864 0.41140
#
# Static dielectric constant tensor:
#      x y z
#    x 3.750560 0.000000 -0.217490 
#    y 0.000000 3.855220 0.000000 
#    z -0.217490 0.000000 3.361600 
# 
# 
# High freq. dielectric constant tensor:
#      x y z
#    x 1.737720 0.000000 -0.017570 
#    y 0.000000 1.772240 0.000000 
#    z -0.017570 0.000000 1.727070 
# 
# From -- ./inp_files/361291.got.cif
#   From: 2010.06.25/outbox.cif.g09.slc.cpg/sg12_181_cif.got.tgz:361291.got - 2010.06.28 00:19:55.
