data_PCOD8113984
_publ_section_title
;
Structure prediction by ZEFSAII (Michael W. Deem and Ramdas Pophale) SiO2 
 PCOD8113984
Probable space group: C 2/M
;
_chemical_formula_sum "Si O2"
_cell_formula_units_Z 56
_cell_length_a 15.999108
_cell_length_b 18.698327
_cell_length_c 22.214556
_cell_angle_alpha 90.000000
_cell_angle_beta 154.912679
_cell_angle_gamma 90.000000
_cell_volume 2817.740600
_symmetry_space_group_name_H-M "C 2/M"
_symmetry_group_IT_number 12
_symmetry_cell_setting 'monoclinic'
loop_
_space_group_symop_operation_xyz
x,y,z
-x,y,-z
-x,-y,-z
x,-y,z
1/2+x,1/2+y,z
1/2-x,1/2+y,-z
1/2-x,1/2-y,-z
1/2+x,1/2-y,z
loop_
_atom_site_type_symbol
_atom_site_label
_atom_site_fract_x
_atom_site_fract_y
_atom_site_fract_z
Si Si1 0.775770 0.178525 0.840100
Si Si2 0.169039 0.584927 0.872509
Si Si3 0.724797 0.838597 0.127776
Si Si4 0.286120 0.211229 0.336168
Si Si5 0.036980 0.079273 0.619063
Si Si6 0.862991 0.176397 0.089648
Si Si7 0.770232 0.371250 0.668324
O O1 0.648693 0.118112 0.792204
O O2 0.721041 0.255635 0.830803
O O3 0.729186 0.176783 0.739527
O O4 0.000000 0.159583 0.000000
O O5 0.185905 0.500000 0.878918
O O6 0.992983 0.611533 0.799784
O O7 0.353212 0.620275 0.027673
O O8 0.873832 0.884791 0.264007
O O9 0.762556 0.858529 0.082952
O O10 0.500000 0.854905 0.000000
O O11 0.500000 0.186829 0.500000
O O12 0.266745 0.296695 0.321213
O O13 0.098673 0.186689 0.254282
O O14 0.195221 0.071383 0.668161
O O15 0.851319 0.125126 0.473531
O O16 0.965085 0.000000 0.590022
O O17 0.750000 0.250000 0.000000
#
# Coordination Sequence:
#
# PCOD8113984 Si02
#       7
#     8   8   8   8   8   8   8
#     4  11  21  41  64  92 124 164 218 274 315 376
#     4  12  25  40  66  96 127 168 220 268 330 395
#     4  11  21  36  63  89 125 169 215 269 326 388
#     4  12  22  40  68  99 129 169 226 274 324 385
#     4  11  22  36  56  88 132 172 205 254 324 397
#     4  12  22  41  65  93 129 171 219 279 322 383
#     4  11  20  39  62  90 128 167 208 262 323 391
#
# _framework density 19.874078999999998
#
# number of rings (size 3 to 8) (size 9 to 14) (size 15 to 20)
#    0.000    0.571    7.143    3.429    0.000    2.286 
#    0.000    2.857    0.000    1.714    0.000    0.000 
#    0.000    0.000    0.000    0.000    0.000    0.000 
#
# Total GULP energy -347126.372066 kJ/mol
# GULP energy per Si atom -12397.370431 kJ/mol
# Density = 1.982884 g / cm^3
# Si number density = 19.874079 Si / 1000 Ang^3
#
#
#
# Elastic Constant Matrix: (Units=GPa)
#
#
# Indices 1 2 3 4 5 6 
#
# 1 100.1979 41.1156 38.3968 0.0424 -11.4023 0.0083
# 2 41.1156 86.4495 32.9393 -0.0659 -8.6272 -0.0132
# 3 38.3968 32.9393 106.0788 0.0014 -3.4133 0.0079
# 4 0.0424 -0.0659 0.0014 19.8951 0.0109 -4.5618
# 5 -11.4023 -8.6272 -3.4133 0.0109 40.0147 0.0066
# 6 0.0083 -0.0132 0.0079 -4.5618 0.0066 23.1121
#
#
#
# Elastic Compliance Matrix: (Units=1/GPa)
#
#
# Indices 1 2 3 4 5 6 
#
# 1 0.013556 -0.004942 -0.003291 -0.000050 0.002517 -0.000017
# 2 -0.004942 0.015173 -0.002871 0.000066 0.001618 0.000024
# 3 -0.003291 -0.002871 0.011491 -0.000004 -0.000577 -0.000005
# 4 -0.000050 0.000066 -0.000004 0.052647 -0.000017 0.010391
# 5 0.002517 0.001618 -0.000577 -0.000017 0.026008 -0.000010
# 6 -0.000017 0.000024 -0.000005 0.010391 -0.000010 0.045318
#
#
# Mechanical properties :
#
#
# Convention : Reuss Voigt Hill
#
# Bulk Modulus (GPa) = 55.51733 57.51442 56.51588
# Shear Modulus (GPa) = 25.98689 28.62267 27.30478
#
# Velocity S-wave (km/s) = 3.61997 3.79912 3.71062
# Velocity P-wave (km/s) = 6.74295 6.94598 6.84522
#
# Compressibility (1/GPa) = 0.01801239
#
# Stress axis : x y z
#
# Youngs Moduli (GPa) = 73.76913 65.90556 87.02415
#
# Poissons Ratio (x) = 0.32571 0.28641
# Poissons Ratio (y) = 0.36457 0.24981
# Poissons Ratio (z) = 0.24279 0.18919
#
# Static dielectric constant tensor:
#      x y z
#    x 3.653200 0.000020 0.013680 
#    y 0.000020 3.465820 -0.000070 
#    z 0.013680 -0.000070 3.743690 
# 
# 
# High freq. dielectric constant tensor:
#      x y z
#    x 1.777690 0.000000 -0.001220 
#    y 0.000000 1.752400 0.000000 
#    z -0.001220 0.000000 1.774850 
# 
# From -- ./inp_files/311731.got.cif
#   From: 2010.06.25/outbox.cif.g09.slc.cpg/sg12_156_cif.got.tgz:311731.got - 2010.06.28 00:19:55.
