data_PCOD8113101
_publ_section_title
;
Structure prediction by ZEFSAII (Michael W. Deem and Ramdas Pophale) SiO2 
 PCOD8113101
Probable space group: C 2/M
;
_chemical_formula_sum "Si O2"
_cell_formula_units_Z 48
_cell_length_a 19.938925
_cell_length_b 8.744492
_cell_length_c 13.637202
_cell_angle_alpha 90.000000
_cell_angle_beta 89.844778
_cell_angle_gamma 90.000000
_cell_volume 2377.716132
_symmetry_space_group_name_H-M "C 2/M"
_symmetry_group_IT_number 12
_symmetry_cell_setting 'monoclinic'
loop_
_space_group_symop_operation_xyz
x,y,z
-x,y,-z
-x,-y,-z
x,-y,z
1/2+x,1/2+y,z
1/2-x,1/2+y,-z
1/2-x,1/2-y,-z
1/2+x,1/2-y,z
loop_
_atom_site_type_symbol
_atom_site_label
_atom_site_fract_x
_atom_site_fract_y
_atom_site_fract_z
Si Si1 0.880101 0.177149 0.857735
Si Si2 0.373334 0.321238 0.084491
Si Si3 0.442625 0.178967 0.425999
Si Si4 0.234183 0.677949 0.779184
Si Si5 0.012956 0.321718 0.792359
Si Si6 0.697829 0.679343 0.574600
O O1 0.810301 0.215155 0.805872
O O2 0.935226 0.280195 0.804149
O O3 0.899441 0.000000 0.846091
O O4 0.875559 0.223135 0.970992
O O5 0.359775 0.500000 0.100488
O O6 0.313008 0.225385 0.131010
O O7 0.444323 0.276410 0.131086
O O8 0.500000 0.233501 0.500000
O O9 0.464185 0.222691 0.316444
O O10 0.376049 0.268474 0.456052
O O11 0.428332 0.000000 0.436825
O O12 0.222931 0.500000 0.757090
O O13 0.213603 0.772296 0.684705
O O14 0.024087 0.500000 0.813285
O O15 0.702821 0.500000 0.565634
O O16 0.750000 0.750000 0.500000
#
# Coordination Sequence:
#
# PCOD8113101 Si02
#       6
#     8   8   8   8   8   8
#     4  10  24  41  61  91 129 168 211 260 309 369
#     4  11  22  40  64  91 125 169 212 257 314 371
#     4  10  23  44  67  94 128 163 205 257 312 373
#     4  11  23  42  65  93 128 165 208 261 312 368
#     4  11  23  39  63  93 127 166 208 259 315 371
#     4  12  26  44  68  96 127 165 206 255 311 373
#
# _framework density 20.187439999999999
#
# number of rings (size 3 to 8) (size 9 to 14) (size 15 to 20)
#    0.000    1.167    1.667    4.000    2.333    5.667 
#    0.000    0.000    0.000    0.000    0.000    0.000 
#    0.000    0.000    0.000    0.000    0.000    0.000 
#
# Total GULP energy -297792.899889 kJ/mol
# GULP energy per Si atom -12408.037495 kJ/mol
# Density = 2.014149 g / cm^3
# Si number density = 20.187440 Si / 1000 Ang^3
#
#
#
# Elastic Constant Matrix: (Units=GPa)
#
#
# Indices 1 2 3 4 5 6 
#
# 1 144.0413 65.6951 53.3546 0.0000 -10.7708 0.0000
# 2 65.6951 87.2136 46.6615 0.0000 -0.1124 0.0000
# 3 53.3546 46.6615 87.5704 0.0000 2.4930 0.0000
# 4 0.0000 0.0000 0.0000 30.7676 0.0000 -4.4718
# 5 -10.7708 -0.1124 2.4930 0.0000 38.7653 0.0000
# 6 0.0000 0.0000 0.0000 -4.4718 0.0000 36.3337
#
#
#
# Elastic Compliance Matrix: (Units=1/GPa)
#
#
# Indices 1 2 3 4 5 6 
#
# 1 0.011644 -0.006880 -0.003526 0.000000 0.003442 0.000000
# 2 -0.006880 0.020117 -0.006487 0.000000 -0.001436 0.000000
# 3 -0.003526 -0.006487 0.017084 0.000000 -0.002097 0.000000
# 4 0.000000 0.000000 0.000000 0.033094 0.000000 0.004073
# 5 0.003442 -0.001436 -0.002097 0.000000 0.026883 0.000000
# 6 0.000000 0.000000 0.000000 0.004073 0.000000 0.028024
#
#
# Mechanical properties :
#
#
# Convention : Reuss Voigt Hill
#
# Bulk Modulus (GPa) = 66.40491 72.24976 69.32734
# Shear Modulus (GPa) = 28.46541 31.38090 29.92316
#
# Velocity S-wave (km/s) = 3.75914 3.94696 3.85420
# Velocity P-wave (km/s) = 7.19772 7.52586 7.36361
#
# Compressibility (1/GPa) = 0.01505913
#
# Stress axis : x y z
#
# Youngs Moduli (GPa) = 85.88245 49.70898 58.53378
#
# Poissons Ratio (x) = 0.34198 0.20642
# Poissons Ratio (y) = 0.59085 0.37970
# Poissons Ratio (z) = 0.30286 0.32245
#
# Static dielectric constant tensor:
#      x y z
#    x 3.790930 0.000000 0.087890 
#    y 0.000000 3.650880 0.000000 
#    z 0.087890 0.000000 3.658330 
# 
# 
# High freq. dielectric constant tensor:
#      x y z
#    x 1.806410 0.000000 0.000330 
#    y 0.000000 1.792630 0.000000 
#    z 0.000330 0.000000 1.798010 
# 
# From -- ./inp_files/221552.got.cif
#   From: 2010.06.25/outbox.cif.g09.slc.cpg/sg12_111_cif.got.tgz:221552.got - 2010.06.28 00:19:55.
