data_PCOD8113678
_publ_section_title
;
Structure prediction by ZEFSAII (Michael W. Deem and Ramdas Pophale) SiO2 
 PCOD8113678
Probable space group: C 2/M
;
_chemical_formula_sum "Si O2"
_cell_formula_units_Z 44
_cell_length_a 10.118653
_cell_length_b 21.501263
_cell_length_c 9.478355
_cell_angle_alpha 90.000000
_cell_angle_beta 82.368137
_cell_angle_gamma 90.000000
_cell_volume 2043.880280
_symmetry_space_group_name_H-M "C 2/M"
_symmetry_group_IT_number 12
_symmetry_cell_setting 'monoclinic'
loop_
_space_group_symop_operation_xyz
x,y,z
-x,y,-z
-x,-y,-z
x,-y,z
1/2+x,1/2+y,z
1/2-x,1/2+y,-z
1/2-x,1/2-y,-z
1/2+x,1/2-y,z
loop_
_atom_site_type_symbol
_atom_site_label
_atom_site_fract_x
_atom_site_fract_y
_atom_site_fract_z
Si Si1 0.301533 0.394529 0.783077
Si Si2 0.688162 0.000000 0.310228
Si Si3 0.582286 0.815935 0.691748
Si Si4 0.349168 0.500000 0.558180
Si Si5 0.050569 0.824675 0.654042
Si Si6 0.342288 0.500000 0.997134
Si Si7 0.661765 0.868178 0.377473
O O1 0.169292 0.350864 0.799580
O O2 0.304287 0.437923 0.644600
O O3 0.431600 0.350259 0.767908
O O4 0.300463 0.437578 0.920584
O O5 0.603767 0.062571 0.351681
O O6 0.801216 0.000000 0.408454
O O7 0.756153 0.000000 0.148897
O O8 0.603508 0.742370 0.696659
O O9 0.632375 0.843266 0.536610
O O10 0.422342 0.827197 0.724084
O O11 0.500000 0.500000 0.500000
O O12 0.178665 0.868192 0.664922
O O13 0.000000 0.822851 0.500000
O O14 0.500000 0.500000 0.000000
#
# Coordination Sequence:
#
# PCOD8113678 Si02
#       7
#     8   4   8   4   8   4   8
#     4  11  23  39  64  95 128 158 213 264 312 370
#     4  12  22  39  62  86 125 166 204 253 320 369
#     4  11  22  36  58  97 131 162 201 260 314 375
#     4  11  19  34  59  94 122 151 199 265 311 357
#     4  12  19  35  62  96 131 164 202 261 319 370
#     4  11  25  44  66  92 123 170 215 266 315 372
#     4  11  22  35  58  93 131 163 204 252 319 375
#
# _framework density 21.527681000000001
#
# number of rings (size 3 to 8) (size 9 to 14) (size 15 to 20)
#    0.000    0.727    5.455    5.455    0.000    2.909 
#    0.000    1.818    0.000   12.000    0.000    0.000 
#    0.000    0.000    0.000    0.000    0.000    0.000 
#
# Total GULP energy -272638.111096 kJ/mol
# GULP energy per Si atom -12392.641413 kJ/mol
# Density = 2.147868 g / cm^3
# Si number density = 21.527681 Si / 1000 Ang^3
#
#
#
# Elastic Constant Matrix: (Units=GPa)
#
#
# Indices 1 2 3 4 5 6 
#
# 1 114.0110 14.6762 12.4494 0.0000 14.1752 0.0000
# 2 14.6762 140.8979 35.2386 0.0000 1.7043 0.0000
# 3 12.4494 35.2386 86.2673 0.0000 6.6204 0.0000
# 4 0.0000 0.0000 0.0000 19.4225 0.0000 2.7677
# 5 14.1752 1.7043 6.6204 0.0000 19.9472 0.0000
# 6 0.0000 0.0000 0.0000 2.7677 0.0000 45.3657
#
#
#
# Elastic Compliance Matrix: (Units=1/GPa)
#
#
# Indices 1 2 3 4 5 6 
#
# 1 0.009767 -0.000793 -0.000573 0.000000 -0.006683 0.000000
# 2 -0.000793 0.007973 -0.003215 0.000000 0.000950 0.000000
# 3 -0.000573 -0.003215 0.013274 0.000000 -0.003724 0.000000
# 4 0.000000 0.000000 0.000000 0.051938 0.000000 -0.003169
# 5 -0.006683 0.000950 -0.003724 0.000000 0.056036 0.000000
# 6 0.000000 0.000000 0.000000 -0.003169 0.000000 0.022236
#
#
# Mechanical properties :
#
#
# Convention : Reuss Voigt Hill
#
# Bulk Modulus (GPa) = 45.76458 51.76719 48.76588
# Shear Modulus (GPa) = 28.14228 35.53457 31.83842
#
# Velocity S-wave (km/s) = 3.61953 4.06722 3.84989
# Velocity P-wave (km/s) = 6.22677 6.79378 6.51644
#
# Compressibility (1/GPa) = 0.02185096
#
# Stress axis : x y z
#
# Youngs Moduli (GPa) = 102.38996 125.43014 75.33772
#
# Poissons Ratio (x) = 0.09950 0.04314
# Poissons Ratio (y) = 0.08122 0.24221
# Poissons Ratio (z) = 0.05862 0.40326
#
# Static dielectric constant tensor:
#      x y z
#    x 4.332800 0.000000 0.157570 
#    y 0.000000 4.865140 0.000000 
#    z 0.157570 0.000000 3.408710 
# 
# 
# High freq. dielectric constant tensor:
#      x y z
#    x 1.856750 0.000000 0.013190 
#    y 0.000000 1.871450 0.000000 
#    z 0.013190 0.000000 1.790000 
# 
# From -- ./inp_files/49325.got.cif
#   From: 2010.06.25/outbox.cif.g09.slc.cpg/sg12_25_cif.got.tgz:49325.got - 2010.06.28 00:19:55.
