data_PCOD8113782
_publ_section_title
;
Structure prediction by ZEFSAII (Michael W. Deem and Ramdas Pophale) SiO2 
 PCOD8113782
Probable space group: C 2/M
;
_chemical_formula_sum "Si O2"
_cell_formula_units_Z 48
_cell_length_a 23.684495
_cell_length_b 8.902022
_cell_length_c 13.678172
_cell_angle_alpha 90.000000
_cell_angle_beta 72.693394
_cell_angle_gamma 90.000000
_cell_volume 2753.339932
_symmetry_space_group_name_H-M "C 2/M"
_symmetry_group_IT_number 12
_symmetry_cell_setting 'monoclinic'
loop_
_space_group_symop_operation_xyz
x,y,z
-x,y,-z
-x,-y,-z
x,-y,z
1/2+x,1/2+y,z
1/2-x,1/2+y,-z
1/2-x,1/2-y,-z
1/2+x,1/2-y,z
loop_
_atom_site_type_symbol
_atom_site_label
_atom_site_fract_x
_atom_site_fract_y
_atom_site_fract_z
Si Si1 0.310538 0.669301 0.568374
Si Si2 0.116953 0.829786 0.275923
Si Si3 0.886871 0.820883 0.355274
Si Si4 0.233976 0.177351 0.109930
Si Si5 0.500428 0.823285 0.386497
Si Si6 0.801887 0.679002 0.264772
O O1 0.295111 0.500000 0.548309
O O2 0.359319 0.674256 0.626932
O O3 0.339935 0.746213 0.458625
O O4 0.249475 0.744277 0.636199
O O5 0.168299 0.770562 0.176578
O O6 0.061167 0.719433 0.300638
O O7 0.097903 0.000000 0.258460
O O8 0.950679 0.757783 0.348388
O O9 0.863678 0.758402 0.262497
O O10 0.890389 0.000000 0.352584
O O11 0.283237 0.225645 0.164522
O O12 0.233947 0.000000 0.099529
O O13 0.250000 0.250000 0.000000
O O14 0.500000 0.768158 0.500000
O O15 0.490310 0.000000 0.386576
O O16 0.807532 0.500000 0.269455
#
# Coordination Sequence:
#
# PCOD8113782 Si02
#       6
#     8   8   8   8   8   8
#     4   8  15  28  47  69  98 134 169 202 244 294
#     4   9  17  33  53  74 101 136 174 210 249 299
#     4  11  20  30  48  72 100 140 176 206 245 296
#     4   9  19  35  58  81 103 131 165 211 265 309
#     4  11  22  33  47  72 105 141 177 212 249 293
#     4   9  18  33  49  71 103 134 165 208 256 302
#
# _framework density 17.433371000000001
#
# number of rings (size 3 to 8) (size 9 to 14) (size 15 to 20)
#    0.000    2.500    1.667    3.500    0.000    2.000 
#    0.000    3.333    0.000    1.000    0.000    7.000 
#    0.000    0.000    0.000    0.000    0.000    0.000 
#
# Total GULP energy -297440.380119 kJ/mol
# GULP energy per Si atom -12393.349172 kJ/mol
# Density = 1.739369 g / cm^3
# Si number density = 17.433371 Si / 1000 Ang^3
#
#
#
# Elastic Constant Matrix: (Units=GPa)
#
#
# Indices 1 2 3 4 5 6 
#
# 1 130.0763 44.5568 57.3044 0.0000 5.3677 0.0000
# 2 44.5568 51.3020 31.3471 0.0000 0.7614 0.0000
# 3 57.3044 31.3471 99.2113 0.0000 0.0284 0.0000
# 4 0.0000 0.0000 0.0000 24.5054 0.0000 1.4936
# 5 5.3677 0.7614 0.0284 0.0000 11.5470 0.0000
# 6 0.0000 0.0000 0.0000 1.4936 0.0000 27.2541
#
#
#
# Elastic Compliance Matrix: (Units=1/GPa)
#
#
# Indices 1 2 3 4 5 6 
#
# 1 0.012817 -0.008091 -0.004845 0.000000 -0.005413 0.000000
# 2 -0.008091 0.029292 -0.004582 0.000000 0.001841 0.000000
# 3 -0.004845 -0.004582 0.014325 0.000000 0.002519 0.000000
# 4 0.000000 0.000000 0.000000 0.040944 0.000000 -0.002244
# 5 -0.005413 0.001841 0.002519 0.000000 0.088992 0.000000
# 6 0.000000 0.000000 0.000000 -0.002244 0.000000 0.036815
#
#
# Mechanical properties :
#
#
# Convention : Reuss Voigt Hill
#
# Bulk Modulus (GPa) = 46.73461 60.77845 53.75653
# Shear Modulus (GPa) = 18.84268 22.48673 20.66470
#
# Velocity S-wave (km/s) = 3.29118 3.59537 3.44663
# Velocity P-wave (km/s) = 6.42715 7.22319 6.83677
#
# Compressibility (1/GPa) = 0.02139742
#
# Stress axis : x y z
#
# Youngs Moduli (GPa) = 78.01991 34.13857 69.80693
#
# Poissons Ratio (x) = 0.27622 0.33823
# Poissons Ratio (y) = 0.63127 0.31988
# Poissons Ratio (z) = 0.37802 0.15644
#
# Static dielectric constant tensor:
#      x y z
#    x 3.327930 0.000000 -0.441530 
#    y 0.000000 3.027840 0.000000 
#    z -0.441530 0.000000 9.199180 
# 
# 
# High freq. dielectric constant tensor:
#      x y z
#    x 1.678310 0.000000 0.002870 
#    y 0.000000 1.658460 0.000000 
#    z 0.002870 0.000000 1.643170 
# 
# From -- ./inp_files/172386.got.cif
#   From: 2010.06.25/outbox.cif.g09.slc.cpg/sg12_87_cif.got.tgz:172386.got - 2010.06.28 00:19:55.
