data_PCOD8113293
_publ_section_title
;
Structure prediction by ZEFSAII (Michael W. Deem and Ramdas Pophale) SiO2 
 PCOD8113293
Probable space group: C 2/M
;
_chemical_formula_sum "Si O2"
_cell_formula_units_Z 64
_cell_length_a 15.889019
_cell_length_b 17.407547
_cell_length_c 15.640595
_cell_angle_alpha 90.000000
_cell_angle_beta 44.953946
_cell_angle_gamma 90.000000
_cell_volume 3056.494154
_symmetry_space_group_name_H-M "C 2/M"
_symmetry_group_IT_number 12
_symmetry_cell_setting 'monoclinic'
loop_
_space_group_symop_operation_xyz
x,y,z
-x,y,-z
-x,-y,-z
x,-y,z
1/2+x,1/2+y,z
1/2-x,1/2+y,-z
1/2-x,1/2-y,-z
1/2+x,1/2-y,z
loop_
_atom_site_type_symbol
_atom_site_label
_atom_site_fract_x
_atom_site_fract_y
_atom_site_fract_z
Si Si1 0.171287 0.910669 0.342944
Si Si2 0.823169 0.822155 0.187385
Si Si3 0.952919 0.839474 0.413892
Si Si4 0.936847 0.088094 0.251300
Si Si5 0.669709 0.412856 0.984436
Si Si6 0.421317 0.843761 0.137209
Si Si7 0.953001 0.326383 0.623482
Si Si8 0.440422 0.088700 0.805909
O O1 0.073918 0.887116 0.342531
O O2 0.301142 0.892257 0.214016
O O3 0.148573 0.863179 0.445897
O O4 0.158866 0.000000 0.372230
O O5 0.849483 0.887160 0.238286
O O6 0.864213 0.854823 0.066595
O O7 0.898285 0.746709 0.153328
O O8 0.684136 0.802317 0.287152
O O9 0.971554 0.749030 0.409143
O O10 0.905706 0.858766 0.354045
O O11 0.909936 0.000000 0.293108
O O12 0.075509 0.100189 0.127589
O O13 0.662705 0.500000 0.953839
O O14 0.801354 0.396277 0.925832
O O15 0.485980 0.861457 0.179874
O O16 0.500000 0.869179 0.000000
O O17 0.971020 0.387404 0.686570
O O18 0.000000 0.362018 0.500000
O O19 0.475303 0.000000 0.791780
#
# Coordination Sequence:
#
# PCOD8113293 Si02
#       8
#     8   8   8   8   8   8   8   8
#     4  11  23  41  64  88 126 165 203 258 307 365
#     4  11  22  40  60  92 128 163 209 262 317 365
#     4  11  21  42  64  93 120 158 210 259 314 364
#     4  11  22  36  63  95 123 162 213 262 313 370
#     4   9  20  39  62  87 125 168 211 261 310 366
#     4  12  25  41  63  96 131 170 208 253 317 382
#     4  11  22  43  69  89 122 167 212 260 314 374
#     4  10  24  42  61  91 128 168 211 256 310 376
#
# _framework density 20.939022999999999
#
# number of rings (size 3 to 8) (size 9 to 14) (size 15 to 20)
#    0.000    1.250    2.500    4.125    1.750    3.750 
#    0.000    6.875    0.000    0.000    0.000    0.000 
#    0.000    0.000    0.000    0.000    0.000    0.000 
#
# Total GULP energy -396997.170130 kJ/mol
# GULP energy per Si atom -12406.161567 kJ/mol
# Density = 2.089136 g / cm^3
# Si number density = 20.939023 Si / 1000 Ang^3
#
#
#
# Elastic Constant Matrix: (Units=GPa)
#
#
# Indices 1 2 3 4 5 6 
#
# 1 79.5989 26.2178 32.8595 0.0000 8.4910 0.0000
# 2 26.2178 82.5499 17.9865 0.0000 -1.0570 0.0000
# 3 32.8595 17.9865 91.4817 0.0000 6.9640 0.0000
# 4 0.0000 0.0000 0.0000 29.3348 0.0000 0.7097
# 5 8.4910 -1.0570 6.9640 0.0000 28.2345 0.0000
# 6 0.0000 0.0000 0.0000 0.7097 0.0000 32.0298
#
#
#
# Elastic Compliance Matrix: (Units=1/GPa)
#
#
# Indices 1 2 3 4 5 6 
#
# 1 0.016318 -0.004200 -0.004739 0.000000 -0.003896 0.000000
# 2 -0.004200 0.013771 -0.001360 0.000000 0.002114 0.000000
# 3 -0.004739 -0.001360 0.013041 0.000000 -0.001842 0.000000
# 4 0.000000 0.000000 0.000000 0.034108 0.000000 -0.000756
# 5 -0.003896 0.002114 -0.001842 0.000000 0.037123 0.000000
# 6 0.000000 0.000000 0.000000 -0.000756 0.000000 0.031238
#
#
# Mechanical properties :
#
#
# Convention : Reuss Voigt Hill
#
# Bulk Modulus (GPa) = 44.38027 45.30644 44.84335
# Shear Modulus (GPa) = 28.78409 29.69094 29.23751
#
# Velocity S-wave (km/s) = 3.71167 3.76968 3.74079
# Velocity P-wave (km/s) = 6.29362 6.37429 6.33408
#
# Compressibility (1/GPa) = 0.02253254
#
# Stress axis : x y z
#
# Youngs Moduli (GPa) = 61.28103 72.61545 76.68125
#
# Poissons Ratio (x) = 0.30498 0.36340
# Poissons Ratio (y) = 0.25738 0.10428
# Poissons Ratio (z) = 0.29041 0.09875
#
# Static dielectric constant tensor:
#      x y z
#    x 3.677500 0.000000 -0.053300 
#    y 0.000000 3.756660 0.000000 
#    z -0.053300 0.000000 3.849490 
# 
# 
# High freq. dielectric constant tensor:
#      x y z
#    x 1.817940 0.000000 -0.000350 
#    y 0.000000 1.825440 0.000000 
#    z -0.000350 0.000000 1.824130 
# 
# From -- ./inp_files/216765.got.cif
#   From: 2010.06.25/outbox.cif.g09.slc.cpg/sg12_109_cif.got.tgz:216765.got - 2010.06.28 00:19:55.
