data_PCOD8113648
_publ_section_title
;
Structure prediction by ZEFSAII (Michael W. Deem and Ramdas Pophale) SiO2 
 PCOD8113648
Probable space group: C 2/M
;
_chemical_formula_sum "Si O2"
_cell_formula_units_Z 32
_cell_length_a 12.560470
_cell_length_b 30.803196
_cell_length_c 14.760187
_cell_angle_alpha 90.000000
_cell_angle_beta 18.947481
_cell_angle_gamma 90.000000
_cell_volume 1854.289734
_symmetry_space_group_name_H-M "C 2/M"
_symmetry_group_IT_number 12
_symmetry_cell_setting 'monoclinic'
loop_
_space_group_symop_operation_xyz
x,y,z
-x,y,-z
-x,-y,-z
x,-y,z
1/2+x,1/2+y,z
1/2-x,1/2+y,-z
1/2-x,1/2-y,-z
1/2+x,1/2-y,z
loop_
_atom_site_type_symbol
_atom_site_label
_atom_site_fract_x
_atom_site_fract_y
_atom_site_fract_z
Si Si1 0.383530 0.267204 0.691717
Si Si2 0.622181 0.546966 0.801552
Si Si3 0.226170 0.182465 0.566499
Si Si4 0.653679 0.365540 0.976010
O O1 0.500000 0.283094 0.500000
O O2 0.546148 0.222163 0.588471
O O3 0.475559 0.304613 0.689038
O O4 0.000000 0.259506 0.000000
O O5 0.583784 0.500000 0.780819
O O6 0.000000 0.561859 0.500000
O O7 0.500000 0.539376 0.000000
O O8 0.408410 0.586327 0.930703
O O9 0.458450 0.143665 0.343177
O O10 0.017050 0.169578 0.822323
O O11 0.500000 0.363110 0.000000
#
# Coordination Sequence:
#
# PCOD8113648 Si02
#       4
#     8   8   8   8
#     4  11  22  36  50  67  96 126 157 201 242 273
#     4   9  17  28  43  66  97 130 155 181 227 280
#     4  11  22  33  50  72  92 125 166 194 230 284
#     4  11  19  31  49  71 100 128 158 193 227 275
#
# _framework density 17.257282
#
# number of rings (size 3 to 8) (size 9 to 14) (size 15 to 20)
#    0.000    1.500    0.000    9.000    0.000    4.000 
#    0.000    0.000    0.000    0.000    0.000    0.000 
#    0.000   20.000    0.000    0.000    0.000    0.000 
#
# Total GULP energy -198348.938920 kJ/mol
# GULP energy per Si atom -12396.808683 kJ/mol
# Density = 1.721800 g / cm^3
# Si number density = 17.257282 Si / 1000 Ang^3
#
#
#
# Elastic Constant Matrix: (Units=GPa)
#
#
# Indices 1 2 3 4 5 6 
#
# 1 80.2673 34.4806 32.5384 0.0008 4.3138 -0.0002
# 2 34.4806 77.3410 4.0532 0.0001 -0.9866 0.0015
# 3 32.5384 4.0532 76.4921 -0.0014 16.0767 0.0027
# 4 0.0008 0.0001 -0.0014 32.3473 0.0026 -1.1017
# 5 4.3138 -0.9866 16.0767 0.0026 26.5445 -0.0012
# 6 -0.0002 0.0015 0.0027 -1.1017 -0.0012 13.2771
#
#
#
# Elastic Compliance Matrix: (Units=1/GPa)
#
#
# Indices 1 2 3 4 5 6 
#
# 1 0.019090 -0.008074 -0.007996 -0.000001 0.001440 0.000003
# 2 -0.008074 0.016405 0.002476 0.000000 0.000422 -0.000002
# 3 -0.007996 0.002476 0.018392 0.000002 -0.009748 -0.000005
# 4 -0.000001 0.000000 0.000002 0.031002 -0.000004 0.002572
# 5 0.001440 0.000422 -0.009748 -0.000004 0.043358 0.000006
# 6 0.000003 -0.000002 -0.000005 0.002572 0.000006 0.075531
#
#
# Mechanical properties :
#
#
# Convention : Reuss Voigt Hill
#
# Bulk Modulus (GPa) = 37.45097 41.80498 39.62798
# Shear Modulus (GPa) = 20.84514 25.30233 23.07374
#
# Velocity S-wave (km/s) = 3.47926 3.83323 3.66053
# Velocity P-wave (km/s) = 6.15541 6.62334 6.39366
#
# Compressibility (1/GPa) = 0.02670158
#
# Stress axis : x y z
#
# Youngs Moduli (GPa) = 52.38246 60.95790 54.37182
#
# Poissons Ratio (x) = 0.49215 0.43473
# Poissons Ratio (y) = 0.42291 -0.13465
# Poissons Ratio (z) = 0.41883 -0.15096
#
# Static dielectric constant tensor:
#      x y z
#    x 3.053700 0.000000 0.135540 
#    y 0.000000 3.803220 0.000000 
#    z 0.135540 0.000000 3.339890 
# 
# 
# High freq. dielectric constant tensor:
#      x y z
#    x 1.622020 0.000000 0.027750 
#    y 0.000000 1.668710 0.000000 
#    z 0.027750 0.000000 1.686880 
# 
# From -- ./inp_files/7293.got.cif
#   From: 2010.06.25/outbox.cif.g09.slc.cpg/sg12_4_cif.got.tgz:7293.got - 2010.06.28 00:19:55.
