data_PCOD8113402
_publ_section_title
;
Structure prediction by ZEFSAII (Michael W. Deem and Ramdas Pophale) SiO2 
 PCOD8113402
Probable space group: C 2/M
;
_chemical_formula_sum "Si O2"
_cell_formula_units_Z 44
_cell_length_a 8.985336
_cell_length_b 25.695853
_cell_length_c 11.478817
_cell_angle_alpha 90.000000
_cell_angle_beta 124.320612
_cell_angle_gamma 90.000000
_cell_volume 2188.868142
_symmetry_space_group_name_H-M "C 2/M"
_symmetry_group_IT_number 12
_symmetry_cell_setting 'monoclinic'
loop_
_space_group_symop_operation_xyz
x,y,z
-x,y,-z
-x,-y,-z
x,-y,z
1/2+x,1/2+y,z
1/2-x,1/2+y,-z
1/2-x,1/2-y,-z
1/2+x,1/2-y,z
loop_
_atom_site_type_symbol
_atom_site_label
_atom_site_fract_x
_atom_site_fract_y
_atom_site_fract_z
Si Si1 0.280818 0.000000 0.265540
Si Si2 0.815584 0.180486 0.605355
Si Si3 0.197313 0.559662 0.136313
Si Si4 0.795510 0.104599 0.412646
Si Si5 0.000000 0.246157 0.500000
Si Si6 0.969610 0.901501 0.858178
Si Si7 0.826050 0.500000 0.552560
O O1 0.173845 0.947898 0.187025
O O2 0.345595 0.000000 0.424730
O O3 0.480404 0.000000 0.292036
O O4 0.702558 0.146653 0.458122
O O5 0.675674 0.219064 0.604930
O O6 0.902339 0.143120 0.741027
O O7 0.970039 0.212811 0.604840
O O8 0.230303 0.500000 0.193282
O O9 0.209561 0.601004 0.247230
O O10 0.344857 0.573504 0.104970
O O11 0.000000 0.566616 0.000000
O O12 0.000000 0.123948 0.500000
O O13 0.795189 0.048899 0.471423
O O14 0.000000 0.876919 0.000000
#
# Coordination Sequence:
#
# PCOD8113402 Si02
#       7
#     4   8   8   8   4   8   4
#     4  11  23  38  54  96 142 172 205 251 308 372
#     4  11  23  43  68  97 116 162 211 271 332 378
#     4  11  24  37  56  89 134 180 212 246 299 366
#     4  12  21  38  66  91 129 165 217 258 308 378
#     4  10  24  44  70  92 122 144 212 294 334 370
#     4  12  25  40  62  90 135 175 209 251 314 384
#     4  11  23  32  60  97 132 166 216 257 301 369
#
# _framework density 20.101713
#
# number of rings (size 3 to 8) (size 9 to 14) (size 15 to 20)
#    0.000    0.727    6.364    0.545    5.091    0.000 
#    0.000    0.909    0.000    4.364    0.000    0.000 
#    0.000    0.000    0.000    0.000    0.000    0.000 
#
# Total GULP energy -272677.589865 kJ/mol
# GULP energy per Si atom -12394.435903 kJ/mol
# Density = 2.005596 g / cm^3
# Si number density = 20.101713 Si / 1000 Ang^3
#
#
#
# Elastic Constant Matrix: (Units=GPa)
#
#
# Indices 1 2 3 4 5 6 
#
# 1 79.0822 47.1327 43.1924 0.0000 -5.6693 0.0000
# 2 47.1327 117.9536 48.9814 0.0000 -5.2882 0.0000
# 3 43.1924 48.9814 120.8738 0.0000 -14.6250 0.0000
# 4 0.0000 0.0000 0.0000 9.9681 0.0000 -6.5992
# 5 -5.6693 -5.2882 -14.6250 0.0000 31.3610 0.0000
# 6 0.0000 0.0000 0.0000 -6.5992 0.0000 22.5318
#
#
#
# Elastic Compliance Matrix: (Units=1/GPa)
#
#
# Indices 1 2 3 4 5 6 
#
# 1 0.018286 -0.005525 -0.004248 0.000000 0.000393 0.000000
# 2 -0.005525 0.011864 -0.002874 0.000000 -0.000339 0.000000
# 3 -0.004248 -0.002874 0.011450 0.000000 0.004087 0.000000
# 4 0.000000 0.000000 0.000000 0.124450 0.000000 0.036449
# 5 0.000393 -0.000339 0.004087 0.000000 0.033807 0.000000
# 6 0.000000 0.000000 0.000000 0.036449 0.000000 0.055057
#
#
# Mechanical properties :
#
#
# Convention : Reuss Voigt Hill
#
# Bulk Modulus (GPa) = 61.32742 66.28030 63.80386
# Shear Modulus (GPa) = 17.50426 24.67907 21.09167
#
# Velocity S-wave (km/s) = 2.95411 3.50767 3.24272
# Velocity P-wave (km/s) = 6.49696 7.03200 6.76977
#
# Compressibility (1/GPa) = 0.01630592
#
# Stress axis : x y z
#
# Youngs Moduli (GPa) = 54.68548 84.28735 87.33479
#
# Poissons Ratio (x) = 0.46573 0.37097
# Poissons Ratio (y) = 0.30216 0.25102
# Poissons Ratio (z) = 0.23229 0.24226
#
# Static dielectric constant tensor:
#      x y z
#    x 4.039280 0.000000 -0.149170 
#    y 0.000000 3.708910 0.000000 
#    z -0.149170 0.000000 3.571120 
# 
# 
# High freq. dielectric constant tensor:
#      x y z
#    x 1.804120 0.000000 -0.008190 
#    y 0.000000 1.780040 0.000000 
#    z -0.008190 0.000000 1.767680 
# 
# From -- ./inp_files/41643.got.cif
#   From: 2010.06.25/outbox.cif.g09.slc.cpg/sg12_21_cif.got.tgz:41643.got - 2010.06.28 00:19:55.
