data_PCOD8113272
_publ_section_title
;
Structure prediction by ZEFSAII (Michael W. Deem and Ramdas Pophale) SiO2 
 PCOD8113272
Probable space group: C 2/M
;
_chemical_formula_sum "Si O2"
_cell_formula_units_Z 24
_cell_length_a 13.422106
_cell_length_b 19.847394
_cell_length_c 4.947827
_cell_angle_alpha 90.000000
_cell_angle_beta 114.496609
_cell_angle_gamma 90.000000
_cell_volume 1199.425514
_symmetry_space_group_name_H-M "C 2/M"
_symmetry_group_IT_number 12
_symmetry_cell_setting 'monoclinic'
loop_
_space_group_symop_operation_xyz
x,y,z
-x,y,-z
-x,-y,-z
x,-y,z
1/2+x,1/2+y,z
1/2-x,1/2+y,-z
1/2-x,1/2-y,-z
1/2+x,1/2-y,z
loop_
_atom_site_type_symbol
_atom_site_label
_atom_site_fract_x
_atom_site_fract_y
_atom_site_fract_z
Si Si1 0.071846 0.281307 0.821415
Si Si2 0.925370 0.075581 0.676208
Si Si3 0.220383 0.810590 0.669429
O O1 0.122093 0.212475 0.756143
O O2 0.000000 0.316314 0.500000
O O3 0.171981 0.329137 0.030713
O O4 0.000000 0.261470 0.000000
O O5 0.818446 0.122912 0.529790
O O6 0.000000 0.075360 0.500000
O O7 0.882510 0.000000 0.691970
O O8 0.000000 0.103746 0.000000
O O9 0.250000 0.750000 0.500000
#
# Coordination Sequence:
#
# PCOD8113272 Si02
#       3
#     8   8   8
#     4  11  23  37  54  90 123 153 194 254 302 350
#     4  10  24  41  61  87 123 161 196 246 306 364
#     4  11  24  35  62  92 118 163 199 255 298 350
#
# _framework density 20.009578999999999
#
# number of rings (size 3 to 8) (size 9 to 14) (size 15 to 20)
#    0.000    1.333    3.333    1.000   14.000    0.000 
#    0.000    0.000    0.000    2.000    0.000    0.000 
#    0.000    0.000    0.000    0.000    0.000    0.000 
#
# Total GULP energy -148747.354279 kJ/mol
# GULP energy per Si atom -12395.612857 kJ/mol
# Density = 1.996404 g / cm^3
# Si number density = 20.009579 Si / 1000 Ang^3
#
#
#
# Elastic Constant Matrix: (Units=GPa)
#
#
# Indices 1 2 3 4 5 6 
#
# 1 103.0440 36.0414 61.9202 0.0000 2.6686 0.0000
# 2 36.0414 104.6051 58.8160 0.0000 26.5803 0.0000
# 3 61.9202 58.8160 200.4585 0.0000 34.8006 0.0000
# 4 0.0000 0.0000 0.0000 31.2138 0.0000 8.1608
# 5 2.6686 26.5803 34.8006 0.0000 58.8288 0.0000
# 6 0.0000 0.0000 0.0000 8.1608 0.0000 28.1352
#
#
#
# Elastic Compliance Matrix: (Units=1/GPa)
#
#
# Indices 1 2 3 4 5 6 
#
# 1 0.012881 -0.003191 -0.003557 0.000000 0.002961 0.000000
# 2 -0.003191 0.012945 -0.002031 0.000000 -0.004503 0.000000
# 3 -0.003557 -0.002031 0.007239 0.000000 -0.003203 0.000000
# 4 0.000000 0.000000 0.000000 0.034666 0.000000 -0.010055
# 5 0.002961 -0.004503 -0.003203 0.000000 0.020794 0.000000
# 6 0.000000 0.000000 0.000000 -0.010055 0.000000 0.038459
#
#
# Mechanical properties :
#
#
# Convention : Reuss Voigt Hill
#
# Bulk Modulus (GPa) = 64.48005 80.18477 72.33241
# Shear Modulus (GPa) = 33.39757 40.39088 36.89423
#
# Velocity S-wave (km/s) = 4.08987 4.49773 4.29864
# Velocity P-wave (km/s) = 7.38900 8.19347 7.80161
#
# Compressibility (1/GPa) = 0.01550867
#
# Stress axis : x y z
#
# Youngs Moduli (GPa) = 77.63199 77.24848 138.13550
#
# Poissons Ratio (x) = 0.24649 0.49133
# Poissons Ratio (y) = 0.24771 0.28054
# Poissons Ratio (z) = 0.27613 0.15688
#
# Static dielectric constant tensor:
#      x y z
#    x 3.750990 0.000000 0.200210 
#    y 0.000000 3.379400 0.000000 
#    z 0.200210 0.000000 4.343930 
# 
# 
# High freq. dielectric constant tensor:
#      x y z
#    x 1.781690 0.000000 -0.001830 
#    y 0.000000 1.721460 0.000000 
#    z -0.001830 0.000000 1.818850 
# 
# From -- ./inp_files/5317.got.cif
#   From: 2010.06.25/outbox.cif.g09.slc.cpg/sg12_3_cif.got.tgz:5317.got - 2010.06.28 00:19:55.
