data_PCOD8113731
_publ_section_title
;
Structure prediction by ZEFSAII (Michael W. Deem and Ramdas Pophale) SiO2 
 PCOD8113731
Probable space group: C 2/M
;
_chemical_formula_sum "Si O2"
_cell_formula_units_Z 64
_cell_length_a 14.725451
_cell_length_b 31.647444
_cell_length_c 20.840147
_cell_angle_alpha 90.000000
_cell_angle_beta 159.895782
_cell_angle_gamma 90.000000
_cell_volume 3338.289374
_symmetry_space_group_name_H-M "C 2/M"
_symmetry_group_IT_number 12
_symmetry_cell_setting 'monoclinic'
loop_
_space_group_symop_operation_xyz
x,y,z
-x,y,-z
-x,-y,-z
x,-y,z
1/2+x,1/2+y,z
1/2-x,1/2+y,-z
1/2-x,1/2-y,-z
1/2+x,1/2-y,z
loop_
_atom_site_type_symbol
_atom_site_label
_atom_site_fract_x
_atom_site_fract_y
_atom_site_fract_z
Si Si1 0.940324 0.635709 0.561637
Si Si2 0.879255 0.167827 0.762606
Si Si3 0.274743 0.829307 0.581850
Si Si4 0.088037 0.624400 0.888512
Si Si5 0.839972 0.671314 0.829649
Si Si6 0.114804 0.547224 0.702697
Si Si7 0.554678 0.238842 0.207391
Si Si8 0.166859 0.046607 0.010927
O O1 0.695029 0.645667 0.353423
O O2 0.932769 0.663526 0.621008
O O3 0.221436 0.646893 0.716437
O O4 0.912323 0.585162 0.554806
O O5 0.795374 0.216645 0.700014
O O6 0.191829 0.160691 0.980089
O O7 0.350621 0.866744 0.681455
O O8 0.354266 0.783885 0.665675
O O9 0.967868 0.834852 0.360697
O O10 0.214100 0.578458 0.962650
O O11 0.970844 0.629922 0.882524
O O12 0.860657 0.710628 0.795957
O O13 0.000000 0.681421 0.000000
O O14 0.987940 0.500000 0.611450
O O15 0.212968 0.554361 0.839707
O O16 0.352329 0.551566 0.809003
O O17 0.250000 0.250000 0.000000
O O18 0.238548 0.000000 0.033242
#
# Coordination Sequence:
#
# PCOD8113731 Si02
#       8
#     8   8   8   8   8   8   8   8
#     4  11  23  37  58  90 122 163 196 244 309 359
#     4  11  24  38  55  87 124 159 195 255 295 353
#     4  11  24  39  64  85 117 161 206 246 300 358
#     4  11  19  40  63  84 121 151 206 247 293 357
#     4  11  25  43  62  85 117 163 202 252 304 355
#     4   9  17  33  57  90 127 155 195 242 301 370
#     4  11  23  43  58  86 117 154 206 256 295 348
#     4   9  17  31  59  93 121 152 192 247 302 360
#
# _framework density 19.171496000000001
#
# number of rings (size 3 to 8) (size 9 to 14) (size 15 to 20)
#    0.000    1.500    5.000    3.000    3.500    2.000 
#    0.000    1.875    0.000    2.625    0.000    0.000 
#    0.000    0.000    0.000    0.000    0.000    0.000 
#
# Total GULP energy -396689.773192 kJ/mol
# GULP energy per Si atom -12396.555412 kJ/mol
# Density = 1.912786 g / cm^3
# Si number density = 19.171496 Si / 1000 Ang^3
#
#
#
# Elastic Constant Matrix: (Units=GPa)
#
#
# Indices 1 2 3 4 5 6 
#
# 1 83.7834 49.0075 22.0367 -0.0071 -13.8871 -0.0077
# 2 49.0075 147.6847 21.7196 0.0052 -7.9518 -0.0029
# 3 22.0367 21.7196 86.0503 0.0105 -6.6920 -0.0165
# 4 -0.0071 0.0052 0.0105 19.3509 -0.0090 -2.0127
# 5 -13.8871 -7.9518 -6.6920 -0.0090 24.0518 -0.0081
# 6 -0.0077 -0.0029 -0.0165 -2.0127 -0.0081 24.4593
#
#
#
# Elastic Compliance Matrix: (Units=1/GPa)
#
#
# Indices 1 2 3 4 5 6 
#
# 1 0.016573 -0.004741 -0.002479 0.000013 0.007312 0.000006
# 2 -0.004741 0.008472 -0.000940 -0.000004 -0.000198 -0.000002
# 3 -0.002479 -0.000940 0.012631 -0.000006 0.001772 0.000008
# 4 0.000013 -0.000004 -0.000006 0.052123 0.000026 0.004289
# 5 0.007312 -0.000198 0.001772 0.000026 0.046226 0.000021
# 6 0.000006 -0.000002 0.000008 0.004289 0.000021 0.041237
#
#
# Mechanical properties :
#
#
# Convention : Reuss Voigt Hill
#
# Bulk Modulus (GPa) = 46.82433 55.89399 51.35916
# Shear Modulus (GPa) = 24.91274 28.55604 26.73439
#
# Velocity S-wave (km/s) = 3.60872 3.86360 3.73833
# Velocity P-wave (km/s) = 6.46845 7.00865 6.74396
#
# Compressibility (1/GPa) = 0.02135642
#
# Stress axis : x y z
#
# Youngs Moduli (GPa) = 60.34014 118.03548 79.17088
#
# Poissons Ratio (x) = 0.55963 0.19625
# Poissons Ratio (y) = 0.28609 0.07439
# Poissons Ratio (z) = 0.14957 0.11091
#
# Static dielectric constant tensor:
#      x y z
#    x 3.515720 0.000130 0.135260 
#    y 0.000130 3.763340 0.000310 
#    z 0.135260 0.000310 3.723690 
# 
# 
# High freq. dielectric constant tensor:
#      x y z
#    x 1.733570 0.000000 -0.003910 
#    y 0.000000 1.745370 -0.000010 
#    z -0.003910 -0.000010 1.739690 
# 
# From -- ./inp_files/312949.got.cif
#   From: 2010.06.25/outbox.cif.g09.slc.cpg/sg12_157_cif.got.tgz:312949.got - 2010.06.28 00:19:55.
