data_PCOD8113461
_publ_section_title
;
Structure prediction by ZEFSAII (Michael W. Deem and Ramdas Pophale) SiO2 
 PCOD8113461
Probable space group: C 2/M
;
_chemical_formula_sum "Si O2"
_cell_formula_units_Z 56
_cell_length_a 13.728092
_cell_length_b 22.509857
_cell_length_c 8.755343
_cell_angle_alpha 90.000000
_cell_angle_beta 72.256973
_cell_angle_gamma 90.000000
_cell_volume 2576.857889
_symmetry_space_group_name_H-M "C 2/M"
_symmetry_group_IT_number 12
_symmetry_cell_setting 'monoclinic'
loop_
_space_group_symop_operation_xyz
x,y,z
-x,y,-z
-x,-y,-z
x,-y,z
1/2+x,1/2+y,z
1/2-x,1/2+y,-z
1/2-x,1/2-y,-z
1/2+x,1/2-y,z
loop_
_atom_site_type_symbol
_atom_site_label
_atom_site_fract_x
_atom_site_fract_y
_atom_site_fract_z
Si Si1 0.717112 0.851645 0.073012
Si Si2 0.772068 0.068849 0.309054
Si Si3 0.502851 0.566520 0.678341
Si Si4 0.525557 0.786645 0.311767
Si Si5 0.068326 0.827081 0.110944
Si Si6 0.386768 0.935318 0.105548
Si Si7 0.588434 0.102609 0.582913
O O1 0.762817 0.908052 0.141681
O O2 0.636244 0.815168 0.215624
O O3 0.814780 0.809575 0.987321
O O4 0.675414 0.879859 0.935108
O O5 0.884142 0.080735 0.317957
O O6 0.694636 0.108630 0.444685
O O7 0.740301 0.000000 0.332497
O O8 0.500000 0.572831 0.500000
O O9 0.469097 0.500000 0.744315
O O10 0.425657 0.614511 0.785456
O O11 0.500000 0.770708 0.500000
O O12 0.511403 0.727422 0.221162
O O13 0.440499 0.836184 0.315375
O O14 0.000000 0.843821 0.000000
O O15 0.390431 0.941700 0.288121
O O16 0.346296 0.000000 0.066873
O O17 0.500000 0.923501 0.000000
O O18 0.500000 0.084437 0.500000
#
# Coordination Sequence:
#
# PCOD8113461 Si02
#       7
#     8   8   8   8   8   8   8
#     4  12  24  45  65 104 137 178 224 287 341 408
#     4  11  22  41  69 101 138 179 225 276 339 411
#     4  10  24  47  71  99 136 178 228 279 331 402
#     4  11  24  48  69  94 134 178 228 284 335 405
#     4  12  27  45  72  99 135 179 232 279 349 395
#     4  11  23  38  64 101 139 181 221 273 344 409
#     4  11  22  42  67  95 138 178 224 275 336 397
#
# _framework density 21.731892999999999
#
# number of rings (size 3 to 8) (size 9 to 14) (size 15 to 20)
#    0.000    0.857    5.714    1.714    4.000    3.714 
#    0.000    1.429    0.000    0.000    0.000    0.000 
#    0.000    0.000    0.000    0.000    0.000    0.000 
#
# Total GULP energy -346949.717667 kJ/mol
# GULP energy per Si atom -12391.061345 kJ/mol
# Density = 2.168243 g / cm^3
# Si number density = 21.731893 Si / 1000 Ang^3
#
#
#
# Elastic Constant Matrix: (Units=GPa)
#
#
# Indices 1 2 3 4 5 6 
#
# 1 62.4246 28.9049 42.9387 0.0000 7.0249 0.0000
# 2 28.9049 95.9296 34.2362 0.0000 -6.5600 0.0000
# 3 42.9387 34.2362 102.1018 0.0000 0.7994 0.0000
# 4 0.0000 0.0000 0.0000 44.5589 0.0000 -11.4693
# 5 7.0249 -6.5600 0.7994 0.0000 42.6211 0.0000
# 6 0.0000 0.0000 0.0000 -11.4693 0.0000 29.1066
#
#
#
# Elastic Compliance Matrix: (Units=1/GPa)
#
#
# Indices 1 2 3 4 5 6 
#
# 1 0.024749 -0.004625 -0.008821 0.000000 -0.004626 0.000000
# 2 -0.004625 0.012861 -0.002389 0.000000 0.002787 0.000000
# 3 -0.008821 -0.002389 0.014299 0.000000 0.000818 0.000000
# 4 0.000000 0.000000 0.000000 0.024975 0.000000 0.009841
# 5 -0.004626 0.002787 0.000818 0.000000 0.024639 0.000000
# 6 0.000000 0.000000 0.000000 0.009841 0.000000 0.038234
#
#
# Mechanical properties :
#
#
# Convention : Reuss Voigt Hill
#
# Bulk Modulus (GPa) = 49.41277 52.51285 50.96281
# Shear Modulus (GPa) = 28.06237 33.54905 30.80571
#
# Velocity S-wave (km/s) = 3.59736 3.93335 3.76910
# Velocity P-wave (km/s) = 6.32784 6.69662 6.51484
#
# Compressibility (1/GPa) = 0.02023768
#
# Stress axis : x y z
#
# Youngs Moduli (GPa) = 40.40537 77.75288 69.93733
#
# Poissons Ratio (x) = 0.35964 0.61692
# Poissons Ratio (y) = 0.18689 0.16709
# Poissons Ratio (z) = 0.35642 0.18576
#
# Static dielectric constant tensor:
#      x y z
#    x 3.807950 0.000000 -0.146540 
#    y 0.000000 3.917230 0.000000 
#    z -0.146540 0.000000 3.814000 
# 
# 
# High freq. dielectric constant tensor:
#      x y z
#    x 1.844360 0.000000 -0.000280 
#    y 0.000000 1.850840 0.000000 
#    z -0.000280 0.000000 1.868780 
# 
# From -- ./inp_files/65762.got.cif
#   From: 2010.06.25/outbox.cif.g09.slc.cpg/sg12_33_cif.got.tgz:65762.got - 2010.06.28 00:19:55.
