data_PCOD8113737
_publ_section_title
;
Structure prediction by ZEFSAII (Michael W. Deem and Ramdas Pophale) SiO2 
 PCOD8113737
Probable space group: C 2/M
;
_chemical_formula_sum "Si O2"
_cell_formula_units_Z 56
_cell_length_a 14.825474
_cell_length_b 25.854886
_cell_length_c 10.823998
_cell_angle_alpha 90.000000
_cell_angle_beta 42.992824
_cell_angle_gamma 90.000000
_cell_volume 2829.201708
_symmetry_space_group_name_H-M "C 2/M"
_symmetry_group_IT_number 12
_symmetry_cell_setting 'monoclinic'
loop_
_space_group_symop_operation_xyz
x,y,z
-x,y,-z
-x,-y,-z
x,-y,z
1/2+x,1/2+y,z
1/2-x,1/2+y,-z
1/2-x,1/2-y,-z
1/2+x,1/2-y,z
loop_
_atom_site_type_symbol
_atom_site_label
_atom_site_fract_x
_atom_site_fract_y
_atom_site_fract_z
Si Si1 0.853128 0.340675 0.136807
Si Si2 0.001070 0.859816 0.142068
Si Si3 0.330519 0.000000 0.301542
Si Si4 0.513393 0.162269 0.346165
Si Si5 0.109458 0.746287 0.074612
Si Si6 0.757409 0.604005 0.996769
Si Si7 0.227023 0.388272 0.538309
Si Si8 0.643050 0.000000 0.007258
O O1 0.767712 0.368210 0.118048
O O2 0.778789 0.349288 0.339383
O O3 0.868927 0.280288 0.082154
O O4 0.000000 0.366650 0.000000
O O5 0.858757 0.873652 0.335947
O O6 0.039771 0.800672 0.127697
O O7 0.106505 0.896517 0.103937
O O8 0.000000 0.872790 0.000000
O O9 0.270832 0.948478 0.424078
O O10 0.293470 0.000000 0.193385
O O11 0.486544 0.000000 0.158423
O O12 0.500000 0.181693 0.500000
O O13 0.510782 0.211168 0.256046
O O14 0.396895 0.122652 0.427032
O O15 0.653814 0.133526 0.193435
O O16 0.250000 0.750000 0.000000
O O17 0.807259 0.546596 0.960129
#
# Coordination Sequence:
#
# PCOD8113737 Si02
#       8
#     8   8   4   8   8   8   8   4
#     4  11  19  41  68  99 133 163 222 293 336 397
#     4  12  28  48  65  94 146 191 223 276 342 414
#     4  11  22  41  72 111 133 171 227 290 343 402
#     4  11  23  42  64  96 136 173 226 279 326 414
#     4  11  23  42  69  93 132 180 229 277 342 404
#     4  11  22  43  68  98 134 177 218 279 342 400
#     4  12  25  42  71 104 136 175 229 286 342 405
#     4  11  20  39  76 101 133 171 223 288 355 384
#
# _framework density 19.793569000000002
#
# number of rings (size 3 to 8) (size 9 to 14) (size 15 to 20)
#    0.000    0.714    8.571    1.286    0.000    2.857 
#    0.000    5.000    0.000    0.000    0.000    0.000 
#    0.000    0.000    0.000    0.000    0.000    0.000 
#
# Total GULP energy -347230.741689 kJ/mol
# GULP energy per Si atom -12401.097917 kJ/mol
# Density = 1.974852 g / cm^3
# Si number density = 19.793569 Si / 1000 Ang^3
#
#
#
# Elastic Constant Matrix: (Units=GPa)
#
#
# Indices 1 2 3 4 5 6 
#
# 1 93.1121 16.4054 41.0257 0.0000 5.0767 0.0000
# 2 16.4054 104.5669 31.2151 0.0000 10.3068 0.0000
# 3 41.0257 31.2151 135.3429 0.0000 9.5588 0.0000
# 4 0.0000 0.0000 0.0000 21.9332 0.0000 -9.3017
# 5 5.0767 10.3068 9.5588 0.0000 34.9645 0.0000
# 6 0.0000 0.0000 0.0000 -9.3017 0.0000 23.7733
#
#
#
# Elastic Compliance Matrix: (Units=1/GPa)
#
#
# Indices 1 2 3 4 5 6 
#
# 1 0.012484 -0.000841 -0.003548 0.000000 -0.000595 0.000000
# 2 -0.000841 0.010533 -0.002002 0.000000 -0.002435 0.000000
# 3 -0.003548 -0.002002 0.009022 0.000000 -0.001361 0.000000
# 4 0.000000 0.000000 0.000000 0.054663 0.000000 0.021388
# 5 -0.000595 -0.002435 -0.001361 0.000000 0.029777 0.000000
# 6 0.000000 0.000000 0.000000 0.021388 0.000000 0.050432
#
#
# Mechanical properties :
#
#
# Convention : Reuss Voigt Hill
#
# Bulk Modulus (GPa) = 51.93176 56.70160 54.31668
# Shear Modulus (GPa) = 26.86542 32.42591 29.64566
#
# Velocity S-wave (km/s) = 3.68812 4.05186 3.87427
# Velocity P-wave (km/s) = 6.66558 7.11328 6.89307
#
# Compressibility (1/GPa) = 0.01925604
#
# Stress axis : x y z
#
# Youngs Moduli (GPa) = 80.10472 94.94000 110.83837
#
# Poissons Ratio (x) = 0.07982 0.39328
# Poissons Ratio (y) = 0.06735 0.22195
# Poissons Ratio (z) = 0.28423 0.19011
#
# Static dielectric constant tensor:
#      x y z
#    x 3.782760 0.000000 0.179390 
#    y 0.000000 3.794410 0.000000 
#    z 0.179390 0.000000 2.940370 
# 
# 
# High freq. dielectric constant tensor:
#      x y z
#    x 1.783940 0.000000 0.001810 
#    y 0.000000 1.770190 0.000000 
#    z 0.001810 0.000000 1.759860 
# 
# From -- ./inp_files/149461.got.cif
#   From: 2010.06.25/outbox.cif.g09.slc.cpg/sg12_75_cif.got.tgz:149461.got - 2010.06.28 00:19:55.
