data_PCOD8113155
_publ_section_title
;
Structure prediction by ZEFSAII (Michael W. Deem and Ramdas Pophale) SiO2 
 PCOD8113155
Probable space group: C 2/M
;
_chemical_formula_sum "Si O2"
_cell_formula_units_Z 32
_cell_length_a 8.917012
_cell_length_b 20.100875
_cell_length_c 10.442943
_cell_angle_alpha 90.000000
_cell_angle_beta 51.617520
_cell_angle_gamma 90.000000
_cell_volume 1467.265361
_symmetry_space_group_name_H-M "C 2/M"
_symmetry_group_IT_number 12
_symmetry_cell_setting 'monoclinic'
loop_
_space_group_symop_operation_xyz
x,y,z
-x,y,-z
-x,-y,-z
x,-y,z
1/2+x,1/2+y,z
1/2-x,1/2+y,-z
1/2-x,1/2-y,-z
1/2+x,1/2-y,z
loop_
_atom_site_type_symbol
_atom_site_label
_atom_site_fract_x
_atom_site_fract_y
_atom_site_fract_z
Si Si1 0.952237 0.382130 0.670200
Si Si2 0.824008 0.000000 0.186608
Si Si3 0.442111 0.500000 0.681326
Si Si4 0.798347 0.130908 0.674179
Si Si5 0.209530 0.238686 0.876915
O O1 0.797612 0.436415 0.791513
O O2 0.862056 0.309337 0.730919
O O3 0.000000 0.396278 0.500000
O O4 0.146407 0.389504 0.647048
O O5 0.887169 0.000000 0.303843
O O6 0.000000 0.000000 0.000000
O O7 0.500000 0.500000 0.500000
O O8 0.322426 0.568614 0.760258
O O9 0.713946 0.192470 0.797107
O O10 0.000000 0.149635 0.500000
O O11 0.250000 0.250000 0.000000
O O12 0.000000 0.206631 0.000000
#
# Coordination Sequence:
#
# PCOD8113155 Si02
#       5
#     8   4   4   8   8
#     4  12  26  46  73 102 141 185 234 284 347 424
#     4  12  28  46  75 109 141 181 231 299 352 412
#     4  10  23  44  72  99 138 179 229 279 343 422
#     4  11  25  45  71 101 138 186 231 284 346 416
#     4  12  27  45  69 102 142 182 234 289 349 409
#
# _framework density 21.809279
#
# number of rings (size 3 to 8) (size 9 to 14) (size 15 to 20)
#    0.000    0.500    2.500    5.625   10.500    2.000 
#    0.000    1.875    0.000    0.000    0.000    0.000 
#    0.000    0.000    0.000    0.000    0.000    0.000 
#
# Total GULP energy -198350.125872 kJ/mol
# GULP energy per Si atom -12396.882867 kJ/mol
# Density = 2.175964 g / cm^3
# Si number density = 21.809279 Si / 1000 Ang^3
#
#
#
# Elastic Constant Matrix: (Units=GPa)
#
#
# Indices 1 2 3 4 5 6 
#
# 1 181.9624 28.4658 39.5487 0.0000 -9.1556 0.0000
# 2 28.4658 110.3731 20.9734 0.0000 -6.9918 0.0000
# 3 39.5487 20.9734 103.8328 0.0000 -11.9048 0.0000
# 4 0.0000 0.0000 0.0000 29.1470 0.0000 -6.6544
# 5 -9.1556 -6.9918 -11.9048 0.0000 40.6236 0.0000
# 6 0.0000 0.0000 0.0000 -6.6544 0.0000 33.0617
#
#
#
# Elastic Compliance Matrix: (Units=1/GPa)
#
#
# Indices 1 2 3 4 5 6 
#
# 1 0.006150 -0.001161 -0.002041 0.000000 0.000588 0.000000
# 2 -0.001161 0.009689 -0.001401 0.000000 0.000995 0.000000
# 3 -0.002041 -0.001401 0.010980 0.000000 0.002517 0.000000
# 4 0.000000 0.000000 0.000000 0.035961 0.000000 0.007238
# 5 0.000588 0.000995 0.002517 0.000000 0.025658 0.000000
# 6 0.000000 0.000000 0.000000 0.007238 0.000000 0.031703
#
#
# Mechanical properties :
#
#
# Convention : Reuss Voigt Hill
#
# Bulk Modulus (GPa) = 56.77334 63.79381 60.28358
# Shear Modulus (GPa) = 36.97749 41.04514 39.01132
#
# Velocity S-wave (km/s) = 4.12210 4.34291 4.23395
# Velocity P-wave (km/s) = 6.98168 7.37985 7.18352
#
# Compressibility (1/GPa) = 0.01761390
#
# Stress axis : x y z
#
# Youngs Moduli (GPa) = 162.59065 103.21116 91.07821
#
# Poissons Ratio (x) = 0.11985 0.18586
# Poissons Ratio (y) = 0.18880 0.12757
# Poissons Ratio (z) = 0.33179 0.14456
#
# Static dielectric constant tensor:
#      x y z
#    x 4.111970 0.000000 -0.020770 
#    y 0.000000 4.129250 0.000000 
#    z -0.020770 0.000000 3.776260 
# 
# 
# High freq. dielectric constant tensor:
#      x y z
#    x 1.879500 0.000000 -0.004260 
#    y 0.000000 1.872720 0.000000 
#    z -0.004260 0.000000 1.854980 
# 
# From -- ./inp_files/119937.got.cif
#   From: 2010.06.25/outbox.cif.g09.slc.cpg/sg12_60_cif.got.tgz:119937.got - 2010.06.28 00:19:55.
