data_PCOD8113371
_publ_section_title
;
Structure prediction by ZEFSAII (Michael W. Deem and Ramdas Pophale) SiO2 
 PCOD8113371
Probable space group: C 2/M
;
_chemical_formula_sum "Si O2"
_cell_formula_units_Z 40
_cell_length_a 9.062009
_cell_length_b 28.453350
_cell_length_c 15.663795
_cell_angle_alpha 90.000000
_cell_angle_beta 150.203771
_cell_angle_gamma 90.000000
_cell_volume 2006.959491
_symmetry_space_group_name_H-M "C 2/M"
_symmetry_group_IT_number 12
_symmetry_cell_setting 'monoclinic'
loop_
_space_group_symop_operation_xyz
x,y,z
-x,y,-z
-x,-y,-z
x,-y,z
1/2+x,1/2+y,z
1/2-x,1/2+y,-z
1/2-x,1/2-y,-z
1/2+x,1/2-y,z
loop_
_atom_site_type_symbol
_atom_site_label
_atom_site_fract_x
_atom_site_fract_y
_atom_site_fract_z
Si Si1 0.630259 0.446818 0.699981
Si Si2 0.174042 0.299895 0.500000
Si Si3 0.168876 0.858886 0.829960
Si Si4 0.030317 0.553182 0.300020
Si Si5 0.178996 0.858886 0.170040
O O1 0.688893 0.500000 0.760309
O O2 0.684986 0.412638 0.806706
O O3 0.853140 0.433325 0.735427
O O4 0.293082 0.441604 0.500000
O O5 0.250000 0.250000 0.500000
O O6 0.478045 0.328255 0.667775
O O7 0.000000 0.292774 0.500000
O O8 0.974718 0.328255 0.332224
O O9 0.030424 0.857598 0.853616
O O10 0.500000 0.837471 0.000000
O O11 0.907967 0.500000 0.239691
O O12 0.764869 0.587362 0.193295
O O13 0.000000 0.837471 0.000000
#
# Coordination Sequence:
#
# PCOD8113371 Si02
#       5
#     8   8   8   8   8
#     4   9  18  34  58  88 121 159 201 242 289 346
#     4  10  24  44  65  88 117 151 194 245 301 358
#     4  11  23  40  61  90 122 156 199 244 293 352
#     4   9  18  34  58  88 121 159 201 242 289 346
#     4  11  23  40  61  90 122 156 199 244 293 352
#
# _framework density 19.930647
#
# number of rings (size 3 to 8) (size 9 to 14) (size 15 to 20)
#    0.000    2.000    2.000    2.400    0.000    5.600 
#    0.000    6.000    0.000    0.000    0.000    0.000 
#    0.000    0.000    0.000    0.000    0.000    0.000 
#
# Total GULP energy -248070.719891 kJ/mol
# GULP energy per Si atom -12403.535995 kJ/mol
# Density = 1.988528 g / cm^3
# Si number density = 19.930647 Si / 1000 Ang^3
#
#
#
# Elastic Constant Matrix: (Units=GPa)
#
#
# Indices 1 2 3 4 5 6 
#
# 1 72.7546 46.3572 57.8970 0.0000 1.7757 0.0000
# 2 46.3572 119.2721 67.2116 0.0000 0.6986 0.0000
# 3 57.8970 67.2116 152.5378 0.0000 0.8969 0.0000
# 4 0.0000 0.0000 0.0000 12.0774 0.0000 -0.9040
# 5 1.7757 0.6986 0.8969 0.0000 33.9038 0.0000
# 6 0.0000 0.0000 0.0000 -0.9040 0.0000 39.0634
#
#
#
# Elastic Compliance Matrix: (Units=1/GPa)
#
#
# Indices 1 2 3 4 5 6 
#
# 1 0.021797 -0.005065 -0.006036 0.000000 -0.000878 0.000000
# 2 -0.005065 0.012331 -0.003511 0.000000 0.000104 0.000000
# 3 -0.006036 -0.003511 0.010393 0.000000 0.000114 0.000000
# 4 0.000000 0.000000 0.000000 0.082943 0.000000 0.001919
# 5 -0.000878 0.000104 0.000114 0.000000 0.029536 0.000000
# 6 0.000000 0.000000 0.000000 0.001919 0.000000 0.025644
#
#
# Mechanical properties :
#
#
# Convention : Reuss Voigt Hill
#
# Bulk Modulus (GPa) = 65.37722 76.38846 70.88284
# Shear Modulus (GPa) = 23.04481 28.54885 25.79683
#
# Velocity S-wave (km/s) = 3.40406 3.78882 3.60158
# Velocity P-wave (km/s) = 6.95153 7.58621 7.27579
#
# Compressibility (1/GPa) = 0.01529585
#
# Stress axis : x y z
#
# Youngs Moduli (GPa) = 45.87731 81.09664 96.21474
#
# Poissons Ratio (x) = 0.41077 0.58078
# Poissons Ratio (y) = 0.23238 0.33785
# Poissons Ratio (z) = 0.27693 0.28476
#
# Static dielectric constant tensor:
#      x y z
#    x 3.478540 0.000000 0.011020 
#    y 0.000000 3.531470 0.000000 
#    z 0.011020 0.000000 3.807360 
# 
# 
# High freq. dielectric constant tensor:
#      x y z
#    x 1.772250 0.000000 0.000480 
#    y 0.000000 1.770820 0.000000 
#    z 0.000480 0.000000 1.786540 
# 
# From -- ./inp_files/41391.got.cif
#   From: 2010.06.25/outbox.cif.g09.slc.cpg/sg12_21_cif.got.tgz:41391.got - 2010.06.28 00:19:55.
