data_PCOD8113010
_publ_section_title
;
Structure prediction by ZEFSAII (Michael W. Deem and Ramdas Pophale) SiO2 
 PCOD8113010
Probable space group: C 2/M
;
_chemical_formula_sum "Si O2"
_cell_formula_units_Z 40
_cell_length_a 12.083313
_cell_length_b 22.354771
_cell_length_c 10.658021
_cell_angle_alpha 90.000000
_cell_angle_beta 38.227356
_cell_angle_gamma 90.000000
_cell_volume 1781.441523
_symmetry_space_group_name_H-M "C 2/M"
_symmetry_group_IT_number 12
_symmetry_cell_setting 'monoclinic'
loop_
_space_group_symop_operation_xyz
x,y,z
-x,y,-z
-x,-y,-z
x,-y,z
1/2+x,1/2+y,z
1/2-x,1/2+y,-z
1/2-x,1/2-y,-z
1/2+x,1/2-y,z
loop_
_atom_site_type_symbol
_atom_site_label
_atom_site_fract_x
_atom_site_fract_y
_atom_site_fract_z
Si Si1 0.775661 0.569809 0.002888
Si Si2 0.451716 0.636916 0.183133
Si Si3 0.920109 0.238813 0.762583
Si Si4 0.195376 0.660530 0.801803
Si Si5 0.897874 0.362954 0.388452
O O1 0.787285 0.500000 0.017154
O O2 0.940301 0.590191 0.768063
O O3 0.588984 0.585351 0.102212
O O4 0.785799 0.602173 0.127767
O O5 0.453699 0.694541 0.271744
O O6 0.245182 0.614173 0.379754
O O7 0.500000 0.656580 0.000000
O O8 0.849098 0.208768 0.696559
O O9 0.022287 0.299398 0.639658
O O10 0.750000 0.250000 0.000000
O O11 0.213889 0.641657 0.641643
O O12 0.000000 0.689757 0.000000
#
# Coordination Sequence:
#
# PCOD8113010 Si02
#       5
#     8   8   8   8   8
#     4  10  23  43  65  94 125 159 214 267 312 372
#     4  11  26  43  63  90 129 169 211 257 314 372
#     4  11  20  39  62  96 127 165 199 255 310 381
#     4   9  19  37  65  92 130 160 203 254 315 369
#     4  11  23  42  65  95 126 170 206 256 319 371
#
# _framework density 22.453727000000001
#
# number of rings (size 3 to 8) (size 9 to 14) (size 15 to 20)
#    0.000    1.600    6.000    0.600    2.800    8.800 
#    3.600    2.000    0.000    0.000    0.000    0.000 
#    0.000    0.000    0.000    0.000    0.000    0.000 
#
# Total GULP energy -248012.970005 kJ/mol
# GULP energy per Si atom -12400.648500 kJ/mol
# Density = 2.240262 g / cm^3
# Si number density = 22.453727 Si / 1000 Ang^3
#
#
#
# Elastic Constant Matrix: (Units=GPa)
#
#
# Indices 1 2 3 4 5 6 
#
# 1 85.9368 47.8809 33.3499 0.0000 -15.4107 -0.0001
# 2 47.8809 128.9201 37.2888 0.0000 -23.2116 0.0000
# 3 33.3499 37.2888 162.9128 0.0000 -21.0848 0.0000
# 4 0.0000 0.0000 0.0000 16.0163 0.0000 -4.0173
# 5 -15.4107 -23.2116 -21.0848 0.0000 25.8392 0.0000
# 6 -0.0001 0.0000 0.0000 -4.0173 0.0000 9.8849
#
#
#
# Elastic Compliance Matrix: (Units=1/GPa)
#
#
# Indices 1 2 3 4 5 6 
#
# 1 0.015516 -0.004610 -0.001632 0.000000 0.003781 0.000000
# 2 -0.004610 0.010825 -0.000706 0.000000 0.006399 0.000000
# 3 -0.001632 -0.000706 0.007185 0.000000 0.004255 0.000000
# 4 0.000000 0.000000 0.000000 0.069524 0.000000 0.028255
# 5 0.003781 0.006399 0.004255 0.000000 0.050177 0.000000
# 6 0.000000 0.000000 0.000000 0.028255 0.000000 0.112647
#
#
# Mechanical properties :
#
#
# Convention : Reuss Voigt Hill
#
# Bulk Modulus (GPa) = 50.94025 68.31209 59.62617
# Shear Modulus (GPa) = 17.46347 27.63143 22.54745
#
# Velocity S-wave (km/s) = 2.79185 3.51179 3.17231
# Velocity P-wave (km/s) = 5.75574 6.85077 6.32699
#
# Compressibility (1/GPa) = 0.01963084
#
# Stress axis : x y z
#
# Youngs Moduli (GPa) = 64.44824 92.37751 139.18656
#
# Poissons Ratio (x) = 0.42586 0.22712
# Poissons Ratio (y) = 0.29710 0.09825
# Poissons Ratio (z) = 0.10517 0.06521
#
# Static dielectric constant tensor:
#      x y z
#    x 4.777760 0.000000 -0.023760 
#    y 0.000000 4.059030 0.000000 
#    z -0.023760 0.000000 4.216690 
# 
# 
# High freq. dielectric constant tensor:
#      x y z
#    x 1.892540 0.000000 -0.012800 
#    y 0.000000 1.845690 0.000000 
#    z -0.012800 0.000000 1.900240 
# 
# From -- ./inp_files/135130.got.cif
#   From: 2010.06.25/outbox.cif.g09.slc.cpg/sg12_68_cif.got.tgz:135130.got - 2010.06.28 00:19:55.
