data_PCOD8113684
_publ_section_title
;
Structure prediction by ZEFSAII (Michael W. Deem and Ramdas Pophale) SiO2 
 PCOD8113684
Probable space group: C 2/M
;
_chemical_formula_sum "Si O2"
_cell_formula_units_Z 56
_cell_length_a 15.885937
_cell_length_b 27.192241
_cell_length_c 18.557147
_cell_angle_alpha 90.000000
_cell_angle_beta 157.483854
_cell_angle_gamma 90.000000
_cell_volume 3069.757365
_symmetry_space_group_name_H-M "C 2/M"
_symmetry_group_IT_number 12
_symmetry_cell_setting 'monoclinic'
loop_
_space_group_symop_operation_xyz
x,y,z
-x,y,-z
-x,-y,-z
x,-y,z
1/2+x,1/2+y,z
1/2-x,1/2+y,-z
1/2-x,1/2-y,-z
1/2+x,1/2-y,z
loop_
_atom_site_type_symbol
_atom_site_label
_atom_site_fract_x
_atom_site_fract_y
_atom_site_fract_z
Si Si1 0.407732 0.129011 0.749146
Si Si2 0.311641 0.808367 0.126343
Si Si3 0.881637 0.556745 0.982597
Si Si4 0.937447 0.785577 0.729373
Si Si5 0.213601 0.809442 0.709527
Si Si6 0.450578 0.206478 0.386384
Si Si7 0.028895 0.865773 0.685464
O O1 0.600149 0.144432 0.846692
O O2 0.409983 0.172325 0.812620
O O3 0.182195 0.121298 0.528807
O O4 0.462561 0.077683 0.831001
O O5 0.466021 0.761000 0.236357
O O6 0.324786 0.821920 0.222480
O O7 0.065350 0.795727 0.905850
O O8 0.837832 0.500000 0.964126
O O9 0.645536 0.583636 0.800121
O O10 0.000000 0.564591 0.000000
O O11 0.684256 0.772396 0.543695
O O12 0.952671 0.834809 0.694094
O O13 0.209861 0.750936 0.716420
O O14 0.214505 0.834804 0.788562
O O15 0.000000 0.829387 0.500000
O O16 0.500000 0.175334 0.500000
#
# Coordination Sequence:
#
# PCOD8113684 Si02
#       7
#     8   8   8   8   8   8   8
#     4  11  21  36  57  79 107 153 195 220 269 328
#     4  11  21  32  52  79 108 146 188 228 264 325
#     4  11  24  39  55  81 114 144 187 240 279 319
#     4  11  21  33  52  79 109 146 188 227 270 319
#     4   9  18  30  49  74 105 148 187 216 251 318
#     4  11  21  35  49  73 115 149 182 228 269 317
#     4  11  19  35  56  77 106 147 188 222 271 327
#
# _framework density 18.242484999999999
#
# number of rings (size 3 to 8) (size 9 to 14) (size 15 to 20)
#    0.000    1.286    5.714    3.000    0.000    1.143 
#    0.000    1.429    0.000    0.000    0.000    0.000 
#    0.000    3.429    0.000    0.000    0.000    0.000 
#
# Total GULP energy -347041.332374 kJ/mol
# GULP energy per Si atom -12394.333299 kJ/mol
# Density = 1.820096 g / cm^3
# Si number density = 18.242485 Si / 1000 Ang^3
#
#
#
# Elastic Constant Matrix: (Units=GPa)
#
#
# Indices 1 2 3 4 5 6 
#
# 1 82.6604 32.3087 22.7012 -0.0006 -29.9947 -0.0002
# 2 32.3087 82.4771 16.8478 0.0004 -7.0493 -0.0002
# 3 22.7012 16.8478 73.3315 -0.0014 -28.4474 -0.0011
# 4 -0.0006 0.0004 -0.0014 23.0048 -0.0008 -1.5519
# 5 -29.9947 -7.0493 -28.4474 -0.0008 31.0091 -0.0001
# 6 -0.0002 -0.0002 -0.0011 -1.5519 -0.0001 17.1375
#
#
#
# Elastic Compliance Matrix: (Units=1/GPa)
#
#
# Indices 1 2 3 4 5 6 
#
# 1 0.022630 -0.007644 0.003987 0.000002 0.023810 0.000001
# 2 -0.007644 0.015306 -0.004143 -0.000001 -0.007716 0.000000
# 3 0.003987 -0.004143 0.022488 0.000002 0.023545 0.000002
# 4 0.000002 -0.000001 0.000002 0.043736 0.000005 0.003961
# 5 0.023810 -0.007716 0.023545 0.000005 0.075126 0.000003
# 6 0.000001 0.000000 0.000002 0.003961 0.000003 0.058710
#
#
# Mechanical properties :
#
#
# Convention : Reuss Voigt Hill
#
# Bulk Modulus (GPa) = 22.30960 42.46494 32.38727
# Shear Modulus (GPa) = 18.61926 25.33771 21.97848
#
# Velocity S-wave (km/s) = 3.19823 3.73089 3.47478
# Velocity P-wave (km/s) = 5.08864 6.47209 5.82161
#
# Compressibility (1/GPa) = 0.04482375
#
# Stress axis : x y z
#
# Youngs Moduli (GPa) = 44.18823 65.33386 44.46792
#
# Poissons Ratio (x) = 0.49944 -0.17730
# Poissons Ratio (y) = 0.33779 0.18424
# Poissons Ratio (z) = -0.17619 0.27069
#
# Static dielectric constant tensor:
#      x y z
#    x 3.612150 0.000000 -0.251720 
#    y 0.000000 2.918980 -0.000010 
#    z -0.251720 -0.000010 3.480560 
# 
# 
# High freq. dielectric constant tensor:
#      x y z
#    x 1.706550 0.000000 -0.020200 
#    y 0.000000 1.641120 0.000000 
#    z -0.020200 0.000000 1.722190 
# 
# From -- ./inp_files/219370.got.cif
#   From: 2010.06.25/outbox.cif.g09.slc.cpg/sg12_110_cif.got.tgz:219370.got - 2010.06.28 00:19:55.
