data_PCOD8113657
_publ_section_title
;
Structure prediction by ZEFSAII (Michael W. Deem and Ramdas Pophale) SiO2 
 PCOD8113657
Probable space group: C 2/M
;
_chemical_formula_sum "Si O2"
_cell_formula_units_Z 56
_cell_length_a 11.041404
_cell_length_b 26.496779
_cell_length_c 12.321218
_cell_angle_alpha 90.000000
_cell_angle_beta 54.203751
_cell_angle_gamma 90.000000
_cell_volume 2923.792573
_symmetry_space_group_name_H-M "C 2/M"
_symmetry_group_IT_number 12
_symmetry_cell_setting 'monoclinic'
loop_
_space_group_symop_operation_xyz
x,y,z
-x,y,-z
-x,-y,-z
x,-y,z
1/2+x,1/2+y,z
1/2-x,1/2+y,-z
1/2-x,1/2-y,-z
1/2+x,1/2-y,z
loop_
_atom_site_type_symbol
_atom_site_label
_atom_site_fract_x
_atom_site_fract_y
_atom_site_fract_z
Si Si1 0.429216 0.862649 0.880050
Si Si2 0.225750 0.369233 0.826195
Si Si3 0.286213 0.082742 0.578150
Si Si4 0.168275 0.708136 0.690068
Si Si5 0.329121 0.804688 0.561532
Si Si6 0.021580 0.941910 0.366761
Si Si7 0.058930 0.444092 0.296573
O O1 0.569497 0.891509 0.862675
O O2 0.493365 0.808131 0.801907
O O3 0.370912 0.901691 0.819629
O O4 0.298877 0.851425 0.035717
O O5 0.271148 0.322136 0.723932
O O6 0.348956 0.412006 0.761307
O O7 0.294530 0.139470 0.621114
O O8 0.337056 0.048944 0.652468
O O9 0.394819 0.075156 0.418084
O O10 0.124099 0.065978 0.628137
O O11 0.210980 0.767063 0.682521
O O12 0.208227 0.693616 0.546503
O O13 0.500000 0.788861 0.500000
O O14 0.000000 0.921199 0.500000
O O15 0.068671 0.000000 0.345052
O O16 0.048410 0.500000 0.247925
#
# Coordination Sequence:
#
# PCOD8113657 Si02
#       7
#     8   8   8   8   8   8   8
#     4   9  18  39  58  82 113 150 197 240 283 351
#     4   9  20  37  60  79 116 155 188 239 296 348
#     4  11  20  36  54  85 123 154 189 249 296 347
#     4   9  19  35  53  86 115 146 192 246 293 341
#     4  11  19  32  60  87 114 150 194 239 294 357
#     4  11  22  35  55  86 121 154 193 246 302 350
#     4  11  20  34  59  85 114 158 198 241 290 346
#
# _framework density 19.153206000000001
#
# number of rings (size 3 to 8) (size 9 to 14) (size 15 to 20)
#    0.857    1.000    2.857    3.429    0.000    5.143 
#    0.000    2.143    0.000   17.143    0.000    0.000 
#    0.000    0.000    0.000    0.000    0.000    0.000 
#
# Total GULP energy -346908.040248 kJ/mol
# GULP energy per Si atom -12389.572866 kJ/mol
# Density = 1.910961 g / cm^3
# Si number density = 19.153206 Si / 1000 Ang^3
#
#
#
# Elastic Constant Matrix: (Units=GPa)
#
#
# Indices 1 2 3 4 5 6 
#
# 1 53.2648 17.4601 27.9717 0.0000 -1.7558 0.0000
# 2 17.4601 123.5712 50.0329 0.0000 -1.6025 0.0000
# 3 27.9717 50.0329 107.6951 0.0000 5.6184 0.0000
# 4 0.0000 0.0000 0.0000 33.3082 0.0000 -2.8801
# 5 -1.7558 -1.6025 5.6184 0.0000 21.8260 0.0000
# 6 0.0000 0.0000 0.0000 -2.8801 0.0000 27.8641
#
#
#
# Elastic Compliance Matrix: (Units=1/GPa)
#
#
# Indices 1 2 3 4 5 6 
#
# 1 0.022040 -0.000850 -0.005493 0.000000 0.003125 0.000000
# 2 -0.000850 0.010083 -0.004560 0.000000 0.001846 0.000000
# 3 -0.005493 -0.004560 0.013046 0.000000 -0.004135 0.000000
# 4 0.000000 0.000000 0.000000 0.030293 0.000000 0.003131
# 5 0.003125 0.001846 -0.004135 0.000000 0.047268 0.000000
# 6 0.000000 0.000000 0.000000 0.003131 0.000000 0.036212
#
#
# Mechanical properties :
#
#
# Convention : Reuss Voigt Hill
#
# Bulk Modulus (GPa) = 42.79987 52.82893 47.81440
# Shear Modulus (GPa) = 26.52018 29.20407 27.86213
#
# Velocity S-wave (km/s) = 3.72510 3.90906 3.81819
# Velocity P-wave (km/s) = 6.39503 6.92939 6.66757
#
# Compressibility (1/GPa) = 0.02336456
#
# Stress axis : x y z
#
# Youngs Moduli (GPa) = 45.37175 99.17949 76.65049
#
# Poissons Ratio (x) = 0.08427 0.42102
# Poissons Ratio (y) = 0.03855 0.34951
# Poissons Ratio (z) = 0.24922 0.45224
#
# Static dielectric constant tensor:
#      x y z
#    x 3.340960 0.000000 0.162190 
#    y 0.000000 3.488400 0.000000 
#    z 0.162190 0.000000 3.363620 
# 
# 
# High freq. dielectric constant tensor:
#      x y z
#    x 1.731370 0.000000 0.017740 
#    y 0.000000 1.741400 0.000000 
#    z 0.017740 0.000000 1.718580 
# 
# From -- ./inp_files/136906.got.cif
#   From: 2010.06.25/outbox.cif.g09.slc.cpg/sg12_69_cif.got.tgz:136906.got - 2010.06.28 00:19:55.
