data_PCOD8113781
_publ_section_title
;
Structure prediction by ZEFSAII (Michael W. Deem and Ramdas Pophale) SiO2 
 PCOD8113781
Probable space group: C 2/M
;
_chemical_formula_sum "Si O2"
_cell_formula_units_Z 40
_cell_length_a 28.497771
_cell_length_b 8.766895
_cell_length_c 21.494741
_cell_angle_alpha 90.000000
_cell_angle_beta 155.261301
_cell_angle_gamma 90.000000
_cell_volume 2247.316557
_symmetry_space_group_name_H-M "C 2/M"
_symmetry_group_IT_number 12
_symmetry_cell_setting 'monoclinic'
loop_
_space_group_symop_operation_xyz
x,y,z
-x,y,-z
-x,-y,-z
x,-y,z
1/2+x,1/2+y,z
1/2-x,1/2+y,-z
1/2-x,1/2-y,-z
1/2+x,1/2-y,z
loop_
_atom_site_type_symbol
_atom_site_label
_atom_site_fract_x
_atom_site_fract_y
_atom_site_fract_z
Si Si1 0.504748 0.320704 0.575087
Si Si2 0.558945 0.831190 0.137438
Si Si3 0.362131 0.678181 0.960202
Si Si4 0.729169 0.680916 0.908117
Si Si5 0.241381 0.179098 0.698720
O O1 0.500000 0.249439 0.500000
O O2 0.523034 0.500000 0.591051
O O3 0.609822 0.253432 0.739538
O O4 0.388632 0.281847 0.470910
O O5 0.492763 0.717142 0.103146
O O6 0.686967 0.776705 0.276954
O O7 0.558243 0.000000 0.166759
O O8 0.500000 0.836080 0.000000
O O9 0.350572 0.500000 0.957702
O O10 0.327653 0.766109 0.980903
O O11 0.282167 0.728088 0.807680
O O12 0.728999 0.500000 0.912560
O O13 0.750000 0.750000 0.000000
O O14 0.258011 0.000000 0.734310
#
# Coordination Sequence:
#
# PCOD8113781 Si02
#       5
#     8   8   8   8   8
#     4   9  16  30  55  79 100 132 170 210 255 303
#     4   8  15  27  46  71 100 132 167 208 254 302
#     4  11  20  30  47  73 105 137 171 209 253 299
#     4  11  22  37  55  75 104 137 173 210 253 308
#     4   9  16  30  51  76 102 132 170 209 255 305
#
# _framework density 17.799005000000001
#
# number of rings (size 3 to 8) (size 9 to 14) (size 15 to 20)
#    0.000    2.400    2.000    3.600    0.000    3.600 
#    0.000    3.000    0.000    1.200    0.000    0.000 
#    0.000    0.000    0.000    0.000    0.000    0.000 
#
# Total GULP energy -247895.784608 kJ/mol
# GULP energy per Si atom -12394.789230 kJ/mol
# Density = 1.775849 g / cm^3
# Si number density = 17.799005 Si / 1000 Ang^3
#
#
#
# Elastic Constant Matrix: (Units=GPa)
#
#
# Indices 1 2 3 4 5 6 
#
# 1 136.4219 37.1736 71.1900 0.0000 21.5326 0.0000
# 2 37.1736 66.9915 26.8639 0.0000 0.3473 0.0000
# 3 71.1900 26.8639 96.1144 0.0000 8.9421 0.0000
# 4 0.0000 0.0000 0.0000 13.3313 0.0000 -4.6818
# 5 21.5326 0.3473 8.9421 0.0000 30.9794 0.0000
# 6 0.0000 0.0000 0.0000 -4.6818 0.0000 25.4370
#
#
#
# Elastic Compliance Matrix: (Units=1/GPa)
#
#
# Indices 1 2 3 4 5 6 
#
# 1 0.014154 -0.004375 -0.008581 0.000000 -0.007312 0.000000
# 2 -0.004375 0.018208 -0.002170 0.000000 0.003464 0.000000
# 3 -0.008581 -0.002170 0.017273 0.000000 0.001003 0.000000
# 4 0.000000 0.000000 0.000000 0.080195 0.000000 0.014760
# 5 -0.007312 0.003464 0.001003 0.000000 0.037034 0.000000
# 6 0.000000 0.000000 0.000000 0.014760 0.000000 0.042029
#
#
# Mechanical properties :
#
#
# Convention : Reuss Voigt Hill
#
# Bulk Modulus (GPa) = 51.59405 63.33143 57.46274
# Shear Modulus (GPa) = 20.35774 24.90289 22.63031
#
# Velocity S-wave (km/s) = 3.38562 3.74453 3.56959
# Velocity P-wave (km/s) = 6.65832 7.37252 7.02450
#
# Compressibility (1/GPa) = 0.01938208
#
# Stress axis : x y z
#
# Youngs Moduli (GPa) = 70.65007 54.92206 57.89361
#
# Poissons Ratio (x) = 0.24031 0.49676
# Poissons Ratio (y) = 0.30913 0.12565
# Poissons Ratio (z) = 0.60622 0.11920
#
# Static dielectric constant tensor:
#      x y z
#    x 3.670270 0.000000 0.487120 
#    y 0.000000 3.068880 0.000000 
#    z 0.487120 0.000000 3.258380 
# 
# 
# High freq. dielectric constant tensor:
#      x y z
#    x 1.696330 0.000000 0.034830 
#    y 0.000000 1.667630 0.000000 
#    z 0.034830 0.000000 1.652010 
# 
# From -- ./inp_files/162636.got.cif
#   From: 2010.06.25/outbox.cif.g09.slc.cpg/sg12_82_cif.got.tgz:162636.got - 2010.06.28 00:19:55.
