data_PCOD8113119
_publ_section_title
;
Structure prediction by ZEFSAII (Michael W. Deem and Ramdas Pophale) SiO2 
 PCOD8113119
Probable space group: C 2/M
;
_chemical_formula_sum "Si O2"
_cell_formula_units_Z 64
_cell_length_a 12.012311
_cell_length_b 27.502253
_cell_length_c 13.953781
_cell_angle_alpha 90.000000
_cell_angle_beta 137.791046
_cell_angle_gamma 90.000000
_cell_volume 3097.064442
_symmetry_space_group_name_H-M "C 2/M"
_symmetry_group_IT_number 12
_symmetry_cell_setting 'monoclinic'
loop_
_space_group_symop_operation_xyz
x,y,z
-x,y,-z
-x,-y,-z
x,-y,z
1/2+x,1/2+y,z
1/2-x,1/2+y,-z
1/2-x,1/2-y,-z
1/2+x,1/2-y,z
loop_
_atom_site_type_symbol
_atom_site_label
_atom_site_fract_x
_atom_site_fract_y
_atom_site_fract_z
Si Si1 0.674836 0.056185 0.067397
Si Si2 0.720208 0.136064 0.956280
Si Si3 0.239407 0.375243 0.563483
Si Si4 0.025927 0.713446 0.127393
Si Si5 0.127948 0.756123 0.660461
Si Si6 0.135252 0.643186 0.696517
Si Si7 0.512496 0.696857 0.778036
Si Si8 0.492148 0.442850 0.607025
O O1 0.827784 0.070105 0.234517
O O2 0.676931 0.000000 0.044034
O O3 0.500000 0.072536 0.000000
O O4 0.680763 0.082629 0.969200
O O5 0.569799 0.173693 0.872473
O O6 0.750142 0.131969 0.861583
O O7 0.877097 0.151435 0.119874
O O8 0.204188 0.390266 0.652765
O O9 0.336338 0.323634 0.629672
O O10 0.345967 0.414535 0.571163
O O11 0.057859 0.367406 0.400786
O O12 0.218860 0.710563 0.274714
O O13 0.977141 0.768640 0.122440
O O14 0.000000 0.703603 0.000000
O O15 0.160120 0.698630 0.678377
O O16 0.083333 0.770414 0.739048
O O17 0.000000 0.772599 0.500000
O O18 0.500000 0.427451 0.500000
O O19 0.452054 0.500000 0.591317
#
# Coordination Sequence:
#
# PCOD8113119 Si02
#       8
#     8   8   8   8   8   8   8   8
#     4  10  23  44  68  97 132 165 207 270 338 397
#     4  12  24  40  63  95 125 170 223 269 326 392
#     4  11  24  44  65  98 129 171 223 269 326 391
#     4  12  23  38  60  88 129 168 224 277 323 381
#     4  12  24  41  58  88 128 177 221 273 329 378
#     4  11  24  43  64  91 135 178 217 263 325 393
#     4  12  24  39  61  91 125 171 226 275 323 385
#     4  10  23  47  76 102 130 167 214 275 338 392
#
# _framework density 20.664729999999999
#
# number of rings (size 3 to 8) (size 9 to 14) (size 15 to 20)
#    0.000    0.750    6.250    1.500    3.500    1.500 
#    0.000    1.875    0.000    1.500    0.000    0.000 
#    0.000    0.000    0.000    0.000    0.000    0.000 
#
# Total GULP energy -396612.035797 kJ/mol
# GULP energy per Si atom -12394.126119 kJ/mol
# Density = 2.061770 g / cm^3
# Si number density = 20.664730 Si / 1000 Ang^3
#
#
#
# Elastic Constant Matrix: (Units=GPa)
#
#
# Indices 1 2 3 4 5 6 
#
# 1 105.1967 29.9427 37.3095 0.0000 -0.3689 0.0000
# 2 29.9427 51.4573 19.5050 0.0000 -4.7387 0.0000
# 3 37.3095 19.5050 98.4471 0.0000 -3.0355 0.0000
# 4 0.0000 0.0000 0.0000 29.9031 0.0000 4.1157
# 5 -0.3689 -4.7387 -3.0355 0.0000 39.9133 0.0000
# 6 0.0000 0.0000 0.0000 4.1157 0.0000 31.2276
#
#
#
# Elastic Compliance Matrix: (Units=1/GPa)
#
#
# Indices 1 2 3 4 5 6 
#
# 1 0.012472 -0.005985 -0.003568 0.000000 -0.000867 0.000000
# 2 -0.005985 0.024075 -0.002421 0.000000 0.002619 0.000000
# 3 -0.003568 -0.002421 0.012008 0.000000 0.000593 0.000000
# 4 0.000000 0.000000 0.000000 0.034059 0.000000 -0.004489
# 5 -0.000867 0.002619 0.000593 0.000000 0.025402 0.000000
# 6 0.000000 0.000000 0.000000 -0.004489 0.000000 0.032615
#
#
# Mechanical properties :
#
#
# Convention : Reuss Voigt Hill
#
# Bulk Modulus (GPa) = 40.63759 47.62394 44.13077
# Shear Modulus (GPa) = 28.93863 31.43175 30.18519
#
# Velocity S-wave (km/s) = 3.74624 3.90427 3.82607
# Velocity P-wave (km/s) = 6.19841 6.58942 6.39690
#
# Compressibility (1/GPa) = 0.02460776
#
# Stress axis : x y z
#
# Youngs Moduli (GPa) = 80.18161 41.53703 83.27989
#
# Poissons Ratio (x) = 0.24859 0.29710
# Poissons Ratio (y) = 0.47986 0.20162
# Poissons Ratio (z) = 0.28605 0.10056
#
# Static dielectric constant tensor:
#      x y z
#    x 3.988250 0.000000 0.107040 
#    y 0.000000 3.486380 0.000000 
#    z 0.107040 0.000000 3.906040 
# 
# 
# High freq. dielectric constant tensor:
#      x y z
#    x 1.819950 0.000000 0.001700 
#    y 0.000000 1.782320 0.000000 
#    z 0.001700 0.000000 1.821310 
# 
# From -- ./inp_files/209418.got.cif
#   From: 2010.06.25/outbox.cif.g09.slc.cpg/sg12_105_cif.got.tgz:209418.got - 2010.06.28 00:19:55.
