data_PCOD8113000
_publ_section_title
;
Structure prediction by ZEFSAII (Michael W. Deem and Ramdas Pophale) SiO2 
 PCOD8113000
Probable space group: C 2/M
;
_chemical_formula_sum "Si O2"
_cell_formula_units_Z 48
_cell_length_a 20.272639
_cell_length_b 8.778823
_cell_length_c 13.847702
_cell_angle_alpha 90.000000
_cell_angle_beta 90.483797
_cell_angle_gamma 90.000000
_cell_volume 2464.386416
_symmetry_space_group_name_H-M "C 2/M"
_symmetry_group_IT_number 12
_symmetry_cell_setting 'monoclinic'
loop_
_space_group_symop_operation_xyz
x,y,z
-x,y,-z
-x,-y,-z
x,-y,z
1/2+x,1/2+y,z
1/2-x,1/2+y,-z
1/2-x,1/2-y,-z
1/2+x,1/2-y,z
loop_
_atom_site_type_symbol
_atom_site_label
_atom_site_fract_x
_atom_site_fract_y
_atom_site_fract_z
Si Si1 0.065224 0.321532 0.556055
Si Si2 0.612326 0.319575 0.752374
Si Si3 0.688341 0.327753 0.047360
Si Si4 0.067611 0.678784 0.948056
Si Si5 0.806923 0.678058 0.562780
Si Si6 0.244246 0.172100 0.255706
O O1 0.062156 0.500000 0.579625
O O2 0.073561 0.234409 0.656916
O O3 0.124228 0.279997 0.484965
O O4 0.000000 0.265413 0.500000
O O5 0.615181 0.500000 0.753015
O O6 0.572476 0.262567 0.845367
O O7 0.686857 0.258425 0.756516
O O8 0.680457 0.500000 0.008019
O O9 0.699487 0.326541 0.161006
O O10 0.750000 0.250000 0.000000
O O11 0.624238 0.231223 0.021594
O O12 0.074225 0.500000 0.928783
O O13 0.000000 0.722183 0.000000
O O14 0.795484 0.500000 0.570228
O O15 0.750000 0.750000 0.500000
O O16 0.803653 0.748827 0.668506
O O17 0.261744 0.000000 0.288016
#
# Coordination Sequence:
#
# PCOD8113000 Si02
#       6
#     8   8   8   8   8   8
#     4  10  23  43  65  90 126 169 209 254 311 376
#     4  12  24  39  65  94 124 165 209 260 319 379
#     4  11  23  39  64  94 126 165 210 262 313 372
#     4  11  25  44  66  92 128 171 212 261 319 381
#     4  11  22  37  62  92 123 161 208 258 307 366
#     4  11  23  39  62  92 128 165 208 261 314 375
#
# _framework density 19.477464000000001
#
# number of rings (size 3 to 8) (size 9 to 14) (size 15 to 20)
#    0.000    1.000    3.333    3.500    0.000    5.667 
#    0.000    5.000    0.000    0.000    0.000    0.000 
#    0.000    0.000    0.000    0.000    0.000    0.000 
#
# Total GULP energy -297703.892541 kJ/mol
# GULP energy per Si atom -12404.328856 kJ/mol
# Density = 1.943313 g / cm^3
# Si number density = 19.477464 Si / 1000 Ang^3
#
#
#
# Elastic Constant Matrix: (Units=GPa)
#
#
# Indices 1 2 3 4 5 6 
#
# 1 152.7676 72.2612 70.4719 0.0000 -1.7256 0.0000
# 2 72.2612 115.1061 69.6333 0.0000 -11.7560 0.0000
# 3 70.4719 69.6333 139.6821 0.0000 -10.1456 0.0000
# 4 0.0000 0.0000 0.0000 38.2324 0.0000 -0.7645
# 5 -1.7256 -11.7560 -10.1456 0.0000 32.6270 0.0000
# 6 0.0000 0.0000 0.0000 -0.7645 0.0000 30.8986
#
#
#
# Elastic Compliance Matrix: (Units=1/GPa)
#
#
# Indices 1 2 3 4 5 6 
#
# 1 0.010129 -0.004853 -0.002843 0.000000 -0.002097 0.000000
# 2 -0.004853 0.014986 -0.004756 0.000000 0.003664 0.000000
# 3 -0.002843 -0.004756 0.011079 0.000000 0.001581 0.000000
# 4 0.000000 0.000000 0.000000 0.026169 0.000000 0.000647
# 5 -0.002097 0.003664 0.001581 0.000000 0.032350 0.000000
# 6 0.000000 0.000000 0.000000 0.000647 0.000000 0.032380
#
#
# Mechanical properties :
#
#
# Convention : Reuss Voigt Hill
#
# Bulk Modulus (GPa) = 88.57768 92.47650 90.52709
# Shear Modulus (GPa) = 32.10029 33.36422 32.73225
#
# Velocity S-wave (km/s) = 4.06405 4.14329 4.10386
# Velocity P-wave (km/s) = 8.22178 8.39470 8.30869
#
# Compressibility (1/GPa) = 0.01128953
#
# Stress axis : x y z
#
# Youngs Moduli (GPa) = 98.72159 66.73069 90.25736
#
# Poissons Ratio (x) = 0.32385 0.25665
# Poissons Ratio (y) = 0.47911 0.42926
# Poissons Ratio (z) = 0.28071 0.31737
#
# Static dielectric constant tensor:
#      x y z
#    x 3.442780 0.000000 -0.104560 
#    y 0.000000 3.773440 0.000000 
#    z -0.104560 0.000000 3.397220 
# 
# 
# High freq. dielectric constant tensor:
#      x y z
#    x 1.757240 0.000000 -0.000360 
#    y 0.000000 1.773470 0.000000 
#    z -0.000360 0.000000 1.775920 
# 
# From -- ./inp_files/221703.got.cif
#   From: 2010.06.25/outbox.cif.g09.slc.cpg/sg12_111_cif.got.tgz:221703.got - 2010.06.28 00:19:55.
