data_PCOD8113507
_publ_section_title
;
Structure prediction by ZEFSAII (Michael W. Deem and Ramdas Pophale) SiO2 
 PCOD8113507
Probable space group: C 2/M
;
_chemical_formula_sum "Si O2"
_cell_formula_units_Z 40
_cell_length_a 8.983733
_cell_length_b 18.287045
_cell_length_c 18.397313
_cell_angle_alpha 90.000000
_cell_angle_beta 142.665571
_cell_angle_gamma 90.000000
_cell_volume 1832.995645
_symmetry_space_group_name_H-M "C 2/M"
_symmetry_group_IT_number 12
_symmetry_cell_setting 'monoclinic'
loop_
_space_group_symop_operation_xyz
x,y,z
-x,y,-z
-x,-y,-z
x,-y,z
1/2+x,1/2+y,z
1/2-x,1/2+y,-z
1/2-x,1/2-y,-z
1/2+x,1/2-y,z
loop_
_atom_site_type_symbol
_atom_site_label
_atom_site_fract_x
_atom_site_fract_y
_atom_site_fract_z
Si Si1 0.900137 0.120254 0.641241
Si Si2 0.772515 0.274461 0.748942
Si Si3 0.000000 0.268497 0.500000
Si Si4 0.235451 0.500000 0.688533
Si Si5 0.736640 0.161951 0.859641
Si Si6 0.155029 0.000000 0.488711
Si Si7 0.218966 0.000000 0.139469
O O1 0.706793 0.181727 0.543955
O O2 0.799295 0.072963 0.669302
O O3 0.943141 0.071094 0.588793
O O4 0.157346 0.162182 0.756519
O O5 0.621447 0.276213 0.613847
O O6 0.756546 0.197702 0.786470
O O7 0.053333 0.292906 0.839929
O O8 0.395883 0.500000 0.823783
O O9 0.951831 0.500000 0.605350
O O10 0.636138 0.077505 0.813833
O O11 0.000000 0.164063 0.000000
O O12 0.000000 0.000000 0.500000
O O13 0.000000 0.000000 0.000000
#
# Coordination Sequence:
#
# PCOD8113507 Si02
#       7
#     8   8   4   4   8   4   4
#     4  11  23  41  63 102 137 181 226 270 346 416
#     4  12  26  41  72 103 137 180 226 289 342 417
#     4  12  22  41  64  99 142 172 222 274 354 401
#     4  11  22  44  68  88 146 183 220 278 342 409
#     4  11  26  48  71  98 136 181 235 285 343 405
#     4  11  25  36  65  97 140 185 223 274 336 420
#     4  10  25  44  72  96 127 174 229 282 339 397
#
# _framework density 21.822202000000001
#
# number of rings (size 3 to 8) (size 9 to 14) (size 15 to 20)
#    0.000    0.800    4.000    3.000    4.200    0.800 
#    0.000    0.000    0.000    2.400    0.000    0.000 
#    0.000    0.000    0.000    0.000    0.000    0.000 
#
# Total GULP energy -247799.516539 kJ/mol
# GULP energy per Si atom -12389.975827 kJ/mol
# Density = 2.177253 g / cm^3
# Si number density = 21.822202 Si / 1000 Ang^3
#
#
#
# Elastic Constant Matrix: (Units=GPa)
#
#
# Indices 1 2 3 4 5 6 
#
# 1 142.3857 66.0428 42.8442 0.0021 7.8219 0.0024
# 2 66.0428 140.3617 35.9421 0.0003 4.4772 0.0008
# 3 42.8442 35.9421 94.5859 0.0076 -7.0542 0.0052
# 4 0.0021 0.0003 0.0076 33.0770 0.0040 0.2605
# 5 7.8219 4.4772 -7.0542 0.0040 36.9808 0.0032
# 6 0.0024 0.0008 0.0052 0.2605 0.0032 31.2195
#
#
#
# Elastic Compliance Matrix: (Units=1/GPa)
#
#
# Indices 1 2 3 4 5 6 
#
# 1 0.009846 -0.003740 -0.003206 0.000000 -0.002241 0.000000
# 2 -0.003740 0.009402 -0.001932 0.000001 -0.000716 0.000000
# 3 -0.003206 -0.001932 0.013012 -0.000003 0.003394 -0.000002
# 4 0.000000 0.000001 -0.000003 0.030235 -0.000004 -0.000252
# 5 -0.002241 -0.000716 0.003394 -0.000004 0.028249 -0.000003
# 6 0.000000 0.000000 -0.000002 -0.000252 -0.000003 0.032033
#
#
# Mechanical properties :
#
#
# Convention : Reuss Voigt Hill
#
# Bulk Modulus (GPa) = 68.94756 74.11015 71.52886
# Shear Modulus (GPa) = 34.39590 35.75574 35.07582
#
# Velocity S-wave (km/s) = 3.97443 4.05223 4.01352
# Velocity P-wave (km/s) = 7.26121 7.47855 7.37068
#
# Compressibility (1/GPa) = 0.01450378
#
# Stress axis : x y z
#
# Youngs Moduli (GPa) = 101.56699 106.36260 76.85425
#
# Poissons Ratio (x) = 0.39782 0.24637
# Poissons Ratio (y) = 0.37988 0.14847
# Poissons Ratio (z) = 0.32559 0.20547
#
# Static dielectric constant tensor:
#      x y z
#    x 4.373290 0.000000 -0.177330 
#    y 0.000000 4.492560 -0.000010 
#    z -0.177330 -0.000010 3.858900 
# 
# 
# High freq. dielectric constant tensor:
#      x y z
#    x 1.865880 0.000000 -0.004850 
#    y 0.000000 1.879990 0.000000 
#    z -0.004850 0.000000 1.835170 
# 
# From -- ./inp_files/258361.got.cif
#   From: 2010.06.25/outbox.cif.g09.slc.cpg/sg12_130_cif.got.tgz:258361.got - 2010.06.28 00:19:55.
