data_PCOD8113024
_publ_section_title
;
Structure prediction by ZEFSAII (Michael W. Deem and Ramdas Pophale) SiO2 
 PCOD8113024
Probable space group: C 2/M
;
_chemical_formula_sum "Si O2"
_cell_formula_units_Z 48
_cell_length_a 27.081877
_cell_length_b 8.469521
_cell_length_c 16.837908
_cell_angle_alpha 90.000000
_cell_angle_beta 36.397060
_cell_angle_gamma 90.000000
_cell_volume 2291.695327
_symmetry_space_group_name_H-M "C 2/M"
_symmetry_group_IT_number 12
_symmetry_cell_setting 'monoclinic'
loop_
_space_group_symop_operation_xyz
x,y,z
-x,y,-z
-x,-y,-z
x,-y,z
1/2+x,1/2+y,z
1/2-x,1/2+y,-z
1/2-x,1/2-y,-z
1/2+x,1/2-y,z
loop_
_atom_site_type_symbol
_atom_site_label
_atom_site_fract_x
_atom_site_fract_y
_atom_site_fract_z
Si Si1 0.866112 0.681280 0.477934
Si Si2 0.509790 0.316613 0.395980
Si Si3 0.301488 0.817340 0.255405
Si Si4 0.583496 0.816161 0.038029
Si Si5 0.841902 0.684783 0.887443
Si Si6 0.096781 0.818859 0.735707
O O1 0.868474 0.500000 0.448433
O O2 0.783200 0.717653 0.634732
O O3 0.866589 0.787246 0.398700
O O4 0.946397 0.713328 0.427146
O O5 0.500000 0.269757 0.500000
O O6 0.490380 0.500000 0.406917
O O7 0.603172 0.275788 0.248678
O O8 0.355795 0.790476 0.263389
O O9 0.277476 0.000000 0.279938
O O10 0.352596 0.761877 0.112368
O O11 0.623685 0.776723 0.070145
O O12 0.500805 0.714966 0.134840
O O13 0.560416 0.000000 0.059700
O O14 0.843525 0.500000 0.866910
O O15 0.750000 0.750000 0.000000
O O16 0.113307 0.000000 0.736567
#
# Coordination Sequence:
#
# PCOD8113024 Si02
#       6
#     8   8   8   8   8   8
#     4  12  25  43  66  95 131 168 215 266 320 379
#     4  11  25  45  69  97 130 168 212 262 322 383
#     4  11  24  42  65  94 131 172 215 263 320 379
#     4  10  23  43  66  93 129 172 213 262 320 380
#     4  11  24  43  68  98 131 169 215 262 317 379
#     4  12  24  41  66  95 129 170 217 265 320 379
#
# _framework density 20.945191999999999
#
# number of rings (size 3 to 8) (size 9 to 14) (size 15 to 20)
#    0.000    0.833    1.667    5.500    2.333    5.333 
#    0.000    0.000    0.000    0.000    0.000    0.000 
#    0.000    0.000    0.000    0.000    0.000    0.000 
#
# Total GULP energy -297827.261203 kJ/mol
# GULP energy per Si atom -12409.469217 kJ/mol
# Density = 2.089752 g / cm^3
# Si number density = 20.945192 Si / 1000 Ang^3
#
#
#
# Elastic Constant Matrix: (Units=GPa)
#
#
# Indices 1 2 3 4 5 6 
#
# 1 77.5432 15.5637 38.1116 -0.0097 -4.7075 0.0050
# 2 15.5637 62.4351 27.1540 0.0401 -1.0133 -0.0241
# 3 38.1116 27.1540 148.7560 -0.0011 2.6218 0.0004
# 4 -0.0097 0.0401 -0.0011 20.0196 -0.0032 4.0279
# 5 -4.7075 -1.0133 2.6218 -0.0032 40.5604 -0.0005
# 6 0.0050 -0.0241 0.0004 4.0279 -0.0005 29.9813
#
#
#
# Elastic Compliance Matrix: (Units=1/GPa)
#
#
# Indices 1 2 3 4 5 6 
#
# 1 0.015190 -0.002224 -0.003520 0.000013 0.001935 -0.000006
# 2 -0.002224 0.017740 -0.002675 -0.000041 0.000358 0.000020
# 3 -0.003520 -0.002675 0.008130 0.000004 -0.001001 -0.000002
# 4 0.000013 -0.000041 0.000004 0.051339 0.000004 -0.006897
# 5 0.001935 0.000358 -0.001001 0.000004 0.024953 0.000000
# 6 -0.000006 0.000020 -0.000002 -0.006897 0.000000 0.034281
#
#
# Mechanical properties :
#
#
# Convention : Reuss Voigt Hill
#
# Bulk Modulus (GPa) = 41.28383 50.04364 45.66374
# Shear Modulus (GPa) = 28.32148 31.97260 30.14704
#
# Velocity S-wave (km/s) = 3.68118 3.91127 3.79797
# Velocity P-wave (km/s) = 6.14990 6.65897 6.40949
#
# Compressibility (1/GPa) = 0.02422256
#
# Stress axis : x y z
#
# Youngs Moduli (GPa) = 65.83344 56.36910 123.00015
#
# Poissons Ratio (x) = 0.12538 0.43293
# Poissons Ratio (y) = 0.14643 0.32899
# Poissons Ratio (z) = 0.23172 0.15077
#
# Static dielectric constant tensor:
#      x y z
#    x 3.666400 -0.000010 0.075240 
#    y -0.000010 3.741190 0.000010 
#    z 0.075240 0.000010 3.979860 
# 
# 
# High freq. dielectric constant tensor:
#      x y z
#    x 1.824960 0.000000 -0.002730 
#    y 0.000000 1.825700 0.000000 
#    z -0.002730 0.000000 1.839970 
# 
# From -- ./inp_files/244643.got.cif
#   From: 2010.06.25/outbox.cif.g09.slc.cpg/sg12_123_cif.got.tgz:244643.got - 2010.06.28 00:19:55.
