data_PCOD8113856
_publ_section_title
;
Structure prediction by ZEFSAII (Michael W. Deem and Ramdas Pophale) SiO2 
 PCOD8113856
Probable space group: C 2/M
;
_chemical_formula_sum "Si O2"
_cell_formula_units_Z 64
_cell_length_a 9.861298
_cell_length_b 27.540043
_cell_length_c 17.078633
_cell_angle_alpha 90.000000
_cell_angle_beta 54.352720
_cell_angle_gamma 90.000000
_cell_volume 3769.114882
_symmetry_space_group_name_H-M "C 2/M"
_symmetry_group_IT_number 12
_symmetry_cell_setting 'monoclinic'
loop_
_space_group_symop_operation_xyz
x,y,z
-x,y,-z
-x,-y,-z
x,-y,z
1/2+x,1/2+y,z
1/2-x,1/2+y,-z
1/2-x,1/2-y,-z
1/2+x,1/2-y,z
loop_
_atom_site_type_symbol
_atom_site_label
_atom_site_fract_x
_atom_site_fract_y
_atom_site_fract_z
Si Si1 0.818550 0.057716 0.584267
Si Si2 0.445985 0.697149 0.931624
Si Si3 0.402277 0.400183 0.876685
Si Si4 0.390603 0.901618 0.898542
Si Si5 0.742513 0.444480 0.796774
Si Si6 0.735360 0.944113 0.787127
Si Si7 0.941787 0.698052 0.934180
Si Si8 0.016015 0.557233 0.581598
O O1 0.777924 0.074336 0.685882
O O2 0.677258 0.078885 0.573057
O O3 0.000000 0.078494 0.500000
O O4 0.817035 0.000000 0.580192
O O5 0.484227 0.653944 0.856988
O O6 0.528194 0.749947 0.880716
O O7 0.500000 0.680096 0.000000
O O8 0.252471 0.706638 0.998644
O O9 0.546101 0.438731 0.847845
O O10 0.338050 0.409600 0.810933
O O11 0.247592 0.406189 0.987487
O O12 0.301484 0.910124 0.846538
O O13 0.536359 0.940111 0.866777
O O14 0.477102 0.847827 0.865733
O O15 0.779182 0.500000 0.808064
O O16 0.846338 0.429993 0.684646
O O17 0.787832 0.000000 0.783173
O O18 0.000000 0.681685 0.000000
O O19 0.040624 0.500000 0.566206
O O20 0.000000 0.580179 0.500000
#
# Coordination Sequence:
#
# PCOD8113856 Si02
#       8
#     8   8   8   8   8   8   8   8
#     4   9  18  33  52  70  90 120 160 211 260 286
#     4   9  17  32  49  68  92 121 164 215 253 278
#     4  11  22  32  47  70 100 139 173 197 231 286
#     4  11  20  34  49  68 100 137 171 201 237 284
#     4  11  22  34  47  69 102 137 171 202 234 283
#     4  11  22  34  47  69 102 135 169 204 234 281
#     4   9  17  30  51  70  88 121 164 211 257 284
#     4   9  18  33  52  70  90 120 161 211 257 287
#
# _framework density 16.980115000000001
#
# number of rings (size 3 to 8) (size 9 to 14) (size 15 to 20)
#    0.000    2.000    1.250    4.500    1.750    3.000 
#    0.000    0.000    0.000    0.000    0.000    0.000 
#    0.000    6.000    0.000    0.000    0.000    0.000 
#
# Total GULP energy -396575.655609 kJ/mol
# GULP energy per Si atom -12392.989238 kJ/mol
# Density = 1.694147 g / cm^3
# Si number density = 16.980115 Si / 1000 Ang^3
#
#
#
# Elastic Constant Matrix: (Units=GPa)
#
#
# Indices 1 2 3 4 5 6 
#
# 1 127.7806 28.5941 54.6896 0.0000 18.7385 0.0000
# 2 28.5941 60.1711 43.6760 0.0000 8.5931 0.0000
# 3 54.6896 43.6760 92.0985 0.0000 16.3315 0.0000
# 4 0.0000 0.0000 0.0000 2.4634 0.0000 5.0659
# 5 18.7385 8.5931 16.3315 0.0000 32.7531 0.0000
# 6 0.0000 0.0000 0.0000 5.0659 0.0000 23.6755
#
#
#
# Elastic Compliance Matrix: (Units=1/GPa)
#
#
# Indices 1 2 3 4 5 6 
#
# 1 0.010820 -0.000659 -0.005535 0.000000 -0.003258 0.000000
# 2 -0.000659 0.025399 -0.011561 0.000000 -0.000522 0.000000
# 3 -0.005535 -0.011561 0.020325 0.000000 -0.003935 0.000000
# 4 0.000000 0.000000 0.000000 0.724940 0.000000 -0.155117
# 5 -0.003258 -0.000522 -0.003935 0.000000 0.034494 0.000000
# 6 0.000000 0.000000 0.000000 -0.155117 0.000000 0.075428
#
#
# Mechanical properties :
#
#
# Convention : Reuss Voigt Hill
#
# Bulk Modulus (GPa) = 47.54232 59.32996 53.43614
# Shear Modulus (GPa) = 5.35373 21.98442 13.66908
#
# Velocity S-wave (km/s) = 1.77758 3.60212 2.84034
# Velocity P-wave (km/s) = 5.68090 7.23305 6.50345
#
# Compressibility (1/GPa) = 0.02103389
#
# Stress axis : x y z
#
# Youngs Moduli (GPa) = 92.42139 39.37207 49.20049
#
# Poissons Ratio (x) = 0.02595 0.27232
# Poissons Ratio (y) = 0.06091 0.56881
# Poissons Ratio (z) = 0.51155 0.45518
#
# Static dielectric constant tensor:
#      x y z
#    x 3.401220 0.000000 0.046540 
#    y 0.000000 3.432290 0.000000 
#    z 0.046540 0.000000 3.032900 
# 
# 
# High freq. dielectric constant tensor:
#      x y z
#    x 1.681730 0.000000 0.009130 
#    y 0.000000 1.629240 0.000000 
#    z 0.009130 0.000000 1.617870 
# 
# From -- ./inp_files/200926.got.cif
#   From: 2010.06.25/outbox.cif.g09.slc.cpg/sg12_101_cif.got.tgz:200926.got - 2010.06.28 00:19:55.
