data_PCOD8113385
_publ_section_title
;
Structure prediction by ZEFSAII (Michael W. Deem and Ramdas Pophale) SiO2 
 PCOD8113385
Probable space group: C 2/M
;
_chemical_formula_sum "Si O2"
_cell_formula_units_Z 48
_cell_length_a 23.188699
_cell_length_b 8.568377
_cell_length_c 12.164646
_cell_angle_alpha 90.000000
_cell_angle_beta 69.206042
_cell_angle_gamma 90.000000
_cell_volume 2259.552579
_symmetry_space_group_name_H-M "C 2/M"
_symmetry_group_IT_number 12
_symmetry_cell_setting 'monoclinic'
loop_
_space_group_symop_operation_xyz
x,y,z
-x,y,-z
-x,-y,-z
x,-y,z
1/2+x,1/2+y,z
1/2-x,1/2+y,-z
1/2-x,1/2-y,-z
1/2+x,1/2-y,z
loop_
_atom_site_type_symbol
_atom_site_label
_atom_site_fract_x
_atom_site_fract_y
_atom_site_fract_z
Si Si1 0.555990 0.316425 0.220718
Si Si2 0.265617 0.817780 0.106869
Si Si3 0.569835 0.815836 0.753744
Si Si4 0.817536 0.320050 0.464776
Si Si5 0.394479 0.317149 0.049652
Si Si6 0.845019 0.319627 0.693201
O O1 0.564729 0.500000 0.231035
O O2 0.484668 0.269682 0.275030
O O3 0.590389 0.226803 0.295466
O O4 0.584399 0.260882 0.084937
O O5 0.323601 0.727047 0.117077
O O6 0.208286 0.791486 0.225055
O O7 0.280864 0.000000 0.088077
O O8 0.250000 0.750000 0.000000
O O9 0.634615 0.754603 0.658690
O O10 0.565430 0.769594 0.884805
O O11 0.562129 0.000000 0.744168
O O12 0.807855 0.500000 0.448857
O O13 0.750000 0.250000 0.500000
O O14 0.848850 0.288027 0.561119
O O15 0.404995 0.500000 0.057413
O O16 0.829798 0.500000 0.729370
#
# Coordination Sequence:
#
# PCOD8113385 Si02
#       6
#     8   8   8   8   8   8
#     4  11  24  41  62  91 127 165 209 258 313 373
#     4  12  23  37  60  92 126 161 204 252 309 367
#     4  11  24  42  64  91 125 165 211 257 312 373
#     4  10  24  44  66  93 123 161 205 258 312 369
#     4  11  23  40  62  91 128 165 209 261 311 366
#     4  11  23  41  65  92 126 165 209 258 313 368
#
# _framework density 21.243144000000001
#
# number of rings (size 3 to 8) (size 9 to 14) (size 15 to 20)
#    0.000    1.000    1.667    5.000    0.000   10.000 
#    0.000    3.333    0.000    0.000    0.000    0.000 
#    0.000    0.000    0.000    0.000    0.000    0.000 
#
# Total GULP energy -297740.874529 kJ/mol
# GULP energy per Si atom -12405.869772 kJ/mol
# Density = 2.119479 g / cm^3
# Si number density = 21.243144 Si / 1000 Ang^3
#
#
#
# Elastic Constant Matrix: (Units=GPa)
#
#
# Indices 1 2 3 4 5 6 
#
# 1 141.1044 21.9009 40.5670 0.0000 6.0613 0.0000
# 2 21.9009 58.8804 38.3851 0.0000 2.9926 0.0000
# 3 40.5670 38.3851 92.2616 0.0000 6.1743 0.0000
# 4 0.0000 0.0000 0.0000 29.6702 0.0000 0.3854
# 5 6.0613 2.9926 6.1743 0.0000 34.9364 0.0000
# 6 0.0000 0.0000 0.0000 0.3854 0.0000 39.6600
#
#
#
# Elastic Compliance Matrix: (Units=1/GPa)
#
#
# Indices 1 2 3 4 5 6 
#
# 1 0.008172 -0.000949 -0.003146 0.000000 -0.000781 0.000000
# 2 -0.000949 0.023417 -0.009312 0.000000 -0.000195 0.000000
# 3 -0.003146 -0.009312 0.016198 0.000000 -0.001519 0.000000
# 4 0.000000 0.000000 0.000000 0.033708 0.000000 -0.000328
# 5 -0.000781 -0.000195 -0.001519 0.000000 0.029044 0.000000
# 6 0.000000 0.000000 0.000000 -0.000328 0.000000 0.025218
#
#
# Mechanical properties :
#
#
# Convention : Reuss Voigt Hill
#
# Bulk Modulus (GPa) = 47.68117 54.88362 51.28239
# Shear Modulus (GPa) = 29.48743 33.61286 31.55015
#
# Velocity S-wave (km/s) = 3.72975 3.98212 3.85800
# Velocity P-wave (km/s) = 6.40642 6.85821 6.63616
#
# Compressibility (1/GPa) = 0.02097264
#
# Stress axis : x y z
#
# Youngs Moduli (GPa) = 122.36439 42.70331 61.73525
#
# Poissons Ratio (x) = 0.04052 0.19424
# Poissons Ratio (y) = 0.11612 0.57490
# Poissons Ratio (z) = 0.38499 0.39767
#
# Static dielectric constant tensor:
#      x y z
#    x 3.992600 0.000000 0.013830 
#    y 0.000000 3.553840 0.000000 
#    z 0.013830 0.000000 3.805120 
# 
# 
# High freq. dielectric constant tensor:
#      x y z
#    x 1.847830 0.000000 0.005110 
#    y 0.000000 1.835330 0.000000 
#    z 0.005110 0.000000 1.831870 
# 
# From -- ./inp_files/172861.got.cif
#   From: 2010.06.25/outbox.cif.g09.slc.cpg/sg12_87_cif.got.tgz:172861.got - 2010.06.28 00:19:55.
