data_PCOD8113122
_publ_section_title
;
Structure prediction by ZEFSAII (Michael W. Deem and Ramdas Pophale) SiO2 
 PCOD8113122
Probable space group: C 2/M
;
_chemical_formula_sum "Si O2"
_cell_formula_units_Z 40
_cell_length_a 9.219349
_cell_length_b 17.977411
_cell_length_c 11.141737
_cell_angle_alpha 90.000000
_cell_angle_beta 79.562216
_cell_angle_gamma 90.000000
_cell_volume 1816.074111
_symmetry_space_group_name_H-M "C 2/M"
_symmetry_group_IT_number 12
_symmetry_cell_setting 'monoclinic'
loop_
_space_group_symop_operation_xyz
x,y,z
-x,y,-z
-x,-y,-z
x,-y,z
1/2+x,1/2+y,z
1/2-x,1/2+y,-z
1/2-x,1/2-y,-z
1/2+x,1/2-y,z
loop_
_atom_site_type_symbol
_atom_site_label
_atom_site_fract_x
_atom_site_fract_y
_atom_site_fract_z
Si Si1 0.394530 0.698990 0.836581
Si Si2 0.160044 0.196622 0.425557
Si Si3 0.832968 0.085301 0.215420
Si Si4 0.662150 0.914978 0.486280
Si Si5 0.858816 0.646487 0.961654
O O1 0.348153 0.723859 0.709601
O O2 0.536873 0.645286 0.820116
O O3 0.423148 0.774945 0.903275
O O4 0.261744 0.655194 0.916942
O O5 0.250000 0.250000 0.500000
O O6 0.249695 0.119231 0.414746
O O7 0.000000 0.182089 0.500000
O O8 0.755501 0.100086 0.353212
O O9 0.709426 0.096329 0.132668
O O10 0.892447 0.000000 0.199411
O O11 0.500000 0.877051 0.500000
O O12 0.640485 0.000000 0.521471
O O13 0.000000 0.605396 0.000000
#
# Coordination Sequence:
#
# PCOD8113122 Si02
#       5
#     8   8   8   8   8
#     4  11  24  43  66  96 134 180 220 277 335 408
#     4  12  25  40  67 100 132 171 228 278 333 406
#     4  11  24  46  71 100 136 178 228 279 335 405
#     4  10  23  44  68  97 139 180 216 274 346 408
#     4  11  25  42  67  95 134 175 225 278 343 396
#
# _framework density 22.025531999999998
#
# number of rings (size 3 to 8) (size 9 to 14) (size 15 to 20)
#    0.000    1.000    2.000    4.800    5.600    3.200 
#    0.000    0.000    0.000    0.000    0.000    0.000 
#    0.000    0.000    0.000    0.000    0.000    0.000 
#
# Total GULP energy -247997.298035 kJ/mol
# GULP energy per Si atom -12399.864902 kJ/mol
# Density = 2.197540 g / cm^3
# Si number density = 22.025532 Si / 1000 Ang^3
#
#
#
# Elastic Constant Matrix: (Units=GPa)
#
#
# Indices 1 2 3 4 5 6 
#
# 1 148.7476 47.7197 30.4277 0.0000 10.7682 0.0000
# 2 47.7197 74.6814 22.4177 0.0000 -3.8833 0.0000
# 3 30.4277 22.4177 82.7499 0.0000 14.7978 0.0000
# 4 0.0000 0.0000 0.0000 16.1538 0.0000 -7.2926
# 5 10.7682 -3.8833 14.7978 0.0000 45.2648 0.0000
# 6 0.0000 0.0000 0.0000 -7.2926 0.0000 35.1618
#
#
#
# Elastic Compliance Matrix: (Units=1/GPa)
#
#
# Indices 1 2 3 4 5 6 
#
# 1 0.008888 -0.005356 -0.001441 0.000000 -0.002103 0.000000
# 2 -0.005356 0.018120 -0.003659 0.000000 0.004025 0.000000
# 3 -0.001441 -0.003659 0.014445 0.000000 -0.004693 0.000000
# 4 0.000000 0.000000 0.000000 0.068300 0.000000 0.014165
# 5 -0.002103 0.004025 -0.004693 0.000000 0.024472 0.000000
# 6 0.000000 0.000000 0.000000 0.014165 0.000000 0.031378
#
#
# Mechanical properties :
#
#
# Convention : Reuss Voigt Hill
#
# Bulk Modulus (GPa) = 48.68405 56.36768 52.52586
# Shear Modulus (GPa) = 25.85806 33.02367 29.44087
#
# Velocity S-wave (km/s) = 3.43009 3.87633 3.66002
# Velocity P-wave (km/s) = 6.15133 6.75885 6.46223
#
# Compressibility (1/GPa) = 0.02054061
#
# Stress axis : x y z
#
# Youngs Moduli (GPa) = 112.51013 55.18672 69.22724
#
# Poissons Ratio (x) = 0.29558 0.09977
# Poissons Ratio (y) = 0.60261 0.25332
# Poissons Ratio (z) = 0.16215 0.20194
#
# Static dielectric constant tensor:
#      x y z
#    x 4.543780 0.000000 0.318090 
#    y 0.000000 4.103330 0.000000 
#    z 0.318090 0.000000 4.340130 
# 
# 
# High freq. dielectric constant tensor:
#      x y z
#    x 1.886610 0.000000 0.000420 
#    y 0.000000 1.857420 0.000000 
#    z 0.000420 0.000000 1.875220 
# 
# From -- ./inp_files/118896.got.cif
#   From: 2010.06.25/outbox.cif.g09.slc.cpg/sg12_60_cif.got.tgz:118896.got - 2010.06.28 00:19:55.
