data_PCOD8113708
_publ_section_title
;
Structure prediction by ZEFSAII (Michael W. Deem and Ramdas Pophale) SiO2 
 PCOD8113708
Probable space group: C 2/M
;
_chemical_formula_sum "Si O2"
_cell_formula_units_Z 64
_cell_length_a 11.030998
_cell_length_b 30.276813
_cell_length_c 17.519997
_cell_angle_alpha 90.000000
_cell_angle_beta 145.716399
_cell_angle_gamma 90.000000
_cell_volume 3296.026627
_symmetry_space_group_name_H-M "C 2/M"
_symmetry_group_IT_number 12
_symmetry_cell_setting 'monoclinic'
loop_
_space_group_symop_operation_xyz
x,y,z
-x,y,-z
-x,-y,-z
x,-y,z
1/2+x,1/2+y,z
1/2-x,1/2+y,-z
1/2-x,1/2-y,-z
1/2+x,1/2-y,z
loop_
_atom_site_type_symbol
_atom_site_label
_atom_site_fract_x
_atom_site_fract_y
_atom_site_fract_z
Si Si1 0.823796 0.199316 0.200053
Si Si2 0.903834 0.428905 0.063002
Si Si3 0.252119 0.795787 0.146091
Si Si4 0.239911 0.049724 0.138414
Si Si5 0.657636 0.549557 0.787696
Si Si6 0.829485 0.126835 0.625840
Si Si7 0.876223 0.624753 0.317982
Si Si8 0.914613 0.326801 0.071259
O O1 0.853942 0.251092 0.234716
O O2 0.663799 0.177256 0.177931
O O3 0.045175 0.172765 0.319989
O O4 0.731944 0.198053 0.066419
O O5 0.148650 0.437348 0.167246
O O6 0.846819 0.377535 0.036385
O O7 0.870655 0.450484 0.127731
O O8 0.739501 0.450177 0.917395
O O9 0.284394 0.834432 0.223092
O O10 0.379555 0.806076 0.135321
O O11 0.000000 0.788917 0.000000
O O12 0.356851 0.079629 0.261222
O O13 0.231350 0.000000 0.166540
O O14 0.000000 0.068399 0.000000
O O15 0.575618 0.500000 0.726369
O O16 0.467347 0.584109 0.673740
O O17 0.626973 0.131146 0.465061
O O18 0.762095 0.120563 0.677902
#
# Coordination Sequence:
#
# PCOD8113708 Si02
#       8
#     8   8   8   8   8   8   8   8
#     4  11  22  39  63  92 123 155 198 244 297 354
#     4  11  19  37  62  94 124 152 196 252 304 351
#     4  12  24  38  65  94 124 152 197 252 306 353
#     4  11  23  40  62  90 123 155 195 253 312 358
#     4  11  21  36  62  92 120 157 201 249 300 353
#     4  11  24  44  62  82 122 162 208 242 296 357
#     4  11  26  42  61  88 118 163 201 251 295 362
#     4  11  20  37  62  97 121 156 192 249 302 353
#
# _framework density 19.417318000000002
#
# number of rings (size 3 to 8) (size 9 to 14) (size 15 to 20)
#    0.000    0.875    5.000    4.500    1.750    2.500 
#    0.000    3.750    0.000    1.500    0.000    0.000 
#    0.000    0.000    0.000    0.000    0.000    0.000 
#
# Total GULP energy -396969.885438 kJ/mol
# GULP energy per Si atom -12405.308920 kJ/mol
# Density = 1.937312 g / cm^3
# Si number density = 19.417318 Si / 1000 Ang^3
#
#
#
# Elastic Constant Matrix: (Units=GPa)
#
#
# Indices 1 2 3 4 5 6 
#
# 1 83.0105 22.1094 44.4782 0.0000 3.1780 0.0000
# 2 22.1094 131.6663 38.9238 0.0000 5.9595 0.0000
# 3 44.4782 38.9238 84.7896 0.0000 11.4293 0.0000
# 4 0.0000 0.0000 0.0000 17.0933 0.0000 3.0443
# 5 3.1780 5.9595 11.4293 0.0000 25.7098 0.0000
# 6 0.0000 0.0000 0.0000 3.0443 0.0000 25.9490
#
#
#
# Elastic Compliance Matrix: (Units=1/GPa)
#
#
# Indices 1 2 3 4 5 6 
#
# 1 0.016857 -0.000263 -0.008988 0.000000 0.001973 0.000000
# 2 -0.000263 0.008793 -0.003860 0.000000 -0.000290 0.000000
# 3 -0.008988 -0.003860 0.019158 0.000000 -0.006511 0.000000
# 4 0.000000 0.000000 0.000000 0.059751 0.000000 -0.007010
# 5 0.001973 -0.000290 -0.006511 0.000000 0.041614 0.000000
# 6 0.000000 0.000000 0.000000 -0.007010 0.000000 0.039359
#
#
# Mechanical properties :
#
#
# Convention : Reuss Voigt Hill
#
# Bulk Modulus (GPa) = 53.79966 56.72104 55.26035
# Shear Modulus (GPa) = 22.94113 26.68076 24.81094
#
# Velocity S-wave (km/s) = 3.44099 3.71087 3.57847
# Velocity P-wave (km/s) = 6.59958 6.90186 6.75241
#
# Compressibility (1/GPa) = 0.01858748
#
# Stress axis : x y z
#
# Youngs Moduli (GPa) = 59.32243 113.72373 52.19687
#
# Poissons Ratio (x) = 0.02989 0.46914
# Poissons Ratio (y) = 0.01559 0.20146
# Poissons Ratio (z) = 0.53319 0.43894
#
# Static dielectric constant tensor:
#      x y z
#    x 3.723540 0.000000 0.118270 
#    y 0.000000 3.780000 0.000000 
#    z 0.118270 0.000000 3.292830 
# 
# 
# High freq. dielectric constant tensor:
#      x y z
#    x 1.770590 0.000000 0.009180 
#    y 0.000000 1.777020 0.000000 
#    z 0.009180 0.000000 1.721880 
# 
# From -- ./inp_files/266318.got.cif
#   From: 2010.06.25/outbox.cif.g09.slc.cpg/sg12_134_cif.got.tgz:266318.got - 2010.06.28 00:19:55.
