data_PCOD8113531
_publ_section_title
;
Structure prediction by ZEFSAII (Michael W. Deem and Ramdas Pophale) SiO2 
 PCOD8113531
Probable space group: C 2/M
;
_chemical_formula_sum "Si O2"
_cell_formula_units_Z 64
_cell_length_a 26.939803
_cell_length_b 16.382733
_cell_length_c 11.027450
_cell_angle_alpha 90.000000
_cell_angle_beta 38.384651
_cell_angle_gamma 90.000000
_cell_volume 3022.066207
_symmetry_space_group_name_H-M "C 2/M"
_symmetry_group_IT_number 12
_symmetry_cell_setting 'monoclinic'
loop_
_space_group_symop_operation_xyz
x,y,z
-x,y,-z
-x,-y,-z
x,-y,z
1/2+x,1/2+y,z
1/2-x,1/2+y,-z
1/2-x,1/2-y,-z
1/2+x,1/2-y,z
loop_
_atom_site_type_symbol
_atom_site_label
_atom_site_fract_x
_atom_site_fract_y
_atom_site_fract_z
Si Si1 0.283121 0.340050 0.932178
Si Si2 0.606146 0.306135 0.061500
Si Si3 0.013345 0.095399 0.842845
Si Si4 0.800358 0.696177 0.311296
Si Si5 0.923933 0.409748 0.226209
Si Si6 0.613226 0.909326 0.271354
Si Si7 0.173288 0.902303 0.406866
Si Si8 0.003682 0.661967 0.671472
O O1 0.342061 0.347381 0.932373
O O2 0.329583 0.361597 0.720382
O O3 0.250000 0.250000 0.000000
O O4 0.208189 0.400905 0.085339
O O5 0.566664 0.384912 0.076914
O O6 0.532265 0.252457 0.252234
O O7 0.658279 0.254235 0.866990
O O8 0.093396 0.129264 0.626638
O O9 0.023058 0.000000 0.837822
O O10 0.000000 0.136702 0.000000
O O11 0.750000 0.750000 0.500000
O O12 0.862209 0.646141 0.273243
O O13 0.747832 0.630338 0.340350
O O14 0.887447 0.500000 0.326654
O O15 0.952033 0.363693 0.292101
O O16 0.000000 0.423822 0.000000
O O17 0.572183 0.896618 0.217420
O O18 0.572210 0.842318 0.437007
O O19 0.593466 0.000000 0.356636
O O20 0.178594 0.000000 0.385909
#
# Coordination Sequence:
#
# PCOD8113531 Si02
#       8
#     8   8   8   8   8   8   8   8
#     4  12  25  44  64 102 139 178 227 281 346 401
#     4  12  26  42  69 100 135 173 227 293 341 408
#     4  10  25  48  73  99 133 180 231 282 338 405
#     4  12  26  42  68 104 137 184 226 284 352 416
#     4  11  24  41  64  97 137 174 224 280 338 415
#     4  11  24  43  68  95 135 181 223 276 342 408
#     4  11  25  47  74  99 138 187 231 282 348 418
#     4  11  23  41  66  98 131 173 225 274 343 404
#
# _framework density 21.177562999999999
#
# number of rings (size 3 to 8) (size 9 to 14) (size 15 to 20)
#    0.000    0.750    3.750    3.000    7.000    1.500 
#    0.000    1.875    0.000    0.000    0.000    0.000 
#    0.000    0.000    0.000    0.000    0.000    0.000 
#
# Total GULP energy -396750.633160 kJ/mol
# GULP energy per Si atom -12398.457286 kJ/mol
# Density = 2.112936 g / cm^3
# Si number density = 21.177563 Si / 1000 Ang^3
#
#
#
# Elastic Constant Matrix: (Units=GPa)
#
#
# Indices 1 2 3 4 5 6 
#
# 1 203.9669 34.2416 63.7638 0.0000 -4.4716 0.0000
# 2 34.2416 48.6252 34.3325 0.0000 -2.6568 0.0000
# 3 63.7638 34.3325 138.4533 0.0000 4.5700 0.0000
# 4 0.0000 0.0000 0.0000 30.7727 0.0000 -7.7258
# 5 -4.4716 -2.6568 4.5700 0.0000 30.0006 0.0000
# 6 0.0000 0.0000 0.0000 -7.7258 0.0000 34.3734
#
#
#
# Elastic Compliance Matrix: (Units=1/GPa)
#
#
# Indices 1 2 3 4 5 6 
#
# 1 0.006048 -0.002685 -0.002152 0.000000 0.000992 0.000000
# 2 -0.002685 0.026425 -0.005407 0.000000 0.002764 0.000000
# 3 -0.002152 -0.005407 0.009630 0.000000 -0.002267 0.000000
# 4 0.000000 0.000000 0.000000 0.034440 0.000000 0.007741
# 5 0.000992 0.002764 -0.002267 0.000000 0.034070 0.000000
# 6 0.000000 0.000000 0.000000 0.007741 0.000000 0.030832
#
#
# Mechanical properties :
#
#
# Convention : Reuss Voigt Hill
#
# Bulk Modulus (GPa) = 46.26769 72.85792 59.56281
# Shear Modulus (GPa) = 29.56144 36.27651 32.91898
#
# Velocity S-wave (km/s) = 3.74021 4.14329 3.94690
# Velocity P-wave (km/s) = 6.36766 7.57411 6.99694
#
# Compressibility (1/GPa) = 0.02161335
#
# Stress axis : x y z
#
# Youngs Moduli (GPa) = 165.34025 37.84255 103.84714
#
# Poissons Ratio (x) = 0.10162 0.22351
# Poissons Ratio (y) = 0.44398 0.56153
# Poissons Ratio (z) = 0.35586 0.20462
#
# Static dielectric constant tensor:
#      x y z
#    x 3.623520 0.000000 0.280240 
#    y 0.000000 3.861890 0.000000 
#    z 0.280240 0.000000 4.006280 
# 
# 
# High freq. dielectric constant tensor:
#      x y z
#    x 1.846530 0.000000 0.000560 
#    y 0.000000 1.830600 0.000000 
#    z 0.000560 0.000000 1.837160 
# 
# From -- ./inp_files/183796.got.cif
#   From: 2010.06.25/outbox.cif.g09.slc.cpg/sg12_92_cif.got.tgz:183796.got - 2010.06.28 00:19:55.
