data_PCOD8113745
_publ_section_title
;
Structure prediction by ZEFSAII (Michael W. Deem and Ramdas Pophale) SiO2 
 PCOD8113745
Probable space group: C 2/M
;
_chemical_formula_sum "Si O2"
_cell_formula_units_Z 56
_cell_length_a 27.612485
_cell_length_b 9.065909
_cell_length_c 15.907343
_cell_angle_alpha 90.000000
_cell_angle_beta 114.424548
_cell_angle_gamma 90.000000
_cell_volume 3625.747743
_symmetry_space_group_name_H-M "C 2/M"
_symmetry_group_IT_number 12
_symmetry_cell_setting 'monoclinic'
loop_
_space_group_symop_operation_xyz
x,y,z
-x,y,-z
-x,-y,-z
x,-y,z
1/2+x,1/2+y,z
1/2-x,1/2+y,-z
1/2-x,1/2-y,-z
1/2+x,1/2-y,z
loop_
_atom_site_type_symbol
_atom_site_label
_atom_site_fract_x
_atom_site_fract_y
_atom_site_fract_z
Si Si1 0.097334 0.674088 0.693091
Si Si2 0.807391 0.673294 0.950127
Si Si3 0.555288 0.162335 0.491565
Si Si4 0.298152 0.827725 0.136736
Si Si5 0.418261 0.173771 0.965016
Si Si6 0.993528 0.825514 0.688278
Si Si7 0.515668 0.174323 0.145542
O O1 0.087778 0.500000 0.701103
O O2 0.097789 0.712155 0.593439
O O3 0.153577 0.726662 0.770238
O O4 0.050999 0.758916 0.708749
O O5 0.802273 0.500000 0.932929
O O6 0.755497 0.747176 0.871867
O O7 0.859780 0.738910 0.941845
O O8 0.812191 0.715261 0.051430
O O9 0.500000 0.152344 0.500000
O O10 0.550960 0.277930 0.412396
O O11 0.569921 0.000000 0.465950
O O12 0.288407 0.000000 0.139769
O O13 0.436291 0.214033 0.883698
O O14 0.416794 0.000000 0.975160
O O15 0.460735 0.231089 0.064165
O O16 0.973537 0.765313 0.762844
O O17 0.997454 0.000000 0.692475
O O18 0.513899 0.000000 0.163690
#
# Coordination Sequence:
#
# PCOD8113745 Si02
#       7
#     8   8   8   8   8   8   8
#     4   9  17  30  46  61  81 112 148 178 202 239
#     4   9  16  27  42  62  88 112 137 170 206 244
#     4   8  15  28  44  60  79 108 143 174 205 244
#     4   9  17  28  43  63  85 111 141 170 203 244
#     4   8  15  28  47  65  80 108 148 182 205 234
#     4  11  20  27  39  63  92 115 135 166 213 258
#     4   9  16  29  47  63  81 110 148 178 203 241
#
# _framework density 15.445088999999999
#
# number of rings (size 3 to 8) (size 9 to 14) (size 15 to 20)
#    0.000    3.000    0.000    3.857    0.000    5.429 
#    0.000    5.714    0.000    0.000    0.000    1.000 
#    0.000    0.000    0.000    0.000    0.000    0.000 
#
# Total GULP energy -347069.396444 kJ/mol
# GULP energy per Si atom -12395.335587 kJ/mol
# Density = 1.540994 g / cm^3
# Si number density = 15.445089 Si / 1000 Ang^3
#
#
#
# Elastic Constant Matrix: (Units=GPa)
#
#
# Indices 1 2 3 4 5 6 
#
# 1 107.6130 33.5380 56.1599 0.0000 5.9151 0.0000
# 2 33.5380 54.4579 42.7296 0.0000 -1.9145 0.0000
# 3 56.1599 42.7296 119.8127 0.0000 7.8246 0.0000
# 4 0.0000 0.0000 0.0000 12.6196 0.0000 3.0210
# 5 5.9151 -1.9145 7.8246 0.0000 23.6072 0.0000
# 6 0.0000 0.0000 0.0000 3.0210 0.0000 18.8721
#
#
#
# Elastic Compliance Matrix: (Units=1/GPa)
#
#
# Indices 1 2 3 4 5 6 
#
# 1 0.013163 -0.004805 -0.004309 0.000000 -0.002260 0.000000
# 2 -0.004805 0.027891 -0.008096 0.000000 0.006149 0.000000
# 3 -0.004309 -0.008096 0.013518 0.000000 -0.004058 0.000000
# 4 0.000000 0.000000 0.000000 0.082400 0.000000 -0.013190
# 5 -0.002260 0.006149 -0.004058 0.000000 0.044770 0.000000
# 6 0.000000 0.000000 0.000000 -0.013190 0.000000 0.055100
#
#
# Mechanical properties :
#
#
# Convention : Reuss Voigt Hill
#
# Bulk Modulus (GPa) = 49.62238 60.74874 55.18556
# Shear Modulus (GPa) = 17.98703 20.98351 19.48527
#
# Velocity S-wave (km/s) = 3.41630 3.68990 3.55573
# Velocity P-wave (km/s) = 6.91082 7.58757 7.25709
#
# Compressibility (1/GPa) = 0.02015220
#
# Stress axis : x y z
#
# Youngs Moduli (GPa) = 75.97167 35.85411 73.97380
#
# Poissons Ratio (x) = 0.17228 0.31872
# Poissons Ratio (y) = 0.36505 0.59890
# Poissons Ratio (z) = 0.32733 0.29028
#
# Static dielectric constant tensor:
#      x y z
#    x 2.985150 0.000000 0.115810 
#    y 0.000000 2.758990 0.000000 
#    z 0.115810 0.000000 3.198990 
# 
# 
# High freq. dielectric constant tensor:
#      x y z
#    x 1.564770 0.000000 0.004250 
#    y 0.000000 1.574240 0.000000 
#    z 0.004250 0.000000 1.591180 
# 
# From -- ./inp_files/243246.got.cif
#   From: 2010.06.25/outbox.cif.g09.slc.cpg/sg12_122_cif.got.tgz:243246.got - 2010.06.28 00:19:55.
