data_PCOD8113746
_publ_section_title
;
Structure prediction by ZEFSAII (Michael W. Deem and Ramdas Pophale) SiO2 
 PCOD8113746
Probable space group: C 2/M
;
_chemical_formula_sum "Si O2"
_cell_formula_units_Z 56
_cell_length_a 27.649846
_cell_length_b 9.044790
_cell_length_c 18.206315
_cell_angle_alpha 90.000000
_cell_angle_beta 130.475575
_cell_angle_gamma 90.000000
_cell_volume 3463.513043
_symmetry_space_group_name_H-M "C 2/M"
_symmetry_group_IT_number 12
_symmetry_cell_setting 'monoclinic'
loop_
_space_group_symop_operation_xyz
x,y,z
-x,y,-z
-x,-y,-z
x,-y,z
1/2+x,1/2+y,z
1/2-x,1/2+y,-z
1/2-x,1/2-y,-z
1/2+x,1/2-y,z
loop_
_atom_site_type_symbol
_atom_site_label
_atom_site_fract_x
_atom_site_fract_y
_atom_site_fract_z
Si Si1 0.130981 0.169494 0.728969
Si Si2 0.938753 0.825655 0.476740
Si Si3 0.062766 0.162942 0.110299
Si Si4 0.375947 0.326029 0.972657
Si Si5 0.745456 0.826276 0.917573
Si Si6 0.005921 0.325977 0.837471
Si Si7 0.003177 0.169574 0.321722
O O1 0.122316 0.216728 0.633833
O O2 0.182601 0.277416 0.813616
O O3 0.065019 0.189847 0.707092
O O4 0.154340 0.000000 0.758717
O O5 0.000000 0.748901 0.500000
O O6 0.940002 0.784356 0.564701
O O7 0.947426 0.000000 0.479216
O O8 0.117501 0.217662 0.107418
O O9 0.052128 0.274875 0.167003
O O10 0.079080 0.000000 0.158141
O O11 0.000000 0.153609 0.000000
O O12 0.388713 0.500000 0.995591
O O13 0.306093 0.278960 0.929074
O O14 0.426995 0.243514 0.073497
O O15 0.743277 0.000000 0.928266
O O16 0.750000 0.750000 0.000000
O O17 0.011892 0.500000 0.848147
O O18 0.989232 0.278056 0.738919
O O19 0.011257 0.000000 0.303603
#
# Coordination Sequence:
#
# PCOD8113746 Si02
#       7
#     8   8   8   8   8   8   8
#     4   9  17  30  47  66  88 115 149 185 216 249
#     4   7  12  25  45  65  83 109 147 183 211 248
#     4   8  15  30  48  61  78 110 148 180 213 258
#     4   9  19  34  47  59  82 119 156 181 205 252
#     4  11  22  33  45  64  90 120 152 181 211 249
#     4  11  20  27  41  68  95 113 136 178 227 263
#     4   9  16  28  46  65  88 119 149 175 209 258
#
# _framework density 16.168554
#
# number of rings (size 3 to 8) (size 9 to 14) (size 15 to 20)
#    0.000    2.857    0.000    5.143    0.000    7.714 
#    0.000    0.714    0.000    2.571    0.000    1.000 
#    0.000    0.000    0.000    0.000    0.000    0.000 
#
# Total GULP energy -346915.282016 kJ/mol
# GULP energy per Si atom -12389.831501 kJ/mol
# Density = 1.613175 g / cm^3
# Si number density = 16.168554 Si / 1000 Ang^3
#
#
#
# Elastic Constant Matrix: (Units=GPa)
#
#
# Indices 1 2 3 4 5 6 
#
# 1 87.5908 35.7813 43.3938 0.0000 -10.7720 0.0000
# 2 35.7813 61.0549 37.9515 0.0000 -8.7729 0.0000
# 3 43.3938 37.9515 108.1863 0.0000 -15.8269 0.0000
# 4 0.0000 0.0000 0.0000 19.5590 0.0000 0.6953
# 5 -10.7720 -8.7729 -15.8269 0.0000 16.8458 0.0000
# 6 0.0000 0.0000 0.0000 0.6953 0.0000 17.3935
#
#
#
# Elastic Compliance Matrix: (Units=1/GPa)
#
#
# Indices 1 2 3 4 5 6 
#
# 1 0.016478 -0.006860 -0.003691 0.000000 0.003496 0.000000
# 2 -0.006860 0.024120 -0.005233 0.000000 0.003258 0.000000
# 3 -0.003691 -0.005233 0.013698 0.000000 0.007784 0.000000
# 4 0.000000 0.000000 0.000000 0.051200 0.000000 -0.002047
# 5 0.003496 0.003258 0.007784 0.000000 0.070607 0.000000
# 6 0.000000 0.000000 0.000000 -0.002047 0.000000 0.057574
#
#
# Mechanical properties :
#
#
# Convention : Reuss Voigt Hill
#
# Bulk Modulus (GPa) = 43.99967 54.56502 49.28234
# Shear Modulus (GPa) = 18.32693 20.07338 19.20015
#
# Velocity S-wave (km/s) = 3.37039 3.52733 3.44975
# Velocity P-wave (km/s) = 6.51293 7.10002 6.81280
#
# Compressibility (1/GPa) = 0.02272744
#
# Stress axis : x y z
#
# Youngs Moduli (GPa) = 60.68793 41.45945 73.00092
#
# Poissons Ratio (x) = 0.28441 0.26947
# Poissons Ratio (y) = 0.41631 0.38202
# Poissons Ratio (z) = 0.22402 0.21696
#
# Static dielectric constant tensor:
#      x y z
#    x 3.280310 0.000000 -0.264910 
#    y 0.000000 2.896070 0.000000 
#    z -0.264910 0.000000 3.209830 
# 
# 
# High freq. dielectric constant tensor:
#      x y z
#    x 1.601790 0.000000 -0.023390 
#    y 0.000000 1.607460 0.000000 
#    z -0.023390 0.000000 1.610130 
# 
# From -- ./inp_files/291945.got.cif
#   From: 2010.06.25/outbox.cif.g09.slc.cpg/sg12_146_cif.got.tgz:291945.got - 2010.06.28 00:19:55.
