data_PCOD8113302
_publ_section_title
;
Structure prediction by ZEFSAII (Michael W. Deem and Ramdas Pophale) SiO2 
 PCOD8113302
Probable space group: C 2/M
;
_chemical_formula_sum "Si O2"
_cell_formula_units_Z 28
_cell_length_a 14.653687
_cell_length_b 16.438409
_cell_length_c 5.052372
_cell_angle_alpha 90.000000
_cell_angle_beta 64.746084
_cell_angle_gamma 90.000000
_cell_volume 1100.715407
_symmetry_space_group_name_H-M "C 2/M"
_symmetry_group_IT_number 12
_symmetry_cell_setting 'monoclinic'
loop_
_space_group_symop_operation_xyz
x,y,z
-x,y,-z
-x,-y,-z
x,-y,z
1/2+x,1/2+y,z
1/2-x,1/2+y,-z
1/2-x,1/2-y,-z
1/2+x,1/2-y,z
loop_
_atom_site_type_symbol
_atom_site_label
_atom_site_fract_x
_atom_site_fract_y
_atom_site_fract_z
Si Si1 0.118559 0.089863 0.882318
Si Si2 0.070042 0.500000 0.663827
Si Si3 0.181793 0.816523 0.310738
Si Si4 0.889927 0.325000 0.267237
O O1 0.163807 0.111968 0.542941
O O2 0.157252 0.000000 0.915428
O O3 0.149913 0.155861 0.060231
O O4 0.000000 0.090943 0.000000
O O5 0.133900 0.416149 0.591605
O O6 0.000000 0.500000 0.500000
O O7 0.000000 0.500000 0.000000
O O8 0.118617 0.736460 0.474024
O O9 0.303144 0.799954 0.160891
O O10 0.000000 0.317724 0.000000
#
# Coordination Sequence:
#
# PCOD8113302 Si02
#       4
#     8   4   8   8
#     4  11  25  45  72 107 145 189 244 303 362 430
#     4  10  24  42  66 100 139 186 231 292 354 424
#     4  11  25  45  75 105 143 197 239 304 361 432
#     4  10  25  47  72 109 148 191 245 296 364 436
#
# _framework density 25.438001
#
# number of rings (size 3 to 8) (size 9 to 14) (size 15 to 20)
#    0.000    1.429    0.000    2.571    4.000   18.286 
#    0.000    0.000    0.000    0.000    0.000    0.000 
#    0.000    0.000    0.000    0.000    0.000    0.000 
#
# Total GULP energy -173598.137858 kJ/mol
# GULP energy per Si atom -12399.866990 kJ/mol
# Density = 2.538010 g / cm^3
# Si number density = 25.438001 Si / 1000 Ang^3
#
#
#
# Elastic Constant Matrix: (Units=GPa)
#
#
# Indices 1 2 3 4 5 6 
#
# 1 85.2541 31.0802 25.5331 0.0000 -19.7857 0.0000
# 2 31.0802 192.3729 15.6046 0.0000 -14.8961 0.0000
# 3 25.5331 15.6046 87.0729 0.0000 -10.2752 0.0000
# 4 0.0000 0.0000 0.0000 31.4525 0.0000 -5.4070
# 5 -19.7857 -14.8961 -10.2752 0.0000 43.8313 0.0000
# 6 0.0000 0.0000 0.0000 -5.4070 0.0000 44.9507
#
#
#
# Elastic Compliance Matrix: (Units=1/GPa)
#
#
# Indices 1 2 3 4 5 6 
#
# 1 0.014555 -0.001676 -0.003352 0.000000 0.005215 0.000000
# 2 -0.001676 0.005582 -0.000385 0.000000 0.001050 0.000000
# 3 -0.003352 -0.000385 0.012694 0.000000 0.001332 0.000000
# 4 0.000000 0.000000 0.000000 0.032465 0.000000 0.003905
# 5 0.005215 0.001050 0.001332 0.000000 0.025838 0.000000
# 6 0.000000 0.000000 0.000000 0.003905 0.000000 0.022716
#
#
# Mechanical properties :
#
#
# Convention : Reuss Voigt Hill
#
# Bulk Modulus (GPa) = 45.44632 56.57066 51.00849
# Shear Modulus (GPa) = 37.87580 43.54568 40.71074
#
# Velocity S-wave (km/s) = 3.86287 4.14192 4.00483
# Velocity P-wave (km/s) = 6.14817 6.72019 6.44053
#
# Compressibility (1/GPa) = 0.02200398
#
# Stress axis : x y z
#
# Youngs Moduli (GPa) = 68.70583 179.16250 78.77863
#
# Poissons Ratio (x) = 0.30024 0.26409
# Poissons Ratio (y) = 0.11514 0.03033
# Poissons Ratio (z) = 0.23033 0.06897
#
# Static dielectric constant tensor:
#      x y z
#    x 4.755870 0.000000 -0.270880 
#    y 0.000000 4.600870 0.000000 
#    z -0.270880 0.000000 4.453000 
# 
# 
# High freq. dielectric constant tensor:
#      x y z
#    x 2.016740 0.000000 -0.008450 
#    y 0.000000 2.047050 0.000000 
#    z -0.008450 0.000000 2.014990 
# 
# From -- ./inp_files/9902.got.cif
#   From: 2010.06.25/outbox.cif.g09.slc.cpg/sg12_5_cif.got.tgz:9902.got - 2010.06.28 00:19:55.
