data_PCOD8113076
_publ_section_title
;
Structure prediction by ZEFSAII (Michael W. Deem and Ramdas Pophale) SiO2 
 PCOD8113076
Probable space group: C 2/M
;
_chemical_formula_sum "Si O2"
_cell_formula_units_Z 48
_cell_length_a 28.248526
_cell_length_b 13.389589
_cell_length_c 5.097382
_cell_angle_alpha 90.000000
_cell_angle_beta 114.972066
_cell_angle_gamma 90.000000
_cell_volume 1747.771292
_symmetry_space_group_name_H-M "C 2/M"
_symmetry_group_IT_number 12
_symmetry_cell_setting 'monoclinic'
loop_
_space_group_symop_operation_xyz
x,y,z
-x,y,-z
-x,-y,-z
x,-y,z
1/2+x,1/2+y,z
1/2-x,1/2+y,-z
1/2-x,1/2-y,-z
1/2+x,1/2-y,z
loop_
_atom_site_type_symbol
_atom_site_label
_atom_site_fract_x
_atom_site_fract_y
_atom_site_fract_z
Si Si1 0.608798 0.745873 0.246424
Si Si2 0.342263 0.887129 0.273836
Si Si3 0.318703 0.617645 0.905408
Si Si4 0.255723 0.617064 0.261040
Si Si5 0.449974 0.888218 0.223470
Si Si6 0.466290 0.612384 0.659823
O O1 0.655357 0.817232 0.463023
O O2 0.629293 0.678184 0.052496
O O3 0.586738 0.675648 0.427356
O O4 0.559821 0.813811 0.040502
O O5 0.399205 0.887077 0.285276
O O6 0.325976 0.000000 0.323178
O O7 0.300300 0.839801 0.969063
O O8 0.330669 0.500000 0.904454
O O9 0.272504 0.650619 0.592215
O O10 0.300870 0.646898 0.156692
O O11 0.248323 0.500000 0.239866
O O12 0.500000 0.850406 0.500000
O O13 0.459655 0.000000 0.135760
O O14 0.500000 0.657717 0.500000
O O15 0.448529 0.500000 0.546883
O O16 0.500000 0.614321 0.000000
#
# Coordination Sequence:
#
# PCOD8113076 Si02
#       6
#     8   8   8   8   8   8
#     4  12  26  39  73 104 138 183 239 296 353 426
#     4  10  24  43  67 100 139 186 237 293 354 423
#     4  10  23  43  70 104 145 186 230 289 352 423
#     4   9  21  43  68  98 143 191 231 283 354 422
#     4  10  25  48  71 100 141 189 241 301 365 427
#     4  10  25  47  70  99 139 184 230 287 352 419
#
# _framework density 27.463550999999999
#
# number of rings (size 3 to 8) (size 9 to 14) (size 15 to 20)
#    0.000    1.833    0.000    1.000    9.333    1.333 
#    0.000    7.500    0.000    3.000    0.000    0.000 
#    0.000    0.000    0.000    0.000    0.000    0.000 
#
# Total GULP energy -297691.579313 kJ/mol
# GULP energy per Si atom -12403.815805 kJ/mol
# Density = 2.740104 g / cm^3
# Si number density = 27.463551 Si / 1000 Ang^3
#
#
#
# Elastic Constant Matrix: (Units=GPa)
#
#
# Indices 1 2 3 4 5 6 
#
# 1 47.8956 -22.3447 -7.8652 0.0000 16.5919 0.0000
# 2 -22.3447 72.6702 5.1715 0.0000 17.3688 0.0000
# 3 -7.8652 5.1715 85.4717 0.0000 9.9146 0.0000
# 4 0.0000 0.0000 0.0000 20.1147 0.0000 19.1634
# 5 16.5919 17.3688 9.9146 0.0000 47.3055 0.0000
# 6 0.0000 0.0000 0.0000 19.1634 0.0000 20.2554
#
#
#
# Elastic Compliance Matrix: (Units=1/GPa)
#
#
# Indices 1 2 3 4 5 6 
#
# 1 0.035077 0.014943 0.004497 0.000000 -0.018732 0.000000
# 2 0.014943 0.021456 0.001638 0.000000 -0.013462 0.000000
# 3 0.004497 0.001638 0.012573 0.000000 -0.004814 0.000000
# 4 0.000000 0.000000 0.000000 0.503959 0.000000 -0.476792
# 5 -0.018732 -0.013462 -0.004814 0.000000 0.033661 0.000000
# 6 0.000000 0.000000 0.000000 -0.476792 0.000000 0.500459
#
#
# Mechanical properties :
#
#
# Convention : Reuss Voigt Hill
#
# Bulk Modulus (GPa) = 8.98776 17.32896 13.15836
# Shear Modulus (GPa) = 4.53672 32.94016 18.73844
#
# Velocity S-wave (km/s) = 1.28666 3.46701 2.61493
# Velocity P-wave (km/s) = 2.34244 4.72762 3.73078
#
# Compressibility (1/GPa) = 0.11126246
#
# Stress axis : x y z
#
# Youngs Moduli (GPa) = 28.50832 46.60601 79.53658
#
# Poissons Ratio (x) = -0.69642 -0.35765
# Poissons Ratio (y) = -0.42599 -0.13032
# Poissons Ratio (z) = -0.12819 -0.07636
#
# Static dielectric constant tensor:
#      x y z
#    x 4.669550 0.000000 0.102940 
#    y 0.000000 5.435520 0.000000 
#    z 0.102940 0.000000 5.129210 
# 
# 
# High freq. dielectric constant tensor:
#      x y z
#    x 2.094680 0.000000 0.005120 
#    y 0.000000 2.129360 0.000000 
#    z 0.005120 0.000000 2.104580 
# 
# From -- ./inp_files/31592.got.cif
#   From: 2010.06.25/outbox.cif.g09.slc.cpg/sg12_16_cif.got.tgz:31592.got - 2010.06.28 00:19:55.
