data_PCOD8113344
_publ_section_title
;
Structure prediction by ZEFSAII (Michael W. Deem and Ramdas Pophale) SiO2 
 PCOD8113344
Probable space group: C 2/M
;
_chemical_formula_sum "Si O2"
_cell_formula_units_Z 56
_cell_length_a 18.576452
_cell_length_b 31.439777
_cell_length_c 8.199959
_cell_angle_alpha 90.000000
_cell_angle_beta 31.403529
_cell_angle_gamma 90.000000
_cell_volume 2495.419010
_symmetry_space_group_name_H-M "C 2/M"
_symmetry_group_IT_number 12
_symmetry_cell_setting 'monoclinic'
loop_
_space_group_symop_operation_xyz
x,y,z
-x,y,-z
-x,-y,-z
x,-y,z
1/2+x,1/2+y,z
1/2-x,1/2+y,-z
1/2-x,1/2-y,-z
1/2+x,1/2-y,z
loop_
_atom_site_type_symbol
_atom_site_label
_atom_site_fract_x
_atom_site_fract_y
_atom_site_fract_z
Si Si1 0.544152 0.091151 0.100331
Si Si2 0.229037 0.630351 0.292626
Si Si3 0.697741 0.642844 0.475738
Si Si4 0.485563 0.413535 0.720007
Si Si5 0.428756 0.731102 0.311964
Si Si6 0.593770 0.500000 0.474431
Si Si7 0.089169 0.500000 0.165289
Si Si8 0.783309 0.779656 0.088594
O O1 0.427696 0.115216 0.430487
O O2 0.557510 0.042251 0.124802
O O3 0.500000 0.091304 0.000000
O O4 0.683672 0.118430 0.856507
O O5 0.266553 0.643192 0.403751
O O6 0.261745 0.669537 0.105881
O O7 0.321939 0.589269 0.068259
O O8 0.553088 0.621600 0.706482
O O9 0.676212 0.691571 0.467997
O O10 0.500000 0.405516 0.500000
O O11 0.553166 0.457746 0.652683
O O12 0.325658 0.769751 0.554257
O O13 0.500000 0.737362 0.000000
O O14 0.555544 0.728301 0.191214
O O15 0.500000 0.500000 0.500000
O O16 0.749062 0.500000 0.109362
O O17 0.000000 0.500000 0.500000
O O18 0.750000 0.750000 0.000000
#
# Coordination Sequence:
#
# PCOD8113344 Si02
#       8
#     8   8   8   8   8   4   4   8
#     4  10  25  44  74 103 143 186 237 294 347 427
#     4  11  25  45  69 104 139 184 239 290 360 433
#     4  11  22  46  72 100 134 185 240 288 356 418
#     4  11  23  41  71 100 141 182 235 295 353 419
#     4  12  25  46  73 102 139 188 239 298 364 436
#     4  10  24  43  66 103 141 187 240 289 355 422
#     4  12  25  45  69 104 148 192 234 290 367 423
#     4  12  28  46  69 106 145 183 238 299 370 435
#
# _framework density 22.441120999999999
#
# number of rings (size 3 to 8) (size 9 to 14) (size 15 to 20)
#    0.000    0.857    4.286    1.500    8.000    0.571 
#    0.000    2.143    0.000    0.000    0.000    0.000 
#    0.000    0.000    0.000    0.000    0.000    0.000 
#
# Total GULP energy -347080.616189 kJ/mol
# GULP energy per Si atom -12395.736292 kJ/mol
# Density = 2.239004 g / cm^3
# Si number density = 22.441121 Si / 1000 Ang^3
#
#
#
# Elastic Constant Matrix: (Units=GPa)
#
#
# Indices 1 2 3 4 5 6 
#
# 1 70.6105 25.2430 17.7225 0.0000 -11.4118 0.0000
# 2 25.2430 103.2092 58.5315 0.0000 -7.5953 0.0000
# 3 17.7225 58.5315 137.9947 0.0000 -25.7732 -0.0001
# 4 0.0000 0.0000 0.0000 38.9194 0.0000 -8.5232
# 5 -11.4118 -7.5953 -25.7732 0.0000 29.0689 0.0000
# 6 0.0000 0.0000 -0.0001 -8.5232 0.0000 32.2587
#
#
#
# Elastic Compliance Matrix: (Units=1/GPa)
#
#
# Indices 1 2 3 4 5 6 
#
# 1 0.016374 -0.003959 0.000700 0.000000 0.006014 0.000000
# 2 -0.003959 0.013790 -0.005942 0.000000 -0.003219 0.000000
# 3 0.000700 -0.005942 0.011312 0.000000 0.008751 0.000000
# 4 0.000000 0.000000 0.000000 0.027272 0.000000 0.007206
# 5 0.006014 -0.003219 0.008751 0.000000 0.043680 0.000000
# 6 0.000000 0.000000 0.000000 0.007206 0.000000 0.032903
#
#
# Mechanical properties :
#
#
# Convention : Reuss Voigt Hill
#
# Bulk Modulus (GPa) = 43.34099 57.20094 50.27097
# Shear Modulus (GPa) = 29.16730 34.07054 31.61892
#
# Velocity S-wave (km/s) = 3.60908 3.90066 3.75770
# Velocity P-wave (km/s) = 6.05990 6.76990 6.42472
#
# Compressibility (1/GPa) = 0.02307284
#
# Stress axis : x y z
#
# Youngs Moduli (GPa) = 61.07300 72.51498 88.40433
#
# Poissons Ratio (x) = 0.28708 -0.06184
# Poissons Ratio (y) = 0.24178 0.52531
# Poissons Ratio (z) = -0.04272 0.43089
#
# Static dielectric constant tensor:
#      x y z
#    x 4.398530 -0.000130 -1.847140 
#    y -0.000130 -2.278940 0.000430 
#    z -1.847140 0.000430 9.674520 
# 
# 
# High freq. dielectric constant tensor:
#      x y z
#    x 1.879930 0.000000 -0.018480 
#    y 0.000000 1.893700 0.000000 
#    z -0.018480 0.000000 1.894840 
# 
# From -- ./inp_files/91598.got.cif
#   From: 2010.06.25/outbox.cif.g09.slc.cpg/sg12_46_cif.got.tgz:91598.got - 2010.06.28 00:19:55.
