data_PCOD8113131
_publ_section_title
;
Structure prediction by ZEFSAII (Michael W. Deem and Ramdas Pophale) SiO2 
 PCOD8113131
Probable space group: C 2/M
;
_chemical_formula_sum "Si O2"
_cell_formula_units_Z 48
_cell_length_a 9.822129
_cell_length_b 20.946682
_cell_length_c 11.400098
_cell_angle_alpha 90.000000
_cell_angle_beta 111.025294
_cell_angle_gamma 90.000000
_cell_volume 2189.311462
_symmetry_space_group_name_H-M "C 2/M"
_symmetry_group_IT_number 12
_symmetry_cell_setting 'monoclinic'
loop_
_space_group_symop_operation_xyz
x,y,z
-x,y,-z
-x,-y,-z
x,-y,z
1/2+x,1/2+y,z
1/2-x,1/2+y,-z
1/2-x,1/2-y,-z
1/2+x,1/2-y,z
loop_
_atom_site_type_symbol
_atom_site_label
_atom_site_fract_x
_atom_site_fract_y
_atom_site_fract_z
Si Si1 0.332259 0.573226 0.916086
Si Si2 0.433672 0.192164 0.762711
Si Si3 0.846782 0.000000 0.284350
Si Si4 0.148871 0.378269 0.496254
Si Si5 0.147822 0.408351 0.081787
Si Si6 0.844599 0.000000 0.558434
Si Si7 0.263023 0.812001 0.260574
O O1 0.280369 0.500000 0.874656
O O2 0.302793 0.619437 0.797786
O O3 0.500000 0.573414 0.000000
O O4 0.242359 0.603679 0.995526
O O5 0.358610 0.149001 0.638014
O O6 0.419158 0.154640 0.879804
O O7 0.600932 0.207372 0.780244
O O8 0.359237 0.258568 0.772092
O O9 0.755978 0.940242 0.209313
O O10 0.874184 0.000000 0.429806
O O11 0.019795 0.000000 0.304237
O O12 0.261995 0.434360 0.552201
O O13 0.186334 0.317959 0.589493
O O14 0.000000 0.408234 0.500000
O O15 0.000000 0.447858 0.000000
#
# Coordination Sequence:
#
# PCOD8113131 Si02
#       7
#     8   8   4   8   8   4   8
#     4  11  27  45  68 105 139 181 233 292 355 413
#     4  11  25  46  69 105 136 187 243 282 358 414
#     4  11  25  40  68 107 143 181 236 286 368 410
#     4  10  23  44  69 103 141 182 232 293 361 422
#     4  12  24  46  71  98 144 189 237 287 346 430
#     4  11  23  42  69 110 139 179 234 303 356 418
#     4  11  26  45  70 101 141 186 234 291 349 423
#
# _framework density 21.924702
#
# number of rings (size 3 to 8) (size 9 to 14) (size 15 to 20)
#    0.000    1.000    4.167    1.000    5.833    1.333 
#    1.500    0.000    0.000    0.000    0.000    0.000 
#    0.000    0.000    0.000    0.000    0.000    0.000 
#
# Total GULP energy -297323.968609 kJ/mol
# GULP energy per Si atom -12388.498692 kJ/mol
# Density = 2.187480 g / cm^3
# Si number density = 21.924702 Si / 1000 Ang^3
#
#
#
# Elastic Constant Matrix: (Units=GPa)
#
#
# Indices 1 2 3 4 5 6 
#
# 1 121.7286 68.6518 40.5782 0.0000 14.2487 0.0000
# 2 68.6518 120.0105 40.8635 0.0000 1.4119 0.0000
# 3 40.5782 40.8635 101.2666 0.0000 14.0495 0.0000
# 4 0.0000 0.0000 0.0000 -6.9347 0.0000 -0.5424
# 5 14.2487 1.4119 14.0495 0.0000 43.1479 0.0000
# 6 0.0000 0.0000 0.0000 -0.5424 0.0000 31.3500
#
#
#
# Elastic Compliance Matrix: (Units=1/GPa)
#
#
# Indices 1 2 3 4 5 6 
#
# 1 0.013116 -0.006765 -0.002048 0.000000 -0.003443 0.000000
# 2 -0.006765 0.013191 -0.002997 0.000000 0.002778 0.000000
# 3 -0.002048 -0.002997 0.012356 0.000000 -0.003249 0.000000
# 4 0.000000 0.000000 0.000000 -0.144008 0.000000 -0.002491
# 5 -0.003443 0.002778 -0.003249 0.000000 0.025280 0.000000
# 6 0.000000 0.000000 0.000000 -0.002491 0.000000 0.031855
#
#
# Mechanical properties :
#
#
# Convention : Reuss Voigt Hill
#
# Bulk Modulus (GPa) = 66.48376 71.46586 68.97481
# Shear Modulus (GPa) = -255.41435 26.37346 -114.52044
#
# Velocity S-wave (km/s) = -10.80505 3.47206 -7.23512
# Velocity P-wave (km/s) = 11.19267 6.98144 6.18609
#
# Compressibility (1/GPa) = 0.01504127
#
# Stress axis : x y z
#
# Youngs Moduli (GPa) = 76.24193 75.81209 80.93336
#
# Poissons Ratio (x) = 0.51288 0.16576
# Poissons Ratio (y) = 0.51579 0.24258
# Poissons Ratio (z) = 0.15615 0.22723
#
# Static dielectric constant tensor:
#      x y z
#    x 4.688850 0.000000 0.277530 
#    y 0.000000 3.726240 0.000000 
#    z 0.277530 0.000000 4.231100 
# 
# 
# High freq. dielectric constant tensor:
#      x y z
#    x 1.877110 0.000000 -0.000390 
#    y 0.000000 1.848680 0.000000 
#    z -0.000390 0.000000 1.879110 
# 
# From -- ./inp_files/122622.got.cif
#   From: 2010.06.25/outbox.cif.g09.slc.cpg/sg12_62_cif.got.tgz:122622.got - 2010.06.28 00:19:55.
