data_PCOD8113667
_publ_section_title
;
Structure prediction by ZEFSAII (Michael W. Deem and Ramdas Pophale) SiO2 
 PCOD8113667
Probable space group: C 2/M
;
_chemical_formula_sum "Si O2"
_cell_formula_units_Z 64
_cell_length_a 8.792965
_cell_length_b 20.464024
_cell_length_c 20.412658
_cell_angle_alpha 90.000000
_cell_angle_beta 57.636370
_cell_angle_gamma 90.000000
_cell_volume 3102.500947
_symmetry_space_group_name_H-M "C 2/M"
_symmetry_group_IT_number 12
_symmetry_cell_setting 'monoclinic'
loop_
_space_group_symop_operation_xyz
x,y,z
-x,y,-z
-x,-y,-z
x,-y,z
1/2+x,1/2+y,z
1/2-x,1/2+y,-z
1/2-x,1/2-y,-z
1/2+x,1/2-y,z
loop_
_atom_site_type_symbol
_atom_site_label
_atom_site_fract_x
_atom_site_fract_y
_atom_site_fract_z
Si Si1 0.028741 0.792192 0.851383
Si Si2 0.630207 0.169999 0.912420
Si Si3 0.649680 0.874831 0.236337
Si Si4 0.427026 0.340906 0.638613
Si Si5 0.849331 0.576517 0.213568
Si Si6 0.397628 0.242205 0.309214
Si Si7 0.277139 0.576761 0.473692
Si Si8 0.584214 0.074367 0.387614
O O1 0.051061 0.736359 0.900360
O O2 0.157527 0.854187 0.838476
O O3 0.093683 0.762736 0.768148
O O4 0.825731 0.816753 0.897415
O O5 0.639591 0.111153 0.858913
O O6 0.500000 0.146233 0.000000
O O7 0.538654 0.914080 0.207474
O O8 0.552475 0.810311 0.285380
O O9 0.674845 0.917695 0.295962
O O10 0.310497 0.391383 0.708335
O O11 0.568857 0.303332 0.652074
O O12 0.298171 0.289190 0.631483
O O13 0.537864 0.382471 0.558843
O O14 0.810180 0.500000 0.212870
O O15 0.321319 0.500000 0.471814
O O16 0.120551 0.603434 0.559109
O O17 0.217946 0.597611 0.413521
O O18 0.546318 0.000000 0.412403
#
# Coordination Sequence:
#
# PCOD8113667 Si02
#       8
#     8   8   8   8   8   8   8   8
#     4  12  19  40  63  90 121 157 198 249 300 357
#     4  12  24  40  64  94 125 160 198 245 307 368
#     4  11  20  36  63  88 121 154 201 252 303 356
#     4  11  20  36  60  85 117 159 199 245 300 355
#     4  11  23  40  60  89 123 158 202 253 299 356
#     4  11  19  33  59  83 116 149 191 247 297 343
#     4   9  19  36  58  86 121 160 206 255 303 356
#     4   9  19  35  58  87 120 161 205 257 303 348
#
# _framework density 20.628518
#
# number of rings (size 3 to 8) (size 9 to 14) (size 15 to 20)
#    0.000    1.250    6.250    2.625    0.000    0.250 
#    0.000    3.750    2.750    7.500    0.000    0.000 
#    0.000    0.000    0.000    0.000    0.000    0.000 
#
# Total GULP energy -396726.210144 kJ/mol
# GULP energy per Si atom -12397.694067 kJ/mol
# Density = 2.058157 g / cm^3
# Si number density = 20.628518 Si / 1000 Ang^3
#
#
#
# Elastic Constant Matrix: (Units=GPa)
#
#
# Indices 1 2 3 4 5 6 
#
# 1 82.1015 42.7769 32.7774 0.0000 -18.4037 0.0000
# 2 42.7769 91.5512 39.5409 0.0000 -13.5366 0.0000
# 3 32.7774 39.5409 48.3533 0.0000 -9.8458 0.0000
# 4 0.0000 0.0000 0.0000 19.9715 0.0000 -3.8373
# 5 -18.4037 -13.5366 -9.8458 0.0000 26.1553 0.0000
# 6 0.0000 0.0000 0.0000 -3.8373 0.0000 23.6602
#
#
#
# Elastic Compliance Matrix: (Units=1/GPa)
#
#
# Indices 1 2 3 4 5 6 
#
# 1 0.019558 -0.004490 -0.007859 0.000000 0.008479 0.000000
# 2 -0.004490 0.018281 -0.011504 0.000000 0.001971 0.000000
# 3 -0.007859 -0.011504 0.035824 0.000000 0.002001 0.000000
# 4 0.000000 0.000000 0.000000 0.051682 0.000000 0.008382
# 5 0.008479 0.001971 0.002001 0.000000 0.045973 0.000000
# 6 0.000000 0.000000 0.000000 0.008382 0.000000 0.043625
#
#
# Mechanical properties :
#
#
# Convention : Reuss Voigt Hill
#
# Bulk Modulus (GPa) = 38.52776 50.24402 44.38589
# Shear Modulus (GPa) = 18.42971 21.08478 19.75725
#
# Velocity S-wave (km/s) = 2.99224 3.20053 3.09813
# Velocity P-wave (km/s) = 5.53674 6.16987 5.86186
#
# Compressibility (1/GPa) = 0.02595531
#
# Stress axis : x y z
#
# Youngs Moduli (GPa) = 51.13020 54.70175 27.91442
#
# Poissons Ratio (x) = 0.24562 0.21939
# Poissons Ratio (y) = 0.22958 0.32113
# Poissons Ratio (z) = 0.40185 0.62929
#
# Static dielectric constant tensor:
#      x y z
#    x 3.948330 0.000000 -0.146170 
#    y 0.000000 3.817790 0.000000 
#    z -0.146170 0.000000 3.455420 
# 
# 
# High freq. dielectric constant tensor:
#      x y z
#    x 1.820960 0.000000 -0.006890 
#    y 0.000000 1.799430 0.000000 
#    z -0.006890 0.000000 1.781260 
# 
# From -- ./inp_files/301695.got.cif
#   From: 2010.06.25/outbox.cif.g09.slc.cpg/sg12_151_cif.got.tgz:301695.got - 2010.06.28 00:19:55.
