data_PCOD8113728
_publ_section_title
;
Structure prediction by ZEFSAII (Michael W. Deem and Ramdas Pophale) SiO2 
 PCOD8113728
Probable space group: C 2/M
;
_chemical_formula_sum "Si O2"
_cell_formula_units_Z 56
_cell_length_a 13.581830
_cell_length_b 20.886312
_cell_length_c 9.262945
_cell_angle_alpha 90.000000
_cell_angle_beta 91.175464
_cell_angle_gamma 90.000000
_cell_volume 2627.106835
_symmetry_space_group_name_H-M "C 2/M"
_symmetry_group_IT_number 12
_symmetry_cell_setting 'monoclinic'
loop_
_space_group_symop_operation_xyz
x,y,z
-x,y,-z
-x,-y,-z
x,-y,z
1/2+x,1/2+y,z
1/2-x,1/2+y,-z
1/2-x,1/2-y,-z
1/2+x,1/2-y,z
loop_
_atom_site_type_symbol
_atom_site_label
_atom_site_fract_x
_atom_site_fract_y
_atom_site_fract_z
Si Si1 0.270646 0.823115 0.042867
Si Si2 0.611539 0.843417 0.226000
Si Si3 0.899953 0.658569 0.315245
Si Si4 0.405442 0.597716 0.580196
Si Si5 0.862920 0.755978 0.546387
Si Si6 0.102204 0.926329 0.083327
Si Si7 0.196482 0.570081 0.463887
O O1 0.311486 0.823130 0.205950
O O2 0.179193 0.872540 0.029082
O O3 0.250000 0.750000 0.000000
O O4 0.355663 0.847507 0.938021
O O5 0.497078 0.862888 0.232142
O O6 0.622880 0.772287 0.292484
O O7 0.682748 0.889283 0.319237
O O8 0.923584 0.717577 0.424106
O O9 0.865888 0.598275 0.406580
O O10 0.500000 0.569718 0.500000
O O11 0.400429 0.672807 0.551258
O O12 0.415212 0.581162 0.747685
O O13 0.310366 0.564940 0.509078
O O14 0.750000 0.750000 0.500000
O O15 0.137780 0.000000 0.052587
O O16 0.000000 0.912282 0.000000
O O17 0.154743 0.500000 0.432019
#
# Coordination Sequence:
#
# PCOD8113728 Si02
#       7
#     8   8   8   8   8   8   8
#     4  12  26  43  70 102 141 179 231 285 341 408
#     4  11  24  40  65  99 131 175 220 273 336 399
#     4  11  23  43  67  96 138 176 218 277 343 403
#     4  12  24  40  70 101 128 172 227 281 339 402
#     4  11  19  39  65  97 135 170 216 276 337 394
#     4  11  27  49  69  96 141 189 228 281 353 418
#     4  11  24  43  67  95 131 172 224 281 333 398
#
# _framework density 21.316223999999998
#
# number of rings (size 3 to 8) (size 9 to 14) (size 15 to 20)
#    0.000    0.714    4.286    5.143    2.000    5.143 
#    0.000    0.000    0.000    2.571    0.000    0.000 
#    0.000    0.000    0.000    0.000    0.000    0.000 
#
# Total GULP energy -347228.979459 kJ/mol
# GULP energy per Si atom -12401.034981 kJ/mol
# Density = 2.126771 g / cm^3
# Si number density = 21.316224 Si / 1000 Ang^3
#
#
#
# Elastic Constant Matrix: (Units=GPa)
#
#
# Indices 1 2 3 4 5 6 
#
# 1 106.6082 35.9369 17.7079 0.0000 -7.1508 0.0000
# 2 35.9369 128.3111 27.8603 0.0000 -6.6120 0.0000
# 3 17.7079 27.8603 74.7297 0.0000 -3.8663 0.0000
# 4 0.0000 0.0000 0.0000 -10.2241 0.0000 8.3142
# 5 -7.1508 -6.6120 -3.8663 0.0000 46.4812 0.0000
# 6 0.0000 0.0000 0.0000 8.3142 0.0000 12.3566
#
#
#
# Elastic Compliance Matrix: (Units=1/GPa)
#
#
# Indices 1 2 3 4 5 6 
#
# 1 0.010573 -0.002580 -0.001485 0.000000 0.001136 0.000000
# 2 -0.002580 0.009151 -0.002765 0.000000 0.000675 0.000000
# 3 -0.001485 -0.002765 0.014796 0.000000 0.000609 0.000000
# 4 0.000000 0.000000 0.000000 -0.063218 0.000000 0.042536
# 5 0.001136 0.000675 0.000609 0.000000 0.021836 0.000000
# 6 0.000000 0.000000 0.000000 0.042536 0.000000 0.052308
#
#
# Mechanical properties :
#
#
# Convention : Reuss Voigt Hill
#
# Bulk Modulus (GPa) = 47.93998 52.51770 50.22884
# Shear Modulus (GPa) = 75.68936 24.93232 50.31084
#
# Velocity S-wave (km/s) = 5.96531 3.42371 4.86347
# Velocity P-wave (km/s) = 8.36572 6.34980 7.42648
#
# Compressibility (1/GPa) = 0.02085942
#
# Stress axis : x y z
#
# Youngs Moduli (GPa) = 94.58303 109.27200 67.58648
#
# Poissons Ratio (x) = 0.28195 0.10034
# Poissons Ratio (y) = 0.24405 0.18691
# Poissons Ratio (z) = 0.14042 0.30219
#
# Static dielectric constant tensor:
#      x y z
#    x 3.962760 0.000000 0.019370 
#    y 0.000000 3.898790 0.000000 
#    z 0.019370 0.000000 4.105880 
# 
# 
# High freq. dielectric constant tensor:
#      x y z
#    x 1.850130 0.000000 0.001860 
#    y 0.000000 1.837820 0.000000 
#    z 0.001860 0.000000 1.837530 
# 
# From -- ./inp_files/64091.got.cif
#   From: 2010.06.25/outbox.cif.g09.slc.cpg/sg12_33_cif.got.tgz:64091.got - 2010.06.28 00:19:55.
