data_PCOD8113681
_publ_section_title
;
Structure prediction by ZEFSAII (Michael W. Deem and Ramdas Pophale) SiO2 
 PCOD8113681
Probable space group: C 2/M
;
_chemical_formula_sum "Si O2"
_cell_formula_units_Z 48
_cell_length_a 13.556484
_cell_length_b 21.770380
_cell_length_c 14.011547
_cell_angle_alpha 90.000000
_cell_angle_beta 148.561341
_cell_angle_gamma 90.000000
_cell_volume 2156.873189
_symmetry_space_group_name_H-M "C 2/M"
_symmetry_group_IT_number 12
_symmetry_cell_setting 'monoclinic'
loop_
_space_group_symop_operation_xyz
x,y,z
-x,y,-z
-x,-y,-z
x,-y,z
1/2+x,1/2+y,z
1/2-x,1/2+y,-z
1/2-x,1/2-y,-z
1/2+x,1/2-y,z
loop_
_atom_site_type_symbol
_atom_site_label
_atom_site_fract_x
_atom_site_fract_y
_atom_site_fract_z
Si Si1 0.716273 0.724697 0.210529
Si Si2 0.568802 0.234208 0.789471
Si Si3 0.895900 0.614300 0.696433
Si Si4 0.202312 0.929294 0.921632
Si Si5 0.717344 0.135999 0.203861
Si Si6 0.869451 0.850400 0.678963
O O1 0.861252 0.700171 0.249315
O O2 0.790962 0.794825 0.281116
O O3 0.738374 0.681535 0.321304
O O4 0.500000 0.721637 0.000000
O O5 0.448375 0.186315 0.751686
O O6 0.444515 0.295534 0.672188
O O7 0.750000 0.250000 0.000000
O O8 0.764612 0.598653 0.680500
O O9 0.778195 0.606468 0.501372
O O10 0.090530 0.575465 0.858926
O O11 0.180628 0.899710 0.797935
O O12 0.045791 0.893467 0.856807
O O13 0.145992 0.000000 0.868384
O O14 0.500000 0.138647 0.000000
#
# Coordination Sequence:
#
# PCOD8113681 Si02
#       6
#     8   8   8   8   8   8
#     4  11  19  34  63  94 135 171 207 271 334 400
#     4  12  19  38  64  94 137 170 210 273 341 401
#     4  11  23  39  60  95 131 170 218 274 332 390
#     4  11  24  45  68  92 134 184 226 272 324 393
#     4   9  18  35  60  91 126 172 213 259 332 390
#     4  12  24  39  63  99 133 171 223 268 337 398
#
# _framework density 22.254436999999999
#
# number of rings (size 3 to 8) (size 9 to 14) (size 15 to 20)
#    0.000    1.000    6.667    1.500    0.000    5.000 
#    0.000    0.833    0.000    4.500    0.000    5.833 
#    0.000    0.000    0.000    0.000    0.000    0.000 
#
# Total GULP energy -297364.019815 kJ/mol
# GULP energy per Si atom -12390.167492 kJ/mol
# Density = 2.220379 g / cm^3
# Si number density = 22.254437 Si / 1000 Ang^3
#
#
#
# Elastic Constant Matrix: (Units=GPa)
#
#
# Indices 1 2 3 4 5 6 
#
# 1 129.1331 33.0775 23.8409 0.0000 -17.1480 0.0000
# 2 33.0775 103.2228 6.6122 0.0000 -0.5317 0.0000
# 3 23.8409 6.6122 79.5405 -0.0001 -13.7006 0.0000
# 4 0.0000 0.0000 -0.0001 16.0037 0.0000 -0.3465
# 5 -17.1480 -0.5317 -13.7006 0.0000 23.1690 0.0000
# 6 0.0000 0.0000 0.0000 -0.3465 0.0000 19.0737
#
#
#
# Elastic Compliance Matrix: (Units=1/GPa)
#
#
# Indices 1 2 3 4 5 6 
#
# 1 0.009600 -0.002944 -0.001582 0.000000 0.006103 0.000000
# 2 -0.002944 0.010644 -0.000374 0.000000 -0.002155 0.000000
# 3 -0.001582 -0.000374 0.014334 0.000000 0.007297 0.000000
# 4 0.000000 0.000000 0.000000 0.062510 0.000000 0.001136
# 5 0.006103 -0.002155 0.007297 0.000000 0.051943 0.000000
# 6 0.000000 0.000000 0.000000 0.001136 0.000000 0.052449
#
#
# Mechanical properties :
#
#
# Convention : Reuss Voigt Hill
#
# Bulk Modulus (GPa) = 40.35462 48.77308 44.56385
# Shear Modulus (GPa) = 22.77496 28.20700 25.49098
#
# Velocity S-wave (km/s) = 3.20252 3.56403 3.38810
# Velocity P-wave (km/s) = 5.64336 6.23699 5.94759
#
# Compressibility (1/GPa) = 0.02478031
#
# Stress axis : x y z
#
# Youngs Moduli (GPa) = 104.16259 93.95035 69.76287
#
# Poissons Ratio (x) = 0.27656 0.11034
# Poissons Ratio (y) = 0.30662 0.02608
# Poissons Ratio (z) = 0.16475 0.03512
#
# Static dielectric constant tensor:
#      x y z
#    x 4.802720 0.000000 0.084730 
#    y 0.000000 3.673480 0.000000 
#    z 0.084730 0.000000 4.045810 
# 
# 
# High freq. dielectric constant tensor:
#      x y z
#    x 1.878200 0.000000 0.008360 
#    y 0.000000 1.826640 0.000000 
#    z 0.008360 0.000000 1.871210 
# 
# From -- ./inp_files/218560.got.cif
#   From: 2010.06.25/outbox.cif.g09.slc.cpg/sg12_110_cif.got.tgz:218560.got - 2010.06.28 00:19:55.
