data_PCOD8113016
_publ_section_title
;
Structure prediction by ZEFSAII (Michael W. Deem and Ramdas Pophale) SiO2 
 PCOD8113016
Probable space group: C 2/M
;
_chemical_formula_sum "Si O2"
_cell_formula_units_Z 48
_cell_length_a 14.160012
_cell_length_b 13.671259
_cell_length_c 23.560383
_cell_angle_alpha 90.000000
_cell_angle_beta 31.117434
_cell_angle_gamma 90.000000
_cell_volume 2357.066393
_symmetry_space_group_name_H-M "C 2/M"
_symmetry_group_IT_number 12
_symmetry_cell_setting 'monoclinic'
loop_
_space_group_symop_operation_xyz
x,y,z
-x,y,-z
-x,-y,-z
x,-y,z
1/2+x,1/2+y,z
1/2-x,1/2+y,-z
1/2-x,1/2-y,-z
1/2+x,1/2-y,z
loop_
_atom_site_type_symbol
_atom_site_label
_atom_site_fract_x
_atom_site_fract_y
_atom_site_fract_z
Si Si1 0.651656 0.886676 0.034363
Si Si2 0.346525 0.263909 0.221127
Si Si3 0.959756 0.111124 0.791475
Si Si4 0.817105 0.111369 0.428892
Si Si5 0.545542 0.275638 0.540144
Si Si6 0.469202 0.614429 0.954410
O O1 0.466899 0.825590 0.134496
O O2 0.600647 0.000000 0.069627
O O3 0.788160 0.848270 0.014148
O O4 0.751618 0.871583 0.921236
O O5 0.411120 0.305346 0.248436
O O6 0.356524 0.353680 0.171878
O O7 0.140041 0.232046 0.329682
O O8 0.994994 0.121427 0.705503
O O9 0.014708 0.000000 0.782516
O O10 0.656160 0.174025 0.482126
O O11 0.842712 0.144036 0.481135
O O12 0.749317 0.000000 0.464429
O O13 0.500000 0.312413 0.500000
O O14 0.459788 0.500000 0.964916
O O15 0.500000 0.662984 0.000000
#
# Coordination Sequence:
#
# PCOD8113016 Si02
#       6
#     8   8   8   8   8   8
#     4   9  19  34  55  85 117 154 196 236 294 363
#     4  11  20  33  59  83 118 160 193 245 303 350
#     4   9  17  34  60  87 114 149 197 245 294 356
#     4  10  23  43  66  88 120 162 202 253 309 358
#     4  11  24  42  61  91 124 154 210 258 295 364
#     4   9  18  33  52  83 121 151 190 241 293 359
#
# _framework density 20.364297000000001
#
# number of rings (size 3 to 8) (size 9 to 14) (size 15 to 20)
#    0.000    2.167    1.667    3.500    0.000    5.333 
#    0.000    0.000    0.000    3.500    0.000    0.000 
#    0.000    0.000    0.000    0.000    0.000    0.000 
#
# Total GULP energy -297366.468389 kJ/mol
# GULP energy per Si atom -12390.269516 kJ/mol
# Density = 2.031795 g / cm^3
# Si number density = 20.364297 Si / 1000 Ang^3
#
#
#
# Elastic Constant Matrix: (Units=GPa)
#
#
# Indices 1 2 3 4 5 6 
#
# 1 83.3825 16.4046 36.5997 -0.0006 24.1198 0.0000
# 2 16.4046 32.7526 23.8814 -0.0025 -3.0906 0.0013
# 3 36.5997 23.8814 110.9701 -0.0028 -4.9353 0.0023
# 4 -0.0006 -0.0025 -0.0028 26.7727 -0.0001 5.8150
# 5 24.1198 -3.0906 -4.9353 -0.0001 27.3325 0.0001
# 6 0.0000 0.0013 0.0023 5.8150 0.0001 14.2323
#
#
#
# Elastic Compliance Matrix: (Units=1/GPa)
#
#
# Indices 1 2 3 4 5 6 
#
# 1 0.023321 -0.008878 -0.006795 -0.000002 -0.022810 0.000003
# 2 -0.008878 0.039795 -0.005129 0.000004 0.011408 -0.000005
# 3 -0.006795 -0.005129 0.012699 0.000001 0.007710 -0.000002
# 4 -0.000002 0.000004 0.000001 0.040989 0.000002 -0.016747
# 5 -0.022810 0.011408 0.007710 0.000002 0.059398 -0.000004
# 6 0.000003 -0.000005 -0.000002 -0.016747 -0.000004 0.077105
#
#
# Mechanical properties :
#
#
# Convention : Reuss Voigt Hill
#
# Bulk Modulus (GPa) = 29.23078 42.31962 35.77520
# Shear Modulus (GPa) = 16.32313 23.68214 20.00264
#
# Velocity S-wave (km/s) = 2.83425 3.41387 3.13747
# Velocity P-wave (km/s) = 5.00956 6.03040 5.54353
#
# Compressibility (1/GPa) = 0.03421052
#
# Stress axis : x y z
#
# Youngs Moduli (GPa) = 42.88051 25.12905 78.74500
#
# Poissons Ratio (x) = 0.22310 0.53510
# Poissons Ratio (y) = 0.38070 0.40385
# Poissons Ratio (z) = 0.29139 0.12888
#
# Static dielectric constant tensor:
#      x y z
#    x 3.719320 0.000000 0.295550 
#    y 0.000000 3.658810 0.000010 
#    z 0.295550 0.000010 3.694680 
# 
# 
# High freq. dielectric constant tensor:
#      x y z
#    x 1.775850 0.000000 0.020310 
#    y 0.000000 1.798190 0.000000 
#    z 0.020310 0.000000 1.790670 
# 
# From -- ./inp_files/142722.got.cif
#   From: 2010.06.25/outbox.cif.g09.slc.cpg/sg12_72_cif.got.tgz:142722.got - 2010.06.28 00:19:55.
