data_PCOD8113530
_publ_section_title
;
Structure prediction by ZEFSAII (Michael W. Deem and Ramdas Pophale) SiO2 
 PCOD8113530
Probable space group: C 2/M
;
_chemical_formula_sum "Si O2"
_cell_formula_units_Z 40
_cell_length_a 19.113977
_cell_length_b 9.452778
_cell_length_c 29.342584
_cell_angle_alpha 90.000000
_cell_angle_beta 19.958218
_cell_angle_gamma 90.000000
_cell_volume 1809.628546
_symmetry_space_group_name_H-M "C 2/M"
_symmetry_group_IT_number 12
_symmetry_cell_setting 'monoclinic'
loop_
_space_group_symop_operation_xyz
x,y,z
-x,y,-z
-x,-y,-z
x,-y,z
1/2+x,1/2+y,z
1/2-x,1/2+y,-z
1/2-x,1/2-y,-z
1/2+x,1/2-y,z
loop_
_atom_site_type_symbol
_atom_site_label
_atom_site_fract_x
_atom_site_fract_y
_atom_site_fract_z
Si Si1 0.378769 0.838584 0.956754
Si Si2 0.223470 0.339169 0.878690
Si Si3 0.240597 0.843108 0.711711
Si Si4 0.107640 0.341046 0.619620
Si Si5 0.646090 0.727952 0.446493
O O1 0.604586 0.769996 0.822597
O O2 0.402414 0.000000 0.925449
O O3 0.250000 0.750000 0.000000
O O4 0.262351 0.831953 0.075714
O O5 0.264601 0.500000 0.836376
O O6 0.388658 0.234516 0.755839
O O7 0.000000 0.287870 0.000000
O O8 0.482141 0.821548 0.576421
O O9 0.212814 0.824699 0.673427
O O10 0.168791 0.000000 0.769451
O O11 0.078681 0.500000 0.618499
O O12 0.250000 0.250000 0.500000
O O13 0.210094 0.356490 0.607164
O O14 0.500000 0.636039 0.500000
#
# Coordination Sequence:
#
# PCOD8113530 Si02
#       5
#     8   8   8   8   8
#     4  11  23  38  62  93 128 167 216 270 330 390
#     4  10  25  48  68  92 131 178 222 273 330 392
#     4   9  19  36  63  94 128 165 211 266 325 384
#     4  12  27  45  69 100 133 175 221 277 331 394
#     4   8  21  40  63  96 130 169 215 266 324 386
#
# _framework density 22.103985000000002
#
# number of rings (size 3 to 8) (size 9 to 14) (size 15 to 20)
#    1.200    0.600    0.000    3.600    2.800   10.400 
#    0.000    0.000    0.000    0.000    0.000    0.000 
#    0.000    0.000    0.000    0.000    0.000    0.000 
#
# Total GULP energy -247767.223020 kJ/mol
# GULP energy per Si atom -12388.361151 kJ/mol
# Density = 2.205368 g / cm^3
# Si number density = 22.103985 Si / 1000 Ang^3
#
#
#
# Elastic Constant Matrix: (Units=GPa)
#
#
# Indices 1 2 3 4 5 6 
#
# 1 73.8736 26.0625 19.1907 -0.0003 -21.0248 0.0184
# 2 26.0625 178.9673 78.3357 -0.0185 -4.0019 0.0475
# 3 19.1907 78.3357 128.8240 -0.0584 -7.4435 0.0177
# 4 -0.0003 -0.0185 -0.0584 29.5020 -0.0208 7.2138
# 5 -21.0248 -4.0019 -7.4435 -0.0208 25.4702 0.0015
# 6 0.0184 0.0475 0.0177 7.2138 0.0015 16.5866
#
#
#
# Elastic Compliance Matrix: (Units=1/GPa)
#
#
# Indices 1 2 3 4 5 6 
#
# 1 0.018690 -0.002108 -0.000641 0.000013 0.014910 -0.000021
# 2 -0.002108 0.007853 -0.004567 -0.000002 -0.001841 -0.000014
# 3 -0.000641 -0.004567 0.010745 0.000021 0.001893 -0.000007
# 4 0.000013 -0.000002 0.000021 0.037930 0.000049 -0.016496
# 5 0.014910 -0.001841 0.001893 0.000049 0.051833 -0.000039
# 6 -0.000021 -0.000014 -0.000007 -0.016496 -0.000039 0.067464
#
#
# Mechanical properties :
#
#
# Convention : Reuss Voigt Hill
#
# Bulk Modulus (GPa) = 44.14027 69.87138 57.00583
# Shear Modulus (GPa) = 23.07350 31.51682 27.29516
#
# Velocity S-wave (km/s) = 3.23439 3.78013 3.51786
# Velocity P-wave (km/s) = 5.82762 7.12260 6.50740
#
# Compressibility (1/GPa) = 0.02265505
#
# Stress axis : x y z
#
# Youngs Moduli (GPa) = 53.50418 127.34640 93.06839
#
# Poissons Ratio (x) = 0.26842 0.05966
# Poissons Ratio (y) = 0.11278 0.42508
# Poissons Ratio (z) = 0.03430 0.58164
#
# Static dielectric constant tensor:
#      x y z
#    x 3.864310 0.000000 -0.028940 
#    y 0.000000 3.745710 0.000020 
#    z -0.028940 0.000020 4.088100 
# 
# 
# High freq. dielectric constant tensor:
#      x y z
#    x 1.860030 0.000000 -0.002670 
#    y 0.000000 1.852350 0.000010 
#    z -0.002670 0.000010 1.875320 
# 
# From -- ./inp_files/380519.got.cif
#   From: 2010.06.25/outbox.cif.g09.slc.cpg/sg12_191_cif.got.tgz:380519.got - 2010.06.28 00:19:55.
