data_PCOD8113623
_publ_section_title
;
Structure prediction by ZEFSAII (Michael W. Deem and Ramdas Pophale) SiO2 
 PCOD8113623
Probable space group: C 2/M
;
_chemical_formula_sum "Si O2"
_cell_formula_units_Z 40
_cell_length_a 24.018220
_cell_length_b 10.188283
_cell_length_c 20.394802
_cell_angle_alpha 90.000000
_cell_angle_beta 26.188464
_cell_angle_gamma 90.000000
_cell_volume 2202.520845
_symmetry_space_group_name_H-M "C 2/M"
_symmetry_group_IT_number 12
_symmetry_cell_setting 'monoclinic'
loop_
_space_group_symop_operation_xyz
x,y,z
-x,y,-z
-x,-y,-z
x,-y,z
1/2+x,1/2+y,z
1/2-x,1/2+y,-z
1/2-x,1/2-y,-z
1/2+x,1/2-y,z
loop_
_atom_site_type_symbol
_atom_site_label
_atom_site_fract_x
_atom_site_fract_y
_atom_site_fract_z
Si Si1 0.260968 0.000000 0.363927
Si Si2 0.532652 0.000000 0.742696
Si Si3 0.949914 0.000000 0.307749
Si Si4 0.322039 0.730266 0.242436
Si Si5 0.124604 0.763310 0.091262
Si Si6 0.756716 0.500000 0.585787
Si Si7 0.400531 0.346385 0.023456
O O1 0.378486 0.000000 0.288422
O O2 0.131542 0.000000 0.540626
O O3 0.264679 0.126246 0.313424
O O4 0.445382 0.125993 0.836603
O O5 0.614281 0.000000 0.590535
O O6 0.034545 0.129490 0.219371
O O7 0.864808 0.000000 0.332689
O O8 0.243208 0.629094 0.369653
O O9 0.307883 0.693414 0.180732
O O10 0.467940 0.730272 0.109380
O O11 0.250000 0.750000 0.000000
O O12 0.164846 0.808048 0.975640
O O13 0.431741 0.500000 0.994000
#
# Coordination Sequence:
#
# PCOD8113623 Si02
#       7
#     4   4   4   8   8   4   8
#     4  11  22  34  58  89 123 140 178 253 296 340
#     4  11  23  35  55  92 114 149 194 231 291 332
#     4  11  21  39  57  84 118 155 186 227 303 334
#     4  11  19  34  58  88 116 145 182 240 292 336
#     4  12  23  39  59  82 119 153 195 231 270 344
#     4  11  18  36  62  83 119 146 186 241 282 354
#     4  11  20  36  59  83 116 151 192 226 289 341
#
# _framework density 18.161007999999999
#
# number of rings (size 3 to 8) (size 9 to 14) (size 15 to 20)
#    0.000    0.800    7.000    2.400    0.000    5.600 
#    0.000    0.000    0.000    7.200    0.000    0.000 
#    0.000    0.000    0.000    0.000    0.000    0.000 
#
# Total GULP energy -248094.168524 kJ/mol
# GULP energy per Si atom -12404.708426 kJ/mol
# Density = 1.811967 g / cm^3
# Si number density = 18.161008 Si / 1000 Ang^3
#
#
#
# Elastic Constant Matrix: (Units=GPa)
#
#
# Indices 1 2 3 4 5 6 
#
# 1 99.8125 30.1803 52.7664 0.0000 12.3106 0.0000
# 2 30.1803 154.1361 55.7606 0.0001 11.0209 -0.0001
# 3 52.7664 55.7606 93.8995 0.0000 18.9335 0.0001
# 4 0.0000 0.0001 0.0000 15.7601 0.0000 30.9617
# 5 12.3106 11.0209 18.9335 0.0000 30.7861 0.0000
# 6 0.0000 -0.0001 0.0001 30.9617 0.0000 -15.2249
#
#
#
# Elastic Compliance Matrix: (Units=1/GPa)
#
#
# Indices 1 2 3 4 5 6 
#
# 1 0.014276 0.000135 -0.007924 0.000000 -0.000883 0.000000
# 2 0.000135 0.008264 -0.004995 0.000000 0.000060 0.000000
# 3 -0.007924 -0.004995 0.019486 0.000000 -0.007027 0.000000
# 4 0.000000 0.000000 0.000000 0.012703 0.000000 0.025832
# 5 -0.000883 0.000060 -0.007027 0.000000 0.037136 0.000000
# 6 0.000000 0.000000 0.000000 0.025832 0.000000 -0.013149
#
#
# Mechanical properties :
#
#
# Convention : Reuss Voigt Hill
#
# Bulk Modulus (GPa) = 60.76624 69.47364 65.11994
# Shear Modulus (GPa) = 45.54940 20.20697 32.87819
#
# Velocity S-wave (km/s) = 5.01351 3.33927 4.25946
# Velocity P-wave (km/s) = 8.18817 7.29417 7.75407
#
# Compressibility (1/GPa) = 0.01645651
#
# Stress axis : x y z
#
# Youngs Moduli (GPa) = 70.04633 121.00323 51.31917
#
# Poissons Ratio (x) = -0.01628 0.40667
# Poissons Ratio (y) = -0.00942 0.25635
# Poissons Ratio (z) = 0.55506 0.60444
#
# Static dielectric constant tensor:
#      x y z
#    x 3.401680 0.000000 0.363780 
#    y 0.000000 3.289830 0.000000 
#    z 0.363780 0.000000 3.339040 
# 
# 
# High freq. dielectric constant tensor:
#      x y z
#    x 1.683510 0.000000 0.030640 
#    y 0.000000 1.722890 0.000000 
#    z 0.030640 0.000000 1.696230 
# 
# From -- ./inp_files/172626.got.cif
#   From: 2010.06.25/outbox.cif.g09.slc.cpg/sg12_87_cif.got.tgz:172626.got - 2010.06.28 00:19:55.
