data_PCOD8113577
_publ_section_title
;
Structure prediction by ZEFSAII (Michael W. Deem and Ramdas Pophale) SiO2 
 PCOD8113577
Probable space group: C 2/M
;
_chemical_formula_sum "Si O2"
_cell_formula_units_Z 40
_cell_length_a 14.302965
_cell_length_b 9.751891
_cell_length_c 17.458403
_cell_angle_alpha 90.000000
_cell_angle_beta 88.375633
_cell_angle_gamma 90.000000
_cell_volume 2434.136184
_symmetry_space_group_name_H-M "C 2/M"
_symmetry_group_IT_number 12
_symmetry_cell_setting 'monoclinic'
loop_
_space_group_symop_operation_xyz
x,y,z
-x,y,-z
-x,-y,-z
x,-y,z
1/2+x,1/2+y,z
1/2-x,1/2+y,-z
1/2-x,1/2-y,-z
1/2+x,1/2-y,z
loop_
_atom_site_type_symbol
_atom_site_label
_atom_site_fract_x
_atom_site_fract_y
_atom_site_fract_z
Si Si1 0.563230 0.778474 0.072902
Si Si2 0.230417 0.650786 0.601499
Si Si3 0.681139 0.000000 0.999750
Si Si4 0.053646 0.500000 0.854444
Si Si5 0.605484 0.659985 0.511933
Si Si6 0.278447 0.000000 0.253152
Si Si7 0.349393 0.500000 0.892198
O O1 0.586737 0.633743 0.109939
O O2 0.509264 0.863437 0.139833
O O3 0.500000 0.755130 0.000000
O O4 0.657322 0.862975 0.048691
O O5 0.203025 0.500000 0.568078
O O6 0.331239 0.693836 0.564234
O O7 0.149915 0.759285 0.582788
O O8 0.239068 0.636063 0.693921
O O9 0.788967 0.000000 0.972088
O O10 0.618301 0.000000 0.926678
O O11 0.113525 0.500000 0.775684
O O12 0.500000 0.712342 0.500000
O O13 0.604571 0.500000 0.533054
O O14 0.211023 0.000000 0.182887
#
# Coordination Sequence:
#
# PCOD8113577 Si02
#       7
#     8   8   4   4   8   4   4
#     4   9  17  30  48  73  91 120 165 204 233 271
#     4   8  17  33  49  68 101 127 156 193 228 299
#     4   8  16  30  50  67  89 127 156 189 239 283
#     4   8  16  33  49  57  95 130 155 186 235 296
#     4   9  16  30  54  78  93 117 158 204 245 270
#     4   9  19  35  45  63  97 141 153 176 248 300
#     4  11  18  28  50  71 100 118 157 204 241 280
#
# _framework density 16.432933999999999
#
# number of rings (size 3 to 8) (size 9 to 14) (size 15 to 20)
#    0.600    2.600    0.000    2.100    0.000    0.400 
#    3.600    0.000    4.400    0.000    0.000    0.000 
#    0.000    0.000    0.000    0.000    0.000    0.000 
#
# Total GULP energy -247835.100859 kJ/mol
# GULP energy per Si atom -12391.755043 kJ/mol
# Density = 1.639553 g / cm^3
# Si number density = 16.432934 Si / 1000 Ang^3
#
#
#
# Elastic Constant Matrix: (Units=GPa)
#
#
# Indices 1 2 3 4 5 6 
#
# 1 101.5436 50.5248 39.2107 0.0000 -4.7237 0.0000
# 2 50.5248 98.9557 35.6955 0.0000 1.1369 0.0000
# 3 39.2107 35.6955 85.1480 0.0000 -9.0728 0.0000
# 4 0.0000 0.0000 0.0000 0.8541 0.0000 6.0498
# 5 -4.7237 1.1369 -9.0728 0.0000 20.3196 0.0000
# 6 0.0000 0.0000 0.0000 6.0498 0.0000 23.4123
#
#
#
# Elastic Compliance Matrix: (Units=1/GPa)
#
#
# Indices 1 2 3 4 5 6 
#
# 1 0.014428 -0.005969 -0.003936 0.000000 0.001931 0.000000
# 2 -0.005969 0.014557 -0.003768 0.000000 -0.003884 0.000000
# 3 -0.003936 -0.003768 0.015814 0.000000 0.006357 0.000000
# 4 0.000000 0.000000 0.000000 -1.410165 0.000000 0.364390
# 5 0.001931 -0.003884 0.006357 0.000000 0.052718 0.000000
# 6 0.000000 0.000000 0.000000 0.364390 0.000000 -0.051446
#
#
# Mechanical properties :
#
#
# Convention : Reuss Voigt Hill
#
# Bulk Modulus (GPa) = 57.29688 59.61216 58.45452
# Shear Modulus (GPa) = -3.75676 19.59828 7.92076
#
# Velocity S-wave (km/s) = -1.51363 3.45718 2.19784
# Velocity P-wave (km/s) = 5.64695 7.23125 6.48764
#
# Compressibility (1/GPa) = 0.01745296
#
# Stress axis : x y z
#
# Youngs Moduli (GPa) = 69.31186 68.69638 63.23679
#
# Poissons Ratio (x) = 0.41004 0.24890
# Poissons Ratio (y) = 0.41371 0.23826
# Poissons Ratio (z) = 0.27281 0.25883
#
# Static dielectric constant tensor:
#      x y z
#    x 3.205910 0.000000 -0.314090 
#    y 0.000000 3.027770 0.000000 
#    z -0.314090 0.000000 2.901730 
# 
# 
# High freq. dielectric constant tensor:
#      x y z
#    x 1.630030 0.000000 -0.017600 
#    y 0.000000 1.628160 0.000000 
#    z -0.017600 0.000000 1.602850 
# 
# From -- ./inp_files/307847.got.cif
#   From: 2010.06.25/outbox.cif.g09.slc.cpg/sg12_154_cif.got.tgz:307847.got - 2010.06.28 00:19:55.
