data_PCOD8113560
_publ_section_title
;
Structure prediction by ZEFSAII (Michael W. Deem and Ramdas Pophale) SiO2 
 PCOD8113560
Probable space group: C 2/M
;
_chemical_formula_sum "Si O2"
_cell_formula_units_Z 48
_cell_length_a 17.519964
_cell_length_b 16.602408
_cell_length_c 24.893441
_cell_angle_alpha 90.000000
_cell_angle_beta 23.157812
_cell_angle_gamma 90.000000
_cell_volume 2847.570922
_symmetry_space_group_name_H-M "C 2/M"
_symmetry_group_IT_number 12
_symmetry_cell_setting 'monoclinic'
loop_
_space_group_symop_operation_xyz
x,y,z
-x,y,-z
-x,-y,-z
x,-y,z
1/2+x,1/2+y,z
1/2-x,1/2+y,-z
1/2-x,1/2-y,-z
1/2+x,1/2-y,z
loop_
_atom_site_type_symbol
_atom_site_label
_atom_site_fract_x
_atom_site_fract_y
_atom_site_fract_z
Si Si1 0.837121 0.259247 0.149329
Si Si2 0.020163 0.170321 0.121631
Si Si3 0.049206 0.090630 0.205581
Si Si4 0.441375 0.827658 0.832754
Si Si5 0.003875 0.408827 0.895176
Si Si6 0.943651 0.240272 0.341580
O O1 0.856821 0.191741 0.183502
O O2 0.863156 0.349526 0.155824
O O3 0.623887 0.249318 0.264522
O O4 0.000000 0.241969 0.000000
O O5 0.960244 0.100084 0.202555
O O6 0.062207 0.246155 0.131674
O O7 0.220031 0.147374 0.961605
O O8 0.948831 0.151716 0.311807
O O9 0.009079 0.000000 0.251425
O O10 0.279352 0.109846 0.054434
O O11 0.538512 0.895249 0.808554
O O12 0.555662 0.811799 0.703376
O O13 0.061698 0.500000 0.872531
O O14 0.750000 0.250000 0.500000
#
# Coordination Sequence:
#
# PCOD8113560 Si02
#       6
#     8   8   8   8   8   8
#     4  11  17  29  50  77 103 126 163 214 247 283
#     4   8  14  27  50  70  90 124 167 204 240 275
#     4   9  17  32  53  76 101 129 163 205 253 300
#     4   8  14  29  46  67  97 131 163 195 231 291
#     4   9  17  29  52  81 103 126 161 206 253 298
#     4  11  21  32  48  74 105 136 165 200 251 303
#
# _framework density 16.856470999999999
#
# number of rings (size 3 to 8) (size 9 to 14) (size 15 to 20)
#    0.000    2.667    3.333    2.000    0.000    1.000 
#    0.000    8.333    0.000    4.500    0.000    0.000 
#    0.000    0.000    0.000    0.000    0.000    0.000 
#
# Total GULP energy -297383.627084 kJ/mol
# GULP energy per Si atom -12390.984462 kJ/mol
# Density = 1.681811 g / cm^3
# Si number density = 16.856471 Si / 1000 Ang^3
#
#
#
# Elastic Constant Matrix: (Units=GPa)
#
#
# Indices 1 2 3 4 5 6 
#
# 1 97.0413 16.8026 50.9921 -0.0131 2.4732 0.0015
# 2 16.8026 31.9124 16.7218 -0.0449 1.7204 0.0114
# 3 50.9921 16.7218 101.3422 -0.0061 7.7985 0.0155
# 4 -0.0131 -0.0449 -0.0061 14.5144 0.0055 4.5472
# 5 2.4732 1.7204 7.7985 0.0055 20.1103 -0.0061
# 6 0.0015 0.0114 0.0155 4.5472 -0.0061 20.8394
#
#
#
# Elastic Compliance Matrix: (Units=1/GPa)
#
#
# Indices 1 2 3 4 5 6 
#
# 1 0.014526 -0.004197 -0.006707 -0.000006 0.001173 0.000008
# 2 -0.004197 0.035526 -0.003665 0.000118 -0.001102 -0.000043
# 3 -0.006707 -0.003665 0.014183 -0.000007 -0.004361 -0.000008
# 4 -0.000006 0.000118 -0.000007 0.073953 -0.000032 -0.016137
# 5 0.001173 -0.001102 -0.004361 -0.000032 0.051367 0.000026
# 6 0.000008 -0.000043 -0.000008 -0.016137 0.000026 0.051507
#
#
# Mechanical properties :
#
#
# Convention : Reuss Voigt Hill
#
# Bulk Modulus (GPa) = 28.49325 44.36989 36.43157
# Shear Modulus (GPa) = 17.73692 20.81146 19.27419
#
# Velocity S-wave (km/s) = 3.24733 3.51754 3.38513
# Velocity P-wave (km/s) = 5.56780 6.54803 6.07771
#
# Compressibility (1/GPa) = 0.03509603
#
# Stress axis : x y z
#
# Youngs Moduli (GPa) = 68.84261 28.14853 70.50931
#
# Poissons Ratio (x) = 0.11815 0.47288
# Poissons Ratio (y) = 0.28895 0.25843
# Poissons Ratio (z) = 0.46171 0.10317
#
# Static dielectric constant tensor:
#      x y z
#    x 3.491240 0.000040 0.060020 
#    y 0.000040 3.297760 0.000040 
#    z 0.060020 0.000040 2.930050 
# 
# 
# High freq. dielectric constant tensor:
#      x y z
#    x 1.656660 0.000000 0.013920 
#    y 0.000000 1.630710 0.000010 
#    z 0.013920 0.000010 1.603400 
# 
# From -- ./inp_files/75468.got.cif
#   From: 2010.06.25/outbox.cif.g09.slc.cpg/sg12_38_cif.got.tgz:75468.got - 2010.06.28 00:19:55.
