data_PCOD8113046
_publ_section_title
;
Structure prediction by ZEFSAII (Michael W. Deem and Ramdas Pophale) SiO2 
 PCOD8113046
Probable space group: C 2/M
;
_chemical_formula_sum "Si O2"
_cell_formula_units_Z 52
_cell_length_a 14.161333
_cell_length_b 22.135883
_cell_length_c 8.230075
_cell_angle_alpha 90.000000
_cell_angle_beta 66.488934
_cell_angle_gamma 90.000000
_cell_volume 2365.734938
_symmetry_space_group_name_H-M "C 2/M"
_symmetry_group_IT_number 12
_symmetry_cell_setting 'monoclinic'
loop_
_space_group_symop_operation_xyz
x,y,z
-x,y,-z
-x,-y,-z
x,-y,z
1/2+x,1/2+y,z
1/2-x,1/2+y,-z
1/2-x,1/2-y,-z
1/2+x,1/2-y,z
loop_
_atom_site_type_symbol
_atom_site_label
_atom_site_fract_x
_atom_site_fract_y
_atom_site_fract_z
Si Si1 0.278604 0.387435 0.200276
Si Si2 0.773291 0.929848 0.857452
Si Si3 0.925767 0.171906 0.704459
Si Si4 0.755707 0.749694 0.301524
Si Si5 0.399905 0.142707 0.173495
Si Si6 0.000000 0.141848 0.000000
Si Si7 0.399835 0.066015 0.460700
O O1 0.233279 0.410136 0.061856
O O2 0.271314 0.315514 0.219666
O O3 0.211498 0.421518 0.379949
O O4 0.402270 0.400816 0.116129
O O5 0.797874 0.000000 0.828013
O O6 0.876531 0.894621 0.736753
O O7 0.681037 0.910905 0.804460
O O8 0.842595 0.223698 0.725636
O O9 0.000000 0.175147 0.500000
O O10 0.975993 0.181778 0.851083
O O11 0.750000 0.750000 0.500000
O O12 0.853977 0.709320 0.185889
O O13 0.428506 0.125068 0.336613
O O14 0.500000 0.136819 0.000000
O O15 0.500000 0.061183 0.500000
O O16 0.387318 0.000000 0.383526
#
# Coordination Sequence:
#
# PCOD8113046 Si02
#       7
#     8   8   8   8   8   4   8
#     4  11  23  44  67  97 138 176 230 287 347 423
#     4  10  23  43  67  96 132 175 229 284 342 415
#     4  10  23  43  68  98 139 183 230 291 353 420
#     4  11  23  44  70  99 137 181 237 289 354 427
#     4  11  24  42  66 100 132 177 227 282 353 414
#     4  10  24  42  67 100 142 178 235 284 356 422
#     4  11  24  43  69  98 135 183 231 289 351 414
#
# _framework density 21.980484000000001
#
# number of rings (size 3 to 8) (size 9 to 14) (size 15 to 20)
#    0.000    1.385    1.538    2.769    3.231    8.923 
#    5.538    9.615    0.000    0.000    0.000    0.000 
#    0.000    0.000    0.000    0.000    0.000    0.000 
#
# Total GULP energy -322154.121312 kJ/mol
# GULP energy per Si atom -12390.543127 kJ/mol
# Density = 2.193046 g / cm^3
# Si number density = 21.980484 Si / 1000 Ang^3
#
#
#
# Elastic Constant Matrix: (Units=GPa)
#
#
# Indices 1 2 3 4 5 6 
#
# 1 90.4245 31.4390 30.9677 0.0000 -2.2623 0.0000
# 2 31.4390 130.7498 6.6729 0.0000 -7.7017 0.0000
# 3 30.9677 6.6729 96.2875 0.0000 -13.6102 0.0000
# 4 0.0000 0.0000 0.0000 35.6650 0.0000 -2.1558
# 5 -2.2623 -7.7017 -13.6102 0.0000 46.2712 0.0000
# 6 0.0000 0.0000 0.0000 -2.1558 0.0000 51.1023
#
#
#
# Elastic Compliance Matrix: (Units=1/GPa)
#
#
# Indices 1 2 3 4 5 6 
#
# 1 0.013591 -0.003114 -0.004314 0.000000 -0.001123 0.000000
# 2 -0.003114 0.008450 0.000619 0.000000 0.001436 0.000000
# 3 -0.004314 0.000619 0.012223 0.000000 0.003487 0.000000
# 4 0.000000 0.000000 0.000000 0.028110 0.000000 0.001186
# 5 -0.001123 0.001436 0.003487 0.000000 0.022822 0.000000
# 6 0.000000 0.000000 0.000000 0.001186 0.000000 0.019619
#
#
# Mechanical properties :
#
#
# Convention : Reuss Voigt Hill
#
# Bulk Modulus (GPa) = 48.43563 50.62458 49.53010
# Shear Modulus (GPa) = 39.89962 43.16653 41.53307
#
# Velocity S-wave (km/s) = 4.26517 4.43635 4.35160
# Velocity P-wave (km/s) = 6.80729 7.02305 6.91601
#
# Compressibility (1/GPa) = 0.02064596
#
# Stress axis : x y z
#
# Youngs Moduli (GPa) = 73.57853 118.34373 81.81266
#
# Poissons Ratio (x) = 0.36851 0.35294
# Poissons Ratio (y) = 0.22912 -0.05063
# Poissons Ratio (z) = 0.31741 -0.07324
#
# Static dielectric constant tensor:
#      x y z
#    x 3.859100 0.000000 -0.071770 
#    y 0.000000 3.984970 0.000000 
#    z -0.071770 0.000000 4.047240 
# 
# 
# High freq. dielectric constant tensor:
#      x y z
#    x 1.877110 0.000000 -0.000860 
#    y 0.000000 1.857550 0.000000 
#    z -0.000860 0.000000 1.873970 
# 
# From -- ./inp_files/65249.got.cif
#   From: 2010.06.25/outbox.cif.g09.slc.cpg/sg12_33_cif.got.tgz:65249.got - 2010.06.28 00:19:55.
