data_PCOD8113828
_publ_section_title
;
Structure prediction by ZEFSAII (Michael W. Deem and Ramdas Pophale) SiO2 
 PCOD8113828
Probable space group: C 2/M
;
_chemical_formula_sum "Si O2"
_cell_formula_units_Z 48
_cell_length_a 16.010861
_cell_length_b 18.384197
_cell_length_c 22.067757
_cell_angle_alpha 90.000000
_cell_angle_beta 154.625654
_cell_angle_gamma 90.000000
_cell_volume 2783.552454
_symmetry_space_group_name_H-M "C 2/M"
_symmetry_group_IT_number 12
_symmetry_cell_setting 'monoclinic'
loop_
_space_group_symop_operation_xyz
x,y,z
-x,y,-z
-x,-y,-z
x,-y,z
1/2+x,1/2+y,z
1/2-x,1/2+y,-z
1/2-x,1/2-y,-z
1/2+x,1/2-y,z
loop_
_atom_site_type_symbol
_atom_site_label
_atom_site_fract_x
_atom_site_fract_y
_atom_site_fract_z
Si Si1 0.210435 0.348229 0.165470
Si Si2 0.575440 0.417095 0.359216
Si Si3 0.273585 0.582858 0.336224
Si Si4 0.045308 0.718667 0.663073
Si Si5 0.948202 0.418242 0.534912
Si Si6 0.223490 0.676294 0.412142
O O1 0.373162 0.372798 0.222600
O O2 0.231885 0.395842 0.239845
O O3 0.250941 0.262552 0.204237
O O4 0.000000 0.360470 0.000000
O O5 0.517337 0.500000 0.330279
O O6 0.698575 0.391614 0.497851
O O7 0.715436 0.404562 0.392584
O O8 0.500000 0.588900 0.500000
O O9 0.199053 0.500000 0.297643
O O10 0.165863 0.641910 0.309196
O O11 0.079085 0.638304 0.658629
O O12 0.964472 0.712427 0.678958
O O13 0.890681 0.761723 0.518724
O O14 0.001592 0.500000 0.591394
O O15 0.000000 0.406096 0.500000
#
# Coordination Sequence:
#
# PCOD8113828 Si02
#       6
#     8   8   8   8   8   8
#     4  11  23  36  50  80 115 153 182 210 268 335
#     4   9  16  30  51  76 109 138 168 218 267 316
#     4  11  20  32  54  83 111 140 182 229 271 323
#     4   9  18  32  52  72 108 137 177 223 272 310
#     4   9  18  30  52  84 104 129 177 233 282 316
#     4   9  17  30  50  80 100 135 177 223 267 313
#
# _framework density 17.244150999999999
#
# number of rings (size 3 to 8) (size 9 to 14) (size 15 to 20)
#    0.000    2.333    3.333    2.000    2.333    2.000 
#    0.000    0.833    0.000    0.500    0.000    0.000 
#    0.000    0.000    0.000    0.000    0.000    0.000 
#
# Total GULP energy -297431.384514 kJ/mol
# GULP energy per Si atom -12392.974355 kJ/mol
# Density = 1.720490 g / cm^3
# Si number density = 17.244151 Si / 1000 Ang^3
#
#
#
# Elastic Constant Matrix: (Units=GPa)
#
#
# Indices 1 2 3 4 5 6 
#
# 1 90.6602 40.6428 32.6576 -0.0087 -0.6516 -0.0032
# 2 40.6428 105.2974 28.5107 0.0401 -3.0935 0.0036
# 3 32.6576 28.5107 77.4715 0.0621 -1.6820 -0.0004
# 4 -0.0087 0.0401 0.0621 9.4049 -0.0005 1.7339
# 5 -0.6516 -3.0935 -1.6820 -0.0005 13.7110 -0.0031
# 6 -0.0032 0.0036 -0.0004 1.7339 -0.0031 32.7825
#
#
#
# Elastic Compliance Matrix: (Units=1/GPa)
#
#
# Indices 1 2 3 4 5 6 
#
# 1 0.014662 -0.004450 -0.004562 0.000063 -0.000867 -0.000002
# 2 -0.004450 0.011948 -0.002474 -0.000039 0.002181 0.000000
# 3 -0.004562 -0.002474 0.015767 -0.000099 0.001159 0.000005
# 4 0.000063 -0.000039 -0.000099 0.107375 -0.000015 -0.005679
# 5 -0.000867 0.002181 0.001159 -0.000015 0.073527 0.000007
# 6 -0.000002 0.000000 0.000005 -0.005679 0.000007 0.030804
#
#
# Mechanical properties :
#
#
# Convention : Reuss Voigt Hill
#
# Bulk Modulus (GPa) = 51.53100 53.00571 52.26835
# Shear Modulus (GPa) = 17.63516 22.62088 20.12802
#
# Velocity S-wave (km/s) = 3.20140 3.62581 3.42019
# Velocity P-wave (km/s) = 6.60404 6.95225 6.78038
#
# Compressibility (1/GPa) = 0.01940579
#
# Stress axis : x y z
#
# Youngs Moduli (GPa) = 68.20344 83.69377 63.42424
#
# Poissons Ratio (x) = 0.37240 0.28934
# Poissons Ratio (y) = 0.30347 0.15692
# Poissons Ratio (z) = 0.31115 0.20707
#
# Static dielectric constant tensor:
#      x y z
#    x 3.449240 -0.000040 0.110400 
#    y -0.000040 3.554160 -0.000060 
#    z 0.110400 -0.000060 2.678090 
# 
# 
# High freq. dielectric constant tensor:
#      x y z
#    x 1.669370 0.000000 0.008190 
#    y 0.000000 1.690100 -0.000010 
#    z 0.008190 -0.000010 1.590260 
# 
# From -- ./inp_files/227225.got.cif
#   From: 2010.06.25/outbox.cif.g09.slc.cpg/sg12_114_cif.got.tgz:227225.got - 2010.06.28 00:19:55.
