data_PCOD8113996
_publ_section_title
;
Structure prediction by ZEFSAII (Michael W. Deem and Ramdas Pophale) SiO2 
 PCOD8113996
Probable space group: C 2/M
;
_chemical_formula_sum "Si O2"
_cell_formula_units_Z 48
_cell_length_a 19.839911
_cell_length_b 10.051160
_cell_length_c 13.463863
_cell_angle_alpha 90.000000
_cell_angle_beta 67.413344
_cell_angle_gamma 90.000000
_cell_volume 2478.952933
_symmetry_space_group_name_H-M "C 2/M"
_symmetry_group_IT_number 12
_symmetry_cell_setting 'monoclinic'
loop_
_space_group_symop_operation_xyz
x,y,z
-x,y,-z
-x,-y,-z
x,-y,z
1/2+x,1/2+y,z
1/2-x,1/2+y,-z
1/2-x,1/2-y,-z
1/2+x,1/2-y,z
loop_
_atom_site_type_symbol
_atom_site_label
_atom_site_fract_x
_atom_site_fract_y
_atom_site_fract_z
Si Si1 0.810483 0.763052 0.746598
Si Si2 0.162083 0.500000 0.600805
Si Si3 0.407465 0.847037 0.858560
Si Si4 0.845124 0.345163 0.103390
Si Si5 0.573370 0.773727 0.752457
Si Si6 0.385551 0.500000 0.350097
Si Si7 0.822512 0.000000 0.598134
Si Si8 0.274702 0.000000 0.647269
O O1 0.874746 0.740415 0.788728
O O2 0.741005 0.819938 0.844508
O O3 0.840398 0.868692 0.650643
O O4 0.789607 0.628691 0.703409
O O5 0.118887 0.367238 0.652919
O O6 0.237629 0.500000 0.617380
O O7 0.172279 0.500000 0.477320
O O8 0.493899 0.833479 0.812401
O O9 0.385400 0.000000 0.854111
O O10 0.374512 0.795606 0.980945
O O11 0.862619 0.500000 0.111851
O O12 0.886796 0.262330 0.164161
O O13 0.568113 0.628382 0.707383
O O14 0.375095 0.500000 0.474004
O O15 0.308317 0.500000 0.339528
#
# Coordination Sequence:
#
# PCOD8113996 Si02
#       8
#     8   4   8   8   8   4   4   4
#     4  12  21  42  62  95 124 160 202 253 308 360
#     4  11  20  39  68  92 115 164 215 249 294 366
#     4  11  25  40  63  91 127 162 205 252 307 363
#     4  11  21  41  67  92 119 166 209 248 298 364
#     4  12  21  42  63  95 123 162 204 252 304 361
#     4  11  24  39  64  94 127 156 203 261 306 356
#     4  11  22  41  66  92 121 164 207 249 306 366
#     4  11  22  37  66  94 121 156 209 261 300 354
#
# _framework density 19.363014
#
# number of rings (size 3 to 8) (size 9 to 14) (size 15 to 20)
#    0.000    0.667    6.667    2.000    0.000    4.667 
#    0.000    8.333    0.000    0.000    0.000    0.000 
#    0.000    0.000    0.000    0.000    0.000    0.000 
#
# Total GULP energy -297781.914630 kJ/mol
# GULP energy per Si atom -12407.579776 kJ/mol
# Density = 1.931894 g / cm^3
# Si number density = 19.363014 Si / 1000 Ang^3
#
#
#
# Elastic Constant Matrix: (Units=GPa)
#
#
# Indices 1 2 3 4 5 6 
#
# 1 58.8188 0.2938 16.5278 0.0000 7.0558 0.0000
# 2 0.2938 104.4037 44.5055 0.0000 5.2303 0.0000
# 3 16.5278 44.5055 111.2558 0.0000 7.0745 0.0000
# 4 0.0000 0.0000 0.0000 27.9200 0.0000 -2.4994
# 5 7.0558 5.2303 7.0745 0.0000 14.6251 0.0000
# 6 0.0000 0.0000 0.0000 -2.4994 0.0000 29.5456
#
#
#
# Elastic Compliance Matrix: (Units=1/GPa)
#
#
# Indices 1 2 3 4 5 6 
#
# 1 0.018799 0.001600 -0.002909 0.000000 -0.008234 0.000000
# 2 0.001600 0.011738 -0.004764 0.000000 -0.002665 0.000000
# 3 -0.002909 -0.004764 0.011482 0.000000 -0.002447 0.000000
# 4 0.000000 0.000000 0.000000 0.036090 0.000000 0.003053
# 5 -0.008234 -0.002665 -0.002447 0.000000 0.074485 0.000000
# 6 0.000000 0.000000 0.000000 0.003053 0.000000 0.034104
#
#
# Mechanical properties :
#
#
# Convention : Reuss Voigt Hill
#
# Bulk Modulus (GPa) = 33.47606 44.12585 38.80096
# Shear Modulus (GPa) = 23.94630 28.62823 26.28726
#
# Velocity S-wave (km/s) = 3.52049 3.84930 3.68856
# Velocity P-wave (km/s) = 5.81819 6.52643 6.18246
#
# Compressibility (1/GPa) = 0.02987209
#
# Stress axis : x y z
#
# Youngs Moduli (GPa) = 53.19567 85.19422 87.09564
#
# Poissons Ratio (x) = -0.13628 0.25336
# Poissons Ratio (y) = -0.08509 0.41489
# Poissons Ratio (z) = 0.15474 0.40584
#
# Static dielectric constant tensor:
#      x y z
#    x 3.391830 0.000000 0.024300 
#    y 0.000000 3.568710 0.000000 
#    z 0.024300 0.000000 3.711140 
# 
# 
# High freq. dielectric constant tensor:
#      x y z
#    x 1.743620 0.000000 0.001950 
#    y 0.000000 1.758630 0.000000 
#    z 0.001950 0.000000 1.768210 
# 
# From -- ./inp_files/154277.got.cif
#   From: 2010.06.25/outbox.cif.g09.slc.cpg/sg12_78_cif.got.tgz:154277.got - 2010.06.28 00:19:55.
