data_PCOD8113783
_publ_section_title
;
Structure prediction by ZEFSAII (Michael W. Deem and Ramdas Pophale) SiO2 
 PCOD8113783
Probable space group: C 2/M
;
_chemical_formula_sum "Si O2"
_cell_formula_units_Z 64
_cell_length_a 25.269558
_cell_length_b 8.895202
_cell_length_c 21.435622
_cell_angle_alpha 90.000000
_cell_angle_beta 53.360054
_cell_angle_gamma 90.000000
_cell_volume 3866.173464
_symmetry_space_group_name_H-M "C 2/M"
_symmetry_group_IT_number 12
_symmetry_cell_setting 'monoclinic'
loop_
_space_group_symop_operation_xyz
x,y,z
-x,y,-z
-x,-y,-z
x,-y,z
1/2+x,1/2+y,z
1/2-x,1/2+y,-z
1/2-x,1/2-y,-z
1/2+x,1/2-y,z
loop_
_atom_site_type_symbol
_atom_site_label
_atom_site_fract_x
_atom_site_fract_y
_atom_site_fract_z
Si Si1 0.607190 0.672881 0.415412
Si Si2 0.145733 0.320527 0.831868
Si Si3 0.436658 0.165242 0.000684
Si Si4 0.524857 0.178424 0.835447
Si Si5 0.508822 0.327174 0.594755
Si Si6 0.245184 0.676202 0.319414
Si Si7 0.561167 0.823336 0.674784
Si Si8 0.202066 0.821779 0.583828
O O1 0.630401 0.500000 0.400003
O O2 0.561210 0.704255 0.388159
O O3 0.567593 0.711623 0.505954
O O4 0.669056 0.781493 0.367892
O O5 0.150072 0.500000 0.830371
O O6 0.121672 0.257253 0.917179
O O7 0.216484 0.253095 0.764950
O O8 0.093795 0.264253 0.816033
O O9 0.410556 0.000000 0.001168
O O10 0.500000 0.150951 0.000000
O O11 0.461755 0.247244 0.918846
O O12 0.522538 0.225880 0.764867
O O13 0.521672 0.000000 0.846198
O O14 0.513866 0.500000 0.612327
O O15 0.514079 0.219544 0.650684
O O16 0.252916 0.500000 0.307161
O O17 0.274854 0.732905 0.364190
O O18 0.628834 0.733616 0.621323
O O19 0.576649 0.000000 0.664102
O O20 0.250000 0.750000 0.500000
O O21 0.205032 0.000000 0.575247
#
# Coordination Sequence:
#
# PCOD8113783 Si02
#       8
#     8   8   8   8   8   8   8   8
#     4   9  19  36  55  69  86 119 162 201 239 280
#     4   9  15  27  47  67  91 126 161 191 224 270
#     4   7  11  21  41  66  89 118 158 195 221 255
#     4   8  14  25  42  68  97 123 156 192 223 268
#     4   9  19  36  54  71  90 117 157 204 242 277
#     4  11  22  32  45  69  99 125 153 194 241 280
#     4  11  20  30  48  73  99 127 155 188 234 282
#     4  11  23  35  46  64  94 130 162 192 230 279
#
# _framework density 16.553836
#
# number of rings (size 3 to 8) (size 9 to 14) (size 15 to 20)
#    0.000    2.625    1.250    4.125    0.000    4.500 
#    0.000    1.250    0.000    4.875    0.000    0.875 
#    0.000    0.000    0.000    0.000    0.000    0.000 
#
# Total GULP energy -396575.990269 kJ/mol
# GULP energy per Si atom -12392.999696 kJ/mol
# Density = 1.651616 g / cm^3
# Si number density = 16.553836 Si / 1000 Ang^3
#
#
#
# Elastic Constant Matrix: (Units=GPa)
#
#
# Indices 1 2 3 4 5 6 
#
# 1 63.2944 19.3658 39.0595 0.0001 8.0602 0.0003
# 2 19.3658 38.0551 33.9944 -0.0012 3.1758 0.0005
# 3 39.0595 33.9944 121.6421 0.0003 15.3206 -0.0005
# 4 0.0001 -0.0012 0.0003 15.2990 -0.0003 0.0198
# 5 8.0602 3.1758 15.3206 -0.0003 19.3761 0.0000
# 6 0.0003 0.0005 -0.0005 0.0198 0.0000 24.3625
#
#
#
# Elastic Compliance Matrix: (Units=1/GPa)
#
#
# Indices 1 2 3 4 5 6 
#
# 1 0.021026 -0.006384 -0.004440 -0.000001 -0.004190 0.000000
# 2 -0.006384 0.037045 -0.008743 0.000003 0.003497 -0.000001
# 3 -0.004440 -0.008743 0.012968 -0.000001 -0.006974 0.000001
# 4 -0.000001 0.000003 -0.000001 0.065364 0.000001 -0.000053
# 5 -0.004190 0.003497 -0.006974 0.000001 0.058294 0.000000
# 6 0.000000 -0.000001 0.000001 -0.000053 0.000000 0.041047
#
#
# Mechanical properties :
#
#
# Convention : Reuss Voigt Hill
#
# Bulk Modulus (GPa) = 31.34314 45.31454 38.32884
# Shear Modulus (GPa) = 17.51239 20.51232 19.01235
#
# Velocity S-wave (km/s) = 3.25607 3.52394 3.39265
# Velocity P-wave (km/s) = 5.75423 6.63257 6.20895
#
# Compressibility (1/GPa) = 0.03190491
#
# Stress axis : x y z
#
# Youngs Moduli (GPa) = 47.56070 26.99426 77.11216
#
# Poissons Ratio (x) = 0.17234 0.34234
# Poissons Ratio (y) = 0.30364 0.67420
# Poissons Ratio (z) = 0.21115 0.23601
#
# Static dielectric constant tensor:
#      x y z
#    x 2.867470 0.000000 0.143550 
#    y 0.000000 2.857040 0.000000 
#    z 0.143550 0.000000 3.572170 
# 
# 
# High freq. dielectric constant tensor:
#      x y z
#    x 1.601770 0.000000 0.007220 
#    y 0.000000 1.615200 0.000000 
#    z 0.007220 0.000000 1.651250 
# 
# From -- ./inp_files/348525.got.cif
#   From: 2010.06.25/outbox.cif.g09.slc.cpg/sg12_175_cif.got.tgz:348525.got - 2010.06.28 00:19:55.
