data_PCOD8113198
_publ_section_title
;
Structure prediction by ZEFSAII (Michael W. Deem and Ramdas Pophale) SiO2 
 PCOD8113198
Probable space group: C 2/M
;
_chemical_formula_sum "Si O2"
_cell_formula_units_Z 32
_cell_length_a 5.148961
_cell_length_b 24.055408
_cell_length_c 10.885870
_cell_angle_alpha 90.000000
_cell_angle_beta 72.508621
_cell_angle_gamma 90.000000
_cell_volume 1285.984023
_symmetry_space_group_name_H-M "C 2/M"
_symmetry_group_IT_number 12
_symmetry_cell_setting 'monoclinic'
loop_
_space_group_symop_operation_xyz
x,y,z
-x,y,-z
-x,-y,-z
x,-y,z
1/2+x,1/2+y,z
1/2-x,1/2+y,-z
1/2-x,1/2-y,-z
1/2+x,1/2-y,z
loop_
_atom_site_type_symbol
_atom_site_label
_atom_site_fract_x
_atom_site_fract_y
_atom_site_fract_z
Si Si1 0.678206 0.062787 0.845082
Si Si2 0.869269 0.285813 0.645011
Si Si3 0.179625 0.129039 0.870530
Si Si4 0.214288 0.562918 0.557941
O O1 0.392248 0.092961 0.926647
O O2 0.612555 0.063998 0.709995
O O3 0.969840 0.091018 0.824517
O O4 0.690948 0.000000 0.893892
O O5 0.567109 0.262549 0.666381
O O6 0.848586 0.332154 0.754182
O O7 0.000000 0.309775 0.500000
O O8 0.000000 0.161910 0.000000
O O9 0.500000 0.595282 0.500000
O O10 0.253562 0.500000 0.502320
O O11 0.000000 0.593936 0.500000
#
# Coordination Sequence:
#
# PCOD8113198 Si02
#       4
#     8   8   8   8
#     4  11  24  41  61  91 137 188 233 275 320 383
#     4  10  23  46  74 101 130 166 212 275 350 416
#     4  12  26  42  66 100 134 177 230 277 330 395
#     4   9  17  31  52  79 113 157 211 267 319 367
#
# _framework density 24.883668
#
# number of rings (size 3 to 8) (size 9 to 14) (size 15 to 20)
#    0.000    1.500    0.000    4.500    0.000   11.000 
#    0.000    0.000    0.000    0.750    0.000    0.000 
#    0.000    0.000    0.000    0.000    0.000    0.000 
#
# Total GULP energy -198308.160627 kJ/mol
# GULP energy per Si atom -12394.260039 kJ/mol
# Density = 2.482703 g / cm^3
# Si number density = 24.883668 Si / 1000 Ang^3
#
#
#
# Elastic Constant Matrix: (Units=GPa)
#
#
# Indices 1 2 3 4 5 6 
#
# 1 189.9583 25.3289 39.3782 0.0000 4.5611 0.0000
# 2 25.3289 91.8648 39.9107 0.0000 -7.9641 0.0000
# 3 39.3782 39.9107 116.5628 0.0000 -14.4317 0.0000
# 4 0.0000 0.0000 0.0000 -63.5616 0.0000 77.0382
# 5 4.5611 -7.9641 -14.4317 0.0000 45.3884 0.0000
# 6 0.0000 0.0000 0.0000 77.0382 0.0000 -47.9714
#
#
#
# Elastic Compliance Matrix: (Units=1/GPa)
#
#
# Indices 1 2 3 4 5 6 
#
# 1 0.005793 -0.000929 -0.001802 0.000000 -0.001318 0.000000
# 2 -0.000929 0.012971 -0.003991 0.000000 0.001100 0.000000
# 3 -0.001802 -0.003991 0.010920 0.000000 0.002953 0.000000
# 4 0.000000 0.000000 0.000000 0.016624 0.000000 0.026696
# 5 -0.001318 0.001100 0.002953 0.000000 0.023297 0.000000
# 6 0.000000 0.000000 0.000000 0.026696 0.000000 0.022026
#
#
# Mechanical properties :
#
#
# Convention : Reuss Voigt Hill
#
# Bulk Modulus (GPa) = 61.57648 67.51349 64.54499
# Shear Modulus (GPa) = 45.25345 6.35563 25.80454
#
# Velocity S-wave (km/s) = 4.26913 1.59990 3.22375
# Velocity P-wave (km/s) = 7.00715 5.53204 6.31283
#
# Compressibility (1/GPa) = 0.01623997
#
# Stress axis : x y z
#
# Youngs Moduli (GPa) = 172.60947 77.09512 91.57338
#
# Poissons Ratio (x) = 0.07159 0.16506
# Poissons Ratio (y) = 0.16028 0.36550
# Poissons Ratio (z) = 0.31112 0.30771
#
# Static dielectric constant tensor:
#      x y z
#    x 7.471400 0.000000 -0.865250 
#    y 0.000000 4.048480 0.000000 
#    z -0.865250 0.000000 5.177850 
# 
# 
# High freq. dielectric constant tensor:
#      x y z
#    x 2.023480 0.000000 0.002000 
#    y 0.000000 1.949700 0.000000 
#    z 0.002000 0.000000 2.023930 
# 
# From -- ./inp_files/114889.got.cif
#   From: 2010.06.25/outbox.cif.g09.slc.cpg/sg12_58_cif.got.tgz:114889.got - 2010.06.28 00:19:55.
