data_PCOD8113895
_publ_section_title
;
Structure prediction by ZEFSAII (Michael W. Deem and Ramdas Pophale) SiO2 
 PCOD8113895
Probable space group: C 2/M
;
_chemical_formula_sum "Si O2"
_cell_formula_units_Z 44
_cell_length_a 7.632253
_cell_length_b 25.051756
_cell_length_c 12.204706
_cell_angle_alpha 90.000000
_cell_angle_beta 102.420864
_cell_angle_gamma 90.000000
_cell_volume 2278.936969
_symmetry_space_group_name_H-M "C 2/M"
_symmetry_group_IT_number 12
_symmetry_cell_setting 'monoclinic'
loop_
_space_group_symop_operation_xyz
x,y,z
-x,y,-z
-x,-y,-z
x,-y,z
1/2+x,1/2+y,z
1/2-x,1/2+y,-z
1/2-x,1/2-y,-z
1/2+x,1/2-y,z
loop_
_atom_site_type_symbol
_atom_site_label
_atom_site_fract_x
_atom_site_fract_y
_atom_site_fract_z
Si Si1 0.060971 0.000000 0.322018
Si Si2 0.475886 0.000000 0.316256
Si Si3 0.110577 0.386784 0.411860
Si Si4 0.026108 0.328065 0.815703
Si Si5 0.705959 0.000000 0.133127
Si Si6 0.500000 0.911710 0.000000
Si Si7 0.500000 0.415745 0.500000
Si Si8 0.648054 0.271843 0.089720
O O1 0.258350 0.000000 0.292706
O O2 0.906811 0.000000 0.208240
O O3 0.034510 0.051160 0.394343
O O4 0.558800 0.051337 0.387614
O O5 0.545891 0.000000 0.201724
O O6 0.065972 0.349227 0.304808
O O7 0.323394 0.380038 0.459124
O O8 0.000000 0.364573 0.500000
O O9 0.917396 0.277548 0.845835
O O10 0.230369 0.309442 0.817380
O O11 0.047503 0.375598 0.903670
O O12 0.673846 0.947736 0.053981
O O13 0.500000 0.305176 0.000000
O O14 0.750000 0.250000 0.000000
#
# Coordination Sequence:
#
# PCOD8113895 Si02
#       8
#     4   4   8   8   4   4   4   8
#     4  11  20  35  57  85 121 174 216 251 283 356
#     4  12  20  37  62  85 129 167 208 248 290 369
#     4  12  24  41  61  94 127 168 213 253 304 369
#     4  11  21  41  65  92 123 156 208 263 315 369
#     4  11  23  38  57  93 137 164 197 256 314 364
#     4  11  20  38  64  88 130 166 192 257 324 362
#     4  11  20  36  62  82 118 174 222 246 288 361
#     4   9  18  38  65  88 114 152 203 253 308 377
#
# _framework density 19.307248000000001
#
# number of rings (size 3 to 8) (size 9 to 14) (size 15 to 20)
#    0.000    1.091    8.182    0.818    0.000    0.000 
#    9.818    2.727    0.000    0.000    0.000    0.000 
#    0.000    0.000    0.000    0.000    0.000    0.000 
#
# Total GULP energy -272578.622995 kJ/mol
# GULP energy per Si atom -12389.937409 kJ/mol
# Density = 1.926330 g / cm^3
# Si number density = 19.307248 Si / 1000 Ang^3
#
#
#
# Elastic Constant Matrix: (Units=GPa)
#
#
# Indices 1 2 3 4 5 6 
#
# 1 153.7114 43.6466 67.8425 0.0000 31.0902 0.0000
# 2 43.6466 93.0103 56.0568 0.0000 18.1859 0.0000
# 3 67.8425 56.0568 137.7834 0.0000 25.2864 0.0000
# 4 0.0000 0.0000 0.0000 45.9451 0.0000 15.3075
# 5 31.0902 18.1859 25.2864 0.0000 43.9420 0.0000
# 6 0.0000 0.0000 0.0000 15.3075 0.0000 21.0255
#
#
#
# Elastic Compliance Matrix: (Units=1/GPa)
#
#
# Indices 1 2 3 4 5 6 
#
# 1 0.009152 -0.001641 -0.003103 0.000000 -0.004011 0.000000
# 2 -0.001641 0.014868 -0.004836 0.000000 -0.002210 0.000000
# 3 -0.003103 -0.004836 0.011162 0.000000 -0.002226 0.000000
# 4 0.000000 0.000000 0.000000 0.028735 0.000000 -0.020921
# 5 -0.004011 -0.002210 -0.002226 0.000000 0.027791 0.000000
# 6 0.000000 0.000000 0.000000 -0.020921 0.000000 0.062792
#
#
# Mechanical properties :
#
#
# Convention : Reuss Voigt Hill
#
# Bulk Modulus (GPa) = 62.40804 79.95523 71.18164
# Shear Modulus (GPa) = 27.93306 36.64645 32.28976
#
# Velocity S-wave (km/s) = 3.80776 4.36141 4.09396
# Velocity P-wave (km/s) = 7.19207 8.17707 7.70034
#
# Compressibility (1/GPa) = 0.01602358
#
# Stress axis : x y z
#
# Youngs Moduli (GPa) = 109.26195 67.25936 89.59363
#
# Poissons Ratio (x) = 0.11034 0.27800
# Poissons Ratio (y) = 0.17925 0.43324
# Poissons Ratio (z) = 0.33903 0.32524
#
# Static dielectric constant tensor:
#      x y z
#    x 4.616200 0.000000 0.607710 
#    y 0.000000 3.457960 0.000000 
#    z 0.607710 0.000000 3.969170 
# 
# 
# High freq. dielectric constant tensor:
#      x y z
#    x 1.757770 0.000000 0.013670 
#    y 0.000000 1.728370 0.000000 
#    z 0.013670 0.000000 1.759200 
# 
# From -- ./inp_files/122161.got.cif
#   From: 2010.06.25/outbox.cif.g09.slc.cpg/sg12_62_cif.got.tgz:122161.got - 2010.06.28 00:19:55.
