data_PCOD8113537
_publ_section_title
;
Structure prediction by ZEFSAII (Michael W. Deem and Ramdas Pophale) SiO2 
 PCOD8113537
Probable space group: C 2/M
;
_chemical_formula_sum "Si O2"
_cell_formula_units_Z 44
_cell_length_a 11.959593
_cell_length_b 27.092880
_cell_length_c 8.093745
_cell_angle_alpha 90.000000
_cell_angle_beta 53.368952
_cell_angle_gamma 90.000000
_cell_volume 2104.568331
_symmetry_space_group_name_H-M "C 2/M"
_symmetry_group_IT_number 12
_symmetry_cell_setting 'monoclinic'
loop_
_space_group_symop_operation_xyz
x,y,z
-x,y,-z
-x,-y,-z
x,-y,z
1/2+x,1/2+y,z
1/2-x,1/2+y,-z
1/2-x,1/2-y,-z
1/2+x,1/2-y,z
loop_
_atom_site_type_symbol
_atom_site_label
_atom_site_fract_x
_atom_site_fract_y
_atom_site_fract_z
Si Si1 0.074598 0.500000 0.760495
Si Si2 0.317045 0.165202 0.292019
Si Si3 0.149870 0.000000 0.294236
Si Si4 0.310897 0.396130 0.875906
Si Si5 0.968996 0.397861 0.712236
Si Si6 0.500000 0.754413 0.000000
Si Si7 0.468841 0.314950 0.335042
O O1 0.239499 0.500000 0.652022
O O2 0.027310 0.451977 0.702311
O O3 0.000000 0.500000 0.000000
O O4 0.254236 0.121826 0.237772
O O5 0.457448 0.144673 0.247402
O O6 0.198480 0.178893 0.532057
O O7 0.360251 0.212715 0.145017
O O8 0.160069 0.046348 0.164744
O O9 0.000000 0.000000 0.500000
O O10 0.452418 0.365716 0.783887
O O11 0.196645 0.391250 0.120427
O O12 0.000000 0.384918 0.500000
O O13 0.520112 0.723918 0.152444
O O14 0.500000 0.299114 0.500000
#
# Coordination Sequence:
#
# PCOD8113537 Si02
#       7
#     4   8   4   8   8   4   8
#     4  12  21  42  69  93 135 177 217 266 329 400
#     4  11  22  45  65  96 128 177 225 275 338 404
#     4  12  22  38  74 100 128 178 219 269 330 406
#     4  11  22  44  66  98 133 173 220 274 333 400
#     4  12  24  39  67 100 135 171 221 276 336 401
#     4  12  24  44  72  92 138 178 234 278 350 390
#     4  10  26  43  67  97 135 174 229 282 340 406
#
# _framework density 20.9069
#
# number of rings (size 3 to 8) (size 9 to 14) (size 15 to 20)
#    0.000    0.727    5.455    2.455    2.545    3.636 
#    0.000    0.000    0.000    1.636    0.000    0.000 
#    0.000    0.000    0.000    0.000    0.000    0.000 
#
# Total GULP energy -272754.596488 kJ/mol
# GULP energy per Si atom -12397.936204 kJ/mol
# Density = 2.085931 g / cm^3
# Si number density = 20.906900 Si / 1000 Ang^3
#
#
#
# Elastic Constant Matrix: (Units=GPa)
#
#
# Indices 1 2 3 4 5 6 
#
# 1 38.3336 34.5422 36.0124 0.0000 -17.8349 0.0000
# 2 34.5422 140.2136 64.1721 0.0000 -4.2001 0.0000
# 3 36.0124 64.1721 161.6300 0.0000 -26.2452 0.0000
# 4 0.0000 0.0000 0.0000 24.5468 0.0000 -2.8623
# 5 -17.8349 -4.2001 -26.2452 0.0000 46.8247 0.0000
# 6 0.0000 0.0000 0.0000 -2.8623 0.0000 26.1038
#
#
#
# Elastic Compliance Matrix: (Units=1/GPa)
#
#
# Indices 1 2 3 4 5 6 
#
# 1 0.044086 -0.008519 -0.004222 0.000000 0.013661 0.000000
# 2 -0.008519 0.010432 -0.002881 0.000000 -0.003924 0.000000
# 3 -0.004222 -0.002881 0.008766 0.000000 0.003047 0.000000
# 4 0.000000 0.000000 0.000000 0.041266 0.000000 0.004525
# 5 0.013661 -0.003924 0.003047 0.000000 0.027915 0.000000
# 6 0.000000 0.000000 0.000000 0.004525 0.000000 0.038805
#
#
# Mechanical properties :
#
#
# Convention : Reuss Voigt Hill
#
# Bulk Modulus (GPa) = 31.21132 67.73672 49.47402
# Shear Modulus (GPa) = 23.45293 33.19175 28.32234
#
# Velocity S-wave (km/s) = 3.35293 3.98879 3.68460
# Velocity P-wave (km/s) = 5.47272 7.32690 6.46661
#
# Compressibility (1/GPa) = 0.03203966
#
# Stress axis : x y z
#
# Youngs Moduli (GPa) = 22.68317 95.86290 114.07550
#
# Poissons Ratio (x) = 0.81667 0.48163
# Poissons Ratio (y) = 0.19324 0.32861
# Poissons Ratio (z) = 0.09577 0.27615
#
# Static dielectric constant tensor:
#      x y z
#    x 4.128380 0.000000 -0.632400 
#    y 0.000000 3.743600 0.000000 
#    z -0.632400 0.000000 4.127550 
# 
# 
# High freq. dielectric constant tensor:
#      x y z
#    x 1.793430 0.000000 -0.021660 
#    y 0.000000 1.828820 0.000000 
#    z -0.021660 0.000000 1.836720 
# 
# From -- ./inp_files/53042.got.cif
#   From: 2010.06.25/outbox.cif.g09.slc.cpg/sg12_27_cif.got.tgz:53042.got - 2010.06.28 00:19:55.
