data_PCOD8113225
_publ_section_title
;
Structure prediction by ZEFSAII (Michael W. Deem and Ramdas Pophale) SiO2 
 PCOD8113225
Probable space group: C 2/M
;
_chemical_formula_sum "Si O2"
_cell_formula_units_Z 36
_cell_length_a 9.271652
_cell_length_b 20.073114
_cell_length_c 15.469987
_cell_angle_alpha 90.000000
_cell_angle_beta 42.715109
_cell_angle_gamma 90.000000
_cell_volume 1953.070215
_symmetry_space_group_name_H-M "C 2/M"
_symmetry_group_IT_number 12
_symmetry_cell_setting 'monoclinic'
loop_
_space_group_symop_operation_xyz
x,y,z
-x,y,-z
-x,-y,-z
x,-y,z
1/2+x,1/2+y,z
1/2-x,1/2+y,-z
1/2-x,1/2-y,-z
1/2+x,1/2-y,z
loop_
_atom_site_type_symbol
_atom_site_label
_atom_site_fract_x
_atom_site_fract_y
_atom_site_fract_z
Si Si1 0.244511 0.789823 0.413584
Si Si2 0.097364 0.574495 0.593770
Si Si3 0.670135 0.426933 0.688904
Si Si4 0.500000 0.741455 0.000000
Si Si5 0.050090 0.199870 0.167905
O O1 0.250000 0.750000 0.500000
O O2 0.334821 0.865305 0.373866
O O3 0.378251 0.751259 0.282095
O O4 0.000000 0.794205 0.500000
O O5 0.137739 0.500000 0.616000
O O6 0.228783 0.582362 0.448840
O O7 0.848954 0.583415 0.683156
O O8 0.567868 0.500000 0.742929
O O9 0.484979 0.374063 0.781851
O O10 0.712365 0.785678 0.904596
O O11 0.480690 0.697341 0.922060
#
# Coordination Sequence:
#
# PCOD8113225 Si02
#       5
#     8   8   8   4   8
#     4  12  22  33  58  89 113 142 177 232 284 332
#     4   9  18  32  51  85 120 145 170 212 283 346
#     4   9  17  32  57  81 112 146 176 220 276 336
#     4  10  24  38  56  74 106 154 186 238 260 314
#     4  11  21  38  56  80 111 142 194 223 275 320
#
# _framework density 18.432517000000001
#
# number of rings (size 3 to 8) (size 9 to 14) (size 15 to 20)
#    0.000    1.778    2.222    5.333    0.000    0.444 
#    0.000    1.111    0.000    5.333    0.000    0.000 
#    0.000    0.000    0.000    0.000    0.000    0.000 
#
# Total GULP energy -223113.772426 kJ/mol
# GULP energy per Si atom -12395.209579 kJ/mol
# Density = 1.839056 g / cm^3
# Si number density = 18.432517 Si / 1000 Ang^3
#
#
#
# Elastic Constant Matrix: (Units=GPa)
#
#
# Indices 1 2 3 4 5 6 
#
# 1 53.6280 19.6266 7.4233 0.0004 -3.3188 -0.0001
# 2 19.6266 144.8528 35.5281 0.0011 -8.4070 -0.0004
# 3 7.4233 35.5281 65.3372 -0.0027 -10.6952 -0.0039
# 4 0.0004 0.0011 -0.0027 21.6712 0.0013 -3.0816
# 5 -3.3188 -8.4070 -10.6952 0.0013 25.4152 0.0007
# 6 -0.0001 -0.0004 -0.0039 -3.0816 0.0007 13.5611
#
#
#
# Elastic Compliance Matrix: (Units=1/GPa)
#
#
# Indices 1 2 3 4 5 6 
#
# 1 0.019718 -0.002418 -0.000682 0.000000 0.001488 0.000000
# 2 -0.002418 0.008281 -0.004115 -0.000001 0.000692 -0.000001
# 3 -0.000682 -0.004115 0.018669 0.000003 0.006406 0.000006
# 4 0.000000 -0.000001 0.000003 0.047685 -0.000002 0.010836
# 5 0.001488 0.000692 0.006406 -0.000002 0.042465 -0.000001
# 6 0.000000 -0.000001 0.000006 0.010836 -0.000001 0.076203
#
#
# Mechanical properties :
#
#
# Convention : Reuss Voigt Hill
#
# Bulk Modulus (GPa) = 31.01892 43.21932 37.11912
# Shear Modulus (GPa) = 20.99106 25.54549 23.26828
#
# Velocity S-wave (km/s) = 3.37828 3.72680 3.55681
# Velocity P-wave (km/s) = 5.66409 6.48205 6.08682
#
# Compressibility (1/GPa) = 0.03223839
#
# Stress axis : x y z
#
# Youngs Moduli (GPa) = 50.71405 120.76475 53.56549
#
# Poissons Ratio (x) = 0.29202 0.03652
# Poissons Ratio (y) = 0.12263 0.22041
# Poissons Ratio (z) = 0.03458 0.49691
#
# Static dielectric constant tensor:
#      x y z
#    x 3.262670 0.000000 -0.060300 
#    y 0.000000 3.752320 0.000000 
#    z -0.060300 0.000000 3.388410 
# 
# 
# High freq. dielectric constant tensor:
#      x y z
#    x 1.706650 0.000000 -0.007790 
#    y 0.000000 1.722560 0.000000 
#    z -0.007790 0.000000 1.702210 
# 
# From -- ./inp_files/78145.got.cif
#   From: 2010.06.25/outbox.cif.g09.slc.cpg/sg12_40_cif.got.tgz:78145.got - 2010.06.28 00:19:55.
