data_PCOD8113834
_publ_section_title
;
Structure prediction by ZEFSAII (Michael W. Deem and Ramdas Pophale) SiO2 
 PCOD8113834
Probable space group: C 2/M
;
_chemical_formula_sum "Si O2"
_cell_formula_units_Z 64
_cell_length_a 14.808815
_cell_length_b 15.399603
_cell_length_c 25.741898
_cell_angle_alpha 90.000000
_cell_angle_beta 39.891306
_cell_angle_gamma 90.000000
_cell_volume 3764.905943
_symmetry_space_group_name_H-M "C 2/M"
_symmetry_group_IT_number 12
_symmetry_cell_setting 'monoclinic'
loop_
_space_group_symop_operation_xyz
x,y,z
-x,y,-z
-x,-y,-z
x,-y,z
1/2+x,1/2+y,z
1/2-x,1/2+y,-z
1/2-x,1/2-y,-z
1/2+x,1/2-y,z
loop_
_atom_site_type_symbol
_atom_site_label
_atom_site_fract_x
_atom_site_fract_y
_atom_site_fract_z
Si Si1 0.104999 0.902101 0.500158
Si Si2 0.772030 0.810633 0.318169
Si Si3 0.033376 0.266873 0.590324
Si Si4 0.617018 0.595146 0.992483
Si Si5 0.317643 0.899357 0.822728
Si Si6 0.611378 0.166282 0.664269
Si Si7 0.102540 0.103904 0.832739
Si Si8 0.853956 0.403668 0.534841
O O1 0.073705 0.831995 0.558643
O O2 0.265544 0.897071 0.409603
O O3 0.000000 0.878362 0.500000
O O4 0.077511 0.000000 0.532985
O O5 0.623843 0.792004 0.356063
O O6 0.832569 0.721107 0.312333
O O7 0.883432 0.852175 0.229488
O O8 0.760507 0.875924 0.372014
O O9 0.054204 0.274452 0.642558
O O10 0.141063 0.333325 0.513808
O O11 0.664027 0.500000 0.991009
O O12 0.752024 0.643166 0.905413
O O13 0.500000 0.586848 0.000000
O O14 0.542130 0.639451 0.075896
O O15 0.483555 0.888516 0.744184
O O16 0.236928 0.864371 0.807373
O O17 0.279879 0.000000 0.844091
O O18 0.101364 0.000000 0.826979
O O19 0.818151 0.500000 0.528243
O O20 0.000000 0.406056 0.500000
#
# Coordination Sequence:
#
# PCOD8113834 Si02
#       8
#     8   8   8   8   8   8   8   8
#     4  11  22  38  54  69  95 136 178 215 252 294
#     4  11  20  33  49  71 107 130 167 208 251 297
#     4  11  21  39  51  68 101 133 172 217 254 295
#     4   7  12  25  47  73 103 129 155 193 244 308
#     4   9  17  30  50  79 102 125 165 206 248 302
#     4  12  22  34  52  74 100 133 169 214 253 295
#     4   9  16  30  52  76 101 133 160 195 256 310
#     4   9  18  31  49  69  96 129 159 201 255 306
#
# _framework density 16.999096999999999
#
# number of rings (size 3 to 8) (size 9 to 14) (size 15 to 20)
#    0.000    2.125    3.750    3.000    0.000    1.500 
#    0.000    1.250    0.000    0.000    0.000    0.000 
#    0.000    0.000    0.000    5.625    0.000    0.000 
#
# Total GULP energy -396479.114392 kJ/mol
# GULP energy per Si atom -12389.972325 kJ/mol
# Density = 1.696041 g / cm^3
# Si number density = 16.999097 Si / 1000 Ang^3
#
#
#
# Elastic Constant Matrix: (Units=GPa)
#
#
# Indices 1 2 3 4 5 6 
#
# 1 49.5986 7.1539 24.3065 0.0000 2.8934 0.0000
# 2 7.1539 63.9678 19.4784 0.0000 8.0330 0.0000
# 3 24.3065 19.4784 119.2409 -0.0001 11.0197 0.0000
# 4 0.0000 0.0000 -0.0001 16.3606 0.0000 -1.2342
# 5 2.8934 8.0330 11.0197 0.0000 24.4320 0.0000
# 6 0.0000 0.0000 0.0000 -1.2342 0.0000 -0.0396
#
#
#
# Elastic Compliance Matrix: (Units=1/GPa)
#
#
# Indices 1 2 3 4 5 6 
#
# 1 0.022486 -0.001145 -0.004367 0.000000 -0.000317 0.000000
# 2 -0.001145 0.016971 -0.002124 0.000000 -0.004486 -0.000001
# 3 -0.004367 -0.002124 0.009925 0.000000 -0.003261 -0.000001
# 4 0.000000 0.000000 0.000000 0.018235 0.000000 -0.568500
# 5 -0.000317 -0.004486 -0.003261 0.000000 0.043913 0.000002
# 6 0.000000 -0.000001 -0.000001 -0.568500 0.000002 -7.535734
#
#
# Mechanical properties :
#
#
# Convention : Reuss Voigt Hill
#
# Bulk Modulus (GPa) = 29.31816 37.18722 33.25269
# Shear Modulus (GPa) = -0.67590 20.27517 9.79964
#
# Velocity S-wave (km/s) = -0.63125 3.45733 2.40360
# Velocity P-wave (km/s) = 4.09305 6.15313 5.22561
#
# Compressibility (1/GPa) = 0.03410855
#
# Stress axis : x y z
#
# Youngs Moduli (GPa) = 44.47266 58.92350 100.75586
#
# Poissons Ratio (x) = 0.06748 0.44003
# Poissons Ratio (y) = 0.05093 0.21403
# Poissons Ratio (z) = 0.19422 0.12517
#
# Static dielectric constant tensor:
#      x y z
#    x 2.999780 0.000000 0.028210 
#    y 0.000000 2.976660 0.000000 
#    z 0.028210 0.000000 3.474630 
# 
# 
# High freq. dielectric constant tensor:
#      x y z
#    x 1.632840 0.000000 0.004110 
#    y 0.000000 1.628110 0.000000 
#    z 0.004110 0.000000 1.662500 
# 
# From -- ./inp_files/340178.got.cif
#   From: 2010.06.25/outbox.cif.g09.slc.cpg/sg12_171_cif.got.tgz:340178.got - 2010.06.28 00:19:55.
