data_PCOD8113030
_publ_section_title
;
Structure prediction by ZEFSAII (Michael W. Deem and Ramdas Pophale) SiO2 
 PCOD8113030
Probable space group: C 2/M
;
_chemical_formula_sum "Si O2"
_cell_formula_units_Z 40
_cell_length_a 10.706416
_cell_length_b 17.918220
_cell_length_c 10.030009
_cell_angle_alpha 90.000000
_cell_angle_beta 58.071493
_cell_angle_gamma 90.000000
_cell_volume 1633.047948
_symmetry_space_group_name_H-M "C 2/M"
_symmetry_group_IT_number 12
_symmetry_cell_setting 'monoclinic'
loop_
_space_group_symop_operation_xyz
x,y,z
-x,y,-z
-x,-y,-z
x,-y,z
1/2+x,1/2+y,z
1/2-x,1/2+y,-z
1/2-x,1/2-y,-z
1/2+x,1/2-y,z
loop_
_atom_site_type_symbol
_atom_site_label
_atom_site_fract_x
_atom_site_fract_y
_atom_site_fract_z
Si Si1 0.527981 0.284303 0.332122
Si Si2 0.637147 0.585726 0.693971
Si Si3 0.664012 0.819448 0.896335
Si Si4 0.390113 0.870194 0.349432
Si Si5 0.699356 0.917148 0.133309
O O1 0.500000 0.305374 0.500000
O O2 0.496173 0.358727 0.264208
O O3 0.700337 0.261813 0.207800
O O4 0.419739 0.218006 0.353452
O O5 0.584961 0.500000 0.709659
O O6 0.769830 0.600105 0.517627
O O7 0.684066 0.603795 0.818463
O O8 0.662113 0.878777 0.774992
O O9 0.500000 0.781424 0.000000
O O10 0.704492 0.859919 0.009750
O O11 0.537908 0.916434 0.292446
O O12 0.732280 0.000000 0.060817
#
# Coordination Sequence:
#
# PCOD8113030 Si02
#       5
#     8   8   8   8   8
#     4  12  25  44  72 104 141 180 233 293 344 406
#     4  11  24  43  70 104 139 183 234 284 345 413
#     4  10  25  45  65 102 138 184 223 280 352 406
#     4  11  23  43  73 101 136 183 234 286 344 413
#     4  10  23  43  67 100 141 182 228 286 347 411
#
# _framework density 24.494076
#
# number of rings (size 3 to 8) (size 9 to 14) (size 15 to 20)
#    0.000    1.200    2.000    3.000    2.800   11.200 
#    3.600    2.000    0.000    0.000    0.000    0.000 
#    0.000    0.000    0.000    0.000    0.000    0.000 
#
# Total GULP energy -247952.029887 kJ/mol
# GULP energy per Si atom -12397.601494 kJ/mol
# Density = 2.443833 g / cm^3
# Si number density = 24.494076 Si / 1000 Ang^3
#
#
#
# Elastic Constant Matrix: (Units=GPa)
#
#
# Indices 1 2 3 4 5 6 
#
# 1 105.4837 40.4075 53.9979 0.0000 9.4953 0.0000
# 2 40.4075 86.5527 13.5996 0.0000 16.8309 0.0000
# 3 53.9979 13.5996 90.0456 0.0000 -5.7778 0.0000
# 4 0.0000 0.0000 0.0000 1.6691 0.0000 -5.7709
# 5 9.4953 16.8309 -5.7778 0.0000 55.3171 0.0000
# 6 0.0000 0.0000 0.0000 -5.7709 0.0000 23.6065
#
#
#
# Elastic Compliance Matrix: (Units=1/GPa)
#
#
# Indices 1 2 3 4 5 6 
#
# 1 0.016655 -0.005935 -0.009221 0.000000 -0.002016 0.000000
# 2 -0.005935 0.014806 0.001106 0.000000 -0.003371 0.000000
# 3 -0.009221 0.001106 0.016659 0.000000 0.002986 0.000000
# 4 0.000000 0.000000 0.000000 3.870354 0.000000 0.946156
# 5 -0.002016 -0.003371 0.002986 0.000000 0.019761 0.000000
# 6 0.000000 0.000000 0.000000 0.946156 0.000000 0.273661
#
#
# Mechanical properties :
#
#
# Convention : Reuss Voigt Hill
#
# Bulk Modulus (GPa) = 49.94360 55.34356 52.64358
# Shear Modulus (GPa) = 1.17739 27.72366 14.45053
#
# Velocity S-wave (km/s) = 0.69407 3.36795 2.43154
# Velocity P-wave (km/s) = 4.59093 6.14555 5.42423
#
# Compressibility (1/GPa) = 0.02002258
#
# Stress axis : x y z
#
# Youngs Moduli (GPa) = 60.04133 67.54072 60.02614
#
# Poissons Ratio (x) = 0.40083 0.55349
# Poissons Ratio (y) = 0.35632 -0.06642
# Poissons Ratio (z) = 0.55363 -0.07473
#
# Static dielectric constant tensor:
#      x y z
#    x 4.776290 0.000000 0.049460 
#    y 0.000000 4.224450 0.000000 
#    z 0.049460 0.000000 4.641500 
# 
# 
# High freq. dielectric constant tensor:
#      x y z
#    x 1.986360 0.000000 0.007220 
#    y 0.000000 1.947790 0.000000 
#    z 0.007220 0.000000 1.991980 
# 
# From -- ./inp_files/130855.got.cif
#   From: 2010.06.25/outbox.cif.g09.slc.cpg/sg12_66_cif.got.tgz:130855.got - 2010.06.28 00:19:55.
