data_PCOD8113251
_publ_section_title
;
Structure prediction by ZEFSAII (Michael W. Deem and Ramdas Pophale) SiO2 
 PCOD8113251
Probable space group: C 2/M
;
_chemical_formula_sum "Si O2"
_cell_formula_units_Z 36
_cell_length_a 13.683450
_cell_length_b 24.885724
_cell_length_c 5.120548
_cell_angle_alpha 90.000000
_cell_angle_beta 77.714350
_cell_angle_gamma 90.000000
_cell_volume 1703.730330
_symmetry_space_group_name_H-M "C 2/M"
_symmetry_group_IT_number 12
_symmetry_cell_setting 'monoclinic'
loop_
_space_group_symop_operation_xyz
x,y,z
-x,y,-z
-x,-y,-z
x,-y,z
1/2+x,1/2+y,z
1/2-x,1/2+y,-z
1/2-x,1/2-y,-z
1/2+x,1/2-y,z
loop_
_atom_site_type_symbol
_atom_site_label
_atom_site_fract_x
_atom_site_fract_y
_atom_site_fract_z
Si Si1 0.430869 0.000000 0.791649
Si Si2 0.611610 0.671251 0.984184
Si Si3 0.266467 0.654696 0.604555
Si Si4 0.388796 0.793187 0.993741
Si Si5 0.615620 0.108656 0.359657
O O1 0.500000 0.000000 0.500000
O O2 0.365298 0.945233 0.822826
O O3 0.500000 0.000000 0.000000
O O4 0.663186 0.670798 0.674348
O O5 0.609215 0.731904 0.105323
O O6 0.500000 0.649182 0.000000
O O7 0.666844 0.637067 0.180443
O O8 0.190262 0.703446 0.723008
O O9 0.191157 0.605712 0.565086
O O10 0.500000 0.812465 0.000000
O O11 0.349715 0.836422 0.804250
O O12 0.500000 0.113163 0.500000
#
# Coordination Sequence:
#
# PCOD8113251 Si02
#       5
#     4   8   8   8   8
#     4  10  24  40  60  88 129 161 193 243 302 368
#     4  11  26  39  57  84 123 162 208 251 292 341
#     4  12  23  39  60  86 119 164 202 246 295 356
#     4  11  22  36  59  88 125 161 198 240 297 367
#     4  11  23  38  63  90 126 159 200 240 303 367
#
# _framework density 21.130106000000001
#
# number of rings (size 3 to 8) (size 9 to 14) (size 15 to 20)
#    0.000    0.889    4.444    2.667    6.222    0.000 
#    0.000    0.000    0.000    0.000    0.000    4.667 
#    0.000    0.000    0.000    0.000    0.000    0.000 
#
# Total GULP energy -223021.559337 kJ/mol
# GULP energy per Si atom -12390.086630 kJ/mol
# Density = 2.108201 g / cm^3
# Si number density = 21.130106 Si / 1000 Ang^3
#
#
#
# Elastic Constant Matrix: (Units=GPa)
#
#
# Indices 1 2 3 4 5 6 
#
# 1 186.3197 23.2688 66.8841 0.0000 13.9031 0.0000
# 2 23.2688 59.1327 18.2898 0.0000 13.9358 0.0000
# 3 66.8841 18.2898 120.0227 0.0000 6.6245 0.0000
# 4 0.0000 0.0000 0.0000 19.3569 0.0000 7.7233
# 5 13.9031 13.9358 6.6245 0.0000 48.4792 0.0000
# 6 0.0000 0.0000 0.0000 7.7233 0.0000 12.3505
#
#
#
# Elastic Compliance Matrix: (Units=1/GPa)
#
#
# Indices 1 2 3 4 5 6 
#
# 1 0.006903 -0.001349 -0.003580 0.000000 -0.001103 0.000000
# 2 -0.001349 0.019177 -0.001902 0.000000 -0.004866 0.000000
# 3 -0.003580 -0.001902 0.010610 0.000000 0.000124 0.000000
# 4 0.000000 0.000000 0.000000 0.068837 0.000000 -0.043046
# 5 -0.001103 -0.004866 0.000124 0.000000 0.022325 0.000000
# 6 0.000000 0.000000 0.000000 -0.043046 0.000000 0.107887
#
#
# Mechanical properties :
#
#
# Convention : Reuss Voigt Hill
#
# Bulk Modulus (GPa) = 43.42693 64.70675 54.06684
# Shear Modulus (GPa) = 19.44937 33.17283 26.31110
#
# Velocity S-wave (km/s) = 3.03720 3.96654 3.53256
# Velocity P-wave (km/s) = 5.73552 7.18800 6.50244
#
# Compressibility (1/GPa) = 0.02302718
#
# Stress axis : x y z
#
# Youngs Moduli (GPa) = 144.86104 52.14586 94.25077
#
# Poissons Ratio (x) = 0.07035 0.33746
# Poissons Ratio (y) = 0.19543 0.17926
# Poissons Ratio (z) = 0.51866 0.09918
#
# Static dielectric constant tensor:
#      x y z
#    x 4.201070 0.000000 0.105910 
#    y 0.000000 4.119350 0.000000 
#    z 0.105910 0.000000 3.856690 
# 
# 
# High freq. dielectric constant tensor:
#      x y z
#    x 1.843470 0.000000 0.007190 
#    y 0.000000 1.772980 0.000000 
#    z 0.007190 0.000000 1.835040 
# 
# From -- ./inp_files/11861.got.cif
#   From: 2010.06.25/outbox.cif.g09.slc.cpg/sg12_6_cif.got.tgz:11861.got - 2010.06.28 00:19:55.
