data_PCOD8113209
_publ_section_title
;
Structure prediction by ZEFSAII (Michael W. Deem and Ramdas Pophale) SiO2 
 PCOD8113209
Probable space group: C 2/M
;
_chemical_formula_sum "Si O2"
_cell_formula_units_Z 52
_cell_length_a 10.084148
_cell_length_b 26.349477
_cell_length_c 17.873112
_cell_angle_alpha 90.000000
_cell_angle_beta 35.352091
_cell_angle_gamma 90.000000
_cell_volume 2747.826799
_symmetry_space_group_name_H-M "C 2/M"
_symmetry_group_IT_number 12
_symmetry_cell_setting 'monoclinic'
loop_
_space_group_symop_operation_xyz
x,y,z
-x,y,-z
-x,-y,-z
x,-y,z
1/2+x,1/2+y,z
1/2-x,1/2+y,-z
1/2-x,1/2-y,-z
1/2+x,1/2-y,z
loop_
_atom_site_type_symbol
_atom_site_label
_atom_site_fract_x
_atom_site_fract_y
_atom_site_fract_z
Si Si1 0.230562 0.782696 0.736011
Si Si2 0.979693 0.682711 0.126313
Si Si3 0.929328 0.442486 0.411348
Si Si4 0.868172 0.943105 0.310398
Si Si5 0.000000 0.217446 0.500000
Si Si6 0.555686 0.154779 0.690590
Si Si7 0.364582 0.652152 0.834473
O O1 0.041258 0.743866 0.857167
O O2 0.426751 0.751767 0.603368
O O3 0.345140 0.816840 0.747073
O O4 0.102587 0.817755 0.734201
O O5 0.999847 0.654664 0.196129
O O6 0.746560 0.665169 0.193604
O O7 0.200369 0.666684 0.978248
O O8 0.891240 0.500000 0.398942
O O9 0.735391 0.428133 0.561186
O O10 0.918843 0.403256 0.347679
O O11 0.175517 0.438218 0.336181
O O12 0.080892 0.907554 0.190879
O O13 0.965247 0.000000 0.268183
O O14 0.792730 0.183239 0.565277
#
# Coordination Sequence:
#
# PCOD8113209 Si02
#       7
#     8   8   8   8   4   8   8
#     4  11  22  38  60  84 114 162 199 231 277 350
#     4  10  24  39  53  87 122 153 192 241 284 342
#     4   9  19  37  62  91 115 144 191 243 292 346
#     4   9  19  37  63  90 112 146 198 241 282 347
#     4  10  24  34  53  90 125 148 186 238 292 354
#     4  11  22  38  59  86 121 149 188 246 293 334
#     4  11  22  40  62  79 115 164 197 231 290 340
#
# _framework density 18.924046000000001
#
# number of rings (size 3 to 8) (size 9 to 14) (size 15 to 20)
#    0.000    1.846    1.538    3.692    6.462    1.846 
#    0.000    3.462    0.000    1.846    0.000    0.000 
#    0.000    0.000    0.000    0.000    0.000    0.000 
#
# Total GULP energy -322429.841294 kJ/mol
# GULP energy per Si atom -12401.147742 kJ/mol
# Density = 1.888097 g / cm^3
# Si number density = 18.924046 Si / 1000 Ang^3
#
#
#
# Elastic Constant Matrix: (Units=GPa)
#
#
# Indices 1 2 3 4 5 6 
#
# 1 114.2229 56.4964 30.1126 0.0008 10.7081 -0.0011
# 2 56.4964 135.3064 44.8304 0.0005 9.3188 -0.0003
# 3 30.1126 44.8304 56.9711 -0.0006 8.0748 -0.0004
# 4 0.0008 0.0005 -0.0006 22.9828 0.0003 -3.3595
# 5 10.7081 9.3188 8.0748 0.0003 27.5465 0.0001
# 6 -0.0011 -0.0003 -0.0004 -3.3595 0.0001 14.7655
#
#
#
# Elastic Compliance Matrix: (Units=1/GPa)
#
#
# Indices 1 2 3 4 5 6 
#
# 1 0.011572 -0.003723 -0.002846 0.000000 -0.002405 0.000001
# 2 -0.003723 0.011228 -0.006818 0.000000 -0.000353 0.000000
# 3 -0.002846 -0.006818 0.024976 0.000001 -0.003909 0.000001
# 4 0.000000 0.000000 0.000001 0.045008 -0.000001 0.010240
# 5 -0.002405 -0.000353 -0.003909 -0.000001 0.038502 -0.000001
# 6 0.000001 0.000000 0.000001 0.010240 -0.000001 0.070056
#
#
# Mechanical properties :
#
#
# Convention : Reuss Voigt Hill
#
# Bulk Modulus (GPa) = 47.61307 63.26435 55.43871
# Shear Modulus (GPa) = 21.26609 24.72968 22.99789
#
# Velocity S-wave (km/s) = 3.35589 3.61887 3.48986
# Velocity P-wave (km/s) = 6.34277 7.13897 6.75261
#
# Compressibility (1/GPa) = 0.02100264
#
# Stress axis : x y z
#
# Youngs Moduli (GPa) = 86.41458 89.05958 40.03896
#
# Poissons Ratio (x) = 0.33160 0.11394
# Poissons Ratio (y) = 0.32175 0.27297
# Poissons Ratio (z) = 0.24592 0.60717
#
# Static dielectric constant tensor:
#      x y z
#    x 3.448420 0.000000 -0.066220 
#    y 0.000000 3.609240 0.000000 
#    z -0.066220 0.000000 3.302690 
# 
# 
# High freq. dielectric constant tensor:
#      x y z
#    x 1.736490 0.000000 -0.003960 
#    y 0.000000 1.738740 0.000000 
#    z -0.003960 0.000000 1.723960 
# 
# From -- ./inp_files/259665.got.cif
#   From: 2010.06.25/outbox.cif.g09.slc.cpg/sg12_130_cif.got.tgz:259665.got - 2010.06.28 00:19:55.
