data_PCOD8113978
_publ_section_title
;
Structure prediction by ZEFSAII (Michael W. Deem and Ramdas Pophale) SiO2 
 PCOD8113978
Probable space group: C 2/M
;
_chemical_formula_sum "Si O2"
_cell_formula_units_Z 40
_cell_length_a 10.006782
_cell_length_b 21.835810
_cell_length_c 9.447340
_cell_angle_alpha 90.000000
_cell_angle_beta 106.743919
_cell_angle_gamma 90.000000
_cell_volume 1976.779867
_symmetry_space_group_name_H-M "C 2/M"
_symmetry_group_IT_number 12
_symmetry_cell_setting 'monoclinic'
loop_
_space_group_symop_operation_xyz
x,y,z
-x,y,-z
-x,-y,-z
x,-y,z
1/2+x,1/2+y,z
1/2-x,1/2+y,-z
1/2-x,1/2-y,-z
1/2+x,1/2-y,z
loop_
_atom_site_type_symbol
_atom_site_label
_atom_site_fract_x
_atom_site_fract_y
_atom_site_fract_z
Si Si1 0.905336 0.750968 0.100839
Si Si2 0.934541 0.142519 0.331326
Si Si3 0.384084 0.886322 0.134830
Si Si4 0.101033 0.072066 0.159135
Si Si5 0.672989 0.930045 0.196690
O O1 0.924003 0.795656 0.238272
O O2 0.943246 0.682555 0.160437
O O3 0.750000 0.750000 0.000000
O O4 0.000000 0.773980 0.000000
O O5 0.783883 0.111678 0.313764
O O6 0.000000 0.161274 0.500000
O O7 0.031969 0.092825 0.284033
O O8 0.252907 0.896040 0.197465
O O9 0.518903 0.926749 0.220136
O O10 0.331749 0.904658 0.963722
O O11 0.124537 0.000000 0.166262
O O12 0.000000 0.092433 0.000000
O O13 0.724827 0.000000 0.211330
#
# Coordination Sequence:
#
# PCOD8113978 Si02
#       5
#     8   8   8   8   8
#     4  12  21  41  67  90 126 167 217 268 312 371
#     4  12  26  42  62  94 133 172 212 262 326 383
#     4  11  20  38  65  97 123 156 217 273 313 364
#     4  11  21  38  65  96 127 164 216 268 313 373
#     4  11  21  38  64  94 128 163 205 260 323 381
#
# _framework density 20.234929000000001
#
# number of rings (size 3 to 8) (size 9 to 14) (size 15 to 20)
#    0.000    0.600    6.000    4.800    0.000    1.600 
#    0.000   10.000    0.000    2.400    0.000    0.000 
#    0.000    0.000    0.000    0.000    0.000    0.000 
#
# Total GULP energy -248063.415411 kJ/mol
# GULP energy per Si atom -12403.170771 kJ/mol
# Density = 2.018887 g / cm^3
# Si number density = 20.234929 Si / 1000 Ang^3
#
#
#
# Elastic Constant Matrix: (Units=GPa)
#
#
# Indices 1 2 3 4 5 6 
#
# 1 145.1808 21.4415 49.2226 0.0000 3.6763 0.0000
# 2 21.4415 127.9565 46.8178 0.0000 11.7333 0.0000
# 3 49.2226 46.8178 109.9784 0.0000 12.7294 0.0000
# 4 0.0000 0.0000 0.0000 14.9989 0.0000 -1.0514
# 5 3.6763 11.7333 12.7294 0.0000 22.4765 0.0000
# 6 0.0000 0.0000 0.0000 -1.0514 0.0000 33.3318
#
#
#
# Elastic Compliance Matrix: (Units=1/GPa)
#
#
# Indices 1 2 3 4 5 6 
#
# 1 0.008134 -0.000084 -0.003698 0.000000 0.000808 0.000000
# 2 -0.000084 0.009423 -0.003645 0.000000 -0.002841 0.000000
# 3 -0.003698 -0.003645 0.012852 0.000000 -0.004771 0.000000
# 4 0.000000 0.000000 0.000000 0.066819 0.000000 0.002108
# 5 0.000808 -0.002841 -0.004771 0.000000 0.048544 0.000000
# 6 0.000000 0.000000 0.000000 0.002108 0.000000 0.030068
#
#
# Mechanical properties :
#
#
# Convention : Reuss Voigt Hill
#
# Bulk Modulus (GPa) = 64.29003 68.67551 66.48277
# Shear Modulus (GPa) = 25.52590 31.87035 28.69812
#
# Velocity S-wave (km/s) = 3.55558 3.97295 3.77005
# Velocity P-wave (km/s) = 6.97832 7.42015 7.20262
#
# Compressibility (1/GPa) = 0.01555451
#
# Stress axis : x y z
#
# Youngs Moduli (GPa) = 122.94470 106.11804 77.81013
#
# Poissons Ratio (x) = 0.00891 0.28775
# Poissons Ratio (y) = 0.01032 0.28363
# Poissons Ratio (z) = 0.45467 0.38682
#
# Static dielectric constant tensor:
#      x y z
#    x 4.017500 0.000000 0.003900 
#    y 0.000000 4.169720 0.000000 
#    z 0.003900 0.000000 3.230870 
# 
# 
# High freq. dielectric constant tensor:
#      x y z
#    x 1.814200 0.000000 0.000720 
#    y 0.000000 1.810370 0.000000 
#    z 0.000720 0.000000 1.733400 
# 
# From -- ./inp_files/48480.got.cif
#   From: 2010.06.25/outbox.cif.g09.slc.cpg/sg12_25_cif.got.tgz:48480.got - 2010.06.28 00:19:55.
