data_PCOD8113696
_publ_section_title
;
Structure prediction by ZEFSAII (Michael W. Deem and Ramdas Pophale) SiO2 
 PCOD8113696
Probable space group: C 2/M
;
_chemical_formula_sum "Si O2"
_cell_formula_units_Z 56
_cell_length_a 15.170253
_cell_length_b 16.735415
_cell_length_c 21.088800
_cell_angle_alpha 90.000000
_cell_angle_beta 150.126505
_cell_angle_gamma 90.000000
_cell_volume 2666.773243
_symmetry_space_group_name_H-M "C 2/M"
_symmetry_group_IT_number 12
_symmetry_cell_setting 'monoclinic'
loop_
_space_group_symop_operation_xyz
x,y,z
-x,y,-z
-x,-y,-z
x,-y,z
1/2+x,1/2+y,z
1/2-x,1/2+y,-z
1/2-x,1/2-y,-z
1/2+x,1/2-y,z
loop_
_atom_site_type_symbol
_atom_site_label
_atom_site_fract_x
_atom_site_fract_y
_atom_site_fract_z
Si Si1 0.490638 0.666400 0.179221
Si Si2 0.392619 0.360454 0.492841
Si Si3 0.426244 0.806918 0.567932
Si Si4 0.509467 0.175807 0.256707
Si Si5 0.664253 0.911961 0.647892
Si Si6 0.142820 0.905602 0.033943
Si Si7 0.577885 0.591422 0.352213
O O1 0.471389 0.762700 0.175125
O O2 0.692165 0.638724 0.299649
O O3 0.431828 0.626280 0.210260
O O4 0.392966 0.637872 0.055307
O O5 0.500000 0.394236 0.500000
O O6 0.416330 0.264754 0.511810
O O7 0.478229 0.400731 0.608937
O O8 0.182706 0.379303 0.350514
O O9 0.435096 0.772386 0.645631
O O10 0.604769 0.859394 0.670731
O O11 0.263963 0.865839 0.459478
O O12 0.343497 0.120853 0.172812
O O13 0.500000 0.922980 0.500000
O O14 0.735047 0.000000 0.714261
O O15 0.133958 0.000000 0.018853
O O16 0.000000 0.879965 0.000000
O O17 0.606245 0.500000 0.351590
#
# Coordination Sequence:
#
# PCOD8113696 Si02
#       7
#     8   8   8   8   8   8   8
#     4  12  21  40  59  87 129 163 204 252 305 379
#     4  11  22  39  61  91 130 166 203 259 303 365
#     4  11  19  36  58  90 129 158 199 257 311 374
#     4  11  22  39  65  90 125 169 208 247 308 383
#     4  11  20  30  55  94 129 159 198 252 321 380
#     4  11  26  45  65  93 125 160 205 262 324 376
#     4  11  21  35  58  86 120 164 207 251 310 359
#
# _framework density 20.999161999999998
#
# number of rings (size 3 to 8) (size 9 to 14) (size 15 to 20)
#    0.000    0.857    4.286    5.143    0.000    4.286 
#    0.000    0.000    0.000    0.000    0.000    2.000 
#    0.000    0.000    0.000    0.000    0.000    0.000 
#
# Total GULP energy -346901.951997 kJ/mol
# GULP energy per Si atom -12389.355428 kJ/mol
# Density = 2.095137 g / cm^3
# Si number density = 20.999162 Si / 1000 Ang^3
#
#
#
# Elastic Constant Matrix: (Units=GPa)
#
#
# Indices 1 2 3 4 5 6 
#
# 1 113.0189 9.5991 42.7565 0.0053 -3.3223 0.0022
# 2 9.5991 58.5089 4.0103 0.0000 3.4873 0.0025
# 3 42.7565 4.0103 81.2224 0.0034 -4.3239 0.0049
# 4 0.0053 0.0000 0.0034 21.2699 0.0005 -1.7349
# 5 -3.3223 3.4873 -4.3239 0.0005 41.3867 0.0005
# 6 0.0022 0.0025 0.0049 -1.7349 0.0005 25.5669
#
#
#
# Elastic Compliance Matrix: (Units=1/GPa)
#
#
# Indices 1 2 3 4 5 6 
#
# 1 0.011174 -0.001461 -0.005788 -0.000002 0.000415 0.000000
# 2 -0.001461 0.017439 -0.000177 0.000000 -0.001605 -0.000002
# 3 -0.005788 -0.000177 0.015429 -0.000001 0.001162 -0.000003
# 4 -0.000002 0.000000 -0.000001 0.047276 -0.000001 0.003208
# 5 0.000415 -0.001605 0.001162 -0.000001 0.024452 -0.000001
# 6 0.000000 -0.000002 -0.000003 0.003208 -0.000001 0.039331
#
#
# Mechanical properties :
#
#
# Convention : Reuss Voigt Hill
#
# Bulk Modulus (GPa) = 34.25892 40.60911 37.43402
# Shear Modulus (GPa) = 27.82656 30.73700 29.28178
#
# Velocity S-wave (km/s) = 3.64418 3.83002 3.73825
# Velocity P-wave (km/s) = 5.83580 6.24012 6.04134
#
# Compressibility (1/GPa) = 0.02918947
#
# Stress axis : x y z
#
# Youngs Moduli (GPa) = 89.49326 57.34283 64.81171
#
# Poissons Ratio (x) = 0.08379 0.37512
# Poissons Ratio (y) = 0.13077 0.01149
# Poissons Ratio (z) = 0.51798 0.01016
#
# Static dielectric constant tensor:
#      x y z
#    x 4.257330 0.000000 -0.269960 
#    y 0.000000 3.852090 0.000000 
#    z -0.269960 0.000000 3.907820 
# 
# 
# High freq. dielectric constant tensor:
#      x y z
#    x 1.830510 0.000000 -0.020190 
#    y 0.000000 1.814900 0.000000 
#    z -0.020190 0.000000 1.801800 
# 
# From -- ./inp_files/311739.got.cif
#   From: 2010.06.25/outbox.cif.g09.slc.cpg/sg12_156_cif.got.tgz:311739.got - 2010.06.28 00:19:55.
