data_PCOD8113529
_publ_section_title
;
Structure prediction by ZEFSAII (Michael W. Deem and Ramdas Pophale) SiO2 
 PCOD8113529
Probable space group: C 2/M
;
_chemical_formula_sum "Si O2"
_cell_formula_units_Z 48
_cell_length_a 13.698026
_cell_length_b 10.937215
_cell_length_c 19.071834
_cell_angle_alpha 90.000000
_cell_angle_beta 45.444895
_cell_angle_gamma 90.000000
_cell_volume 2036.049775
_symmetry_space_group_name_H-M "C 2/M"
_symmetry_group_IT_number 12
_symmetry_cell_setting 'monoclinic'
loop_
_space_group_symop_operation_xyz
x,y,z
-x,y,-z
-x,-y,-z
x,-y,z
1/2+x,1/2+y,z
1/2-x,1/2+y,-z
1/2-x,1/2-y,-z
1/2+x,1/2-y,z
loop_
_atom_site_type_symbol
_atom_site_label
_atom_site_fract_x
_atom_site_fract_y
_atom_site_fract_z
Si Si1 0.941240 0.000000 0.812057
Si Si2 0.072054 0.000000 0.887228
Si Si3 0.282566 0.815546 0.085114
Si Si4 0.668340 0.248179 0.794379
Si Si5 0.618021 0.500000 0.596477
Si Si6 0.908245 0.365722 0.879288
Si Si7 0.557666 0.000000 0.549868
Si Si8 0.473355 0.267884 0.595904
O O1 0.859632 0.118066 0.829748
O O2 0.950413 0.000000 0.891668
O O3 0.081650 0.000000 0.697602
O O4 0.169443 0.112739 0.819796
O O5 0.000000 0.000000 0.000000
O O6 0.364186 0.823206 0.116752
O O7 0.227996 0.679736 0.092161
O O8 0.374980 0.873033 0.978604
O O9 0.545176 0.218253 0.802039
O O10 0.812031 0.208882 0.688868
O O11 0.780588 0.500000 0.518694
O O12 0.560899 0.376128 0.588456
O O13 0.943385 0.500000 0.832903
O O14 0.500000 0.000000 0.500000
O O15 0.507870 0.869469 0.608399
O O16 0.500000 0.274950 0.500000
#
# Coordination Sequence:
#
# PCOD8113529 Si02
#       8
#     4   4   8   8   4   8   4   8
#     4  12  24  45  72  99 144 184 236 289 351 432
#     4  12  27  45  72 102 145 194 235 295 349 428
#     4  11  24  43  64 101 136 185 234 290 354 420
#     4  12  26  44  69 102 139 185 241 286 361 423
#     4  12  25  49  77 107 141 194 242 302 373 435
#     4  11  25  41  67  96 139 184 231 297 346 426
#     4  10  25  47  77 103 140 184 242 306 370 434
#     4  11  26  48  74 107 146 191 240 310 369 435
#
# _framework density 23.575061999999999
#
# number of rings (size 3 to 8) (size 9 to 14) (size 15 to 20)
#    0.000    0.667    4.167    2.750   10.500    0.667 
#    3.000    0.000    0.000    0.000    0.000    0.000 
#    0.000    0.000    0.000    0.000    0.000    0.000 
#
# Total GULP energy -297318.564997 kJ/mol
# GULP energy per Si atom -12388.273542 kJ/mol
# Density = 2.352140 g / cm^3
# Si number density = 23.575062 Si / 1000 Ang^3
#
#
#
# Elastic Constant Matrix: (Units=GPa)
#
#
# Indices 1 2 3 4 5 6 
#
# 1 84.9109 28.4953 3.9388 0.0000 -7.3707 0.0000
# 2 28.4953 132.4194 19.8178 0.0000 -3.4479 0.0000
# 3 3.9388 19.8178 66.1488 0.0000 -5.9048 0.0000
# 4 0.0000 0.0000 0.0000 30.2273 0.0000 -8.1910
# 5 -7.3707 -3.4479 -5.9048 0.0000 41.4014 0.0000
# 6 0.0000 0.0000 0.0000 -8.1910 0.0000 27.2619
#
#
#
# Elastic Compliance Matrix: (Units=1/GPa)
#
#
# Indices 1 2 3 4 5 6 
#
# 1 0.012871 -0.002752 0.000245 0.000000 0.002097 0.000000
# 2 -0.002752 0.008499 -0.002393 0.000000 -0.000123 0.000000
# 3 0.000245 -0.002393 0.016010 0.000000 0.002128 0.000000
# 4 0.000000 0.000000 0.000000 0.036015 0.000000 0.010821
# 5 0.002097 -0.000123 0.002128 0.000000 0.024820 0.000000
# 6 0.000000 0.000000 0.000000 0.010821 0.000000 0.039932
#
#
# Mechanical properties :
#
#
# Convention : Reuss Voigt Hill
#
# Bulk Modulus (GPa) = 36.25821 43.10921 39.68371
# Shear Modulus (GPa) = 31.81858 35.19326 33.50592
#
# Velocity S-wave (km/s) = 3.67777 3.86789 3.77403
# Velocity P-wave (km/s) = 5.78342 6.18652 5.98837
#
# Compressibility (1/GPa) = 0.02757996
#
# Stress axis : x y z
#
# Youngs Moduli (GPa) = 77.69267 117.66214 62.46168
#
# Poissons Ratio (x) = 0.32379 -0.01532
# Poissons Ratio (y) = 0.21380 0.14950
# Poissons Ratio (z) = -0.01905 0.28161
#
# Static dielectric constant tensor:
#      x y z
#    x 4.237000 0.000000 0.017690 
#    y 0.000000 4.641420 0.000000 
#    z 0.017690 0.000000 4.012540 
# 
# 
# High freq. dielectric constant tensor:
#      x y z
#    x 1.937540 0.000000 -0.011750 
#    y 0.000000 1.949590 0.000000 
#    z -0.011750 0.000000 1.918540 
# 
# From -- ./inp_files/310253.got.cif
#   From: 2010.06.25/outbox.cif.g09.slc.cpg/sg12_156_cif.got.tgz:310253.got - 2010.06.28 00:19:55.
