data_PCOD8113584
_publ_section_title
;
Structure prediction by ZEFSAII (Michael W. Deem and Ramdas Pophale) SiO2 
 PCOD8113584
Probable space group: C 2/M
;
_chemical_formula_sum "Si O2"
_cell_formula_units_Z 40
_cell_length_a 22.478266
_cell_length_b 13.789745
_cell_length_c 9.045557
_cell_angle_alpha 90.000000
_cell_angle_beta 146.210951
_cell_angle_gamma 90.000000
_cell_volume 1559.322598
_symmetry_space_group_name_H-M "C 2/M"
_symmetry_group_IT_number 12
_symmetry_cell_setting 'monoclinic'
loop_
_space_group_symop_operation_xyz
x,y,z
-x,y,-z
-x,-y,-z
x,-y,z
1/2+x,1/2+y,z
1/2-x,1/2+y,-z
1/2-x,1/2-y,-z
1/2+x,1/2-y,z
loop_
_atom_site_type_symbol
_atom_site_label
_atom_site_fract_x
_atom_site_fract_y
_atom_site_fract_z
Si Si1 0.886931 0.612793 0.944659
Si Si2 0.784943 0.217707 0.235433
Si Si3 0.131897 0.612100 0.427962
Si Si4 0.020301 0.113195 0.204335
Si Si5 0.615421 0.392338 0.813295
O O1 0.877158 0.500000 0.961959
O O2 0.827549 0.672896 0.948467
O O3 0.838238 0.633074 0.681117
O O4 0.010183 0.645379 0.205220
O O5 0.791069 0.331270 0.297930
O O6 0.877524 0.164667 0.516548
O O7 0.809984 0.192703 0.109868
O O8 0.148206 0.500000 0.498637
O O9 0.909733 0.130927 0.066893
O O10 0.049044 0.000000 0.258374
O O11 0.000000 0.156107 0.000000
O O12 0.500000 0.391416 0.500000
O O13 0.666159 0.500000 0.895922
#
# Coordination Sequence:
#
# PCOD8113584 Si02
#       5
#     8   8   8   8   8
#     4   9  18  34  54  81 116 158 203 240 288 354
#     4  11  18  30  60  86 109 150 205 240 286 351
#     4   9  20  35  51  80 122 160 198 244 288 341
#     4   9  18  31  51  86 124 152 183 240 302 348
#     4   8  15  29  50  80 117 152 186 234 297 352
#
# _framework density 25.652165
#
# number of rings (size 3 to 8) (size 9 to 14) (size 15 to 20)
#    0.000    2.800    0.000    4.800    2.800    0.000 
#    0.000    0.000    0.000   18.600    0.000    0.000 
#    0.000    0.000    0.000    3.000    0.000    0.000 
#
# Total GULP energy -248093.288726 kJ/mol
# GULP energy per Si atom -12404.664436 kJ/mol
# Density = 2.559378 g / cm^3
# Si number density = 25.652165 Si / 1000 Ang^3
#
#
#
# Elastic Constant Matrix: (Units=GPa)
#
#
# Indices 1 2 3 4 5 6 
#
# 1 197.6378 79.3098 52.1552 0.0000 -23.0862 0.0000
# 2 79.3098 106.5059 30.9515 0.0000 2.8620 0.0000
# 3 52.1552 30.9515 91.3461 0.0000 -29.5031 0.0000
# 4 0.0000 0.0000 0.0000 31.2313 0.0000 8.1178
# 5 -23.0862 2.8620 -29.5031 0.0000 41.2898 0.0000
# 6 0.0000 0.0000 0.0000 8.1178 0.0000 44.9850
#
#
#
# Elastic Compliance Matrix: (Units=1/GPa)
#
#
# Indices 1 2 3 4 5 6 
#
# 1 0.008244 -0.005825 -0.001448 0.000000 0.003978 0.000000
# 2 -0.005825 0.015127 -0.004148 0.000000 -0.007269 0.000000
# 3 -0.001448 -0.004148 0.016915 0.000000 0.011564 0.000000
# 4 0.000000 0.000000 0.000000 0.033595 0.000000 -0.006062
# 5 0.003978 -0.007269 0.011564 0.000000 0.035210 0.000000
# 6 0.000000 0.000000 0.000000 -0.006062 0.000000 0.023324
#
#
# Mechanical properties :
#
#
# Convention : Reuss Voigt Hill
#
# Bulk Modulus (GPa) = 57.32635 80.03587 68.68111
# Shear Modulus (GPa) = 31.04199 39.03945 35.04072
#
# Velocity S-wave (km/s) = 3.48244 3.90536 3.69995
# Velocity P-wave (km/s) = 6.21015 7.18359 6.71453
#
# Compressibility (1/GPa) = 0.01744398
#
# Stress axis : x y z
#
# Youngs Moduli (GPa) = 121.29687 66.10494 59.12021
#
# Poissons Ratio (x) = 0.38506 0.08563
# Poissons Ratio (y) = 0.70656 0.24521
# Poissons Ratio (z) = 0.17570 0.27418
#
# Static dielectric constant tensor:
#      x y z
#    x 5.132530 0.000000 -0.220920 
#    y 0.000000 4.840550 0.000000 
#    z -0.220920 0.000000 4.840780 
# 
# 
# High freq. dielectric constant tensor:
#      x y z
#    x 2.028800 0.000000 -0.004360 
#    y 0.000000 2.048040 0.000000 
#    z -0.004360 0.000000 2.048990 
# 
# From -- ./inp_files/96632.got.cif
#   From: 2010.06.25/outbox.cif.g09.slc.cpg/sg12_49_cif.got.tgz:96632.got - 2010.06.28 00:19:55.
