data_PCOD8113187
_publ_section_title
;
Structure prediction by ZEFSAII (Michael W. Deem and Ramdas Pophale) SiO2 
 PCOD8113187
Probable space group: C 2/M
;
_chemical_formula_sum "Si O2"
_cell_formula_units_Z 24
_cell_length_a 13.968298
_cell_length_b 13.417758
_cell_length_c 4.856421
_cell_angle_alpha 90.000000
_cell_angle_beta 87.855965
_cell_angle_gamma 90.000000
_cell_volume 909.568967
_symmetry_space_group_name_H-M "C 2/M"
_symmetry_group_IT_number 12
_symmetry_cell_setting 'monoclinic'
loop_
_space_group_symop_operation_xyz
x,y,z
-x,y,-z
-x,-y,-z
x,-y,z
1/2+x,1/2+y,z
1/2-x,1/2+y,-z
1/2-x,1/2-y,-z
1/2+x,1/2-y,z
loop_
_atom_site_type_symbol
_atom_site_label
_atom_site_fract_x
_atom_site_fract_y
_atom_site_fract_z
Si Si1 0.406481 0.113475 0.676078
Si Si2 0.393491 0.297190 0.037118
Si Si3 0.203148 0.112459 0.454042
O O1 0.500000 0.150729 0.500000
O O2 0.393989 0.181077 0.948941
O O3 0.315945 0.124608 0.485412
O O4 0.419033 0.000000 0.778671
O O5 0.319710 0.360119 0.857943
O O6 0.500000 0.342662 0.000000
O O7 0.356250 0.309651 0.352199
O O8 0.169858 0.000000 0.522726
#
# Coordination Sequence:
#
# PCOD8113187 Si02
#       3
#     8   8   8
#     4  10  23  45  72 102 136 176 226 282 340 400
#     4  12  25  44  69 101 139 179 224 276 336 402
#     4  11  25  45  71 101 136 179 225 278 336 399
#
# _framework density 26.386123000000001
#
# number of rings (size 3 to 8) (size 9 to 14) (size 15 to 20)
#    0.000    1.000    0.000    6.000    0.000    7.333 
#    0.000   11.667    0.000    0.000    0.000    0.000 
#    0.000    0.000    0.000    0.000    0.000    0.000 
#
# Total GULP energy -148916.319484 kJ/mol
# GULP energy per Si atom -12409.693290 kJ/mol
# Density = 2.632607 g / cm^3
# Si number density = 26.386123 Si / 1000 Ang^3
#
#
#
# Elastic Constant Matrix: (Units=GPa)
#
#
# Indices 1 2 3 4 5 6 
#
# 1 144.8059 22.4230 4.6830 0.0000 9.3259 0.0000
# 2 22.4230 147.2396 7.5349 0.0000 -11.6253 0.0000
# 3 4.6830 7.5349 62.0033 0.0000 1.6748 0.0000
# 4 0.0000 0.0000 0.0000 7.3944 0.0000 -3.6010
# 5 9.3259 -11.6253 1.6748 0.0000 38.0547 0.0000
# 6 0.0000 0.0000 0.0000 -3.6010 0.0000 33.6346
#
#
#
# Elastic Compliance Matrix: (Units=1/GPa)
#
#
# Indices 1 2 3 4 5 6 
#
# 1 0.007249 -0.001256 -0.000337 0.000000 -0.002145 0.000000
# 2 -0.001256 0.007228 -0.000852 0.000000 0.002553 0.000000
# 3 -0.000337 -0.000852 0.016281 0.000000 -0.000894 0.000000
# 4 0.000000 0.000000 0.000000 0.142676 0.000000 0.015275
# 5 -0.002145 0.002553 -0.000894 0.000000 0.027623 0.000000
# 6 0.000000 0.000000 0.000000 0.015275 0.000000 0.031367
#
#
# Mechanical properties :
#
#
# Convention : Reuss Voigt Hill
#
# Bulk Modulus (GPa) = 38.65815 47.03675 42.84745
# Shear Modulus (GPa) = 20.33031 37.11060 28.72046
#
# Velocity S-wave (km/s) = 2.77879 3.75433 3.30277
# Velocity P-wave (km/s) = 4.99783 6.05461 5.55142
#
# Compressibility (1/GPa) = 0.02586777
#
# Stress axis : x y z
#
# Youngs Moduli (GPa) = 137.94279 138.34728 61.41987
#
# Poissons Ratio (x) = 0.17379 0.02069
# Poissons Ratio (y) = 0.17328 0.05236
# Poissons Ratio (z) = 0.04648 0.11794
#
# Static dielectric constant tensor:
#      x y z
#    x 5.005740 0.000000 0.319680 
#    y 0.000000 4.934670 0.000000 
#    z 0.319680 0.000000 4.391250 
# 
# 
# High freq. dielectric constant tensor:
#      x y z
#    x 2.076740 0.000000 0.012420 
#    y 0.000000 2.068940 0.000000 
#    z 0.012420 0.000000 2.052080 
# 
# From -- ./inp_files/9325.got.cif
#   From: 2010.06.25/outbox.cif.g09.slc.cpg/sg12_5_cif.got.tgz:9325.got - 2010.06.28 00:19:55.
