data_PCOD8113175
_publ_section_title
;
Structure prediction by ZEFSAII (Michael W. Deem and Ramdas Pophale) SiO2 
 PCOD8113175
Probable space group: C 2/M
;
_chemical_formula_sum "Si O2"
_cell_formula_units_Z 48
_cell_length_a 9.745607
_cell_length_b 27.731769
_cell_length_c 8.488261
_cell_angle_alpha 90.000000
_cell_angle_beta 96.410918
_cell_angle_gamma 90.000000
_cell_volume 2279.716671
_symmetry_space_group_name_H-M "C 2/M"
_symmetry_group_IT_number 12
_symmetry_cell_setting 'monoclinic'
loop_
_space_group_symop_operation_xyz
x,y,z
-x,y,-z
-x,-y,-z
x,-y,z
1/2+x,1/2+y,z
1/2-x,1/2+y,-z
1/2-x,1/2-y,-z
1/2+x,1/2-y,z
loop_
_atom_site_type_symbol
_atom_site_label
_atom_site_fract_x
_atom_site_fract_y
_atom_site_fract_z
Si Si1 0.137014 0.375757 0.603706
Si Si2 0.217059 0.698802 0.194069
Si Si3 0.556459 0.770439 0.667219
Si Si4 0.346693 0.117850 0.035014
Si Si5 0.135110 0.119399 0.592365
Si Si6 0.108211 0.943079 0.880466
O O1 0.134883 0.317341 0.609470
O O2 0.153654 0.393194 0.782271
O O3 0.267850 0.400386 0.534579
O O4 0.000000 0.395482 0.500000
O O5 0.334625 0.739718 0.214966
O O6 0.262701 0.657623 0.318451
O O7 0.067465 0.717832 0.228108
O O8 0.206081 0.672284 0.021095
O O9 0.500000 0.743705 0.500000
O O10 0.500000 0.110625 0.000000
O O11 0.258243 0.075896 0.944844
O O12 0.076146 0.079106 0.704449
O O13 0.000000 0.144329 0.500000
O O14 0.107276 0.000000 0.865131
O O15 0.000000 0.925187 0.000000
#
# Coordination Sequence:
#
# PCOD8113175 Si02
#       6
#     8   8   8   8   8   8
#     4  11  21  40  62  87 125 171 209 265 316 370
#     4  11  23  38  59  91 125 174 217 269 311 367
#     4  11  21  37  60  88 128 175 220 268 313 364
#     4  11  22  43  65  91 128 166 216 262 323 376
#     4  11  22  38  64  96 125 167 213 254 321 381
#     4  10  23  45  70  98 129 161 202 258 324 394
#
# _framework density 21.055250000000001
#
# number of rings (size 3 to 8) (size 9 to 14) (size 15 to 20)
#    0.000    1.167    5.000    3.000    2.333    1.333 
#    0.000    0.833    0.000    2.000    0.000    0.000 
#    0.000    0.000    0.000    0.000    0.000    0.000 
#
# Total GULP energy -297421.177570 kJ/mol
# GULP energy per Si atom -12392.549065 kJ/mol
# Density = 2.100733 g / cm^3
# Si number density = 21.055250 Si / 1000 Ang^3
#
#
#
# Elastic Constant Matrix: (Units=GPa)
#
#
# Indices 1 2 3 4 5 6 
#
# 1 138.4294 35.5920 43.9815 0.0000 -11.6449 0.0000
# 2 35.5920 61.3467 19.3818 0.0000 -12.0479 0.0000
# 3 43.9815 19.3818 114.9558 0.0000 -16.5590 0.0000
# 4 0.0000 0.0000 0.0000 14.1077 0.0000 -6.6094
# 5 -11.6449 -12.0479 -16.5590 0.0000 36.1036 0.0000
# 6 0.0000 0.0000 0.0000 -6.6094 0.0000 26.0544
#
#
#
# Elastic Compliance Matrix: (Units=1/GPa)
#
#
# Indices 1 2 3 4 5 6 
#
# 1 0.009267 -0.004458 -0.002760 0.000000 0.000235 0.000000
# 2 -0.004458 0.020151 -0.000996 0.000000 0.004829 0.000000
# 3 -0.002760 -0.000996 0.010436 0.000000 0.003564 0.000000
# 4 0.000000 0.000000 0.000000 0.080444 0.000000 0.020407
# 5 0.000235 0.004829 0.003564 0.000000 0.031020 0.000000
# 6 0.000000 0.000000 0.000000 0.020407 0.000000 0.043558
#
#
# Mechanical properties :
#
#
# Convention : Reuss Voigt Hill
#
# Bulk Modulus (GPa) = 42.68891 56.96026 49.82458
# Shear Modulus (GPa) = 22.81935 29.63824 26.22879
#
# Velocity S-wave (km/s) = 3.29566 3.75593 3.53329
# Velocity P-wave (km/s) = 5.89920 6.77649 6.35300
#
# Compressibility (1/GPa) = 0.02342529
#
# Stress axis : x y z
#
# Youngs Moduli (GPa) = 107.91173 49.62651 95.82004
#
# Poissons Ratio (x) = 0.22125 0.26445
# Poissons Ratio (y) = 0.48110 0.09544
# Poissons Ratio (z) = 0.29782 0.04943
#
# Static dielectric constant tensor:
#      x y z
#    x 3.913630 0.000000 0.200870 
#    y 0.000000 3.435130 0.000000 
#    z 0.200870 0.000000 4.262120 
# 
# 
# High freq. dielectric constant tensor:
#      x y z
#    x 1.840240 0.000000 0.007300 
#    y 0.000000 1.779610 0.000000 
#    z 0.007300 0.000000 1.844750 
# 
# From -- ./inp_files/42172.got.cif
#   From: 2010.06.25/outbox.cif.g09.slc.cpg/sg12_22_cif.got.tgz:42172.got - 2010.06.28 00:19:55.
