data_PCOD8113588
_publ_section_title
;
Structure prediction by ZEFSAII (Michael W. Deem and Ramdas Pophale) SiO2 
 PCOD8113588
Probable space group: C 2/M
;
_chemical_formula_sum "Si O2"
_cell_formula_units_Z 40
_cell_length_a 26.177168
_cell_length_b 20.002139
_cell_length_c 9.453339
_cell_angle_alpha 90.000000
_cell_angle_beta 151.675453
_cell_angle_gamma 90.000000
_cell_volume 2348.490820
_symmetry_space_group_name_H-M "C 2/M"
_symmetry_group_IT_number 12
_symmetry_cell_setting 'monoclinic'
loop_
_space_group_symop_operation_xyz
x,y,z
-x,y,-z
-x,-y,-z
x,-y,z
1/2+x,1/2+y,z
1/2-x,1/2+y,-z
1/2-x,1/2-y,-z
1/2+x,1/2-y,z
loop_
_atom_site_type_symbol
_atom_site_label
_atom_site_fract_x
_atom_site_fract_y
_atom_site_fract_z
Si Si1 0.727262 0.814733 0.349368
Si Si2 0.771043 0.273077 0.207837
Si Si3 0.997178 0.725855 0.157169
Si Si4 0.601204 0.576487 0.150624
Si Si5 0.568336 0.348125 0.806375
O O1 0.750000 0.750000 0.500000
O O2 0.759194 0.795433 0.268134
O O3 0.794621 0.878761 0.560089
O O4 0.598375 0.828283 0.049453
O O5 0.888966 0.305712 0.518678
O O6 0.750000 0.250000 0.000000
O O7 0.688791 0.330128 0.053912
O O8 0.980387 0.789489 0.216626
O O9 0.000000 0.748912 0.000000
O O10 0.633312 0.500000 0.256260
O O11 0.500000 0.597466 0.000000
O O12 0.570851 0.586233 0.911355
O O13 0.500000 0.362558 0.500000
#
# Coordination Sequence:
#
# PCOD8113588 Si02
#       5
#     8   8   8   8   8
#     4  11  20  32  56  81 105 141 185 234 273 324
#     4  11  20  30  52  85 114 141 175 235 285 329
#     4  11  18  31  52  79 113 140 180 225 284 322
#     4  11  23  39  57  80 112 153 191 229 278 336
#     4  11  20  31  52  81 114 144 179 230 278 329
#
# _framework density 17.032214
#
# number of rings (size 3 to 8) (size 9 to 14) (size 15 to 20)
#    0.000    1.000    8.000    1.800    0.000    0.400 
#    0.000    0.000    0.000    5.400    0.000    1.400 
#    0.000    0.000    0.000    0.000    0.000    0.000 
#
# Total GULP energy -247929.733437 kJ/mol
# GULP energy per Si atom -12396.486672 kJ/mol
# Density = 1.699345 g / cm^3
# Si number density = 17.032214 Si / 1000 Ang^3
#
#
#
# Elastic Constant Matrix: (Units=GPa)
#
#
# Indices 1 2 3 4 5 6 
#
# 1 122.7072 34.8002 68.1277 0.0000 -7.7464 0.0000
# 2 34.8002 70.3309 42.4649 0.0000 5.1377 0.0000
# 3 68.1277 42.4649 159.3021 0.0000 11.1190 0.0000
# 4 0.0000 0.0000 0.0000 18.7714 0.0000 3.2550
# 5 -7.7464 5.1377 11.1190 0.0000 45.0066 0.0000
# 6 0.0000 0.0000 0.0000 3.2550 0.0000 15.3695
#
#
#
# Elastic Compliance Matrix: (Units=1/GPa)
#
#
# Indices 1 2 3 4 5 6 
#
# 1 0.011767 -0.003447 -0.004357 0.000000 0.003495 0.000000
# 2 -0.003447 0.017986 -0.003191 0.000000 -0.001858 0.000000
# 3 -0.004357 -0.003191 0.009177 0.000000 -0.002653 0.000000
# 4 0.000000 0.000000 0.000000 0.055304 0.000000 -0.011712
# 5 0.003495 -0.001858 -0.002653 0.000000 0.023688 0.000000
# 6 0.000000 0.000000 0.000000 -0.011712 0.000000 0.067545
#
#
# Mechanical properties :
#
#
# Convention : Reuss Voigt Hill
#
# Bulk Modulus (GPa) = 59.03249 71.45844 65.24547
# Shear Modulus (GPa) = 23.46286 29.62598 26.54442
#
# Velocity S-wave (km/s) = 3.71557 4.17515 3.95205
# Velocity P-wave (km/s) = 7.28985 8.08012 7.69514
#
# Compressibility (1/GPa) = 0.01693982
#
# Stress axis : x y z
#
# Youngs Moduli (GPa) = 84.98406 55.59791 108.97218
#
# Poissons Ratio (x) = 0.19163 0.47484
# Poissons Ratio (y) = 0.29291 0.34771
# Poissons Ratio (z) = 0.37031 0.17741
#
# Static dielectric constant tensor:
#      x y z
#    x 3.381270 0.000000 0.031240 
#    y 0.000000 2.747090 0.000000 
#    z 0.031240 0.000000 3.711460 
# 
# 
# High freq. dielectric constant tensor:
#      x y z
#    x 1.684340 0.000000 0.002940 
#    y 0.000000 1.592860 0.000000 
#    z 0.002940 0.000000 1.674220 
# 
# From -- ./inp_files/48588.got.cif
#   From: 2010.06.25/outbox.cif.g09.slc.cpg/sg12_25_cif.got.tgz:48588.got - 2010.06.28 00:19:55.
