data_PCOD8113216
_publ_section_title
;
Structure prediction by ZEFSAII (Michael W. Deem and Ramdas Pophale) SiO2 
 PCOD8113216
Probable space group: C 2/M
;
_chemical_formula_sum "Si O2"
_cell_formula_units_Z 48
_cell_length_a 8.851260
_cell_length_b 17.726590
_cell_length_c 13.752024
_cell_angle_alpha 90.000000
_cell_angle_beta 68.903524
_cell_angle_gamma 90.000000
_cell_volume 2013.108768
_symmetry_space_group_name_H-M "C 2/M"
_symmetry_group_IT_number 12
_symmetry_cell_setting 'monoclinic'
loop_
_space_group_symop_operation_xyz
x,y,z
-x,y,-z
-x,-y,-z
x,-y,z
1/2+x,1/2+y,z
1/2-x,1/2+y,-z
1/2-x,1/2-y,-z
1/2+x,1/2-y,z
loop_
_atom_site_type_symbol
_atom_site_label
_atom_site_fract_x
_atom_site_fract_y
_atom_site_fract_z
Si Si1 0.316646 0.649635 0.614603
Si Si2 0.779224 0.500000 0.454924
Si Si3 0.669703 0.085437 0.838646
Si Si4 0.144410 0.500000 0.337528
Si Si5 0.710283 0.085914 0.045142
Si Si6 0.255693 0.655256 0.223358
Si Si7 0.048870 0.239895 0.668922
O O1 0.324208 0.573218 0.551280
O O2 0.244260 0.638972 0.740093
O O3 0.497787 0.683415 0.591408
O O4 0.197507 0.710678 0.592247
O O5 0.812371 0.500000 0.560069
O O6 0.951800 0.500000 0.360016
O O7 0.477089 0.089104 0.880864
O O8 0.728476 0.000000 0.805710
O O9 0.734848 0.113490 0.928835
O O10 0.221033 0.573272 0.273864
O O11 0.803576 0.141611 0.098733
O O12 0.772788 0.000000 0.041020
O O13 0.099917 0.707372 0.269801
O O14 0.404542 0.691973 0.246430
#
# Coordination Sequence:
#
# PCOD8113216 Si02
#       7
#     8   4   8   4   8   8   8
#     4  11  20  42  58  87 119 154 191 244 280 347
#     4  11  22  39  68  92 109 148 201 240 281 340
#     4   9  16  29  56  86 110 150 199 238 279 329
#     4  11  22  39  68  92 109 148 201 240 281 340
#     4   9  16  29  56  86 110 150 199 238 279 329
#     4  11  20  42  58  87 119 154 191 244 280 347
#     4  10  24  36  62  84 122 160 186 226 312 340
#
# _framework density 23.843719
#
# number of rings (size 3 to 8) (size 9 to 14) (size 15 to 20)
#    0.000    1.833    5.000    1.000    0.000    0.667 
#    0.000   12.500    0.000    2.000    0.000    0.000 
#    0.000    0.000    0.000    0.000    0.000    0.000 
#
# Total GULP energy -297614.438510 kJ/mol
# GULP energy per Si atom -12400.601605 kJ/mol
# Density = 2.378945 g / cm^3
# Si number density = 23.843719 Si / 1000 Ang^3
#
#
#
# Elastic Constant Matrix: (Units=GPa)
#
#
# Indices 1 2 3 4 5 6 
#
# 1 102.8336 55.8020 21.2193 0.0000 30.2243 0.0000
# 2 55.8020 139.2126 28.0100 0.0000 26.1209 0.0000
# 3 21.2193 28.0100 53.8306 0.0000 29.2412 0.0000
# 4 0.0000 0.0000 0.0000 69.1194 0.0000 52.6050
# 5 30.2243 26.1209 29.2412 0.0000 34.2321 0.0000
# 6 0.0000 0.0000 0.0000 52.6050 0.0000 61.6429
#
#
#
# Elastic Compliance Matrix: (Units=1/GPa)
#
#
# Indices 1 2 3 4 5 6 
#
# 1 0.015190 -0.004326 0.003275 0.000000 -0.012908 0.000000
# 2 -0.004326 0.009695 -0.002604 0.000000 -0.001355 0.000000
# 3 0.003275 -0.002604 0.035695 0.000000 -0.031396 0.000000
# 4 0.000000 0.000000 0.000000 0.041276 0.000000 -0.035224
# 5 -0.012908 -0.001355 -0.031396 0.000000 0.068461 0.000000
# 6 0.000000 0.000000 0.000000 -0.035224 0.000000 0.046282
#
#
# Mechanical properties :
#
#
# Convention : Reuss Voigt Hill
#
# Bulk Modulus (GPa) = 18.77185 56.21547 37.49366
# Shear Modulus (GPa) = 20.68975 45.72191 33.20583
#
# Velocity S-wave (km/s) = 2.94891 4.38375 3.73586
# Velocity P-wave (km/s) = 4.41415 7.01790 5.86241
#
# Compressibility (1/GPa) = 0.05327126
#
# Stress axis : x y z
#
# Youngs Moduli (GPa) = 65.83316 103.14374 28.01514
#
# Poissons Ratio (x) = 0.44616 -0.09175
# Poissons Ratio (y) = 0.28477 0.07295
# Poissons Ratio (z) = -0.21561 0.26857
#
# Static dielectric constant tensor:
#      x y z
#    x 4.241560 0.000000 0.429070 
#    y 0.000000 4.681660 0.000000 
#    z 0.429070 0.000000 4.459340 
# 
# 
# High freq. dielectric constant tensor:
#      x y z
#    x 1.928300 0.000000 0.025360 
#    y 0.000000 1.950220 0.000000 
#    z 0.025360 0.000000 1.952880 
# 
# From -- ./inp_files/196008.got.cif
#   From: 2010.06.25/outbox.cif.g09.slc.cpg/sg12_99_cif.got.tgz:196008.got - 2010.06.28 00:19:55.
