data_PCOD8113738
_publ_section_title
;
Structure prediction by ZEFSAII (Michael W. Deem and Ramdas Pophale) SiO2 
 PCOD8113738
Probable space group: C 2/M
;
_chemical_formula_sum "Si O2"
_cell_formula_units_Z 48
_cell_length_a 19.272229
_cell_length_b 16.460685
_cell_length_c 8.956130
_cell_angle_alpha 90.000000
_cell_angle_beta 60.159868
_cell_angle_gamma 90.000000
_cell_volume 2464.496700
_symmetry_space_group_name_H-M "C 2/M"
_symmetry_group_IT_number 12
_symmetry_cell_setting 'monoclinic'
loop_
_space_group_symop_operation_xyz
x,y,z
-x,y,-z
-x,-y,-z
x,-y,z
1/2+x,1/2+y,z
1/2-x,1/2+y,-z
1/2-x,1/2-y,-z
1/2+x,1/2-y,z
loop_
_atom_site_type_symbol
_atom_site_label
_atom_site_fract_x
_atom_site_fract_y
_atom_site_fract_z
Si Si1 0.940840 0.292253 0.204413
Si Si2 0.277638 0.271514 0.805556
Si Si3 0.951824 0.214686 0.687643
Si Si4 0.685918 0.655109 0.695456
Si Si5 0.207780 0.404220 0.685728
Si Si6 0.930164 0.910001 0.968421
O O1 0.889709 0.209608 0.272288
O O2 0.880045 0.368818 0.264215
O O3 0.999064 0.289133 0.287643
O O4 0.000000 0.295001 0.000000
O O5 0.371213 0.254782 0.698249
O O6 0.249204 0.212363 0.706399
O O7 0.243942 0.361014 0.795876
O O8 0.250000 0.250000 0.000000
O O9 0.924424 0.146996 0.833069
O O10 0.000000 0.174427 0.500000
O O11 0.727602 0.609450 0.514469
O O12 0.653057 0.590104 0.850730
O O13 0.198483 0.500000 0.727181
O O14 0.949239 0.000000 0.890629
O O15 0.000000 0.877154 0.000000
#
# Coordination Sequence:
#
# PCOD8113738 Si02
#       6
#     8   8   8   8   8   8
#     4  11  20  41  67  86 118 165 220 253 295 376
#     4  11  22  39  64  90 123 161 211 254 309 377
#     4  12  21  36  59  90 120 156 201 260 306 367
#     4  11  19  42  63  87 118 167 215 252 295 379
#     4  11  25  41  64  96 128 165 211 263 314 370
#     4  11  22  36  57  85 120 162 201 249 314 368
#
# _framework density 19.476593999999999
#
# number of rings (size 3 to 8) (size 9 to 14) (size 15 to 20)
#    0.000    0.833    5.000    5.500    0.000    1.333 
#    0.000    0.000    0.000    5.500    0.000    0.000 
#    0.000    0.000    0.000    0.000    0.000    0.000 
#
# Total GULP energy -297447.064875 kJ/mol
# GULP energy per Si atom -12393.627703 kJ/mol
# Density = 1.943226 g / cm^3
# Si number density = 19.476594 Si / 1000 Ang^3
#
#
#
# Elastic Constant Matrix: (Units=GPa)
#
#
# Indices 1 2 3 4 5 6 
#
# 1 130.7808 43.5216 25.8657 0.0000 -12.5043 0.0000
# 2 43.5216 98.6263 36.7834 0.0000 0.2017 0.0000
# 3 25.8657 36.7834 127.7359 0.0000 -9.8121 0.0000
# 4 0.0000 0.0000 0.0000 22.3753 0.0000 -3.2105
# 5 -12.5043 0.2017 -9.8121 0.0000 34.2753 0.0000
# 6 0.0000 0.0000 0.0000 -3.2105 0.0000 19.4956
#
#
#
# Elastic Compliance Matrix: (Units=1/GPa)
#
#
# Indices 1 2 3 4 5 6 
#
# 1 0.009379 -0.003957 -0.000506 0.000000 0.003300 0.000000
# 2 -0.003957 0.013064 -0.003147 0.000000 -0.002421 0.000000
# 3 -0.000506 -0.003147 0.009023 0.000000 0.002417 0.000000
# 4 0.000000 0.000000 0.000000 0.045774 0.000000 0.007538
# 5 0.003300 -0.002421 0.002417 0.000000 0.031086 0.000000
# 6 0.000000 0.000000 0.000000 0.007538 0.000000 0.052535
#
#
# Mechanical properties :
#
#
# Convention : Reuss Voigt Hill
#
# Bulk Modulus (GPa) = 61.55232 63.27604 62.41418
# Shear Modulus (GPa) = 27.54910 31.96072 29.75491
#
# Velocity S-wave (km/s) = 3.76503 4.05530 3.91285
# Velocity P-wave (km/s) = 7.11143 7.38146 7.24770
#
# Compressibility (1/GPa) = 0.01624634
#
# Stress axis : x y z
#
# Youngs Moduli (GPa) = 106.62461 76.54772 110.82831
#
# Poissons Ratio (x) = 0.30286 0.05611
# Poissons Ratio (y) = 0.42186 0.34874
# Poissons Ratio (z) = 0.05398 0.24087
#
# Static dielectric constant tensor:
#      x y z
#    x 3.474410 0.000000 0.050400 
#    y 0.000000 3.343850 0.000000 
#    z 0.050400 0.000000 3.662780 
# 
# 
# High freq. dielectric constant tensor:
#      x y z
#    x 1.771100 0.000000 -0.009390 
#    y 0.000000 1.726250 0.000000 
#    z -0.009390 0.000000 1.775560 
# 
# From -- ./inp_files/75075.got.cif
#   From: 2010.06.25/outbox.cif.g09.slc.cpg/sg12_38_cif.got.tgz:75075.got - 2010.06.28 00:19:55.
