data_PCOD8113735
_publ_section_title
;
Structure prediction by ZEFSAII (Michael W. Deem and Ramdas Pophale) SiO2 
 PCOD8113735
Probable space group: C 2/M
;
_chemical_formula_sum "Si O2"
_cell_formula_units_Z 64
_cell_length_a 16.901991
_cell_length_b 18.698883
_cell_length_c 19.640509
_cell_angle_alpha 90.000000
_cell_angle_beta 149.813614
_cell_angle_gamma 90.000000
_cell_volume 3121.146293
_symmetry_space_group_name_H-M "C 2/M"
_symmetry_group_IT_number 12
_symmetry_cell_setting 'monoclinic'
loop_
_space_group_symop_operation_xyz
x,y,z
-x,y,-z
-x,-y,-z
x,-y,z
1/2+x,1/2+y,z
1/2-x,1/2+y,-z
1/2-x,1/2-y,-z
1/2+x,1/2-y,z
loop_
_atom_site_type_symbol
_atom_site_label
_atom_site_fract_x
_atom_site_fract_y
_atom_site_fract_z
Si Si1 0.924229 0.188497 0.306532
Si Si2 0.087852 0.353351 0.254124
Si Si3 0.976631 0.666559 0.560354
Si Si4 0.379083 0.307836 0.671306
Si Si5 0.593361 0.195066 0.002405
Si Si6 0.392863 0.917311 0.217321
Si Si7 0.651012 0.314373 0.963479
Si Si8 0.835541 0.076680 0.347468
O O1 0.864869 0.117842 0.299564
O O2 0.952223 0.253641 0.379586
O O3 0.084595 0.180047 0.382073
O O4 0.781070 0.202066 0.148559
O O5 0.107721 0.276013 0.302461
O O6 0.249738 0.374674 0.339233
O O7 0.953423 0.357364 0.094829
O O8 0.046018 0.408813 0.283029
O O9 0.791839 0.661369 0.439993
O O10 0.000000 0.641302 0.500000
O O11 0.072463 0.614541 0.682186
O O12 0.517959 0.349390 0.815643
O O13 0.546483 0.275718 0.945230
O O14 0.500000 0.170400 0.000000
O O15 0.346634 0.000000 0.191170
O O16 0.255839 0.875318 0.075583
O O17 0.750000 0.250000 0.000000
O O18 0.000000 0.056857 0.500000
O O19 0.748545 0.000000 0.268418
#
# Coordination Sequence:
#
# PCOD8113735 Si02
#       8
#     8   8   8   8   8   8   8   8
#     4  12  20  39  63  96 131 169 219 267 324 387
#     4  11  20  41  63  94 127 175 219 266 321 394
#     4  12  26  42  65 100 126 168 226 287 332 385
#     4  11  22  38  72  98 126 162 227 282 318 377
#     4  11  20  34  66  97 127 157 209 269 318 369
#     4  12  25  43  68  93 130 177 218 269 344 407
#     4  11  19  41  66  94 125 163 216 273 317 381
#     4  11  25  39  55  86 136 179 213 259 323 405
#
# _framework density 20.505286999999999
#
# number of rings (size 3 to 8) (size 9 to 14) (size 15 to 20)
#    0.000    0.625    7.500    2.625    3.500    0.250 
#    0.000    4.375    0.000    2.625    0.000    0.000 
#    0.000    0.000    0.000    0.000    0.000    0.000 
#
# Total GULP energy -396531.522166 kJ/mol
# GULP energy per Si atom -12391.610068 kJ/mol
# Density = 2.045862 g / cm^3
# Si number density = 20.505287 Si / 1000 Ang^3
#
#
#
# Elastic Constant Matrix: (Units=GPa)
#
#
# Indices 1 2 3 4 5 6 
#
# 1 128.4075 41.3065 17.0720 -0.0058 -11.4442 0.0002
# 2 41.3065 94.4392 29.8531 0.0006 -10.2887 0.0031
# 3 17.0720 29.8531 84.5053 -0.0041 -1.8575 0.0032
# 4 -0.0058 0.0006 -0.0041 21.0576 -0.0025 -2.2803
# 5 -11.4442 -10.2887 -1.8575 -0.0025 36.9562 0.0021
# 6 0.0002 0.0031 0.0032 -2.2803 0.0021 19.7758
#
#
#
# Elastic Compliance Matrix: (Units=1/GPa)
#
#
# Indices 1 2 3 4 5 6 
#
# 1 0.009195 -0.003660 -0.000525 0.000003 0.001802 0.000001
# 2 -0.003660 0.013745 -0.004061 -0.000002 0.002489 -0.000002
# 3 -0.000525 -0.004061 0.013361 0.000002 -0.000622 -0.000001
# 4 0.000003 -0.000002 0.000002 0.048089 0.000003 0.005545
# 5 0.001802 0.002489 -0.000622 0.000003 0.028279 -0.000003
# 6 0.000001 -0.000002 -0.000001 0.005545 -0.000003 0.051206
#
#
# Mechanical properties :
#
#
# Convention : Reuss Voigt Hill
#
# Bulk Modulus (GPa) = 50.48431 53.75724 52.12078
# Shear Modulus (GPa) = 26.74220 30.16596 28.45408
#
# Velocity S-wave (km/s) = 3.61524 3.83969 3.72915
# Velocity P-wave (km/s) = 6.48846 6.77723 6.63442
#
# Compressibility (1/GPa) = 0.01980813
#
# Stress axis : x y z
#
# Youngs Moduli (GPa) = 108.75027 72.75626 74.84570
#
# Poissons Ratio (x) = 0.26626 0.03931
# Poissons Ratio (y) = 0.39798 0.30398
# Poissons Ratio (z) = 0.05712 0.29550
#
# Static dielectric constant tensor:
#      x y z
#    x 3.702870 -0.000020 0.064950 
#    y -0.000020 3.552860 -0.000050 
#    z 0.064950 -0.000050 3.880770 
# 
# 
# High freq. dielectric constant tensor:
#      x y z
#    x 1.813150 0.000000 -0.009660 
#    y 0.000000 1.757000 0.000000 
#    z -0.009660 0.000000 1.816920 
# 
# From -- ./inp_files/317390.got.cif
#   From: 2010.06.25/outbox.cif.g09.slc.cpg/sg12_159_cif.got.tgz:317390.got - 2010.06.28 00:19:55.
