data_PCOD8113314
_publ_section_title
;
Structure prediction by ZEFSAII (Michael W. Deem and Ramdas Pophale) SiO2 
 PCOD8113314
Probable space group: C 2/M
;
_chemical_formula_sum "Si O2"
_cell_formula_units_Z 32
_cell_length_a 17.357479
_cell_length_b 10.796495
_cell_length_c 22.941562
_cell_angle_alpha 90.000000
_cell_angle_beta 20.151145
_cell_angle_gamma 90.000000
_cell_volume 1481.081380
_symmetry_space_group_name_H-M "C 2/M"
_symmetry_group_IT_number 12
_symmetry_cell_setting 'monoclinic'
loop_
_space_group_symop_operation_xyz
x,y,z
-x,y,-z
-x,-y,-z
x,-y,z
1/2+x,1/2+y,z
1/2-x,1/2+y,-z
1/2-x,1/2-y,-z
1/2+x,1/2-y,z
loop_
_atom_site_type_symbol
_atom_site_label
_atom_site_fract_x
_atom_site_fract_y
_atom_site_fract_z
Si Si1 0.687905 0.139711 0.998990
Si Si2 0.702622 0.500000 0.776866
Si Si3 0.432025 0.243523 0.321021
Si Si4 0.683078 0.000000 0.172008
Si Si5 0.743075 0.749019 0.328647
O O1 0.864138 0.155029 0.819940
O O2 0.711290 0.000000 0.008043
O O3 0.750000 0.250000 0.000000
O O4 0.429831 0.163423 0.163546
O O5 0.827188 0.500000 0.750653
O O6 0.780340 0.379912 0.686795
O O7 0.436905 0.500000 0.971037
O O8 0.250000 0.250000 0.500000
O O9 0.552867 0.112847 0.236159
O O10 0.304143 0.268403 0.352206
O O11 0.500000 0.683025 0.500000
#
# Coordination Sequence:
#
# PCOD8113314 Si02
#       5
#     8   4   8   4   8
#     4  10  24  42  69  98 141 186 235 286 355 427
#     4  11  23  44  74 104 141 185 248 295 350 426
#     4  11  25  41  69  99 144 183 240 290 357 416
#     4  11  24  44  71 106 142 185 239 303 357 420
#     4  11  24  41  70 101 140 184 240 287 354 421
#
# _framework density 21.605834000000002
#
# number of rings (size 3 to 8) (size 9 to 14) (size 15 to 20)
#    0.000    1.250    2.500    1.875   15.750    0.500 
#    0.000    0.000    0.000    6.000    0.000    0.000 
#    0.000    0.000    0.000    0.000    0.000    0.000 
#
# Total GULP energy -198243.171263 kJ/mol
# GULP energy per Si atom -12390.198204 kJ/mol
# Density = 2.155666 g / cm^3
# Si number density = 21.605834 Si / 1000 Ang^3
#
#
#
# Elastic Constant Matrix: (Units=GPa)
#
#
# Indices 1 2 3 4 5 6 
#
# 1 74.5591 20.6228 36.0729 0.0149 2.3459 0.0311
# 2 20.6228 143.4221 42.7310 0.0243 -5.5813 0.0339
# 3 36.0729 42.7310 217.9340 -0.1328 -4.4464 -0.0668
# 4 0.0149 0.0243 -0.1328 -22.8910 0.0016 -57.1800
# 5 2.3459 -5.5813 -4.4464 0.0016 36.9915 -0.0105
# 6 0.0311 0.0339 -0.0668 -57.1800 -0.0105 -62.7423
#
#
#
# Elastic Compliance Matrix: (Units=1/GPa)
#
#
# Indices 1 2 3 4 5 6 
#
# 1 0.014951 -0.001551 -0.002200 0.000002 -0.001447 0.000008
# 2 -0.001551 0.007599 -0.001211 -0.000002 0.001099 0.000007
# 3 -0.002200 -0.001211 0.005202 0.000011 0.000582 -0.000018
# 4 0.000002 -0.000002 0.000011 0.034223 -0.000009 -0.031189
# 5 -0.001447 0.001099 0.000582 -0.000009 0.027361 0.000003
# 6 0.000008 0.000007 -0.000018 -0.031189 0.000003 0.012486
#
#
# Mechanical properties :
#
#
# Convention : Reuss Voigt Hill
#
# Bulk Modulus (GPa) = 56.08934 70.52984 63.30959
# Shear Modulus (GPa) = 42.48500 12.70419 27.59460
#
# Velocity S-wave (km/s) = 4.43918 2.42750 3.57765
# Velocity P-wave (km/s) = 7.23131 6.36960 6.81409
#
# Compressibility (1/GPa) = 0.01782870
#
# Stress axis : x y z
#
# Youngs Moduli (GPa) = 66.88479 131.59746 192.23288
#
# Poissons Ratio (x) = 0.20405 0.42295
# Poissons Ratio (y) = 0.10371 0.23277
# Poissons Ratio (z) = 0.14716 0.15935
#
# Static dielectric constant tensor:
#      x y z
#    x 3.633680 0.000000 -0.170450 
#    y 0.000000 3.884450 0.000950 
#    z -0.170450 0.000950 4.753790 
# 
# 
# High freq. dielectric constant tensor:
#      x y z
#    x 1.819860 0.000000 -0.001220 
#    y 0.000000 1.838490 0.000020 
#    z -0.001220 0.000020 1.889740 
# 
# From -- ./inp_files/343242.got.cif
#   From: 2010.06.25/outbox.cif.g09.slc.cpg/sg12_172_cif.got.tgz:343242.got - 2010.06.28 00:19:55.
