data_PCOD8113269
_publ_section_title
;
Structure prediction by ZEFSAII (Michael W. Deem and Ramdas Pophale) SiO2 
 PCOD8113269
Probable space group: C 2/M
;
_chemical_formula_sum "Si O2"
_cell_formula_units_Z 52
_cell_length_a 8.798855
_cell_length_b 17.326580
_cell_length_c 22.058661
_cell_angle_alpha 90.000000
_cell_angle_beta 132.166217
_cell_angle_gamma 90.000000
_cell_volume 2492.607382
_symmetry_space_group_name_H-M "C 2/M"
_symmetry_group_IT_number 12
_symmetry_cell_setting 'monoclinic'
loop_
_space_group_symop_operation_xyz
x,y,z
-x,y,-z
-x,-y,-z
x,-y,z
1/2+x,1/2+y,z
1/2-x,1/2+y,-z
1/2-x,1/2-y,-z
1/2+x,1/2-y,z
loop_
_atom_site_type_symbol
_atom_site_label
_atom_site_fract_x
_atom_site_fract_y
_atom_site_fract_z
Si Si1 0.954289 0.411955 0.375826
Si Si2 0.982923 0.911848 0.685482
Si Si3 0.393202 0.408592 0.531275
Si Si4 0.213909 0.343749 0.783965
Si Si5 0.267054 0.000000 0.007217
Si Si6 0.871501 0.193289 0.170694
Si Si7 0.805053 0.000000 0.870536
Si Si8 0.000000 0.371796 0.000000
O O1 0.980386 0.500000 0.359049
O O2 0.758234 0.406203 0.366119
O O3 0.929277 0.353519 0.313025
O O4 0.153800 0.385311 0.466625
O O5 0.005141 0.878599 0.622717
O O6 0.118543 0.863735 0.768903
O O7 0.059626 0.000000 0.711603
O O8 0.500000 0.373058 0.500000
O O9 0.416283 0.500000 0.538072
O O10 0.117829 0.280378 0.802518
O O11 0.443672 0.320797 0.826189
O O12 0.205075 0.424326 0.816142
O O13 0.240076 0.000000 0.071119
O O14 0.385985 0.076234 0.018959
O O15 0.044382 0.000000 0.916660
O O16 0.659544 0.182077 0.078178
#
# Coordination Sequence:
#
# PCOD8113269 Si02
#       8
#     8   8   8   8   4   8   4   4
#     4   9  17  34  62  86 118 166 211 253 302 380
#     4   9  19  36  60  87 120 168 211 254 314 381
#     4   9  17  31  53  91 127 156 201 261 314 370
#     4  11  24  43  64  95 130 170 215 262 320 376
#     4  10  24  40  72  96 122 160 224 263 317 383
#     4  11  26  41  64  91 135 166 215 267 324 378
#     4  11  22  46  68  96 124 168 215 268 315 384
#     4  11  24  44  64  99 130 168 210 267 326 372
#
# _framework density 20.861691
#
# number of rings (size 3 to 8) (size 9 to 14) (size 15 to 20)
#    0.000    2.000    2.308    0.462    5.385    4.923 
#    0.000    0.769    0.000    0.000    0.000    0.000 
#    0.000    0.000    0.000    0.000    0.000    0.000 
#
# Total GULP energy -322402.837410 kJ/mol
# GULP energy per Si atom -12400.109131 kJ/mol
# Density = 2.081421 g / cm^3
# Si number density = 20.861691 Si / 1000 Ang^3
#
#
#
# Elastic Constant Matrix: (Units=GPa)
#
#
# Indices 1 2 3 4 5 6 
#
# 1 57.3653 19.6418 22.2717 0.0000 -10.1050 0.0000
# 2 19.6418 99.9408 31.8020 0.0000 -9.3124 0.0000
# 3 22.2717 31.8020 112.4892 0.0001 -3.0014 0.0000
# 4 0.0000 0.0000 0.0001 16.7076 0.0000 -4.3532
# 5 -10.1050 -9.3124 -3.0014 0.0000 26.6882 0.0000
# 6 0.0000 0.0000 0.0000 -4.3532 0.0000 11.3333
#
#
#
# Elastic Compliance Matrix: (Units=1/GPa)
#
#
# Indices 1 2 3 4 5 6 
#
# 1 0.020683 -0.002418 -0.003235 0.000000 0.006624 0.000000
# 2 -0.002418 0.011613 -0.002729 0.000000 0.002830 0.000000
# 3 -0.003235 -0.002729 0.010274 0.000000 -0.001021 0.000000
# 4 0.000000 0.000000 0.000000 0.066509 0.000000 0.025546
# 5 0.006624 0.002830 -0.001021 0.000000 0.040850 0.000000
# 6 0.000000 0.000000 0.000000 0.025546 0.000000 0.098048
#
#
# Mechanical properties :
#
#
# Convention : Reuss Voigt Hill
#
# Bulk Modulus (GPa) = 38.74962 46.35847 42.55405
# Shear Modulus (GPa) = 18.29199 24.01780 21.15490
#
# Velocity S-wave (km/s) = 2.96433 3.39674 3.18788
# Velocity P-wave (km/s) = 5.50738 6.13628 5.83031
#
# Compressibility (1/GPa) = 0.02580670
#
# Stress axis : x y z
#
# Youngs Moduli (GPa) = 48.34947 86.10853 97.32950
#
# Poissons Ratio (x) = 0.20825 0.31481
# Poissons Ratio (y) = 0.11693 0.26560
# Poissons Ratio (z) = 0.15639 0.23498
#
# Static dielectric constant tensor:
#      x y z
#    x 3.823670 0.000000 -0.100000 
#    y 0.000000 3.513400 0.000000 
#    z -0.100000 0.000000 3.888240 
# 
# 
# High freq. dielectric constant tensor:
#      x y z
#    x 1.815380 0.000000 -0.006730 
#    y 0.000000 1.790750 0.000000 
#    z -0.006730 0.000000 1.827360 
# 
# From -- ./inp_files/301215.got.cif
#   From: 2010.06.25/outbox.cif.g09.slc.cpg/sg12_151_cif.got.tgz:301215.got - 2010.06.28 00:19:55.
