data_PCOD8113213
_publ_section_title
;
Structure prediction by ZEFSAII (Michael W. Deem and Ramdas Pophale) SiO2 
 PCOD8113213
Probable space group: C 2/M
;
_chemical_formula_sum "Si O2"
_cell_formula_units_Z 44
_cell_length_a 11.194428
_cell_length_b 26.622489
_cell_length_c 14.956470
_cell_angle_alpha 90.000000
_cell_angle_beta 150.326055
_cell_angle_gamma 90.000000
_cell_volume 2206.686678
_symmetry_space_group_name_H-M "C 2/M"
_symmetry_group_IT_number 12
_symmetry_cell_setting 'monoclinic'
loop_
_space_group_symop_operation_xyz
x,y,z
-x,y,-z
-x,-y,-z
x,-y,z
1/2+x,1/2+y,z
1/2-x,1/2+y,-z
1/2-x,1/2-y,-z
1/2+x,1/2-y,z
loop_
_atom_site_type_symbol
_atom_site_label
_atom_site_fract_x
_atom_site_fract_y
_atom_site_fract_z
Si Si1 0.221454 0.699067 0.298982
Si Si2 0.881273 0.894790 0.115923
Si Si3 0.079717 0.633283 0.760623
Si Si4 0.000000 0.640020 0.000000
Si Si5 0.237515 0.185714 0.289251
Si Si6 0.167527 0.556738 0.526443
O O1 0.500000 0.691267 0.500000
O O2 0.152981 0.757110 0.242300
O O3 0.064262 0.674556 0.275562
O O4 0.169542 0.673884 0.171143
O O5 0.672543 0.894834 0.053723
O O6 0.040935 0.843981 0.219981
O O7 0.058395 0.940054 0.258589
O O8 0.756438 0.900515 0.937565
O O9 0.249073 0.664493 0.802955
O O10 0.890975 0.595074 0.591828
O O11 0.500000 0.177604 0.500000
O O12 0.120172 0.500000 0.462656
O O13 0.000000 0.571862 0.500000
#
# Coordination Sequence:
#
# PCOD8113213 Si02
#       6
#     8   8   8   4   8   8
#     4  10  24  36  58  88 126 170 205 245 288 361
#     4  11  22  40  61  87 125 162 199 256 295 363
#     4  11  22  39  61  91 126 162 203 245 306 360
#     4  10  24  38  59  86 124 166 209 236 300 356
#     4  11  22  36  60  88 123 168 203 246 297 353
#     4  11  23  42  67  93 119 152 201 262 319 358
#
# _framework density 19.939395999999999
#
# number of rings (size 3 to 8) (size 9 to 14) (size 15 to 20)
#    0.000    1.273    3.636    1.636    5.091    3.636 
#    0.000    2.273    0.000   10.364    0.000    0.000 
#    0.000    0.000    0.000    0.000    0.000    0.000 
#
# Total GULP energy -272791.206423 kJ/mol
# GULP energy per Si atom -12399.600292 kJ/mol
# Density = 1.989401 g / cm^3
# Si number density = 19.939396 Si / 1000 Ang^3
#
#
#
# Elastic Constant Matrix: (Units=GPa)
#
#
# Indices 1 2 3 4 5 6 
#
# 1 107.6137 31.1104 31.1253 0.0000 -6.4368 0.0000
# 2 31.1104 85.7905 26.8018 0.0001 -13.4264 0.0000
# 3 31.1253 26.8018 100.9236 0.0005 -7.5129 0.0001
# 4 0.0000 0.0001 0.0005 24.7306 -0.0001 3.3007
# 5 -6.4368 -13.4264 -7.5129 -0.0001 32.7969 0.0000
# 6 0.0000 0.0000 0.0001 3.3007 0.0000 14.3807
#
#
#
# Elastic Compliance Matrix: (Units=1/GPa)
#
#
# Indices 1 2 3 4 5 6 
#
# 1 0.010946 -0.003137 -0.002521 0.000000 0.000287 0.000000
# 2 -0.003137 0.014300 -0.002483 0.000000 0.004670 0.000000
# 3 -0.002521 -0.002483 0.011428 0.000000 0.001107 0.000000
# 4 0.000000 0.000000 0.000000 0.041714 0.000000 -0.009574
# 5 0.000287 0.004670 0.001107 0.000000 0.032712 0.000000
# 6 0.000000 0.000000 0.000000 -0.009574 0.000000 0.071735
#
#
# Mechanical properties :
#
#
# Convention : Reuss Voigt Hill
#
# Bulk Modulus (GPa) = 49.03823 52.48921 50.76372
# Shear Modulus (GPa) = 24.28208 28.06767 26.17487
#
# Velocity S-wave (km/s) = 3.49348 3.75593 3.62708
# Velocity P-wave (km/s) = 6.39684 6.72242 6.56165
#
# Compressibility (1/GPa) = 0.02039225
#
# Stress axis : x y z
#
# Youngs Moduli (GPa) = 91.36001 69.92895 87.50617
#
# Poissons Ratio (x) = 0.21935 0.22064
# Poissons Ratio (y) = 0.28657 0.21725
# Poissons Ratio (z) = 0.23035 0.17361
#
# Static dielectric constant tensor:
#      x y z
#    x 3.580740 0.000000 -0.054580 
#    y 0.000000 3.441100 0.000000 
#    z -0.054580 0.000000 3.886360 
# 
# 
# High freq. dielectric constant tensor:
#      x y z
#    x 1.777370 0.000000 -0.000050 
#    y 0.000000 1.758080 0.000000 
#    z -0.000050 0.000000 1.799220 
# 
# From -- ./inp_files/209214.got.cif
#   From: 2010.06.25/outbox.cif.g09.slc.cpg/sg12_105_cif.got.tgz:209214.got - 2010.06.28 00:19:55.
