data_PCOD8113118
_publ_section_title
;
Structure prediction by ZEFSAII (Michael W. Deem and Ramdas Pophale) SiO2 
 PCOD8113118
Probable space group: C 2/M
;
_chemical_formula_sum "Si O2"
_cell_formula_units_Z 64
_cell_length_a 26.542784
_cell_length_b 8.569934
_cell_length_c 13.575472
_cell_angle_alpha 90.000000
_cell_angle_beta 107.451862
_cell_angle_gamma 90.000000
_cell_volume 2945.867897
_symmetry_space_group_name_H-M "C 2/M"
_symmetry_group_IT_number 12
_symmetry_cell_setting 'monoclinic'
loop_
_space_group_symop_operation_xyz
x,y,z
-x,y,-z
-x,-y,-z
x,-y,z
1/2+x,1/2+y,z
1/2-x,1/2+y,-z
1/2-x,1/2-y,-z
1/2+x,1/2-y,z
loop_
_atom_site_type_symbol
_atom_site_label
_atom_site_fract_x
_atom_site_fract_y
_atom_site_fract_z
Si Si1 0.805595 0.185723 0.061958
Si Si2 0.383979 0.180275 0.961416
Si Si3 0.534413 0.683370 0.609417
Si Si4 0.482879 0.330813 0.097271
Si Si5 0.844812 0.184299 0.303138
Si Si6 0.545022 0.821514 0.286234
Si Si7 0.358267 0.681842 0.738743
Si Si8 0.743889 0.815723 0.605665
O O1 0.822441 0.232448 0.183027
O O2 0.812155 0.000000 0.049004
O O3 0.750000 0.250000 0.000000
O O4 0.834245 0.289579 0.998563
O O5 0.379495 0.277400 0.858606
O O6 0.390593 0.000000 0.936649
O O7 0.428602 0.238810 0.062471
O O8 0.500000 0.756831 0.500000
O O9 0.538895 0.500000 0.599476
O O10 0.594702 0.749961 0.649212
O O11 0.500061 0.724411 0.684256
O O12 0.477238 0.500000 0.150319
O O13 0.527417 0.213130 0.164336
O O14 0.500000 0.374561 0.000000
O O15 0.807268 0.251279 0.367012
O O16 0.844781 0.000000 0.315193
O O17 0.605794 0.762385 0.326762
O O18 0.542530 0.000000 0.316779
O O19 0.364513 0.500000 0.723715
O O20 0.297405 0.735178 0.693995
O O21 0.750000 0.750000 0.500000
O O22 0.738214 0.000000 0.596676
#
# Coordination Sequence:
#
# PCOD8113118 Si02
#       8
#     8   8   8   8   8   8   8   8
#     4  11  23  40  64  93 131 176 221 267 324 389
#     4  12  24  38  62  96 133 170 215 270 324 382
#     4  10  23  44  70  96 128 174 222 268 327 402
#     4  11  22  38  61  88 125 173 215 256 311 382
#     4  10  23  44  68  96 130 170 218 271 324 388
#     4  12  25  40  64  98 135 171 216 277 331 384
#     4  11  24  43  65  93 130 175 221 266 323 398
#     4  11  26  45  70  97 127 167 213 269 330 390
#
# _framework density 21.725346999999999
#
# number of rings (size 3 to 8) (size 9 to 14) (size 15 to 20)
#    0.000    1.000    1.250    5.250    1.750    7.250 
#    0.000    0.000    0.000    0.000    0.000    0.000 
#    0.000    0.000    0.000    0.000    0.000    0.000 
#
# Total GULP energy -396540.077004 kJ/mol
# GULP energy per Si atom -12391.877406 kJ/mol
# Density = 2.167590 g / cm^3
# Si number density = 21.725347 Si / 1000 Ang^3
#
#
#
# Elastic Constant Matrix: (Units=GPa)
#
#
# Indices 1 2 3 4 5 6 
#
# 1 179.7262 25.5729 49.7041 0.0000 7.1881 0.0000
# 2 25.5729 56.2288 21.3255 0.0000 9.9088 0.0000
# 3 49.7041 21.3255 95.5786 0.0000 9.8229 0.0000
# 4 0.0000 0.0000 0.0000 26.9473 0.0000 -0.6712
# 5 7.1881 9.9088 9.8229 0.0000 38.3119 0.0000
# 6 0.0000 0.0000 0.0000 -0.6712 0.0000 40.5267
#
#
#
# Elastic Compliance Matrix: (Units=1/GPa)
#
#
# Indices 1 2 3 4 5 6 
#
# 1 0.006675 -0.001881 -0.003054 0.000000 0.000017 0.000000
# 2 -0.001881 0.020580 -0.003187 0.000000 -0.004153 0.000000
# 3 -0.003054 -0.003187 0.012960 0.000000 -0.001926 0.000000
# 4 0.000000 0.000000 0.000000 0.037125 0.000000 0.000615
# 5 0.000017 -0.004153 -0.001926 0.000000 0.027666 0.000000
# 6 0.000000 0.000000 0.000000 0.000615 0.000000 0.024685
#
#
# Mechanical properties :
#
#
# Convention : Reuss Voigt Hill
#
# Bulk Modulus (GPa) = 41.71434 58.30428 50.00931
# Shear Modulus (GPa) = 32.48331 36.81926 34.65129
#
# Velocity S-wave (km/s) = 3.87095 4.12121 3.99804
# Velocity P-wave (km/s) = 6.26270 7.03854 6.66193
#
# Compressibility (1/GPa) = 0.02397257
#
# Stress axis : x y z
#
# Youngs Moduli (GPa) = 149.80298 48.58988 77.16345
#
# Poissons Ratio (x) = 0.09139 0.23562
# Poissons Ratio (y) = 0.28176 0.24592
# Poissons Ratio (z) = 0.45743 0.15486
#
# Static dielectric constant tensor:
#      x y z
#    x 3.992290 0.000000 0.880190 
#    y 0.000000 3.797450 0.000000 
#    z 0.880190 0.000000 2.571640 
# 
# 
# High freq. dielectric constant tensor:
#      x y z
#    x 1.879550 0.000000 0.004690 
#    y 0.000000 1.848180 0.000000 
#    z 0.004690 0.000000 1.852150 
# 
# From -- ./inp_files/244128.got.cif
#   From: 2010.06.25/outbox.cif.g09.slc.cpg/sg12_123_cif.got.tgz:244128.got - 2010.06.28 00:19:55.
