data_PCOD8113644
_publ_section_title
;
Structure prediction by ZEFSAII (Michael W. Deem and Ramdas Pophale) SiO2 
 PCOD8113644
Probable space group: C 2/M
;
_chemical_formula_sum "Si O2"
_cell_formula_units_Z 56
_cell_length_a 16.490125
_cell_length_b 14.371894
_cell_length_c 18.790040
_cell_angle_alpha 90.000000
_cell_angle_beta 52.513551
_cell_angle_gamma 90.000000
_cell_volume 3533.548925
_symmetry_space_group_name_H-M "C 2/M"
_symmetry_group_IT_number 12
_symmetry_cell_setting 'monoclinic'
loop_
_space_group_symop_operation_xyz
x,y,z
-x,y,-z
-x,-y,-z
x,-y,z
1/2+x,1/2+y,z
1/2-x,1/2+y,-z
1/2-x,1/2-y,-z
1/2+x,1/2-y,z
loop_
_atom_site_type_symbol
_atom_site_label
_atom_site_fract_x
_atom_site_fract_y
_atom_site_fract_z
Si Si1 0.575569 0.610375 0.399994
Si Si2 0.941809 0.220817 0.193610
Si Si3 0.728269 0.100863 0.879549
Si Si4 0.845962 0.239733 0.997872
Si Si5 0.386776 0.604375 0.091427
Si Si6 0.542221 0.390552 0.259111
Si Si7 0.802676 0.604373 0.270322
O O1 0.500000 0.652547 0.500000
O O2 0.568256 0.500000 0.400637
O O3 0.540615 0.647917 0.341093
O O4 0.691928 0.637483 0.359246
O O5 0.876484 0.161354 0.170989
O O6 0.887088 0.317809 0.244202
O O7 0.051427 0.238681 0.101270
O O8 0.956922 0.162755 0.258228
O O9 0.845582 0.129597 0.833809
O O10 0.710701 0.096438 0.805933
O O11 0.707734 0.000000 0.924618
O O12 0.646010 0.169922 0.956593
O O13 0.750000 0.250000 0.000000
O O14 0.823045 0.152248 0.062041
O O15 0.346052 0.500000 0.126699
O O16 0.500000 0.603066 0.000000
O O17 0.517551 0.500000 0.269070
O O18 0.832699 0.500000 0.283364
#
# Coordination Sequence:
#
# PCOD8113644 Si02
#       7
#     8   8   8   8   8   8   8
#     4   8  15  31  54  74  91 114 148 190 233 280
#     4  11  19  29  47  65  98 124 150 195 230 274
#     4   9  17  31  46  62  87 121 163 199 226 261
#     4  11  20  30  43  63  88 125 168 195 222 263
#     4   9  19  32  44  61  86 120 159 198 235 260
#     4   9  17  29  48  71  90 118 155 192 232 268
#     4   9  18  31  48  69  94 122 149 187 239 282
#
# _framework density 15.848089
#
# number of rings (size 3 to 8) (size 9 to 14) (size 15 to 20)
#    0.000    2.571    2.857    2.143    0.000    1.714 
#    0.000    2.143    0.000    0.000    0.000    0.000 
#    0.000    2.857    0.000    0.000    0.000    0.000 
#
# Total GULP energy -346966.672549 kJ/mol
# GULP energy per Si atom -12391.666877 kJ/mol
# Density = 1.581202 g / cm^3
# Si number density = 15.848089 Si / 1000 Ang^3
#
#
#
# Elastic Constant Matrix: (Units=GPa)
#
#
# Indices 1 2 3 4 5 6 
#
# 1 79.7867 42.2216 23.8972 0.0000 5.0402 0.0000
# 2 42.2216 94.6381 34.6511 0.0000 0.4204 0.0000
# 3 23.8972 34.6511 69.7667 0.0000 -2.1914 0.0000
# 4 0.0000 0.0000 0.0000 13.4522 0.0000 2.8317
# 5 5.0402 0.4204 -2.1914 0.0000 12.8178 0.0000
# 6 0.0000 0.0000 0.0000 2.8317 0.0000 26.4045
#
#
#
# Elastic Compliance Matrix: (Units=1/GPa)
#
#
# Indices 1 2 3 4 5 6 
#
# 1 0.017368 -0.006670 -0.002859 0.000000 -0.007100 0.000000
# 2 -0.006670 0.015507 -0.005380 0.000000 0.001195 0.000000
# 3 -0.002859 -0.005380 0.018123 0.000000 0.004399 0.000000
# 4 0.000000 0.000000 0.000000 0.076054 0.000000 -0.008156
# 5 -0.007100 0.001195 0.004399 0.000000 0.081521 0.000000
# 6 0.000000 0.000000 0.000000 -0.008156 0.000000 0.038747
#
#
# Mechanical properties :
#
#
# Convention : Reuss Voigt Hill
#
# Bulk Modulus (GPa) = 47.21452 49.52574 48.37013
# Shear Modulus (GPa) = 17.59338 20.09632 18.84485
#
# Velocity S-wave (km/s) = 3.33547 3.56485 3.45206
# Velocity P-wave (km/s) = 6.68509 6.94711 6.81736
#
# Compressibility (1/GPa) = 0.02117993
#
# Stress axis : x y z
#
# Youngs Moduli (GPa) = 57.57730 64.48821 55.17891
#
# Poissons Ratio (x) = 0.43014 0.15777
# Poissons Ratio (y) = 0.38405 0.29684
# Poissons Ratio (z) = 0.16463 0.34692
#
# Static dielectric constant tensor:
#      x y z
#    x 3.034660 0.000000 -0.092980 
#    y 0.000000 1.456690 0.000000 
#    z -0.092980 0.000000 3.441490 
# 
# 
# High freq. dielectric constant tensor:
#      x y z
#    x 1.596530 0.000000 0.010460 
#    y 0.000000 1.600200 0.000000 
#    z 0.010460 0.000000 1.582360 
# 
# From -- ./inp_files/224265.got.cif
#   From: 2010.06.25/outbox.cif.g09.slc.cpg/sg12_113_cif.got.tgz:224265.got - 2010.06.28 00:19:55.
