data_PCOD8113154
_publ_section_title
;
Structure prediction by ZEFSAII (Michael W. Deem and Ramdas Pophale) SiO2 
 PCOD8113154
Probable space group: C 2/M
;
_chemical_formula_sum "Si O2"
_cell_formula_units_Z 32
_cell_length_a 16.465285
_cell_length_b 19.144415
_cell_length_c 9.079874
_cell_angle_alpha 90.000000
_cell_angle_beta 156.695862
_cell_angle_gamma 90.000000
_cell_volume 1132.297238
_symmetry_space_group_name_H-M "C 2/M"
_symmetry_group_IT_number 12
_symmetry_cell_setting 'monoclinic'
loop_
_space_group_symop_operation_xyz
x,y,z
-x,y,-z
-x,-y,-z
x,-y,z
1/2+x,1/2+y,z
1/2-x,1/2+y,-z
1/2-x,1/2-y,-z
1/2+x,1/2-y,z
loop_
_atom_site_type_symbol
_atom_site_label
_atom_site_fract_x
_atom_site_fract_y
_atom_site_fract_z
Si Si1 0.288842 0.500000 0.443309
Si Si2 0.717018 0.860103 0.813520
Si Si3 0.725297 0.360998 0.765434
Si Si4 0.382988 0.762584 0.578917
Si Si5 0.757765 0.500000 0.308573
O O1 0.249169 0.433282 0.276682
O O2 0.159117 0.500000 0.381565
O O3 0.515116 0.500000 0.885703
O O4 0.500000 0.826544 0.500000
O O5 0.789444 0.800309 0.817596
O O6 0.658750 0.931582 0.633050
O O7 0.842406 0.873882 0.175597
O O8 0.556550 0.312681 0.397412
O O9 0.936404 0.318172 0.097578
O O10 0.250000 0.750000 0.500000
#
# Coordination Sequence:
#
# PCOD8113154 Si02
#       5
#     4   8   8   8   4
#     4  11  27  48  75 110 147 198 244 314 368 443
#     4  10  23  44  72 111 149 194 242 312 366 436
#     4  11  25  47  74 108 151 191 248 298 377 434
#     4  11  24  44  72 107 148 193 243 301 363 439
#     4  11  24  46  76 106 152 188 258 301 373 442
#
# _framework density 28.261129
#
# number of rings (size 3 to 8) (size 9 to 14) (size 15 to 20)
#    0.000    1.250    0.000    4.125    3.500    7.000 
#    0.000    7.500    0.000    0.000    0.000    0.000 
#    0.000    0.000    0.000    0.000    0.000    0.000 
#
# Total GULP energy -198321.034856 kJ/mol
# GULP energy per Si atom -12395.064678 kJ/mol
# Density = 2.819681 g / cm^3
# Si number density = 28.261129 Si / 1000 Ang^3
#
#
#
# Elastic Constant Matrix: (Units=GPa)
#
#
# Indices 1 2 3 4 5 6 
#
# 1 217.2756 105.5921 58.5802 0.0000 -68.1161 0.0000
# 2 105.5921 263.3355 55.0329 0.0000 -49.4466 0.0000
# 3 58.5802 55.0329 117.3938 0.0001 -50.4007 0.0000
# 4 0.0000 0.0000 0.0001 -344.9691 0.0001 4.4252
# 5 -68.1161 -49.4466 -50.4007 0.0001 53.7442 0.0000
# 6 0.0000 0.0000 0.0000 4.4252 0.0000 60.7338
#
#
#
# Elastic Compliance Matrix: (Units=1/GPa)
#
#
# Indices 1 2 3 4 5 6 
#
# 1 0.008211 -0.001651 0.000824 0.000000 0.009661 0.000000
# 2 -0.001651 0.004945 -0.000736 0.000000 0.001768 0.000000
# 3 0.000824 -0.000736 0.014413 0.000000 0.013884 0.000000
# 4 0.000000 0.000000 0.000000 -0.002896 0.000000 0.000211
# 5 0.009661 0.001768 0.013884 0.000000 0.045498 0.000000
# 6 0.000000 0.000000 0.000000 0.000211 0.000000 0.016450
#
#
# Mechanical properties :
#
#
# Convention : Reuss Voigt Hill
#
# Bulk Modulus (GPa) = 40.90825 115.15726 78.03275
# Shear Modulus (GPa) = 51.07617 -20.84491 15.11563
#
# Velocity S-wave (km/s) = 4.25584 -2.71879 2.31520
# Velocity P-wave (km/s) = 6.21740 5.56599 5.90069
#
# Compressibility (1/GPa) = 0.02444495
#
# Stress axis : x y z
#
# Youngs Moduli (GPa) = 121.78389 202.22620 69.38357
#
# Poissons Ratio (x) = 0.33381 -0.05719
# Poissons Ratio (y) = 0.20103 0.05103
# Poissons Ratio (z) = -0.10038 0.14874
#
# Static dielectric constant tensor:
#      x y z
#    x 5.342440 0.000000 -0.675110 
#    y 0.000000 5.333220 0.000000 
#    z -0.675110 0.000000 6.709400 
# 
# 
# High freq. dielectric constant tensor:
#      x y z
#    x 2.159700 0.000000 -0.007380 
#    y 0.000000 2.152820 0.000000 
#    z -0.007380 0.000000 2.210000 
# 
# From -- ./inp_files/77861.got.cif
#   From: 2010.06.25/outbox.cif.g09.slc.cpg/sg12_39_cif.got.tgz:77861.got - 2010.06.28 00:19:55.
