data_PCOD8113278
_publ_section_title
;
Structure prediction by ZEFSAII (Michael W. Deem and Ramdas Pophale) SiO2 
 PCOD8113278
Probable space group: C 2/M
;
_chemical_formula_sum "Si O2"
_cell_formula_units_Z 36
_cell_length_a 20.275357
_cell_length_b 13.866341
_cell_length_c 8.862979
_cell_angle_alpha 90.000000
_cell_angle_beta 140.248514
_cell_angle_gamma 90.000000
_cell_volume 1593.392509
_symmetry_space_group_name_H-M "C 2/M"
_symmetry_group_IT_number 12
_symmetry_cell_setting 'monoclinic'
loop_
_space_group_symop_operation_xyz
x,y,z
-x,y,-z
-x,-y,-z
x,-y,z
1/2+x,1/2+y,z
1/2-x,1/2+y,-z
1/2-x,1/2-y,-z
1/2+x,1/2-y,z
loop_
_atom_site_type_symbol
_atom_site_label
_atom_site_fract_x
_atom_site_fract_y
_atom_site_fract_z
Si Si1 0.382689 0.815428 0.620764
Si Si2 0.958210 0.796606 0.256993
Si Si3 0.197799 0.695192 0.204017
Si Si4 0.770142 0.500000 0.856081
Si Si5 0.989402 0.500000 0.660432
Si Si6 0.403907 0.500000 0.218595
O O1 0.450373 0.722094 0.699451
O O2 0.267009 0.788201 0.364444
O O3 0.381512 0.829497 0.799042
O O4 0.426125 0.907775 0.608423
O O5 0.000000 0.782415 0.500000
O O6 0.914518 0.902643 0.141133
O O7 0.867168 0.719695 0.061935
O O8 0.264320 0.598134 0.289936
O O9 0.709498 0.500000 0.906692
O O10 0.894086 0.500000 0.075833
O O11 0.000000 0.500000 0.500000
O O12 0.500000 0.500000 0.500000
#
# Coordination Sequence:
#
# PCOD8113278 Si02
#       6
#     8   8   8   4   4   4
#     4  11  25  45  66 101 139 179 228 278 347 410
#     4  11  23  42  67  96 135 177 227 287 335 407
#     4  11  25  43  71  97 137 183 225 281 344 416
#     4  12  25  42  72  98 134 183 225 279 353 395
#     4  12  27  43  70 107 137 174 233 291 337 405
#     4  10  24  41  63  99 135 176 224 280 342 407
#
# _framework density 22.593304
#
# number of rings (size 3 to 8) (size 9 to 14) (size 15 to 20)
#    0.000    0.889    2.222    4.667    3.111    2.667 
#    0.000    4.444    0.000    0.000    0.000    0.000 
#    0.000    0.000    0.000    0.000    0.000    0.000 
#
# Total GULP energy -223110.905147 kJ/mol
# GULP energy per Si atom -12395.050286 kJ/mol
# Density = 2.254188 g / cm^3
# Si number density = 22.593304 Si / 1000 Ang^3
#
#
#
# Elastic Constant Matrix: (Units=GPa)
#
#
# Indices 1 2 3 4 5 6 
#
# 1 144.1838 85.8624 20.3086 0.0000 3.9113 0.0000
# 2 85.8624 172.2728 38.8497 0.0000 -8.3948 0.0000
# 3 20.3086 38.8497 76.7810 0.0000 -6.5298 0.0000
# 4 0.0000 0.0000 0.0000 21.8904 0.0000 7.1441
# 5 3.9113 -8.3948 -6.5298 0.0000 34.2640 0.0000
# 6 0.0000 0.0000 0.0000 7.1441 0.0000 46.2298
#
#
#
# Elastic Compliance Matrix: (Units=1/GPa)
#
#
# Indices 1 2 3 4 5 6 
#
# 1 0.010061 -0.005065 -0.000307 0.000000 -0.002448 0.000000
# 2 -0.005065 0.009135 -0.003093 0.000000 0.002227 0.000000
# 3 -0.000307 -0.003093 0.014849 0.000000 0.002107 0.000000
# 4 0.000000 0.000000 0.000000 0.048108 0.000000 -0.007434
# 5 -0.002448 0.002227 0.002107 0.000000 0.030412 0.000000
# 6 0.000000 0.000000 0.000000 -0.007434 0.000000 0.022780
#
#
# Mechanical properties :
#
#
# Convention : Reuss Voigt Hill
#
# Bulk Modulus (GPa) = 58.42297 75.91989 67.17143
# Shear Modulus (GPa) = 31.64940 37.02463 34.33702
#
# Velocity S-wave (km/s) = 3.74683 4.05253 3.90267
# Velocity P-wave (km/s) = 6.68079 7.45474 7.07835
#
# Compressibility (1/GPa) = 0.01711656
#
# Stress axis : x y z
#
# Youngs Moduli (GPa) = 99.39078 109.46740 67.34241
#
# Poissons Ratio (x) = 0.55443 0.02066
# Poissons Ratio (y) = 0.50339 0.20830
# Poissons Ratio (z) = 0.03049 0.33860
#
# Static dielectric constant tensor:
#      x y z
#    x 4.103360 0.000000 0.139470 
#    y 0.000000 4.697070 0.000000 
#    z 0.139470 0.000000 3.947350 
# 
# 
# High freq. dielectric constant tensor:
#      x y z
#    x 1.895690 0.000000 0.017180 
#    y 0.000000 1.907020 0.000000 
#    z 0.017180 0.000000 1.877490 
# 
# From -- ./inp_files/86456.got.cif
#   From: 2010.06.25/outbox.cif.g09.slc.cpg/sg12_44_cif.got.tgz:86456.got - 2010.06.28 00:19:55.
