data_PCOD8113396
_publ_section_title
;
Structure prediction by ZEFSAII (Michael W. Deem and Ramdas Pophale) SiO2 
 PCOD8113396
Probable space group: C 2/M
;
_chemical_formula_sum "Si O2"
_cell_formula_units_Z 64
_cell_length_a 18.022701
_cell_length_b 29.075946
_cell_length_c 9.042681
_cell_angle_alpha 90.000000
_cell_angle_beta 38.872252
_cell_angle_gamma 90.000000
_cell_volume 2973.885531
_symmetry_space_group_name_H-M "C 2/M"
_symmetry_group_IT_number 12
_symmetry_cell_setting 'monoclinic'
loop_
_space_group_symop_operation_xyz
x,y,z
-x,y,-z
-x,-y,-z
x,-y,z
1/2+x,1/2+y,z
1/2-x,1/2+y,-z
1/2-x,1/2-y,-z
1/2+x,1/2-y,z
loop_
_atom_site_type_symbol
_atom_site_label
_atom_site_fract_x
_atom_site_fract_y
_atom_site_fract_z
Si Si1 0.399472 0.711648 0.532109
Si Si2 0.376295 0.925213 0.107872
Si Si3 0.751731 0.886007 0.233737
Si Si4 0.841643 0.322779 0.133159
Si Si5 0.121949 0.450367 0.227950
Si Si6 0.829407 0.051380 0.379434
Si Si7 0.598764 0.807588 0.632092
Si Si8 0.506525 0.634528 0.822117
O O1 0.500000 0.708590 0.500000
O O2 0.265349 0.700518 0.794793
O O3 0.393564 0.761712 0.473300
O O4 0.421725 0.673008 0.375094
O O5 0.314209 0.875761 0.204293
O O6 0.280133 0.956338 0.339559
O O7 0.500000 0.923486 0.000000
O O8 0.402811 0.944105 0.905771
O O9 0.693799 0.907661 0.179028
O O10 0.781145 0.926017 0.304280
O O11 0.669908 0.847704 0.437632
O O12 0.871407 0.865667 0.977128
O O13 0.852626 0.298778 0.277780
O O14 0.960672 0.320459 0.852462
O O15 0.185977 0.500000 0.151747
O O16 0.000000 0.451438 0.500000
O O17 0.932831 0.084018 0.285724
O O18 0.880639 0.000000 0.269305
O O19 0.500000 0.651360 0.000000
#
# Coordination Sequence:
#
# PCOD8113396 Si02
#       8
#     8   8   8   8   8   8   8   8
#     4  12  28  44  68 102 140 177 230 282 349 410
#     4  12  22  42  67  96 129 176 228 277 342 405
#     4  11  23  44  68  97 139 174 226 279 344 399
#     4  11  22  44  72  95 136 174 225 284 338 403
#     4  11  25  40  62  97 136 175 216 277 345 405
#     4  11  22  41  70 103 134 176 235 279 332 411
#     4  11  24  43  72 104 127 185 231 282 338 411
#     4  10  24  44  68  95 136 184 223 278 335 405
#
# _framework density 21.520667
#
# number of rings (size 3 to 8) (size 9 to 14) (size 15 to 20)
#    0.000    0.875    3.750    3.375    5.250    6.750 
#    0.000    0.000    0.000    1.875    0.000    0.000 
#    0.000    0.000    0.000    0.000    0.000    0.000 
#
# Total GULP energy -396720.857122 kJ/mol
# GULP energy per Si atom -12397.526785 kJ/mol
# Density = 2.147168 g / cm^3
# Si number density = 21.520667 Si / 1000 Ang^3
#
#
#
# Elastic Constant Matrix: (Units=GPa)
#
#
# Indices 1 2 3 4 5 6 
#
# 1 69.4164 38.1135 8.7535 0.0000 -21.0295 0.0000
# 2 38.1135 136.1049 28.4891 0.0000 -11.4825 0.0000
# 3 8.7535 28.4891 69.6157 0.0000 -14.5058 0.0000
# 4 0.0000 0.0000 0.0000 23.2386 0.0000 4.8086
# 5 -21.0295 -11.4825 -14.5058 0.0000 36.7447 0.0000
# 6 0.0000 0.0000 0.0000 4.8086 0.0000 23.1922
#
#
#
# Elastic Compliance Matrix: (Units=1/GPa)
#
#
# Indices 1 2 3 4 5 6 
#
# 1 0.020239 -0.005140 0.001784 0.000000 0.010681 0.000000
# 2 -0.005140 0.009400 -0.003488 0.000000 -0.001381 0.000000
# 3 0.001784 -0.003488 0.016948 0.000000 0.006621 0.000000
# 4 0.000000 0.000000 0.000000 0.044961 0.000000 -0.009322
# 5 0.010681 -0.001381 0.006621 0.000000 0.035510 0.000000
# 6 0.000000 0.000000 0.000000 -0.009322 0.000000 0.045051
#
#
# Mechanical properties :
#
#
# Convention : Reuss Voigt Hill
#
# Bulk Modulus (GPa) = 30.39665 47.31657 38.85661
# Shear Modulus (GPa) = 25.41138 29.95383 27.68260
#
# Velocity S-wave (km/s) = 3.43999 3.73482 3.59043
# Velocity P-wave (km/s) = 5.47112 6.37438 5.93994
#
# Compressibility (1/GPa) = 0.03289837
#
# Stress axis : x y z
#
# Youngs Moduli (GPa) = 49.41040 106.38042 59.00569
#
# Poissons Ratio (x) = 0.54677 -0.10528
# Poissons Ratio (y) = 0.25396 0.20584
# Poissons Ratio (z) = -0.08816 0.37110
#
# Static dielectric constant tensor:
#      x y z
#    x 3.665530 0.000000 -0.082840 
#    y 0.000000 4.155470 0.000000 
#    z -0.082840 0.000000 3.965160 
# 
# 
# High freq. dielectric constant tensor:
#      x y z
#    x 1.833130 0.000000 -0.012040 
#    y 0.000000 1.855570 0.000000 
#    z -0.012040 0.000000 1.855570 
# 
# From -- ./inp_files/80683.got.cif
#   From: 2010.06.25/outbox.cif.g09.slc.cpg/sg12_41_cif.got.tgz:80683.got - 2010.06.28 00:19:55.
