data_PCOD8113649
_publ_section_title
;
Structure prediction by ZEFSAII (Michael W. Deem and Ramdas Pophale) SiO2 
 PCOD8113649
Probable space group: C 2/M
;
_chemical_formula_sum "Si O2"
_cell_formula_units_Z 64
_cell_length_a 17.617656
_cell_length_b 31.298821
_cell_length_c 12.189849
_cell_angle_alpha 90.000000
_cell_angle_beta 146.893492
_cell_angle_gamma 90.000000
_cell_volume 3671.333426
_symmetry_space_group_name_H-M "C 2/M"
_symmetry_group_IT_number 12
_symmetry_cell_setting 'monoclinic'
loop_
_space_group_symop_operation_xyz
x,y,z
-x,y,-z
-x,-y,-z
x,-y,z
1/2+x,1/2+y,z
1/2-x,1/2+y,-z
1/2-x,1/2-y,-z
1/2+x,1/2-y,z
loop_
_atom_site_type_symbol
_atom_site_label
_atom_site_fract_x
_atom_site_fract_y
_atom_site_fract_z
Si Si1 0.102380 0.228806 0.535941
Si Si2 0.743022 0.366669 0.360063
Si Si3 0.987186 0.314161 0.298317
Si Si4 0.636209 0.046462 0.517076
Si Si5 0.828374 0.453336 0.181184
Si Si6 0.973566 0.815812 0.766232
Si Si7 0.262555 0.635707 0.905848
Si Si8 0.911469 0.730816 0.992198
O O1 0.023306 0.272143 0.409603
O O2 0.118894 0.198708 0.449457
O O3 0.000000 0.206144 0.500000
O O4 0.252958 0.239311 0.766568
O O5 0.873116 0.339454 0.558772
O O6 0.770989 0.416366 0.425151
O O7 0.608474 0.350245 0.260884
O O8 0.716840 0.362320 0.199512
O O9 0.885481 0.343282 0.247041
O O10 0.912556 0.302064 0.094124
O O11 0.645083 0.048655 0.657980
O O12 0.473287 0.052202 0.290926
O O13 0.689076 0.000000 0.538582
O O14 0.762044 0.500000 0.070178
O O15 0.730935 0.412608 0.036541
O O16 0.013870 0.775230 0.888161
O O17 0.112842 0.837980 0.888220
O O18 0.000000 0.710487 0.000000
#
# Coordination Sequence:
#
# PCOD8113649 Si02
#       8
#     8   8   8   8   8   8   8   8
#     4  11  22  37  52  68  96 130 165 209 249 280
#     4  11  19  31  49  74 104 133 159 199 242 287
#     4  11  21  32  53  74  91 125 177 204 235 289
#     4   8  14  26  45  70  99 131 160 189 234 286
#     4   8  14  26  45  70  99 130 160 192 233 282
#     4  11  23  34  49  72  99 131 166 200 244 297
#     4  11  19  31  49  74 102 131 164 202 233 284
#     4  11  22  37  50  68  98 132 163 208 250 285
#
# _framework density 17.432359000000002
#
# number of rings (size 3 to 8) (size 9 to 14) (size 15 to 20)
#    0.000    1.750    1.250    6.750    0.000    4.000 
#    0.000    0.625    0.000    3.000    0.000    0.000 
#    0.000   20.000    0.000    0.000    0.000    0.000 
#
# Total GULP energy -396707.298585 kJ/mol
# GULP energy per Si atom -12397.103081 kJ/mol
# Density = 1.739268 g / cm^3
# Si number density = 17.432359 Si / 1000 Ang^3
#
#
#
# Elastic Constant Matrix: (Units=GPa)
#
#
# Indices 1 2 3 4 5 6 
#
# 1 67.2714 21.2301 20.5051 0.0000 3.8593 0.0000
# 2 21.2301 99.5234 16.4986 0.0000 -3.4631 0.0000
# 3 20.5051 16.4986 67.7357 0.0000 -0.9758 0.0000
# 4 0.0000 0.0000 0.0000 13.6577 0.0000 5.0445
# 5 3.8593 -3.4631 -0.9758 0.0000 23.4298 0.0000
# 6 0.0000 0.0000 0.0000 5.0445 0.0000 20.1596
#
#
#
# Elastic Compliance Matrix: (Units=1/GPa)
#
#
# Indices 1 2 3 4 5 6 
#
# 1 0.017435 -0.003083 -0.004578 0.000000 -0.003518 0.000000
# 2 -0.003083 0.011065 -0.001732 0.000000 0.002071 0.000000
# 3 -0.004578 -0.001732 0.016588 0.000000 0.001189 0.000000
# 4 0.000000 0.000000 0.000000 0.080675 0.000000 -0.020187
# 5 -0.003518 0.002071 0.001189 0.000000 0.043616 0.000000
# 6 0.000000 0.000000 0.000000 -0.020187 0.000000 0.054656
#
#
# Mechanical properties :
#
#
# Convention : Reuss Voigt Hill
#
# Bulk Modulus (GPa) = 38.01880 38.99981 38.50930
# Shear Modulus (GPa) = 19.87381 23.20251 21.53816
#
# Velocity S-wave (km/s) = 3.38013 3.65225 3.51882
# Velocity P-wave (km/s) = 6.09019 6.34081 6.21676
#
# Compressibility (1/GPa) = 0.02630278
#
# Stress axis : x y z
#
# Youngs Moduli (GPa) = 57.35504 90.37764 60.28428
#
# Poissons Ratio (x) = 0.27861 0.27597
# Poissons Ratio (y) = 0.17681 0.10441
# Poissons Ratio (z) = 0.26256 0.15653
#
# Static dielectric constant tensor:
#      x y z
#    x 3.078850 0.000000 0.101810 
#    y 0.000000 3.595230 0.000000 
#    z 0.101810 0.000000 3.104430 
# 
# 
# High freq. dielectric constant tensor:
#      x y z
#    x 1.655260 0.000000 0.020750 
#    y 0.000000 1.672740 0.000000 
#    z 0.020750 0.000000 1.650550 
# 
# From -- ./inp_files/161259.got.cif
#   From: 2010.06.25/outbox.cif.g09.slc.cpg/sg12_81_cif.got.tgz:161259.got - 2010.06.28 00:19:55.
