data_PCOD8113181
_publ_section_title
;
Structure prediction by ZEFSAII (Michael W. Deem and Ramdas Pophale) SiO2 
 PCOD8113181
Probable space group: C 2/M
;
_chemical_formula_sum "Si O2"
_cell_formula_units_Z 48
_cell_length_a 22.999695
_cell_length_b 8.490224
_cell_length_c 12.061596
_cell_angle_alpha 90.000000
_cell_angle_beta 69.011311
_cell_angle_gamma 90.000000
_cell_volume 2199.027407
_symmetry_space_group_name_H-M "C 2/M"
_symmetry_group_IT_number 12
_symmetry_cell_setting 'monoclinic'
loop_
_space_group_symop_operation_xyz
x,y,z
-x,y,-z
-x,-y,-z
x,-y,z
1/2+x,1/2+y,z
1/2-x,1/2+y,-z
1/2-x,1/2-y,-z
1/2+x,1/2-y,z
loop_
_atom_site_type_symbol
_atom_site_label
_atom_site_fract_x
_atom_site_fract_y
_atom_site_fract_z
Si Si1 0.179425 0.316680 0.237983
Si Si2 0.482021 0.181148 0.887939
Si Si3 0.570402 0.183024 0.475025
Si Si4 0.595945 0.318144 0.685886
Si Si5 0.852667 0.181659 0.966873
Si Si6 0.196570 0.316056 0.773819
O O1 0.192728 0.500000 0.213164
O O2 0.111744 0.285955 0.337513
O O3 0.185997 0.234612 0.114118
O O4 0.232437 0.243009 0.280060
O O5 0.540140 0.211985 0.769690
O O6 0.425081 0.290525 0.890323
O O7 0.461509 0.000000 0.889641
O O8 0.500000 0.224655 0.000000
O O9 0.500000 0.240210 0.500000
O O10 0.601185 0.284266 0.551866
O O11 0.571368 0.000000 0.507897
O O12 0.581294 0.500000 0.718195
O O13 0.660067 0.273462 0.701730
O O14 0.839115 0.000000 0.001175
O O15 0.833769 0.282647 0.086169
O O16 0.192963 0.500000 0.751719
#
# Coordination Sequence:
#
# PCOD8113181 Si02
#       6
#     8   8   8   8   8   8
#     4  11  24  43  67  95 129 171 218 265 320 383
#     4  11  22  38  63  93 128 169 210 257 316 379
#     4  10  23  45  71  96 127 168 213 261 318 386
#     4  12  25  41  66  98 132 168 213 269 324 380
#     4  12  24  40  65  97 133 169 214 269 324 381
#     4  12  25  43  65  92 130 173 218 266 321 384
#
# _framework density 21.827832999999998
#
# number of rings (size 3 to 8) (size 9 to 14) (size 15 to 20)
#    0.000    0.667    1.667    7.000    0.000    4.333 
#    0.000    0.000    0.000    0.000    0.000    0.000 
#    0.000    0.000    0.000    0.000    0.000    0.000 
#
# Total GULP energy -297813.085759 kJ/mol
# GULP energy per Si atom -12408.878573 kJ/mol
# Density = 2.177815 g / cm^3
# Si number density = 21.827833 Si / 1000 Ang^3
#
#
#
# Elastic Constant Matrix: (Units=GPa)
#
#
# Indices 1 2 3 4 5 6 
#
# 1 122.1676 23.6629 31.8524 0.0000 7.8093 0.0000
# 2 23.6629 88.4461 26.7073 0.0000 6.2623 0.0000
# 3 31.8524 26.7073 81.4547 0.0000 14.1871 0.0000
# 4 0.0000 0.0000 0.0000 29.6358 0.0000 1.9251
# 5 7.8093 6.2623 14.1871 0.0000 35.1761 0.0000
# 6 0.0000 0.0000 0.0000 1.9251 0.0000 35.1291
#
#
#
# Elastic Compliance Matrix: (Units=1/GPa)
#
#
# Indices 1 2 3 4 5 6 
#
# 1 0.009311 -0.001533 -0.003039 0.000000 -0.000568 0.000000
# 2 -0.001533 0.012814 -0.003510 0.000000 -0.000525 0.000000
# 3 -0.003039 -0.003510 0.015477 0.000000 -0.004942 0.000000
# 4 0.000000 0.000000 0.000000 0.033863 0.000000 -0.001856
# 5 -0.000568 -0.000525 -0.004942 0.000000 0.030641 0.000000
# 6 0.000000 0.000000 0.000000 -0.001856 0.000000 0.028568
#
#
# Mechanical properties :
#
#
# Convention : Reuss Voigt Hill
#
# Bulk Modulus (GPa) = 46.65007 50.72372 48.68690
# Shear Modulus (GPa) = 32.47045 33.97795 33.22420
#
# Velocity S-wave (km/s) = 3.86109 3.94970 3.90565
# Velocity P-wave (km/s) = 6.42616 6.63993 6.53392
#
# Compressibility (1/GPa) = 0.02143619
#
# Stress axis : x y z
#
# Youngs Moduli (GPa) = 107.39736 78.04177 64.61145
#
# Poissons Ratio (x) = 0.11964 0.19638
# Poissons Ratio (y) = 0.16465 0.22681
# Poissons Ratio (z) = 0.32643 0.27396
#
# Static dielectric constant tensor:
#      x y z
#    x 4.109500 0.000000 0.087880 
#    y 0.000000 3.857070 0.000000 
#    z 0.087880 0.000000 3.912270 
# 
# 
# High freq. dielectric constant tensor:
#      x y z
#    x 1.872270 0.000000 0.004320 
#    y 0.000000 1.860760 0.000000 
#    z 0.004320 0.000000 1.854430 
# 
# From -- ./inp_files/172184.got.cif
#   From: 2010.06.25/outbox.cif.g09.slc.cpg/sg12_87_cif.got.tgz:172184.got - 2010.06.28 00:19:55.
