data_PCOD8113928
_publ_section_title
;
Structure prediction by ZEFSAII (Michael W. Deem and Ramdas Pophale) SiO2 
 PCOD8113928
Probable space group: C 2/M
;
_chemical_formula_sum "Si O2"
_cell_formula_units_Z 56
_cell_length_a 31.779456
_cell_length_b 21.123275
_cell_length_c 9.629718
_cell_angle_alpha 90.000000
_cell_angle_beta 154.097728
_cell_angle_gamma 90.000000
_cell_volume 2823.846941
_symmetry_space_group_name_H-M "C 2/M"
_symmetry_group_IT_number 12
_symmetry_cell_setting 'monoclinic'
loop_
_space_group_symop_operation_xyz
x,y,z
-x,y,-z
-x,-y,-z
x,-y,z
1/2+x,1/2+y,z
1/2-x,1/2+y,-z
1/2-x,1/2-y,-z
1/2+x,1/2-y,z
loop_
_atom_site_type_symbol
_atom_site_label
_atom_site_fract_x
_atom_site_fract_y
_atom_site_fract_z
Si Si1 0.763825 0.358341 0.304346
Si Si2 0.223479 0.075099 0.916820
Si Si3 0.242883 0.655733 0.249606
Si Si4 0.312339 0.428567 0.687859
Si Si5 0.598297 0.741406 0.874208
Si Si6 0.510104 0.573763 0.377158
Si Si7 0.097303 0.746108 0.203026
O O1 0.736599 0.422597 0.306318
O O2 0.859302 0.324214 0.645503
O O3 0.782326 0.384107 0.204399
O O4 0.672846 0.312017 0.048917
O O5 0.253835 0.104731 0.862321
O O6 0.110449 0.088792 0.602995
O O7 0.246501 0.000000 0.989487
O O8 0.247789 0.615761 0.403105
O O9 0.330430 0.705154 0.507756
O O10 0.140918 0.691477 0.949688
O O11 0.309068 0.500000 0.623529
O O12 0.422915 0.401921 0.020324
O O13 0.500000 0.729936 0.500000
O O14 0.583333 0.740635 0.997179
O O15 0.500000 0.605699 0.500000
O O16 0.491674 0.500000 0.341875
O O17 0.000000 0.751893 0.000000
#
# Coordination Sequence:
#
# PCOD8113928 Si02
#       7
#     8   8   8   8   8   8   8
#     4  11  22  40  65  90 126 163 209 249 304 374
#     4  11  24  38  60  96 132 164 204 252 304 373
#     4  11  24  42  61  91 130 161 205 254 312 370
#     4  11  20  36  63  88 122 170 201 245 311 374
#     4  11  25  43  66  92 121 163 211 261 312 359
#     4   9  18  31  50  84 122 159 197 234 286 357
#     4  11  25  43  65  93 122 160 212 264 307 360
#
# _framework density 19.831102000000001
#
# number of rings (size 3 to 8) (size 9 to 14) (size 15 to 20)
#    0.000    1.286    4.286    1.714    8.000    1.143 
#    0.000    2.143    0.000    5.143    0.000    0.000 
#    0.000    0.000    0.000    0.000    0.000    0.000 
#
# Total GULP energy -347057.482856 kJ/mol
# GULP energy per Si atom -12394.910102 kJ/mol
# Density = 1.978597 g / cm^3
# Si number density = 19.831102 Si / 1000 Ang^3
#
#
#
# Elastic Constant Matrix: (Units=GPa)
#
#
# Indices 1 2 3 4 5 6 
#
# 1 84.0820 30.7766 27.2761 0.0000 -4.8079 0.0000
# 2 30.7766 86.8285 23.5887 0.0000 -2.2023 0.0000
# 3 27.2761 23.5887 72.4953 0.0000 -7.5391 0.0000
# 4 0.0000 0.0000 0.0000 11.1484 0.0000 -3.7742
# 5 -4.8079 -2.2023 -7.5391 0.0000 28.0111 0.0000
# 6 0.0000 0.0000 0.0000 -3.7742 0.0000 39.5238
#
#
#
# Elastic Compliance Matrix: (Units=1/GPa)
#
#
# Indices 1 2 3 4 5 6 
#
# 1 0.014791 -0.004096 -0.004117 0.000000 0.001109 0.000000
# 2 -0.004096 0.013769 -0.002983 0.000000 -0.000423 0.000000
# 3 -0.004117 -0.002983 0.016683 0.000000 0.003549 0.000000
# 4 0.000000 0.000000 0.000000 0.092695 0.000000 0.008852
# 5 0.001109 -0.000423 0.003549 0.000000 0.036812 0.000000
# 6 0.000000 0.000000 0.000000 0.008852 0.000000 0.026146
#
#
# Mechanical properties :
#
#
# Convention : Reuss Voigt Hill
#
# Bulk Modulus (GPa) = 43.76323 45.18761 44.47542
# Shear Modulus (GPa) = 21.65383 26.52097 24.08740
#
# Velocity S-wave (km/s) = 3.30799 3.66094 3.48893
# Velocity P-wave (km/s) = 6.05857 6.38010 6.22141
#
# Compressibility (1/GPa) = 0.02285023
#
# Stress axis : x y z
#
# Youngs Moduli (GPa) = 67.60643 72.62954 59.94241
#
# Poissons Ratio (x) = 0.29751 0.24679
# Poissons Ratio (y) = 0.27693 0.17880
# Poissons Ratio (z) = 0.27834 0.21664
#
# Static dielectric constant tensor:
#      x y z
#    x 3.494420 0.000000 -0.092070 
#    y 0.000000 3.765210 0.000000 
#    z -0.092070 0.000000 3.649580 
# 
# 
# High freq. dielectric constant tensor:
#      x y z
#    x 1.765860 0.000000 -0.015220 
#    y 0.000000 1.784310 0.000000 
#    z -0.015220 0.000000 1.758890 
# 
# From -- ./inp_files/77626.got.cif
#   From: 2010.06.25/outbox.cif.g09.slc.cpg/sg12_39_cif.got.tgz:77626.got - 2010.06.28 00:19:55.
