data_PCOD8113983
_publ_section_title
;
Structure prediction by ZEFSAII (Michael W. Deem and Ramdas Pophale) SiO2 
 PCOD8113983
Probable space group: C 2/M
;
_chemical_formula_sum "Si O2"
_cell_formula_units_Z 40
_cell_length_a 12.678879
_cell_length_b 17.743193
_cell_length_c 10.667199
_cell_angle_alpha 90.000000
_cell_angle_beta 57.165310
_cell_angle_gamma 90.000000
_cell_volume 2016.348481
_symmetry_space_group_name_H-M "C 2/M"
_symmetry_group_IT_number 12
_symmetry_cell_setting 'monoclinic'
loop_
_space_group_symop_operation_xyz
x,y,z
-x,y,-z
-x,-y,-z
x,-y,z
1/2+x,1/2+y,z
1/2-x,1/2+y,-z
1/2-x,1/2-y,-z
1/2+x,1/2-y,z
loop_
_atom_site_type_symbol
_atom_site_label
_atom_site_fract_x
_atom_site_fract_y
_atom_site_fract_z
Si Si1 0.368501 0.084714 0.471309
Si Si2 0.384740 0.413744 0.984359
Si Si3 0.628759 0.864453 0.260903
Si Si4 0.402402 0.696756 0.742300
Si Si5 0.817695 0.182978 0.528754
O O1 0.367131 0.142498 0.590027
O O2 0.500132 0.091222 0.310588
O O3 0.252814 0.104955 0.456748
O O4 0.352054 0.000000 0.532363
O O5 0.407778 0.500000 0.926654
O O6 0.252406 0.409161 0.140628
O O7 0.500000 0.387546 0.000000
O O8 0.370873 0.359831 0.874139
O O9 0.617436 0.783036 0.201355
O O10 0.309056 0.687502 0.684641
O O11 0.541921 0.678998 0.609778
O O12 0.750000 0.250000 0.500000
#
# Coordination Sequence:
#
# PCOD8113983 Si02
#       5
#     8   8   8   8   8
#     4  11  21  35  65  94 120 161 206 258 314 359
#     4  11  25  42  60  87 129 170 208 255 309 368
#     4  11  20  39  61  91 122 158 213 258 302 366
#     4  11  23  38  65  91 120 162 207 255 308 373
#     4  11  20  40  62  91 124 153 200 258 310 368
#
# _framework density 19.837841000000001
#
# number of rings (size 3 to 8) (size 9 to 14) (size 15 to 20)
#    0.000    1.000    4.000    5.400    0.000    3.200 
#    0.000    3.000    0.000    2.400    0.000    0.000 
#    0.000    0.000    0.000    0.000    0.000    0.000 
#
# Total GULP energy -247942.817669 kJ/mol
# GULP energy per Si atom -12397.140883 kJ/mol
# Density = 1.979269 g / cm^3
# Si number density = 19.837841 Si / 1000 Ang^3
#
#
#
# Elastic Constant Matrix: (Units=GPa)
#
#
# Indices 1 2 3 4 5 6 
#
# 1 125.4627 48.2157 40.5457 0.0000 4.7494 0.0000
# 2 48.2157 115.2191 35.0595 0.0000 9.2809 0.0000
# 3 40.5457 35.0595 83.7063 0.0000 1.8609 0.0000
# 4 0.0000 0.0000 0.0000 23.4034 0.0000 7.0400
# 5 4.7494 9.2809 1.8609 0.0000 31.1134 0.0000
# 6 0.0000 0.0000 0.0000 7.0400 0.0000 27.8377
#
#
#
# Elastic Compliance Matrix: (Units=1/GPa)
#
#
# Indices 1 2 3 4 5 6 
#
# 1 0.010409 -0.003199 -0.003693 0.000000 -0.000414 0.000000
# 2 -0.003199 0.011165 -0.003068 0.000000 -0.002659 0.000000
# 3 -0.003693 -0.003068 0.015007 0.000000 0.000581 0.000000
# 4 0.000000 0.000000 0.000000 0.046247 0.000000 -0.011696
# 5 -0.000414 -0.002659 0.000581 0.000000 0.032962 0.000000
# 6 0.000000 0.000000 0.000000 -0.011696 0.000000 0.038880
#
#
# Mechanical properties :
#
#
# Convention : Reuss Voigt Hill
#
# Bulk Modulus (GPa) = 60.01545 63.55887 61.78716
# Shear Modulus (GPa) = 27.75552 29.84204 28.79878
#
# Velocity S-wave (km/s) = 3.74454 3.88274 3.81426
# Velocity P-wave (km/s) = 7.00101 7.22562 7.11420
#
# Compressibility (1/GPa) = 0.01666238
#
# Stress axis : x y z
#
# Youngs Moduli (GPa) = 96.07181 89.56226 66.63390
#
# Poissons Ratio (x) = 0.28649 0.24607
# Poissons Ratio (y) = 0.30731 0.20443
# Poissons Ratio (z) = 0.35478 0.27478
#
# Static dielectric constant tensor:
#      x y z
#    x 3.727430 0.000000 0.067480 
#    y 0.000000 3.550960 0.000000 
#    z 0.067480 0.000000 3.337710 
# 
# 
# High freq. dielectric constant tensor:
#      x y z
#    x 1.783790 0.000000 -0.016630 
#    y 0.000000 1.777090 0.000000 
#    z -0.016630 0.000000 1.753780 
# 
# From -- ./inp_files/130865.got.cif
#   From: 2010.06.25/outbox.cif.g09.slc.cpg/sg12_66_cif.got.tgz:130865.got - 2010.06.28 00:19:55.
