data_PCOD8113312
_publ_section_title
;
Structure prediction by ZEFSAII (Michael W. Deem and Ramdas Pophale) SiO2 
 PCOD8113312
Probable space group: C 2/M
;
_chemical_formula_sum "Si O2"
_cell_formula_units_Z 24
_cell_length_a 8.741977
_cell_length_b 17.834705
_cell_length_c 10.444082
_cell_angle_alpha 90.000000
_cell_angle_beta 43.241555
_cell_angle_gamma 90.000000
_cell_volume 1115.538026
_symmetry_space_group_name_H-M "C 2/M"
_symmetry_group_IT_number 12
_symmetry_cell_setting 'monoclinic'
loop_
_space_group_symop_operation_xyz
x,y,z
-x,y,-z
-x,-y,-z
x,-y,z
1/2+x,1/2+y,z
1/2-x,1/2+y,-z
1/2-x,1/2-y,-z
1/2+x,1/2-y,z
loop_
_atom_site_type_symbol
_atom_site_label
_atom_site_fract_x
_atom_site_fract_y
_atom_site_fract_z
Si Si1 0.000000 0.748724 0.500000
Si Si2 0.124901 0.500000 0.286852
Si Si3 0.433532 0.340817 0.304042
Si Si4 0.847818 0.000000 0.471151
Si Si5 0.000000 0.117481 0.000000
O O1 0.806171 0.696718 0.566205
O O2 0.070846 0.801761 0.336245
O O3 0.276306 0.427675 0.170769
O O4 0.000000 0.500000 0.500000
O O5 0.910911 0.500000 0.321825
O O6 0.402587 0.428685 0.350092
O O7 0.560007 0.333239 0.089632
O O8 0.000000 0.000000 0.500000
#
# Coordination Sequence:
#
# PCOD8113312 Si02
#       5
#     4   4   8   4   4
#     4  10  24  42  68  90 140 190 208 276 352 396
#     4  11  20  39  68 101 140 171 216 286 348 389
#     4  11  22  42  66 100 132 176 230 272 338 405
#     4  12  22  40  72  98 127 178 224 280 333 393
#     4  11  22  38  72 104 126 177 234 272 332 411
#
# _framework density 21.514282999999999
#
# number of rings (size 3 to 8) (size 9 to 14) (size 15 to 20)
#    0.000    1.000    5.000    3.000    0.000    1.333 
#    0.000    3.333    0.000    0.000    0.000    0.000 
#    0.000    0.000    0.000    0.000    0.000    0.000 
#
# Total GULP energy -148699.687625 kJ/mol
# GULP energy per Si atom -12391.640635 kJ/mol
# Density = 2.146532 g / cm^3
# Si number density = 21.514283 Si / 1000 Ang^3
#
#
#
# Elastic Constant Matrix: (Units=GPa)
#
#
# Indices 1 2 3 4 5 6 
#
# 1 134.8414 30.4526 53.3150 0.0000 23.9138 0.0001
# 2 30.4526 108.8797 34.5593 0.0000 26.4996 0.0000
# 3 53.3150 34.5593 142.8660 0.0000 33.7039 0.0001
# 4 0.0000 0.0000 0.0000 17.1453 0.0000 19.2419
# 5 23.9138 26.4996 33.7039 0.0000 50.3865 -0.0001
# 6 0.0001 0.0000 0.0001 19.2419 -0.0001 17.4347
#
#
#
# Elastic Compliance Matrix: (Units=1/GPa)
#
#
# Indices 1 2 3 4 5 6 
#
# 1 0.009075 -0.001240 -0.002641 0.000000 -0.001888 0.000000
# 2 -0.001240 0.010970 -0.001150 0.000000 -0.004411 0.000000
# 3 -0.002641 -0.001150 0.009291 0.000000 -0.004357 0.000000
# 4 0.000000 0.000000 0.000000 -0.244441 0.000001 0.269777
# 5 -0.001888 -0.004411 -0.004357 0.000001 0.025977 -0.000001
# 6 0.000000 0.000000 0.000000 0.269777 -0.000001 -0.240383
#
#
# Mechanical properties :
#
#
# Convention : Reuss Voigt Hill
#
# Bulk Modulus (GPa) = 51.88545 69.24901 60.56723
# Shear Modulus (GPa) = -12.10587 34.87733 11.38573
#
# Velocity S-wave (km/s) = -2.37468 4.03069 2.30297
# Velocity P-wave (km/s) = 4.08048 7.34297 5.94010
#
# Compressibility (1/GPa) = 0.01927323
#
# Stress axis : x y z
#
# Youngs Moduli (GPa) = 110.18725 91.15691 107.62859
#
# Poissons Ratio (x) = 0.11307 0.28428
# Poissons Ratio (y) = 0.13668 0.12378
# Poissons Ratio (z) = 0.29104 0.10484
#
# Static dielectric constant tensor:
#      x y z
#    x 4.537850 0.000000 0.320350 
#    y 0.000000 4.171210 0.000000 
#    z 0.320350 0.000000 4.073110 
# 
# 
# High freq. dielectric constant tensor:
#      x y z
#    x 1.851370 0.000000 0.026520 
#    y 0.000000 1.850150 0.000000 
#    z 0.026520 0.000000 1.833280 
# 
# From -- ./inp_files/37481.got.cif
#   From: 2010.06.25/outbox.cif.g09.slc.cpg/sg12_19_cif.got.tgz:37481.got - 2010.06.28 00:19:55.
