data_PCOD8113292
_publ_section_title
;
Structure prediction by ZEFSAII (Michael W. Deem and Ramdas Pophale) SiO2 
 PCOD8113292
Probable space group: C 2/M
;
_chemical_formula_sum "Si O2"
_cell_formula_units_Z 44
_cell_length_a 8.892152
_cell_length_b 20.115593
_cell_length_c 11.885779
_cell_angle_alpha 90.000000
_cell_angle_beta 96.220580
_cell_angle_gamma 90.000000
_cell_volume 2113.502335
_symmetry_space_group_name_H-M "C 2/M"
_symmetry_group_IT_number 12
_symmetry_cell_setting 'monoclinic'
loop_
_space_group_symop_operation_xyz
x,y,z
-x,y,-z
-x,-y,-z
x,-y,z
1/2+x,1/2+y,z
1/2-x,1/2+y,-z
1/2-x,1/2-y,-z
1/2+x,1/2-y,z
loop_
_atom_site_type_symbol
_atom_site_label
_atom_site_fract_x
_atom_site_fract_y
_atom_site_fract_z
Si Si1 0.290957 0.387329 0.709282
Si Si2 0.322202 0.425961 0.468350
Si Si3 0.644625 0.000000 0.848452
Si Si4 0.000000 0.259299 0.000000
Si Si5 0.147844 0.124059 0.761852
Si Si6 0.802191 0.500000 0.884973
Si Si7 0.220789 0.727584 0.843678
O O1 0.243324 0.401271 0.576751
O O2 0.208158 0.436294 0.788158
O O3 0.469863 0.389975 0.741601
O O4 0.229561 0.313136 0.729338
O O5 0.500000 0.427176 0.500000
O O6 0.263193 0.500000 0.435878
O O7 0.281976 0.379192 0.358978
O O8 0.463441 0.000000 0.835803
O O9 0.698396 0.000000 0.980790
O O10 0.084420 0.302165 0.910313
O O11 0.873805 0.214618 0.927275
O O12 0.215419 0.066583 0.843848
O O13 0.189961 0.195046 0.817509
#
# Coordination Sequence:
#
# PCOD8113292 Si02
#       7
#     8   8   4   4   8   4   8
#     4  11  23  42  66  93 123 168 214 256 313 380
#     4   9  18  39  66  90 122 165 209 258 313 371
#     4  11  27  40  61  92 130 163 208 267 318 371
#     4  10  24  42  60  90 136 170 206 254 322 378
#     4  11  23  42  66  93 123 168 214 256 313 380
#     4  11  27  40  61  92 130 163 208 267 318 371
#     4  11  24  39  66  94 126 171 213 258 314 372
#
# _framework density 20.818525999999999
#
# number of rings (size 3 to 8) (size 9 to 14) (size 15 to 20)
#    0.000    1.455    3.636    0.545    7.636    2.182 
#    0.000    1.818    0.000    0.000    0.000    0.000 
#    0.000    0.000    0.000    0.000    0.000    0.000 
#
# Total GULP energy -272665.339994 kJ/mol
# GULP energy per Si atom -12393.879091 kJ/mol
# Density = 2.077114 g / cm^3
# Si number density = 20.818526 Si / 1000 Ang^3
#
#
#
# Elastic Constant Matrix: (Units=GPa)
#
#
# Indices 1 2 3 4 5 6 
#
# 1 89.1182 25.5382 39.5555 0.0000 -21.3746 0.0000
# 2 25.5382 108.2035 41.8361 0.0000 -11.7480 0.0000
# 3 39.5555 41.8361 126.6671 0.0000 -31.8869 0.0000
# 4 0.0000 0.0000 0.0000 -2.0501 0.0000 3.7278
# 5 -21.3746 -11.7480 -31.8869 0.0000 33.9539 0.0000
# 6 0.0000 0.0000 0.0000 3.7278 0.0000 16.7569
#
#
#
# Elastic Compliance Matrix: (Units=1/GPa)
#
#
# Indices 1 2 3 4 5 6 
#
# 1 0.014239 -0.001802 -0.002294 0.000000 0.006186 0.000000
# 2 -0.001802 0.010829 -0.003086 0.000000 -0.000286 0.000000
# 3 -0.002294 -0.003086 0.011784 0.000000 0.008555 0.000000
# 4 0.000000 0.000000 0.000000 -0.347295 0.000000 0.077261
# 5 0.006186 -0.000286 0.008555 0.000000 0.041281 0.000000
# 6 0.000000 0.000000 0.000000 0.077261 0.000000 0.042489
#
#
# Mechanical properties :
#
#
# Convention : Reuss Voigt Hill
#
# Bulk Modulus (GPa) = 44.46782 59.76091 52.11437
# Shear Modulus (GPa) = -24.41264 24.20273 -0.10496
#
# Velocity S-wave (km/s) = -3.42810 3.41333 -0.22478
# Velocity P-wave (km/s) = 2.39520 6.65600 5.00197
#
# Compressibility (1/GPa) = 0.02248817
#
# Stress axis : x y z
#
# Youngs Moduli (GPa) = 70.22741 92.34202 84.86168
#
# Poissons Ratio (x) = 0.16641 0.19469
# Poissons Ratio (y) = 0.12656 0.26187
# Poissons Ratio (z) = 0.16112 0.28496
#
# Static dielectric constant tensor:
#      x y z
#    x 3.926660 0.000000 -0.280850 
#    y 0.000000 3.624930 0.000000 
#    z -0.280850 0.000000 4.122970 
# 
# 
# High freq. dielectric constant tensor:
#      x y z
#    x 1.814230 0.000000 -0.017160 
#    y 0.000000 1.800940 0.000000 
#    z -0.017160 0.000000 1.829960 
# 
# From -- ./inp_files/120895.got.cif
#   From: 2010.06.25/outbox.cif.g09.slc.cpg/sg12_61_cif.got.tgz:120895.got - 2010.06.28 00:19:55.
