data_PCOD8113815
_publ_section_title
;
Structure prediction by ZEFSAII (Michael W. Deem and Ramdas Pophale) SiO2 
 PCOD8113815
Probable space group: C 2/M
;
_chemical_formula_sum "Si O2"
_cell_formula_units_Z 48
_cell_length_a 12.590069
_cell_length_b 22.839384
_cell_length_c 10.599249
_cell_angle_alpha 90.000000
_cell_angle_beta 122.152388
_cell_angle_gamma 90.000000
_cell_volume 2580.382941
_symmetry_space_group_name_H-M "C 2/M"
_symmetry_group_IT_number 12
_symmetry_cell_setting 'monoclinic'
loop_
_space_group_symop_operation_xyz
x,y,z
-x,y,-z
-x,-y,-z
x,-y,z
1/2+x,1/2+y,z
1/2-x,1/2+y,-z
1/2-x,1/2-y,-z
1/2+x,1/2-y,z
loop_
_atom_site_type_symbol
_atom_site_label
_atom_site_fract_x
_atom_site_fract_y
_atom_site_fract_z
Si Si1 0.842521 0.671997 0.068607
Si Si2 0.674606 0.318146 0.392618
Si Si3 0.361181 0.268316 0.899065
Si Si4 0.946954 0.290636 0.602032
Si Si5 0.307237 0.565811 0.969775
Si Si6 0.083692 0.933548 0.232589
O O1 0.716397 0.698761 0.044720
O O2 0.809229 0.603050 0.046542
O O3 0.962826 0.687321 0.229768
O O4 0.861572 0.698916 0.939613
O O5 0.692232 0.282013 0.272271
O O6 0.811803 0.320336 0.541922
O O7 0.573059 0.279990 0.406882
O O8 0.628219 0.384934 0.360018
O O9 0.500000 0.294773 0.000000
O O10 0.000000 0.309613 0.500000
O O11 0.256724 0.500000 0.942184
O O12 0.343382 0.583067 0.849629
O O13 0.434153 0.571740 0.130127
O O14 0.119162 0.000000 0.296728
#
# Coordination Sequence:
#
# PCOD8113815 Si02
#       6
#     8   8   8   8   8   8
#     4  11  21  31  53  77 105 133 170 204 260 307
#     4  11  21  34  52  73 109 133 169 208 251 305
#     4  11  20  32  51  79 100 134 167 211 252 300
#     4  11  22  34  48  76 106 138 164 206 257 304
#     4   9  17  29  48  75 103 128 166 215 250 293
#     4   9  17  30  50  73 100 132 166 209 254 293
#
# _framework density 18.601890000000001
#
# number of rings (size 3 to 8) (size 9 to 14) (size 15 to 20)
#    0.000    1.667    5.000    2.000    2.333    0.000 
#    0.000    0.833    0.000    4.000    0.000    1.167 
#    0.000    0.000    0.000    0.000    0.000    0.000 
#
# Total GULP energy -297401.132394 kJ/mol
# GULP energy per Si atom -12391.713850 kJ/mol
# Density = 1.855955 g / cm^3
# Si number density = 18.601890 Si / 1000 Ang^3
#
#
#
# Elastic Constant Matrix: (Units=GPa)
#
#
# Indices 1 2 3 4 5 6 
#
# 1 41.3026 14.9854 23.2950 0.0000 17.5694 0.0000
# 2 14.9854 111.2661 40.6804 0.0000 21.2501 0.0000
# 3 23.2950 40.6804 66.5420 0.0000 20.4309 0.0000
# 4 0.0000 0.0000 0.0000 27.0476 0.0000 -0.6636
# 5 17.5694 21.2501 20.4309 0.0000 28.1082 0.0000
# 6 0.0000 0.0000 0.0000 -0.6636 0.0000 28.6372
#
#
#
# Elastic Compliance Matrix: (Units=1/GPa)
#
#
# Indices 1 2 3 4 5 6 
#
# 1 0.035669 0.001478 -0.007984 0.000000 -0.017610 0.000000
# 2 0.001478 0.012127 -0.006221 0.000000 -0.005570 0.000000
# 3 -0.007984 -0.006221 0.024008 0.000000 -0.007757 0.000000
# 4 0.000000 0.000000 0.000000 0.036993 0.000000 0.000857
# 5 -0.017610 -0.005570 -0.007757 0.000000 0.056434 0.000000
# 6 0.000000 0.000000 0.000000 0.000857 0.000000 0.034940
#
#
# Mechanical properties :
#
#
# Convention : Reuss Voigt Hill
#
# Bulk Modulus (GPa) = 21.57462 41.89247 31.73355
# Shear Modulus (GPa) = 20.74061 26.10193 23.42127
#
# Velocity S-wave (km/s) = 3.34274 3.74998 3.55220
# Velocity P-wave (km/s) = 5.14994 6.42800 5.82413
#
# Compressibility (1/GPa) = 0.04635075
#
# Stress axis : x y z
#
# Youngs Moduli (GPa) = 28.03540 82.46331 41.65285
#
# Poissons Ratio (x) = -0.12190 0.33255
# Poissons Ratio (y) = -0.04144 0.25912
# Poissons Ratio (z) = 0.22383 0.51299
#
# Static dielectric constant tensor:
#      x y z
#    x 3.493560 0.000000 0.089940 
#    y 0.000000 3.614210 0.000000 
#    z 0.089940 0.000000 3.266400 
# 
# 
# High freq. dielectric constant tensor:
#      x y z
#    x 1.704730 0.000000 0.020040 
#    y 0.000000 1.713920 0.000000 
#    z 0.020040 0.000000 1.705760 
# 
# From -- ./inp_files/135551.got.cif
#   From: 2010.06.25/outbox.cif.g09.slc.cpg/sg12_68_cif.got.tgz:135551.got - 2010.06.28 00:19:55.
