data_PCOD8113620
_publ_section_title
;
Structure prediction by ZEFSAII (Michael W. Deem and Ramdas Pophale) SiO2 
 PCOD8113620
Probable space group: C 2/M
;
_chemical_formula_sum "Si O2"
_cell_formula_units_Z 64
_cell_length_a 12.066242
_cell_length_b 17.527586
_cell_length_c 20.313463
_cell_angle_alpha 90.000000
_cell_angle_beta 44.078501
_cell_angle_gamma 90.000000
_cell_volume 2988.578745
_symmetry_space_group_name_H-M "C 2/M"
_symmetry_group_IT_number 12
_symmetry_cell_setting 'monoclinic'
loop_
_space_group_symop_operation_xyz
x,y,z
-x,y,-z
-x,-y,-z
x,-y,z
1/2+x,1/2+y,z
1/2-x,1/2+y,-z
1/2-x,1/2-y,-z
1/2+x,1/2-y,z
loop_
_atom_site_type_symbol
_atom_site_label
_atom_site_fract_x
_atom_site_fract_y
_atom_site_fract_z
Si Si1 0.137071 0.414854 0.029007
Si Si2 0.825596 0.836537 0.586280
Si Si3 0.795532 0.413423 0.152121
Si Si4 0.530837 0.137378 0.633772
Si Si5 0.784756 0.085002 0.268110
Si Si6 0.070596 0.191687 0.318889
Si Si7 0.042491 0.091549 0.054000
Si Si8 0.232042 0.332272 0.428524
O O1 0.123891 0.500000 0.062564
O O2 0.960400 0.379334 0.113513
O O3 0.185841 0.417948 0.932933
O O4 0.281177 0.373840 0.006649
O O5 0.673483 0.884810 0.624014
O O6 0.812681 0.824451 0.669684
O O7 0.818468 0.756063 0.551721
O O8 0.000000 0.874964 0.500000
O O9 0.757940 0.500000 0.194277
O O10 0.653747 0.353774 0.224171
O O11 0.382101 0.079896 0.701461
O O12 0.452778 0.219160 0.685526
O O13 0.593075 0.130073 0.531413
O O14 0.918643 0.120959 0.162720
O O15 0.756427 0.135828 0.344928
O O16 0.834645 0.000000 0.268829
O O17 0.893415 0.156610 0.402067
O O18 0.039814 0.000000 0.056762
O O19 0.000000 0.123136 0.000000
#
# Coordination Sequence:
#
# PCOD8113620 Si02
#       8
#     8   8   8   8   8   8   8   8
#     4   8  15  32  55  80 112 146 185 230 289 353
#     4  11  18  36  57  79 105 150 199 232 271 342
#     4   9  18  32  55  86 114 146 189 239 288 338
#     4  11  22  36  57  83 115 156 196 234 290 345
#     4  11  23  38  59  89 119 147 196 250 290 340
#     4  11  20  33  59  85 115 151 196 240 283 344
#     4   9  18  33  55  78 108 150 186 225 282 348
#     4  11  20  35  59  84 111 150 201 243 280 335
#
# _framework density 21.414860999999998
#
# number of rings (size 3 to 8) (size 9 to 14) (size 15 to 20)
#    0.000    1.875    3.750    2.625    0.000    3.500 
#    0.000    1.875    2.750    1.500    0.000    0.000 
#    0.000    0.000    0.000    0.000    0.000    0.000 
#
# Total GULP energy -396424.915044 kJ/mol
# GULP energy per Si atom -12388.278595 kJ/mol
# Density = 2.136612 g / cm^3
# Si number density = 21.414861 Si / 1000 Ang^3
#
#
#
# Elastic Constant Matrix: (Units=GPa)
#
#
# Indices 1 2 3 4 5 6 
#
# 1 126.9902 4.0699 19.9509 0.0002 -17.8362 -0.0001
# 2 4.0699 30.4120 25.7474 0.0001 -1.3732 0.0000
# 3 19.9509 25.7474 82.4207 0.0014 -13.4863 -0.0001
# 4 0.0002 0.0001 0.0014 25.2378 -0.0004 -3.5802
# 5 -17.8362 -1.3732 -13.4863 -0.0004 29.4912 0.0000
# 6 -0.0001 0.0000 -0.0001 -3.5802 0.0000 17.1202
#
#
#
# Elastic Compliance Matrix: (Units=1/GPa)
#
#
# Indices 1 2 3 4 5 6 
#
# 1 0.008744 0.000256 -0.001437 0.000000 0.004643 0.000000
# 2 0.000256 0.045311 -0.014966 0.000001 -0.004579 0.000000
# 3 -0.001437 -0.014966 0.018267 -0.000001 0.006787 0.000000
# 4 0.000000 0.000001 -0.000001 0.040834 0.000000 0.008539
# 5 0.004643 -0.004579 0.006787 0.000000 0.039607 0.000000
# 6 0.000000 0.000000 0.000000 0.008539 0.000000 0.060196
#
#
# Mechanical properties :
#
#
# Convention : Reuss Voigt Hill
#
# Bulk Modulus (GPa) = 24.98236 37.70658 31.34447
# Shear Modulus (GPa) = 19.33508 27.04016 23.18762
#
# Velocity S-wave (km/s) = 3.00806 3.55728 3.29413
# Velocity P-wave (km/s) = 4.87399 5.87522 5.39787
#
# Compressibility (1/GPa) = 0.04002824
#
# Stress axis : x y z
#
# Youngs Moduli (GPa) = 114.35968 22.06947 54.74480
#
# Poissons Ratio (x) = -0.00565 0.07866
# Poissons Ratio (y) = -0.02926 0.81932
# Poissons Ratio (z) = 0.16431 0.33029
#
# Static dielectric constant tensor:
#      x y z
#    x 4.403040 0.000000 -0.424540 
#    y 0.000000 3.300970 0.000000 
#    z -0.424540 0.000000 3.899320 
# 
# 
# High freq. dielectric constant tensor:
#      x y z
#    x 1.861490 0.000000 -0.018790 
#    y 0.000000 1.773600 0.000000 
#    z -0.018790 0.000000 1.839840 
# 
# From -- ./inp_files/306793.got.cif
#   From: 2010.06.25/outbox.cif.g09.slc.cpg/sg12_154_cif.got.tgz:306793.got - 2010.06.28 00:19:55.
