data_PCOD8113747
_publ_section_title
;
Structure prediction by ZEFSAII (Michael W. Deem and Ramdas Pophale) SiO2 
 PCOD8113747
Probable space group: C 2/M
;
_chemical_formula_sum "Si O2"
_cell_formula_units_Z 56
_cell_length_a 22.560927
_cell_length_b 8.939591
_cell_length_c 18.456685
_cell_angle_alpha 90.000000
_cell_angle_beta 63.033486
_cell_angle_gamma 90.000000
_cell_volume 3317.709896
_symmetry_space_group_name_H-M "C 2/M"
_symmetry_group_IT_number 12
_symmetry_cell_setting 'monoclinic'
loop_
_space_group_symop_operation_xyz
x,y,z
-x,y,-z
-x,-y,-z
x,-y,z
1/2+x,1/2+y,z
1/2-x,1/2+y,-z
1/2-x,1/2-y,-z
1/2+x,1/2-y,z
loop_
_atom_site_type_symbol
_atom_site_label
_atom_site_fract_x
_atom_site_fract_y
_atom_site_fract_z
Si Si1 0.760732 0.675967 0.071022
Si Si2 0.050290 0.169102 0.577284
Si Si3 0.363407 0.678799 0.765544
Si Si4 0.892976 0.828072 0.041623
Si Si5 0.001591 0.324215 0.261464
Si Si6 0.983580 0.172120 0.125768
Si Si7 0.403495 0.666766 0.594912
O O1 0.758321 0.500000 0.061718
O O2 0.702543 0.730884 0.156852
O O3 0.830253 0.721513 0.067501
O O4 0.750000 0.750000 0.000000
O O5 0.095559 0.241731 0.486343
O O6 0.051571 0.271070 0.648149
O O7 0.976255 0.163695 0.588539
O O8 0.073442 0.000000 0.583811
O O9 0.372481 0.500000 0.760728
O O10 0.426632 0.747908 0.770945
O O11 0.358200 0.738976 0.684190
O O12 0.923399 0.799567 0.103835
O O13 0.870894 0.000000 0.045040
O O14 0.946814 0.786968 0.950769
O O15 0.010284 0.500000 0.262596
O O16 0.971647 0.279145 0.200544
O O17 0.984586 0.000000 0.150560
O O18 0.378133 0.500000 0.594107
#
# Coordination Sequence:
#
# PCOD8113747 Si02
#       7
#     8   8   8   8   8   8   8
#     4  11  22  33  48  69  95 124 152 184 223 264
#     4   8  13  24  42  61  84 116 149 183 221 266
#     4   9  18  32  46  62  89 126 159 184 216 266
#     4   9  19  35  53  69  87 114 152 192 227 264
#     4  11  20  27  41  69  98 121 147 185 227 265
#     4   9  18  34  52  67  86 118 153 185 224 270
#     4   7  11  23  43  61  79 112 157 188 210 256
#
# _framework density 16.879114000000001
#
# number of rings (size 3 to 8) (size 9 to 14) (size 15 to 20)
#    0.000    2.857    0.000    5.143    0.000    5.714 
#    0.000    7.143    0.000    0.000    0.000    1.000 
#    0.000    0.000    0.000    0.000    0.000    0.000 
#
# Total GULP energy -346916.864119 kJ/mol
# GULP energy per Si atom -12389.888004 kJ/mol
# Density = 1.684070 g / cm^3
# Si number density = 16.879114 Si / 1000 Ang^3
#
#
#
# Elastic Constant Matrix: (Units=GPa)
#
#
# Indices 1 2 3 4 5 6 
#
# 1 57.1035 22.4627 45.9213 0.0000 2.5662 0.0001
# 2 22.4627 52.3758 42.8967 0.0000 4.0459 0.0001
# 3 45.9213 42.8967 160.6505 0.0000 10.5919 0.0000
# 4 0.0000 0.0000 0.0000 16.6728 0.0000 0.4921
# 5 2.5662 4.0459 10.5919 0.0000 19.8286 0.0000
# 6 0.0001 0.0001 0.0000 0.4921 0.0000 22.3599
#
#
#
# Elastic Compliance Matrix: (Units=1/GPa)
#
#
# Indices 1 2 3 4 5 6 
#
# 1 0.024152 -0.006049 -0.005352 0.000000 0.000968 0.000000
# 2 -0.006049 0.025999 -0.005094 0.000000 -0.001801 0.000000
# 3 -0.005352 -0.005094 0.009329 0.000000 -0.003251 0.000000
# 4 0.000000 0.000000 0.000000 0.060017 0.000000 -0.001321
# 5 0.000968 -0.001801 -0.003251 0.000000 0.052411 0.000000
# 6 0.000000 0.000000 0.000000 -0.001321 0.000000 0.044752
#
#
# Mechanical properties :
#
#
# Convention : Reuss Voigt Hill
#
# Bulk Modulus (GPa) = 37.75253 54.74346 46.24799
# Shear Modulus (GPa) = 19.34372 22.36220 20.85296
#
# Velocity S-wave (km/s) = 3.38896 3.64379 3.51868
# Velocity P-wave (km/s) = 6.14234 7.08562 6.63078
#
# Compressibility (1/GPa) = 0.02648829
#
# Stress axis : x y z
#
# Youngs Moduli (GPa) = 41.40361 38.46371 107.18977
#
# Poissons Ratio (x) = 0.23268 0.57372
# Poissons Ratio (y) = 0.25047 0.54604
# Poissons Ratio (z) = 0.22161 0.19594
#
# Static dielectric constant tensor:
#      x y z
#    x 2.774630 0.000000 0.060450 
#    y 0.000000 2.974530 0.000000 
#    z 0.060450 0.000000 3.840440 
# 
# 
# High freq. dielectric constant tensor:
#      x y z
#    x 1.601600 0.000000 0.014480 
#    y 0.000000 1.630100 0.000000 
#    z 0.014480 0.000000 1.673290 
# 
# From -- ./inp_files/287415.got.cif
#   From: 2010.06.25/outbox.cif.g09.slc.cpg/sg12_144_cif.got.tgz:287415.got - 2010.06.28 00:19:55.
