data_PCOD8113989
_publ_section_title
;
Structure prediction by ZEFSAII (Michael W. Deem and Ramdas Pophale) SiO2 
 PCOD8113989
Probable space group: C 2/M
;
_chemical_formula_sum "Si O2"
_cell_formula_units_Z 48
_cell_length_a 12.313151
_cell_length_b 23.782245
_cell_length_c 11.806150
_cell_angle_alpha 90.000000
_cell_angle_beta 46.067212
_cell_angle_gamma 90.000000
_cell_volume 2489.750578
_symmetry_space_group_name_H-M "C 2/M"
_symmetry_group_IT_number 12
_symmetry_cell_setting 'monoclinic'
loop_
_space_group_symop_operation_xyz
x,y,z
-x,y,-z
-x,-y,-z
x,-y,z
1/2+x,1/2+y,z
1/2-x,1/2+y,-z
1/2-x,1/2-y,-z
1/2+x,1/2-y,z
loop_
_atom_site_type_symbol
_atom_site_label
_atom_site_fract_x
_atom_site_fract_y
_atom_site_fract_z
Si Si1 0.340946 0.500000 0.971158
Si Si2 0.838999 0.687460 0.788207
Si Si3 0.313337 0.809763 0.413630
Si Si4 0.194734 0.000000 0.750671
Si Si5 0.352216 0.306803 0.684320
Si Si6 0.142140 0.121449 0.105866
Si Si7 0.802856 0.880125 0.312542
O O1 0.517470 0.500000 0.862420
O O2 0.293813 0.557309 0.939595
O O3 0.257915 0.500000 0.152138
O O4 0.811095 0.753585 0.792198
O O5 0.789716 0.656647 0.709494
O O6 0.014581 0.679438 0.682526
O O7 0.750008 0.663722 0.960123
O O8 0.250000 0.750000 0.500000
O O9 0.288230 0.817500 0.297743
O O10 0.219003 0.857565 0.545547
O O11 0.260616 0.943800 0.645757
O O12 0.500000 0.296243 0.500000
O O13 0.372198 0.359656 0.753226
O O14 0.981495 0.122695 0.157150
#
# Coordination Sequence:
#
# PCOD8113989 Si02
#       7
#     4   8   8   4   8   8   8
#     4   9  18  38  61  93 124 158 203 267 304 345
#     4  12  23  38  63  93 123 162 202 257 311 363
#     4  12  23  40  60  86 132 166 200 248 314 373
#     4   9  18  34  63  92 125 156 205 262 307 344
#     4  12  23  41  61  87 127 169 201 251 309 373
#     4  11  23  40  66  94 121 162 214 254 302 366
#     4  11  20  39  65  93 123 162 205 254 307 365
#
# _framework density 19.279039000000001
#
# number of rings (size 3 to 8) (size 9 to 14) (size 15 to 20)
#    0.000    0.833    6.667    1.500    0.000    0.667 
#    3.000    3.750    0.000    1.000    0.000    0.000 
#    0.000    0.000    0.000    0.000    0.000    0.000 
#
# Total GULP energy -297582.397962 kJ/mol
# GULP energy per Si atom -12399.266582 kJ/mol
# Density = 1.923516 g / cm^3
# Si number density = 19.279039 Si / 1000 Ang^3
#
#
#
# Elastic Constant Matrix: (Units=GPa)
#
#
# Indices 1 2 3 4 5 6 
#
# 1 78.1945 37.7828 30.6214 0.0000 9.0651 0.0000
# 2 37.7828 164.5599 56.9701 0.0000 17.5314 0.0000
# 3 30.6214 56.9701 82.1874 0.0000 4.4182 0.0000
# 4 0.0000 0.0000 0.0000 31.7848 0.0000 9.4709
# 5 9.0651 17.5314 4.4182 0.0000 32.6362 0.0000
# 6 0.0000 0.0000 0.0000 9.4709 0.0000 27.2841
#
#
#
# Elastic Compliance Matrix: (Units=1/GPa)
#
#
# Indices 1 2 3 4 5 6 
#
# 1 0.015721 -0.001755 -0.004489 0.000000 -0.002816 0.000000
# 2 -0.001755 0.008627 -0.005141 0.000000 -0.003451 0.000000
# 3 -0.004489 -0.005141 0.017314 0.000000 0.001664 0.000000
# 4 0.000000 0.000000 0.000000 0.035091 0.000000 -0.012181
# 5 -0.002816 -0.003451 0.001664 0.000000 0.033051 0.000000
# 6 0.000000 0.000000 0.000000 -0.012181 0.000000 0.040880
#
#
# Mechanical properties :
#
#
# Convention : Reuss Voigt Hill
#
# Bulk Modulus (GPa) = 52.93325 63.96561 58.44943
# Shear Modulus (GPa) = 27.81612 31.64553 29.73083
#
# Velocity S-wave (km/s) = 3.80256 4.05587 3.93126
# Velocity P-wave (km/s) = 6.84071 7.42862 7.14072
#
# Compressibility (1/GPa) = 0.01889172
#
# Stress axis : x y z
#
# Youngs Moduli (GPa) = 63.60795 115.91347 57.75764
#
# Poissons Ratio (x) = 0.20348 0.25929
# Poissons Ratio (y) = 0.11166 0.29691
# Poissons Ratio (z) = 0.28555 0.59586
#
# Static dielectric constant tensor:
#      x y z
#    x 3.619400 0.000000 0.067610 
#    y 0.000000 3.897460 0.000000 
#    z 0.067610 0.000000 3.443660 
# 
# 
# High freq. dielectric constant tensor:
#      x y z
#    x 1.745110 0.000000 0.005970 
#    y 0.000000 1.755760 0.000000 
#    z 0.005970 0.000000 1.736590 
# 
# From -- ./inp_files/135214.got.cif
#   From: 2010.06.25/outbox.cif.g09.slc.cpg/sg12_68_cif.got.tgz:135214.got - 2010.06.28 00:19:55.
