data_PCOD8113411
_publ_section_title
;
Structure prediction by ZEFSAII (Michael W. Deem and Ramdas Pophale) SiO2 
 PCOD8113411
Probable space group: C 2/M
;
_chemical_formula_sum "Si O2"
_cell_formula_units_Z 56
_cell_length_a 29.178616
_cell_length_b 8.698243
_cell_length_c 12.540423
_cell_angle_alpha 90.000000
_cell_angle_beta 60.058195
_cell_angle_gamma 90.000000
_cell_volume 2757.994648
_symmetry_space_group_name_H-M "C 2/M"
_symmetry_group_IT_number 12
_symmetry_cell_setting 'monoclinic'
loop_
_space_group_symop_operation_xyz
x,y,z
-x,y,-z
-x,-y,-z
x,-y,z
1/2+x,1/2+y,z
1/2-x,1/2+y,-z
1/2-x,1/2-y,-z
1/2+x,1/2-y,z
loop_
_atom_site_type_symbol
_atom_site_label
_atom_site_fract_x
_atom_site_fract_y
_atom_site_fract_z
Si Si1 0.356064 0.818397 0.523757
Si Si2 0.059375 0.322852 0.394757
Si Si3 0.741994 0.182640 0.700135
Si Si4 0.056649 0.818985 0.964038
Si Si5 0.645553 0.682621 0.698994
Si Si6 0.599408 0.678439 0.140685
Si Si7 0.708295 0.178868 0.970759
O O1 0.399344 0.772281 0.562015
O O2 0.299083 0.759073 0.626103
O O3 0.373910 0.735677 0.394337
O O4 0.354307 0.000000 0.507634
O O5 0.068638 0.500000 0.352832
O O6 0.066156 0.216618 0.283790
O O7 0.000000 0.293154 0.500000
O O8 0.703093 0.243323 0.653141
O O9 0.716493 0.238737 0.841079
O O10 0.748100 0.000000 0.683283
O O11 0.103181 0.753313 0.834366
O O12 0.054823 0.000000 0.947922
O O13 0.066152 0.774829 0.075383
O O14 0.000000 0.745149 0.000000
O O15 0.651102 0.500000 0.696884
O O16 0.614892 0.500000 0.120020
O O17 0.651642 0.779117 0.081869
O O18 0.716873 0.000000 0.963270
O O19 0.750000 0.250000 0.000000
#
# Coordination Sequence:
#
# PCOD8113411 Si02
#       7
#     8   8   8   8   8   8   8
#     4  11  24  41  62  88 123 163 206 253 304 364
#     4  10  24  45  65  88 124 167 208 255 310 365
#     4  11  23  40  61  89 124 160 204 250 302 367
#     4   9  20  38  61  92 126 160 199 249 307 362
#     4  11  22  39  65  92 125 162 201 250 306 366
#     4  11  22  39  65  94 125 159 205 255 305 367
#     4  11  23  38  61  90 125 163 204 253 305 366
#
# _framework density 20.304608999999999
#
# number of rings (size 3 to 8) (size 9 to 14) (size 15 to 20)
#    0.000    1.429    1.429    3.429    2.000    5.429 
#    0.000    0.000    0.000    3.429    0.000    0.000 
#    0.000    0.000    0.000    0.000    0.000    0.000 
#
# Total GULP energy -347332.175365 kJ/mol
# GULP energy per Si atom -12404.720549 kJ/mol
# Density = 2.025839 g / cm^3
# Si number density = 20.304609 Si / 1000 Ang^3
#
#
#
# Elastic Constant Matrix: (Units=GPa)
#
#
# Indices 1 2 3 4 5 6 
#
# 1 155.6007 26.9824 58.0239 0.0000 -2.6061 0.0000
# 2 26.9824 43.8433 26.6239 0.0000 7.0326 0.0000
# 3 58.0239 26.6239 122.5574 0.0000 9.5477 0.0000
# 4 0.0000 0.0000 0.0000 32.3399 0.0000 4.3030
# 5 -2.6061 7.0326 9.5477 0.0000 33.9005 0.0000
# 6 0.0000 0.0000 0.0000 4.3030 0.0000 23.9421
#
#
#
# Elastic Compliance Matrix: (Units=1/GPa)
#
#
# Indices 1 2 3 4 5 6 
#
# 1 0.008319 -0.003443 -0.003370 0.000000 0.002303 0.000000
# 2 -0.003443 0.028221 -0.004114 0.000000 -0.004960 0.000000
# 3 -0.003370 -0.004114 0.010840 0.000000 -0.002459 0.000000
# 4 0.000000 0.000000 0.000000 0.031679 0.000000 -0.005693
# 5 0.002303 -0.004960 -0.002459 0.000000 0.031397 0.000000
# 6 0.000000 0.000000 0.000000 -0.005693 0.000000 0.042791
#
#
# Mechanical properties :
#
#
# Convention : Reuss Voigt Hill
#
# Bulk Modulus (GPa) = 39.17508 60.58463 49.87986
# Shear Modulus (GPa) = 27.23163 32.06124 29.64643
#
# Velocity S-wave (km/s) = 3.66615 3.97799 3.82525
# Velocity P-wave (km/s) = 6.10381 7.14156 6.64298
#
# Compressibility (1/GPa) = 0.02552643
#
# Stress axis : x y z
#
# Youngs Moduli (GPa) = 120.20720 35.43421 92.24824
#
# Poissons Ratio (x) = 0.12199 0.31089
# Poissons Ratio (y) = 0.41383 0.37954
# Poissons Ratio (z) = 0.40511 0.14579
#
# Static dielectric constant tensor:
#      x y z
#    x 3.763860 0.000000 0.086300 
#    y 0.000000 3.607080 0.000000 
#    z 0.086300 0.000000 3.823410 
# 
# 
# High freq. dielectric constant tensor:
#      x y z
#    x 1.805720 0.000000 0.003500 
#    y 0.000000 1.784880 0.000000 
#    z 0.003500 0.000000 1.806810 
# 
# From -- ./inp_files/187271.got.cif
#   From: 2010.06.25/outbox.cif.g09.slc.cpg/sg12_94_cif.got.tgz:187271.got - 2010.06.28 00:19:55.
