data_PCOD8113548
_publ_section_title
;
Structure prediction by ZEFSAII (Michael W. Deem and Ramdas Pophale) SiO2 
 PCOD8113548
Probable space group: C 2/M
;
_chemical_formula_sum "Si O2"
_cell_formula_units_Z 64
_cell_length_a 31.152354
_cell_length_b 8.751682
_cell_length_c 24.303061
_cell_angle_alpha 90.000000
_cell_angle_beta 27.574303
_cell_angle_gamma 90.000000
_cell_volume 3067.108753
_symmetry_space_group_name_H-M "C 2/M"
_symmetry_group_IT_number 12
_symmetry_cell_setting 'monoclinic'
loop_
_space_group_symop_operation_xyz
x,y,z
-x,y,-z
-x,-y,-z
x,-y,z
1/2+x,1/2+y,z
1/2-x,1/2+y,-z
1/2-x,1/2-y,-z
1/2+x,1/2-y,z
loop_
_atom_site_type_symbol
_atom_site_label
_atom_site_fract_x
_atom_site_fract_y
_atom_site_fract_z
Si Si1 0.398189 0.826734 0.982483
Si Si2 0.516310 0.673909 0.212670
Si Si3 0.808944 0.827317 0.798955
Si Si4 0.841499 0.321261 0.871311
Si Si5 0.395654 0.320354 0.102133
Si Si6 0.398030 0.819502 0.596683
Si Si7 0.222581 0.182070 0.359293
Si Si8 0.305401 0.672401 0.485580
O O1 0.473749 0.734972 0.860991
O O2 0.432710 0.000000 0.953597
O O3 0.300068 0.826844 0.062014
O O4 0.380411 0.739643 0.058725
O O5 0.553567 0.500000 0.174043
O O6 0.572126 0.786736 0.188370
O O7 0.411917 0.684868 0.349678
O O8 0.864391 0.751156 0.785982
O O9 0.824964 0.730475 0.725837
O O10 0.844617 0.000000 0.749403
O O11 0.827408 0.500000 0.880431
O O12 0.750000 0.250000 0.000000
O O13 0.376944 0.500000 0.126124
O O14 0.322625 0.238663 0.225077
O O15 0.500000 0.277431 0.000000
O O16 0.500000 0.762019 0.500000
O O17 0.363854 0.746276 0.578161
O O18 0.396769 0.000000 0.590730
O O19 0.211527 0.243493 0.434529
O O20 0.218104 0.000000 0.360907
O O21 0.270358 0.500000 0.527310
O O22 0.250000 0.750000 0.500000
#
# Coordination Sequence:
#
# PCOD8113548 Si02
#       8
#     8   8   8   8   8   8   8   8
#     4  11  23  40  65  97 129 168 215 266 325 388
#     4  11  24  43  66  95 131 173 219 269 323 388
#     4  11  23  40  63  92 128 171 214 263 324 386
#     4  12  24  39  61  93 129 170 213 260 317 381
#     4  11  25  43  67  98 130 167 209 265 331 391
#     4  11  25  43  65  97 131 171 219 269 326 389
#     4  11  24  45  69  99 133 173 221 271 326 391
#     4  10  26  48  70  97 129 172 223 273 328 386
#
# _framework density 20.866558000000001
#
# number of rings (size 3 to 8) (size 9 to 14) (size 15 to 20)
#    0.000    1.000    2.500    3.375    3.500    5.000 
#    0.000    0.000    0.000    0.000    0.000    0.000 
#    0.000    0.000    0.000    0.000    0.000    0.000 
#
# Total GULP energy -396918.573791 kJ/mol
# GULP energy per Si atom -12403.705431 kJ/mol
# Density = 2.081906 g / cm^3
# Si number density = 20.866558 Si / 1000 Ang^3
#
#
#
# Elastic Constant Matrix: (Units=GPa)
#
#
# Indices 1 2 3 4 5 6 
#
# 1 137.0734 53.8807 66.8789 0.0018 16.8663 -0.0026
# 2 53.8807 95.7034 44.9370 0.0004 -1.6239 0.0019
# 3 66.8789 44.9370 93.1241 0.0274 14.8917 -0.0037
# 4 0.0018 0.0004 0.0274 32.6653 -0.0011 0.2154
# 5 16.8663 -1.6239 14.8917 -0.0011 41.0661 -0.0025
# 6 -0.0026 0.0019 -0.0037 0.2154 -0.0025 37.4375
#
#
#
# Elastic Compliance Matrix: (Units=1/GPa)
#
#
# Indices 1 2 3 4 5 6 
#
# 1 0.012391 -0.003960 -0.006528 0.000005 -0.002879 0.000000
# 2 -0.003960 0.015152 -0.005120 0.000004 0.004082 -0.000001
# 3 -0.006528 -0.005120 0.018578 -0.000015 -0.004258 0.000001
# 4 0.000005 0.000004 -0.000015 0.030615 0.000005 -0.000176
# 5 -0.002879 0.004082 -0.004258 0.000005 0.027239 0.000001
# 6 0.000000 -0.000001 0.000001 -0.000176 0.000001 0.026712
#
#
# Mechanical properties :
#
#
# Convention : Reuss Voigt Hill
#
# Bulk Modulus (GPa) = 67.09155 73.03268 70.06212
# Shear Modulus (GPa) = 29.96317 32.91406 31.43862
#
# Velocity S-wave (km/s) = 3.79349 3.97591 3.88577
# Velocity P-wave (km/s) = 7.17007 7.49353 7.33358
#
# Compressibility (1/GPa) = 0.01490501
#
# Stress axis : x y z
#
# Youngs Moduli (GPa) = 80.70356 65.99821 53.82646
#
# Poissons Ratio (x) = 0.26135 0.35136
# Poissons Ratio (y) = 0.31958 0.27562
# Poissons Ratio (z) = 0.52681 0.33794
#
# Static dielectric constant tensor:
#      x y z
#    x 3.909050 -0.000090 0.121870 
#    y -0.000090 3.956230 0.000180 
#    z 0.121870 0.000180 3.680690 
# 
# 
# High freq. dielectric constant tensor:
#      x y z
#    x 1.826930 0.000000 0.006990 
#    y 0.000000 1.826900 0.000000 
#    z 0.006990 0.000000 1.819500 
# 
# From -- ./inp_files/353260.got.cif
#   From: 2010.06.25/outbox.cif.g09.slc.cpg/sg12_177_cif.got.tgz:353260.got - 2010.06.28 00:19:55.
