data_PCOD8113243
_publ_section_title
;
Structure prediction by ZEFSAII (Michael W. Deem and Ramdas Pophale) SiO2 
 PCOD8113243
Probable space group: C 2/M
;
_chemical_formula_sum "Si O2"
_cell_formula_units_Z 64
_cell_length_a 14.971960
_cell_length_b 22.842056
_cell_length_c 9.084629
_cell_angle_alpha 90.000000
_cell_angle_beta 93.414033
_cell_angle_gamma 90.000000
_cell_volume 3101.341618
_symmetry_space_group_name_H-M "C 2/M"
_symmetry_group_IT_number 12
_symmetry_cell_setting 'monoclinic'
loop_
_space_group_symop_operation_xyz
x,y,z
-x,y,-z
-x,-y,-z
x,-y,z
1/2+x,1/2+y,z
1/2-x,1/2+y,-z
1/2-x,1/2-y,-z
1/2+x,1/2-y,z
loop_
_atom_site_type_symbol
_atom_site_label
_atom_site_fract_x
_atom_site_fract_y
_atom_site_fract_z
Si Si1 0.100585 0.639775 0.701361
Si Si2 0.793951 0.741936 0.160843
Si Si3 0.101656 0.346600 0.362681
Si Si4 0.170585 0.226060 0.390946
Si Si5 0.604784 0.396577 0.359743
Si Si6 0.735274 0.628383 0.826282
Si Si7 0.080128 0.064008 0.670133
Si Si8 0.253805 0.931220 0.138463
O O1 0.120709 0.699819 0.798518
O O2 0.131095 0.640730 0.533618
O O3 0.152036 0.584337 0.774634
O O4 0.994456 0.628352 0.694167
O O5 0.715053 0.709615 0.240588
O O6 0.812113 0.808819 0.212383
O O7 0.750000 0.750000 0.000000
O O8 0.096326 0.275853 0.356051
O O9 0.171731 0.373844 0.254614
O O10 0.250000 0.250000 0.500000
O O11 0.126694 0.165971 0.438638
O O12 0.502559 0.393970 0.289671
O O13 0.602331 0.439804 0.498355
O O14 0.671621 0.418334 0.240181
O O15 0.670100 0.579270 0.762431
O O16 0.750479 0.612914 0.998898
O O17 0.051889 0.000000 0.721299
O O18 0.254052 0.000000 0.094557
#
# Coordination Sequence:
#
# PCOD8113243 Si02
#       8
#     8   8   8   8   8   8   8   8
#     4  11  22  42  65  98 130 171 214 263 324 383
#     4  11  20  38  61  92 128 162 206 256 317 389
#     4  10  24  39  67  95 135 163 213 271 323 385
#     4  11  19  36  61  95 128 168 204 257 322 385
#     4  11  22  39  64  94 126 169 216 263 320 387
#     4  11  24  41  63  93 125 171 213 267 321 381
#     4  11  24  40  61  93 129 168 219 266 312 375
#     4  12  24  44  67  89 128 176 217 266 326 383
#
# _framework density 20.636230999999999
#
# number of rings (size 3 to 8) (size 9 to 14) (size 15 to 20)
#    0.000    1.000    3.750    4.125    1.750    2.000 
#    0.000    5.000    0.000    0.000    0.000    0.000 
#    0.000    0.000    0.000    0.000    0.000    0.000 
#
# Total GULP energy -396472.495038 kJ/mol
# GULP energy per Si atom -12389.765470 kJ/mol
# Density = 2.058926 g / cm^3
# Si number density = 20.636231 Si / 1000 Ang^3
#
#
#
# Elastic Constant Matrix: (Units=GPa)
#
#
# Indices 1 2 3 4 5 6 
#
# 1 122.0947 48.0919 53.8713 0.0000 1.1001 0.0000
# 2 48.0919 105.3617 17.9248 0.0000 1.8602 0.0000
# 3 53.8713 17.9248 104.1493 0.0000 4.4109 0.0000
# 4 0.0000 0.0000 0.0000 26.7337 0.0000 0.7416
# 5 1.1001 1.8602 4.4109 0.0000 21.2891 0.0000
# 6 0.0000 0.0000 0.0000 0.7416 0.0000 23.0594
#
#
#
# Elastic Compliance Matrix: (Units=1/GPa)
#
#
# Indices 1 2 3 4 5 6 
#
# 1 0.012599 -0.004792 -0.005732 0.000000 0.000955 0.000000
# 2 -0.004792 0.011606 0.000518 0.000000 -0.000874 0.000000
# 3 -0.005732 0.000518 0.012577 0.000000 -0.002355 0.000000
# 4 0.000000 0.000000 0.000000 0.037439 0.000000 -0.001204
# 5 0.000955 -0.000874 -0.002355 0.000000 0.047487 0.000000
# 6 0.000000 0.000000 0.000000 -0.001204 0.000000 0.043405
#
#
# Mechanical properties :
#
#
# Convention : Reuss Voigt Hill
#
# Bulk Modulus (GPa) = 59.63329 63.48683 61.56006
# Shear Modulus (GPa) = 26.21709 28.33096 27.27402
#
# Velocity S-wave (km/s) = 3.56819 3.70925 3.63940
# Velocity P-wave (km/s) = 6.77762 7.01258 6.89610
#
# Compressibility (1/GPa) = 0.01676916
#
# Stress axis : x y z
#
# Youngs Moduli (GPa) = 79.37379 86.16417 79.50912
#
# Poissons Ratio (x) = 0.41292 0.45577
# Poissons Ratio (y) = 0.38038 -0.04122
# Poissons Ratio (z) = 0.45500 -0.04466
#
# Static dielectric constant tensor:
#      x y z
#    x 3.649140 0.000000 0.022660 
#    y 0.000000 3.949810 0.000000 
#    z 0.022660 0.000000 3.776490 
# 
# 
# High freq. dielectric constant tensor:
#      x y z
#    x 1.801410 0.000000 0.003140 
#    y 0.000000 1.804970 0.000000 
#    z 0.003140 0.000000 1.811210 
# 
# From -- ./inp_files/65857.got.cif
#   From: 2010.06.25/outbox.cif.g09.slc.cpg/sg12_33_cif.got.tgz:65857.got - 2010.06.28 00:19:55.
