data_PCOD8113162
_publ_section_title
;
Structure prediction by ZEFSAII (Michael W. Deem and Ramdas Pophale) SiO2 
 PCOD8113162
Probable space group: C 2/M
;
_chemical_formula_sum "Si O2"
_cell_formula_units_Z 56
_cell_length_a 8.629883
_cell_length_b 26.814518
_cell_length_c 12.074962
_cell_angle_alpha 90.000000
_cell_angle_beta 67.357114
_cell_angle_gamma 90.000000
_cell_volume 2578.848450
_symmetry_space_group_name_H-M "C 2/M"
_symmetry_group_IT_number 12
_symmetry_cell_setting 'monoclinic'
loop_
_space_group_symop_operation_xyz
x,y,z
-x,y,-z
-x,-y,-z
x,-y,z
1/2+x,1/2+y,z
1/2-x,1/2+y,-z
1/2-x,1/2-y,-z
1/2+x,1/2-y,z
loop_
_atom_site_type_symbol
_atom_site_label
_atom_site_fract_x
_atom_site_fract_y
_atom_site_fract_z
Si Si1 0.873709 0.800155 0.328743
Si Si2 0.843104 0.370025 0.969314
Si Si3 0.681713 0.554784 0.400513
Si Si4 0.918384 0.700578 0.764247
Si Si5 0.157795 0.055400 0.875987
Si Si6 0.571502 0.392214 0.220693
Si Si7 0.643112 0.853557 0.547999
O O1 0.755937 0.802478 0.253616
O O2 0.760486 0.807143 0.471452
O O3 0.996887 0.753653 0.281578
O O4 0.998792 0.846183 0.307725
O O5 0.877180 0.315561 0.902726
O O6 0.808800 0.410541 0.881927
O O7 0.680611 0.368475 0.091627
O O8 0.000000 0.386849 0.000000
O O9 0.500000 0.548224 0.500000
O O10 0.770303 0.500000 0.376992
O O11 0.680033 0.573799 0.273590
O O12 0.768820 0.593857 0.457930
O O13 0.059515 0.661731 0.686429
O O14 0.088826 0.076894 0.779646
O O15 0.231512 0.000000 0.837269
O O16 0.000000 0.053264 0.000000
O O17 0.500000 0.864171 0.500000
#
# Coordination Sequence:
#
# PCOD8113162 Si02
#       7
#     8   8   8   8   8   8   8
#     4  11  24  42  68  95 127 176 216 272 332 387
#     4  11  24  41  63  95 137 168 213 272 326 390
#     4  11  23  40  70 103 132 172 223 271 328 393
#     4  11  25  43  65  98 128 173 224 268 332 394
#     4   9  19  39  66  90 123 172 219 264 322 393
#     4  11  22  43  65  93 135 172 215 270 328 392
#     4  10  23  45  67  95 139 170 216 273 329 391
#
# _framework density 21.715118
#
# number of rings (size 3 to 8) (size 9 to 14) (size 15 to 20)
#    0.000    1.429    2.857    1.714    4.000    1.714 
#    0.000    2.143    0.000    0.000    0.000    0.000 
#    0.000    0.000    0.000    0.000    0.000    0.000 
#
# Total GULP energy -347033.993412 kJ/mol
# GULP energy per Si atom -12394.071193 kJ/mol
# Density = 2.166569 g / cm^3
# Si number density = 21.715118 Si / 1000 Ang^3
#
#
#
# Elastic Constant Matrix: (Units=GPa)
#
#
# Indices 1 2 3 4 5 6 
#
# 1 65.3436 38.6085 8.8032 0.0000 5.2953 0.0000
# 2 38.6085 141.5357 27.5229 0.0000 3.4644 0.0000
# 3 8.8032 27.5229 88.8120 0.0000 2.7689 0.0000
# 4 0.0000 0.0000 0.0000 32.2820 0.0000 9.0974
# 5 5.2953 3.4644 2.7689 0.0000 24.6076 0.0000
# 6 0.0000 0.0000 0.0000 9.0974 0.0000 29.5064
#
#
#
# Elastic Compliance Matrix: (Units=1/GPa)
#
#
# Indices 1 2 3 4 5 6 
#
# 1 0.018508 -0.004929 -0.000205 0.000000 -0.003266 0.000000
# 2 -0.004929 0.008847 -0.002255 0.000000 0.000069 0.000000
# 3 -0.000205 -0.002255 0.012010 0.000000 -0.000990 0.000000
# 4 0.000000 0.000000 0.000000 0.033925 0.000000 -0.010460
# 5 -0.003266 0.000069 -0.000990 0.000000 0.041442 0.000000
# 6 0.000000 0.000000 0.000000 -0.010460 0.000000 0.037116
#
#
# Mechanical properties :
#
#
# Convention : Reuss Voigt Hill
#
# Bulk Modulus (GPa) = 40.67341 49.50673 45.09007
# Shear Modulus (GPa) = 28.60058 31.99633 30.29845
#
# Velocity S-wave (km/s) = 3.63310 3.84273 3.73938
# Velocity P-wave (km/s) = 6.03078 6.52200 6.28120
#
# Compressibility (1/GPa) = 0.02458609
#
# Stress axis : x y z
#
# Youngs Moduli (GPa) = 54.02987 113.03618 83.26511
#
# Poissons Ratio (x) = 0.55714 0.01709
# Poissons Ratio (y) = 0.26631 0.18778
# Poissons Ratio (z) = 0.01109 0.25492
#
# Static dielectric constant tensor:
#      x y z
#    x 3.896170 0.000000 -0.043730 
#    y 0.000000 4.093580 0.000000 
#    z -0.043730 0.000000 3.955900 
# 
# 
# High freq. dielectric constant tensor:
#      x y z
#    x 1.851890 0.000000 0.001480 
#    y 0.000000 1.852830 0.000000 
#    z 0.001480 0.000000 1.850720 
# 
# From -- ./inp_files/124259.got.cif
#   From: 2010.06.25/outbox.cif.g09.slc.cpg/sg12_63_cif.got.tgz:124259.got - 2010.06.28 00:19:55.
