data_PCOD8113113
_publ_section_title
;
Structure prediction by ZEFSAII (Michael W. Deem and Ramdas Pophale) SiO2 
 PCOD8113113
Probable space group: C 2/M
;
_chemical_formula_sum "Si O2"
_cell_formula_units_Z 32
_cell_length_a 10.710023
_cell_length_b 27.962676
_cell_length_c 13.216965
_cell_angle_alpha 90.000000
_cell_angle_beta 21.409349
_cell_angle_gamma 90.000000
_cell_volume 1444.867048
_symmetry_space_group_name_H-M "C 2/M"
_symmetry_group_IT_number 12
_symmetry_cell_setting 'monoclinic'
loop_
_space_group_symop_operation_xyz
x,y,z
-x,y,-z
-x,-y,-z
x,-y,z
1/2+x,1/2+y,z
1/2-x,1/2+y,-z
1/2-x,1/2-y,-z
1/2+x,1/2-y,z
loop_
_atom_site_type_symbol
_atom_site_label
_atom_site_fract_x
_atom_site_fract_y
_atom_site_fract_z
Si Si1 0.389954 0.556528 0.694431
Si Si2 0.876189 0.270859 0.195681
Si Si3 0.226029 0.326956 0.085501
Si Si4 0.304701 0.888567 0.550601
O O1 0.500000 0.573456 0.500000
O O2 0.407550 0.500000 0.692980
O O3 0.662397 0.575533 0.572530
O O4 0.000000 0.574754 0.000000
O O5 0.500000 0.251083 0.500000
O O6 0.910145 0.312816 0.252775
O O7 0.000000 0.297287 0.000000
O O8 0.112985 0.224335 0.014862
O O9 0.084689 0.351823 0.293393
O O10 0.477583 0.361323 0.837268
O O11 0.500000 0.913522 0.500000
#
# Coordination Sequence:
#
# PCOD8113113 Si02
#       4
#     8   8   8   8
#     4  10  23  44  68  94 125 159 197 248 306 364
#     4  11  22  38  58  81 117 163 211 257 301 353
#     4  11  24  38  57  87 121 161 205 253 306 355
#     4  12  24  40  64  92 125 162 202 251 306 366
#
# _framework density 22.147366000000002
#
# number of rings (size 3 to 8) (size 9 to 14) (size 15 to 20)
#    0.000    1.000    0.000    7.500    0.000   10.500 
#    0.000    0.000    0.000    7.500    0.000    0.000 
#    0.000    0.000    0.000    0.000    0.000    0.000 
#
# Total GULP energy -198220.515557 kJ/mol
# GULP energy per Si atom -12388.782222 kJ/mol
# Density = 2.209696 g / cm^3
# Si number density = 22.147366 Si / 1000 Ang^3
#
#
#
# Elastic Constant Matrix: (Units=GPa)
#
#
# Indices 1 2 3 4 5 6 
#
# 1 182.5401 49.7126 53.9669 0.0042 -0.4700 -0.0140
# 2 49.7126 48.7299 25.6430 0.0016 -4.5758 -0.0098
# 3 53.9669 25.6430 164.7306 0.0364 24.5476 -0.0284
# 4 0.0042 0.0016 0.0364 6.7080 0.0008 68.8073
# 5 -0.4700 -4.5758 24.5476 0.0008 46.5602 -0.0312
# 6 -0.0140 -0.0098 -0.0284 68.8073 -0.0312 -267.9769
#
#
#
# Elastic Compliance Matrix: (Units=1/GPa)
#
#
# Indices 1 2 3 4 5 6 
#
# 1 0.007893 -0.007261 -0.001477 0.000001 0.000145 0.000000
# 2 -0.007261 0.029885 -0.002930 0.000006 0.004409 0.000001
# 3 -0.001477 -0.002930 0.007657 -0.000011 -0.004340 -0.000003
# 4 0.000001 0.000006 -0.000011 0.041025 0.000012 0.010534
# 5 0.000145 0.004409 -0.004340 0.000012 0.024200 0.000001
# 6 0.000000 0.000001 -0.000003 0.010534 0.000001 -0.001027
#
#
# Mechanical properties :
#
#
# Convention : Reuss Voigt Hill
#
# Bulk Modulus (GPa) = 45.25268 72.73838 58.99553
# Shear Modulus (GPa) = 35.62884 -25.16319 5.23283
#
# Velocity S-wave (km/s) = 4.01523 -3.37437 1.53879
# Velocity P-wave (km/s) = 6.47866 4.21098 5.46376
#
# Compressibility (1/GPa) = 0.02209814
#
# Stress axis : x y z
#
# Youngs Moduli (GPa) = 126.69854 33.46195 130.59515
#
# Poissons Ratio (x) = 0.24297 0.19289
# Poissons Ratio (y) = 0.91997 0.38267
# Poissons Ratio (z) = 0.18713 0.09805
#
# Static dielectric constant tensor:
#      x y z
#    x 5.268970 -0.000460 0.471360 
#    y -0.000460 3.447000 -0.000370 
#    z 0.471360 -0.000370 4.372630 
# 
# 
# High freq. dielectric constant tensor:
#      x y z
#    x 1.896590 0.000000 0.004640 
#    y 0.000000 1.843710 0.000000 
#    z 0.004640 0.000000 1.890280 
# 
# From -- ./inp_files/209029.got.cif
#   From: 2010.06.25/outbox.cif.g09.slc.cpg/sg12_105_cif.got.tgz:209029.got - 2010.06.28 00:19:55.
