data_PCOD8113703
_publ_section_title
;
Structure prediction by ZEFSAII (Michael W. Deem and Ramdas Pophale) SiO2 
 PCOD8113703
Probable space group: C 2/M
;
_chemical_formula_sum "Si O2"
_cell_formula_units_Z 40
_cell_length_a 13.517183
_cell_length_b 13.256497
_cell_length_c 10.260269
_cell_angle_alpha 90.000000
_cell_angle_beta 99.070346
_cell_angle_gamma 90.000000
_cell_volume 1815.552690
_symmetry_space_group_name_H-M "C 2/M"
_symmetry_group_IT_number 12
_symmetry_cell_setting 'monoclinic'
loop_
_space_group_symop_operation_xyz
x,y,z
-x,y,-z
-x,-y,-z
x,-y,z
1/2+x,1/2+y,z
1/2-x,1/2+y,-z
1/2-x,1/2-y,-z
1/2+x,1/2-y,z
loop_
_atom_site_type_symbol
_atom_site_label
_atom_site_fract_x
_atom_site_fract_y
_atom_site_fract_z
Si Si1 0.186768 0.000000 0.523323
Si Si2 0.500000 0.822505 0.000000
Si Si3 0.902209 0.500000 0.645966
Si Si4 0.681840 0.712525 0.605055
Si Si5 0.732591 0.500000 0.226986
Si Si6 0.304952 0.721265 0.877271
Si Si7 0.000000 0.665235 0.500000
Si Si8 0.567779 0.000000 0.860397
O O1 0.285338 0.000000 0.632327
O O2 0.135190 0.897699 0.560630
O O3 0.205397 0.000000 0.372738
O O4 0.422836 0.753088 0.901468
O O5 0.578699 0.894926 0.939497
O O6 0.934571 0.398484 0.583764
O O7 0.950847 0.500000 0.797325
O O8 0.750000 0.750000 0.500000
O O9 0.746995 0.719910 0.749805
O O10 0.579612 0.773771 0.603174
O O11 0.692743 0.600254 0.146952
O O12 0.854365 0.500000 0.243636
O O13 0.250000 0.750000 0.000000
#
# Coordination Sequence:
#
# PCOD8113703 Si02
#       8
#     4   4   4   8   4   8   4   4
#     4  12  24  43  70 103 140 178 229 287 346 416
#     4  11  26  41  66 102 134 187 228 289 334 408
#     4  11  19  36  68  96 124 175 231 275 340 402
#     4  12  25  44  70 104 139 176 228 289 343 403
#     4  12  23  45  69  99 137 187 225 284 347 414
#     4  12  26  46  71 101 143 181 229 287 344 406
#     4  11  24  39  68 102 132 177 226 283 344 406
#     4  11  22  39  67  98 135 172 243 281 342 397
#
# _framework density 22.031858
#
# number of rings (size 3 to 8) (size 9 to 14) (size 15 to 20)
#    0.000    0.400    6.000    3.600    0.000    2.400 
#    0.000    0.000    0.000    0.000    0.000    0.000 
#    0.000    0.000    0.000    0.000    0.000    0.000 
#
# Total GULP energy -247831.021310 kJ/mol
# GULP energy per Si atom -12391.551065 kJ/mol
# Density = 2.198171 g / cm^3
# Si number density = 22.031858 Si / 1000 Ang^3
#
#
#
# Elastic Constant Matrix: (Units=GPa)
#
#
# Indices 1 2 3 4 5 6 
#
# 1 75.2554 29.0916 30.6136 0.0000 22.4431 0.0000
# 2 29.0916 173.1079 45.8760 0.0000 3.1421 0.0000
# 3 30.6136 45.8760 134.9248 0.0000 8.9982 0.0000
# 4 0.0000 0.0000 0.0000 40.1181 0.0000 4.5023
# 5 22.4431 3.1421 8.9982 0.0000 41.5399 0.0000
# 6 0.0000 0.0000 0.0000 4.5023 0.0000 24.8667
#
#
#
# Elastic Compliance Matrix: (Units=1/GPa)
#
#
# Indices 1 2 3 4 5 6 
#
# 1 0.017877 -0.002116 -0.002743 0.000000 -0.008905 0.000000
# 2 -0.002116 0.006599 -0.001833 0.000000 0.001041 0.000000
# 3 -0.002743 -0.001833 0.008674 0.000000 -0.000258 0.000000
# 4 0.000000 0.000000 0.000000 0.025443 0.000000 -0.004607
# 5 -0.008905 0.001041 -0.000258 0.000000 0.028861 0.000000
# 6 0.000000 0.000000 0.000000 -0.004607 0.000000 0.041048
#
#
# Mechanical properties :
#
#
# Convention : Reuss Voigt Hill
#
# Bulk Modulus (GPa) = 50.58921 66.05006 58.31963
# Shear Modulus (GPa) = 33.67513 39.81872 36.74693
#
# Velocity S-wave (km/s) = 3.91381 4.25588 4.08842
# Velocity P-wave (km/s) = 6.59057 7.36168 6.98677
#
# Compressibility (1/GPa) = 0.01976706
#
# Stress axis : x y z
#
# Youngs Moduli (GPa) = 55.93642 151.53258 115.28114
#
# Poissons Ratio (x) = 0.32062 0.31622
# Poissons Ratio (y) = 0.11835 0.21133
# Poissons Ratio (z) = 0.15344 0.27779
#
# Static dielectric constant tensor:
#      x y z
#    x 3.833860 0.000000 0.145390 
#    y 0.000000 4.585330 0.000000 
#    z 0.145390 0.000000 4.044420 
# 
# 
# High freq. dielectric constant tensor:
#      x y z
#    x 1.850610 0.000000 0.010550 
#    y 0.000000 1.889980 0.000000 
#    z 0.010550 0.000000 1.867990 
# 
# From -- ./inp_files/141194.got.cif
#   From: 2010.06.25/outbox.cif.g09.slc.cpg/sg12_71_cif.got.tgz:141194.got - 2010.06.28 00:19:55.
