data_PCOD8113517
_publ_section_title
;
Structure prediction by ZEFSAII (Michael W. Deem and Ramdas Pophale) SiO2 
 PCOD8113517
Probable space group: C 2/M
;
_chemical_formula_sum "Si O2"
_cell_formula_units_Z 56
_cell_length_a 15.832632
_cell_length_b 14.211786
_cell_length_c 11.871353
_cell_angle_alpha 90.000000
_cell_angle_beta 94.954817
_cell_angle_gamma 90.000000
_cell_volume 2661.191019
_symmetry_space_group_name_H-M "C 2/M"
_symmetry_group_IT_number 12
_symmetry_cell_setting 'monoclinic'
loop_
_space_group_symop_operation_xyz
x,y,z
-x,y,-z
-x,-y,-z
x,-y,z
1/2+x,1/2+y,z
1/2-x,1/2+y,-z
1/2-x,1/2-y,-z
1/2+x,1/2-y,z
loop_
_atom_site_type_symbol
_atom_site_label
_atom_site_fract_x
_atom_site_fract_y
_atom_site_fract_z
Si Si1 0.847306 0.745303 0.294117
Si Si2 0.089032 0.865972 0.053917
Si Si3 0.795270 0.897439 0.125461
Si Si4 0.399968 0.392384 0.483873
Si Si5 0.954513 0.601985 0.180965
Si Si6 0.390494 0.153365 0.941112
Si Si7 0.813232 0.893991 0.712226
O O1 0.852155 0.824250 0.198778
O O2 0.859334 0.806242 0.408367
O O3 0.925558 0.676767 0.272390
O O4 0.761133 0.683458 0.284047
O O5 0.082454 0.757360 0.025155
O O6 0.111701 0.883469 0.186785
O O7 0.166597 0.910909 0.994136
O O8 0.000000 0.911644 0.000000
O O9 0.703490 0.852202 0.113742
O O10 0.791797 0.000000 0.183928
O O11 0.500000 0.377181 0.500000
O O12 0.380198 0.500000 0.437739
O O13 0.360552 0.378027 0.601302
O O14 0.946708 0.500000 0.238073
O O15 0.051354 0.616470 0.153843
O O16 0.898195 0.598854 0.060255
O O17 0.774621 0.000000 0.714524
#
# Coordination Sequence:
#
# PCOD8113517 Si02
#       7
#     8   8   8   8   8   8   8
#     4  12  23  42  67  95 129 170 216 268 320 384
#     4  12  23  41  64  95 133 174 216 266 323 391
#     4  12  24  37  59  92 131 167 207 262 321 381
#     4  10  25  46  69  96 126 170 222 270 326 388
#     4  11  22  37  63  93 129 174 215 256 316 385
#     4  11  20  39  57  90 134 172 210 255 314 386
#     4  11  25  44  67  94 130 173 219 272 327 384
#
# _framework density 21.043209999999998
#
# number of rings (size 3 to 8) (size 9 to 14) (size 15 to 20)
#    0.000    0.714    4.286    4.714    4.000    1.143 
#    0.000    0.000    0.000    1.714    0.000    0.000 
#    0.000    0.000    0.000    0.000    0.000    0.000 
#
# Total GULP energy -347004.954802 kJ/mol
# GULP energy per Si atom -12393.034100 kJ/mol
# Density = 2.099531 g / cm^3
# Si number density = 21.043210 Si / 1000 Ang^3
#
#
#
# Elastic Constant Matrix: (Units=GPa)
#
#
# Indices 1 2 3 4 5 6 
#
# 1 93.7195 51.7870 47.8524 0.0000 -2.2872 0.0000
# 2 51.7870 125.8023 43.9858 0.0000 4.1657 0.0000
# 3 47.8524 43.9858 112.7428 0.0000 -2.7226 0.0000
# 4 0.0000 0.0000 0.0000 22.3254 0.0000 -6.7435
# 5 -2.2872 4.1657 -2.7226 0.0000 27.6756 0.0000
# 6 0.0000 0.0000 0.0000 -6.7435 0.0000 23.2398
#
#
#
# Elastic Compliance Matrix: (Units=1/GPa)
#
#
# Indices 1 2 3 4 5 6 
#
# 1 0.015862 -0.004911 -0.004778 0.000000 0.001580 0.000000
# 2 -0.004911 0.010810 -0.002187 0.000000 -0.002248 0.000000
# 3 -0.004778 -0.002187 0.011778 0.000000 0.001093 0.000000
# 4 0.000000 0.000000 0.000000 0.049095 0.000000 0.014246
# 5 0.001580 -0.002248 0.001093 0.000000 0.036709 0.000000
# 6 0.000000 0.000000 0.000000 0.014246 0.000000 0.047163
#
#
# Mechanical properties :
#
#
# Convention : Reuss Voigt Hill
#
# Bulk Modulus (GPa) = 68.04493 68.83500 68.43997
# Shear Modulus (GPa) = 24.99122 27.22411 26.10767
#
# Velocity S-wave (km/s) = 3.44992 3.60074 3.52614
# Velocity P-wave (km/s) = 6.94804 7.07597 7.01230
#
# Compressibility (1/GPa) = 0.01469617
#
# Stress axis : x y z
#
# Youngs Moduli (GPa) = 63.04218 92.50747 84.90759
#
# Poissons Ratio (x) = 0.45435 0.40571
# Poissons Ratio (y) = 0.30963 0.18570
# Poissons Ratio (z) = 0.30123 0.20232
#
# Static dielectric constant tensor:
#      x y z
#    x 3.453450 0.000000 0.064070 
#    y 0.000000 4.218300 0.000000 
#    z 0.064070 0.000000 3.411450 
# 
# 
# High freq. dielectric constant tensor:
#      x y z
#    x 1.825950 0.000000 -0.015980 
#    y 0.000000 1.853010 0.000000 
#    z -0.015980 0.000000 1.797350 
# 
# From -- ./inp_files/143717.got.cif
#   From: 2010.06.25/outbox.cif.g09.slc.cpg/sg12_72_cif.got.tgz:143717.got - 2010.06.28 00:19:55.
