data_PCOD8113578
_publ_section_title
;
Structure prediction by ZEFSAII (Michael W. Deem and Ramdas Pophale) SiO2 
 PCOD8113578
Probable space group: C 2/M
;
_chemical_formula_sum "Si O2"
_cell_formula_units_Z 56
_cell_length_a 15.985365
_cell_length_b 23.454884
_cell_length_c 17.867018
_cell_angle_alpha 90.000000
_cell_angle_beta 150.546991
_cell_angle_gamma 90.000000
_cell_volume 3293.946842
_symmetry_space_group_name_H-M "C 2/M"
_symmetry_group_IT_number 12
_symmetry_cell_setting 'monoclinic'
loop_
_space_group_symop_operation_xyz
x,y,z
-x,y,-z
-x,-y,-z
x,-y,z
1/2+x,1/2+y,z
1/2-x,1/2+y,-z
1/2-x,1/2-y,-z
1/2+x,1/2-y,z
loop_
_atom_site_type_symbol
_atom_site_label
_atom_site_fract_x
_atom_site_fract_y
_atom_site_fract_z
Si Si1 0.318460 0.936850 0.897497
Si Si2 0.854213 0.433295 0.332472
Si Si3 0.806468 0.640252 0.150884
Si Si4 0.171689 0.259433 0.093632
Si Si5 0.535996 0.147838 0.880237
Si Si6 0.318832 0.649991 0.317551
Si Si7 0.506084 0.562831 0.915395
O O1 0.183221 0.905265 0.738189
O O2 0.247515 0.000000 0.858421
O O3 0.500000 0.938070 0.000000
O O4 0.351057 0.904343 0.000311
O O5 0.865415 0.500000 0.319444
O O6 0.872545 0.397921 0.270516
O O7 0.687958 0.420642 0.254359
O O8 0.000000 0.412092 0.500000
O O9 0.776023 0.704240 0.153023
O O10 0.948190 0.644513 0.196830
O O11 0.634150 0.610818 0.984334
O O12 0.288848 0.295142 0.241988
O O13 0.120538 0.295147 0.980124
O O14 0.000000 0.239395 0.000000
O O15 0.335598 0.144649 0.743314
O O16 0.500000 0.654351 0.500000
O O17 0.556489 0.500000 0.923137
O O18 0.500000 0.560849 0.000000
#
# Coordination Sequence:
#
# PCOD8113578 Si02
#       7
#     8   8   8   8   8   8   8
#     4   8  15  30  51  71  91 120 155 187 227 281
#     4   9  18  32  47  67 100 134 158 186 228 279
#     4  11  18  29  51  74  92 119 162 202 234 272
#     4   9  18  33  50  68  92 124 158 191 232 281
#     4   9  19  32  48  72  98 118 150 204 246 266
#     4   9  18  34  51  67  94 129 157 187 231 286
#     4   8  15  28  46  67  89 119 158 191 222 269
#
# _framework density 17.000882000000001
#
# number of rings (size 3 to 8) (size 9 to 14) (size 15 to 20)
#    0.000    3.000    0.000    4.714    0.000    2.000 
#    0.000    3.571    0.000    1.714    0.000    0.000 
#    0.000    0.000    0.000    0.000    0.000    0.000 
#
# Total GULP energy -346966.726472 kJ/mol
# GULP energy per Si atom -12391.668803 kJ/mol
# Density = 1.696219 g / cm^3
# Si number density = 17.000882 Si / 1000 Ang^3
#
#
#
# Elastic Constant Matrix: (Units=GPa)
#
#
# Indices 1 2 3 4 5 6 
#
# 1 95.3101 50.8703 37.5780 0.0000 -1.1908 0.0000
# 2 50.8703 112.0288 41.7094 0.0000 -1.6192 0.0000
# 3 37.5780 41.7094 125.4062 -0.0001 -0.9502 0.0000
# 4 0.0000 0.0000 -0.0001 17.2768 -0.0001 3.0659
# 5 -1.1908 -1.6192 -0.9502 -0.0001 15.0928 0.0000
# 6 0.0000 0.0000 0.0000 3.0659 0.0000 16.1578
#
#
#
# Elastic Compliance Matrix: (Units=1/GPa)
#
#
# Indices 1 2 3 4 5 6 
#
# 1 0.014485 -0.005657 -0.002456 0.000000 0.000381 0.000000
# 2 -0.005657 0.012409 -0.002426 0.000000 0.000732 0.000000
# 3 -0.002456 -0.002426 0.009518 0.000000 0.000145 0.000000
# 4 0.000000 0.000000 0.000000 0.059898 0.000000 -0.011365
# 5 0.000381 0.000732 0.000145 0.000000 0.066374 0.000000
# 6 0.000000 0.000000 0.000000 -0.011365 0.000000 0.064046
#
#
# Mechanical properties :
#
#
# Convention : Reuss Voigt Hill
#
# Bulk Modulus (GPa) = 65.22046 65.89561 65.55803
# Shear Modulus (GPa) = 19.76906 23.21131 21.49018
#
# Velocity S-wave (km/s) = 3.41372 3.69901 3.55922
# Velocity P-wave (km/s) = 7.34740 7.55565 7.45225
#
# Compressibility (1/GPa) = 0.01533261
#
# Stress axis : x y z
#
# Youngs Moduli (GPa) = 69.03867 80.58561 105.06298
#
# Poissons Ratio (x) = 0.45590 0.25802
# Poissons Ratio (y) = 0.39058 0.25493
# Poissons Ratio (z) = 0.16955 0.19554
#
# Static dielectric constant tensor:
#      x y z
#    x 3.010810 0.000000 0.227330 
#    y 0.000000 3.379740 0.000000 
#    z 0.227330 0.000000 3.485150 
# 
# 
# High freq. dielectric constant tensor:
#      x y z
#    x 1.634270 0.000000 0.001310 
#    y 0.000000 1.664280 0.000000 
#    z 0.001310 0.000000 1.637900 
# 
# From -- ./inp_files/272411.got.cif
#   From: 2010.06.25/outbox.cif.g09.slc.cpg/sg12_137_cif.got.tgz:272411.got - 2010.06.28 00:19:55.
