data_PCOD8113776
_publ_section_title
;
Structure prediction by ZEFSAII (Michael W. Deem and Ramdas Pophale) SiO2 
 PCOD8113776
Probable space group: C 2/M
;
_chemical_formula_sum "Si O2"
_cell_formula_units_Z 48
_cell_length_a 20.823651
_cell_length_b 8.853756
_cell_length_c 31.475593
_cell_angle_alpha 90.000000
_cell_angle_beta 151.764457
_cell_angle_gamma 90.000000
_cell_volume 2745.420631
_symmetry_space_group_name_H-M "C 2/M"
_symmetry_group_IT_number 12
_symmetry_cell_setting 'monoclinic'
loop_
_space_group_symop_operation_xyz
x,y,z
-x,y,-z
-x,-y,-z
x,-y,z
1/2+x,1/2+y,z
1/2-x,1/2+y,-z
1/2-x,1/2-y,-z
1/2+x,1/2-y,z
loop_
_atom_site_type_symbol
_atom_site_label
_atom_site_fract_x
_atom_site_fract_y
_atom_site_fract_z
Si Si1 0.244431 0.680109 0.542872
Si Si2 0.010407 0.677040 0.553234
Si Si3 0.429778 0.821582 0.718765
Si Si4 0.428181 0.332690 0.071731
Si Si5 0.314681 0.332257 0.100315
Si Si6 0.812179 0.822544 0.733179
O O1 0.248711 0.500000 0.542782
O O2 0.250000 0.750000 0.500000
O O3 0.372887 0.739954 0.643945
O O4 0.106024 0.742561 0.484129
O O5 0.985240 0.500000 0.534602
O O6 0.159297 0.712833 0.659368
O O7 0.000000 0.749072 0.500000
O O8 0.587625 0.775088 0.815314
O O9 0.342269 0.769951 0.708176
O O10 0.419735 0.000000 0.707615
O O11 0.425598 0.500000 0.050441
O O12 0.364546 0.334269 0.081283
O O13 0.584187 0.275495 0.168426
O O14 0.340938 0.227218 0.989526
O O15 0.316607 0.500000 0.120995
O O16 0.831875 0.000000 0.733621
#
# Coordination Sequence:
#
# PCOD8113776 Si02
#       6
#     8   8   8   8   8   8
#     4  11  22  37  54  73 101 133 170 209 249 296
#     4   9  16  30  54  76  96 130 171 206 244 295
#     4  11  20  30  46  70  98 129 166 206 251 294
#     4   8  14  23  38  63  95 124 156 199 243 289
#     4   9  16  26  41  61  91 129 164 197 242 296
#     4   9  16  29  48  71  97 130 167 202 245 294
#
# _framework density 17.48366
#
# number of rings (size 3 to 8) (size 9 to 14) (size 15 to 20)
#    0.000    2.500    1.667    3.500    0.000    4.000 
#    0.000    2.500    0.000    0.000    0.000    1.167 
#    0.000    9.333    0.000    0.000    0.000    0.000 
#
# Total GULP energy -297473.579598 kJ/mol
# GULP energy per Si atom -12394.732483 kJ/mol
# Density = 1.744387 g / cm^3
# Si number density = 17.483660 Si / 1000 Ang^3
#
#
#
# Elastic Constant Matrix: (Units=GPa)
#
#
# Indices 1 2 3 4 5 6 
#
# 1 70.4881 25.9948 51.7160 -0.0001 1.5325 -0.0002
# 2 25.9948 85.4474 45.2394 0.0001 -1.6444 -0.0005
# 3 51.7160 45.2394 150.4419 -0.0003 14.6141 -0.0001
# 4 -0.0001 0.0001 -0.0003 30.7268 -0.0001 -2.8345
# 5 1.5325 -1.6444 14.6141 -0.0001 17.8229 0.0002
# 6 -0.0002 -0.0005 -0.0001 -2.8345 0.0002 15.2045
#
#
#
# Elastic Compliance Matrix: (Units=1/GPa)
#
#
# Indices 1 2 3 4 5 6 
#
# 1 0.019700 -0.002591 -0.006307 0.000000 0.003239 0.000000
# 2 -0.002591 0.014705 -0.004003 0.000000 0.004862 0.000000
# 3 -0.006307 -0.004003 0.010868 0.000000 -0.008738 0.000000
# 4 0.000000 0.000000 0.000000 0.033114 0.000000 0.006173
# 5 0.003239 0.004862 -0.008738 0.000000 0.063443 -0.000001
# 6 0.000000 0.000000 0.000000 0.006173 -0.000001 0.066921
#
#
# Mechanical properties :
#
#
# Convention : Reuss Voigt Hill
#
# Bulk Modulus (GPa) = 51.36588 61.36423 56.36506
# Shear Modulus (GPa) = 20.74315 24.97932 22.86124
#
# Velocity S-wave (km/s) = 3.44820 3.78395 3.61997
# Velocity P-wave (km/s) = 6.73027 7.36649 7.05556
#
# Compressibility (1/GPa) = 0.01946817
#
# Stress axis : x y z
#
# Youngs Moduli (GPa) = 50.76245 68.00624 92.01332
#
# Poissons Ratio (x) = 0.17623 0.58036
# Poissons Ratio (y) = 0.13154 0.36836
# Poissons Ratio (z) = 0.32018 0.27225
#
# Static dielectric constant tensor:
#      x y z
#    x 2.819900 0.000000 0.236350 
#    y 0.000000 3.202510 0.000000 
#    z 0.236350 0.000000 3.701480 
# 
# 
# High freq. dielectric constant tensor:
#      x y z
#    x 1.607510 0.000000 0.017750 
#    y 0.000000 1.665440 0.000000 
#    z 0.017750 0.000000 1.698540 
# 
# From -- ./inp_files/280533.got.cif
#   From: 2010.06.25/outbox.cif.g09.slc.cpg/sg12_141_cif.got.tgz:280533.got - 2010.06.28 00:19:55.
