data_PCOD8113567
_publ_section_title
;
Structure prediction by ZEFSAII (Michael W. Deem and Ramdas Pophale) SiO2 
 PCOD8113567
Probable space group: C 2/M
;
_chemical_formula_sum "Si O2"
_cell_formula_units_Z 64
_cell_length_a 16.117877
_cell_length_b 31.128992
_cell_length_c 13.008844
_cell_angle_alpha 90.000000
_cell_angle_beta 143.693323
_cell_angle_gamma 90.000000
_cell_volume 3864.665100
_symmetry_space_group_name_H-M "C 2/M"
_symmetry_group_IT_number 12
_symmetry_cell_setting 'monoclinic'
loop_
_space_group_symop_operation_xyz
x,y,z
-x,y,-z
-x,-y,-z
x,-y,z
1/2+x,1/2+y,z
1/2-x,1/2+y,-z
1/2-x,1/2-y,-z
1/2+x,1/2-y,z
loop_
_atom_site_type_symbol
_atom_site_label
_atom_site_fract_x
_atom_site_fract_y
_atom_site_fract_z
Si Si1 0.209271 0.866550 0.110406
Si Si2 0.913499 0.776470 0.314606
Si Si3 0.990773 0.185196 0.792693
Si Si4 0.580577 0.225924 0.979472
Si Si5 0.853283 0.546935 0.488193
Si Si6 0.043667 0.685859 0.731399
Si Si7 0.334431 0.953537 0.225651
Si Si8 0.767354 0.362515 0.407392
O O1 0.308076 0.832283 0.154137
O O2 0.235035 0.914549 0.093223
O O3 0.222495 0.861342 0.244714
O O4 0.054510 0.854811 0.919085
O O5 0.943301 0.810921 0.254711
O O6 0.747221 0.771639 0.167472
O O7 0.000000 0.792327 0.500000
O O8 0.980372 0.731471 0.346917
O O9 0.827927 0.170665 0.622313
O O10 0.016623 0.228222 0.883558
O O11 0.500000 0.209865 0.000000
O O12 0.546530 0.191450 0.857196
O O13 0.795332 0.500000 0.468456
O O14 0.851325 0.548859 0.364075
O O15 0.764758 0.587507 0.444601
O O16 0.016212 0.551595 0.682188
O O17 0.925922 0.653305 0.576204
O O18 0.268555 0.000000 0.129220
#
# Coordination Sequence:
#
# PCOD8113567 Si02
#       8
#     8   8   8   8   8   8   8   8
#     4  11  17  33  49  71 103 137 164 206 243 287
#     4  11  23  38  54  70  98 134 165 209 256 293
#     4  11  23  36  49  72 104 130 171 209 243 291
#     4  11  23  38  53  71 100 131 162 214 259 285
#     4   8  14  26  42  68 101 130 162 201 239 286
#     4  11  21  34  52  73  99 129 173 205 240 294
#     4   8  14  24  44  69  96 131 167 199 240 289
#     4  11  21  29  51  78  98 139 172 199 238 298
#
# _framework density 16.560296000000001
#
# number of rings (size 3 to 8) (size 9 to 14) (size 15 to 20)
#    0.000    1.750    3.750    3.750    3.500    1.000 
#    0.000    0.625    0.000    3.000    0.000    0.000 
#    0.000    6.000    0.000    0.000    0.000    0.000 
#
# Total GULP energy -396609.420374 kJ/mol
# GULP energy per Si atom -12394.044387 kJ/mol
# Density = 1.652260 g / cm^3
# Si number density = 16.560296 Si / 1000 Ang^3
#
#
#
# Elastic Constant Matrix: (Units=GPa)
#
#
# Indices 1 2 3 4 5 6 
#
# 1 72.1685 19.5314 13.4512 0.0000 0.6310 0.0000
# 2 19.5314 87.2914 15.4306 0.0000 1.2527 0.0000
# 3 13.4512 15.4306 52.2481 0.0000 -3.2466 0.0000
# 4 0.0000 0.0000 0.0000 13.4442 0.0000 -0.2811
# 5 0.6310 1.2527 -3.2466 0.0000 21.3896 0.0000
# 6 0.0000 0.0000 0.0000 -0.2811 0.0000 10.2365
#
#
#
# Elastic Compliance Matrix: (Units=1/GPa)
#
#
# Indices 1 2 3 4 5 6 
#
# 1 0.015214 -0.002841 -0.003125 0.000000 -0.000757 0.000000
# 2 -0.002841 0.012651 -0.003075 0.000000 -0.001124 0.000000
# 3 -0.003125 -0.003075 0.021068 0.000000 0.003470 0.000000
# 4 0.000000 0.000000 0.000000 0.074424 0.000000 0.002044
# 5 -0.000757 -0.001124 0.003470 0.000000 0.047367 0.000000
# 6 0.000000 0.000000 0.000000 0.002044 0.000000 0.097746
#
#
# Mechanical properties :
#
#
# Convention : Reuss Voigt Hill
#
# Bulk Modulus (GPa) = 32.41281 34.28159 33.34720
# Shear Modulus (GPa) = 16.84439 19.90039 18.37239
#
# Velocity S-wave (km/s) = 3.19275 3.47031 3.33442
# Velocity P-wave (km/s) = 5.76252 6.06658 5.91650
#
# Compressibility (1/GPa) = 0.03085200
#
# Stress axis : x y z
#
# Youngs Moduli (GPa) = 65.72736 79.04388 47.46611
#
# Poissons Ratio (x) = 0.22456 0.14833
# Poissons Ratio (y) = 0.18673 0.14595
# Poissons Ratio (z) = 0.20539 0.24304
#
# Static dielectric constant tensor:
#      x y z
#    x 2.953000 0.000000 0.108110 
#    y 0.000000 3.376080 0.000000 
#    z 0.108110 0.000000 2.997680 
# 
# 
# High freq. dielectric constant tensor:
#      x y z
#    x 1.611230 0.000000 0.020480 
#    y 0.000000 1.635980 0.000000 
#    z 0.020480 0.000000 1.621300 
# 
# From -- ./inp_files/150302.got.cif
#   From: 2010.06.25/outbox.cif.g09.slc.cpg/sg12_76_cif.got.tgz:150302.got - 2010.06.28 00:19:55.
