data_PCOD8113290
_publ_section_title
;
Structure prediction by ZEFSAII (Michael W. Deem and Ramdas Pophale) SiO2 
 PCOD8113290
Probable space group: C 2/M
;
_chemical_formula_sum "Si O2"
_cell_formula_units_Z 48
_cell_length_a 20.420270
_cell_length_b 8.957245
_cell_length_c 20.848226
_cell_angle_alpha 90.000000
_cell_angle_beta 41.995829
_cell_angle_gamma 90.000000
_cell_volume 2551.413326
_symmetry_space_group_name_H-M "C 2/M"
_symmetry_group_IT_number 12
_symmetry_cell_setting 'monoclinic'
loop_
_space_group_symop_operation_xyz
x,y,z
-x,y,-z
-x,-y,-z
x,-y,z
1/2+x,1/2+y,z
1/2-x,1/2+y,-z
1/2-x,1/2-y,-z
1/2+x,1/2-y,z
loop_
_atom_site_type_symbol
_atom_site_label
_atom_site_fract_x
_atom_site_fract_y
_atom_site_fract_z
Si Si1 0.657232 0.675482 0.793627
Si Si2 0.158809 0.171908 0.389342
Si Si3 0.967963 0.328238 0.881158
Si Si4 0.997257 0.828098 0.606172
Si Si5 0.700542 0.825720 0.895850
Si Si6 0.400717 0.173174 0.787142
O O1 0.661730 0.500000 0.799306
O O2 0.745232 0.726726 0.683263
O O3 0.556454 0.720469 0.833919
O O4 0.663987 0.750068 0.857851
O O5 0.097738 0.194546 0.368889
O O6 0.094253 0.222220 0.497299
O O7 0.190037 0.000000 0.373752
O O8 0.000808 0.500000 0.865382
O O9 0.936196 0.292176 0.832407
O O10 0.877255 0.290203 0.992572
O O11 0.986528 0.725163 0.676442
O O12 0.006338 0.000000 0.620359
O O13 0.803844 0.765708 0.843988
O O14 0.711485 0.000000 0.874024
O O15 0.377918 0.000000 0.793098
#
# Coordination Sequence:
#
# PCOD8113290 Si02
#       6
#     8   8   8   8   8   8
#     4  12  24  37  58  89 118 147 190 242 289 333
#     4   9  18  35  59  85 114 149 190 231 277 340
#     4  10  24  42  58  80 116 159 194 230 283 343
#     4   9  18  34  59  87 113 149 190 229 279 339
#     4  11  22  39  62  83 111 155 198 233 280 341
#     4  11  22  37  59  89 119 147 188 240 287 333
#
# _framework density 18.813103000000002
#
# number of rings (size 3 to 8) (size 9 to 14) (size 15 to 20)
#    0.000    1.667    1.667    4.500    0.000    5.333 
#    0.000    2.500    0.000    0.000    0.000    0.000 
#    0.000    0.000    0.000    0.000    0.000    0.000 
#
# Total GULP energy -297708.039910 kJ/mol
# GULP energy per Si atom -12404.501663 kJ/mol
# Density = 1.877028 g / cm^3
# Si number density = 18.813103 Si / 1000 Ang^3
#
#
#
# Elastic Constant Matrix: (Units=GPa)
#
#
# Indices 1 2 3 4 5 6 
#
# 1 94.4636 64.3518 65.7989 0.0001 13.0968 0.0000
# 2 64.3518 122.9261 75.2960 -0.0005 13.9136 0.0007
# 3 65.7989 75.2960 146.2911 0.0002 13.0409 -0.0001
# 4 0.0001 -0.0005 0.0002 22.2082 0.0003 1.2812
# 5 13.0968 13.9136 13.0409 0.0003 21.7859 -0.0003
# 6 0.0000 0.0007 -0.0001 1.2812 -0.0003 31.7196
#
#
#
# Elastic Compliance Matrix: (Units=1/GPa)
#
#
# Indices 1 2 3 4 5 6 
#
# 1 0.018954 -0.006490 -0.004794 0.000000 -0.004380 0.000000
# 2 -0.006490 0.014469 -0.004280 0.000000 -0.002777 0.000000
# 3 -0.004794 -0.004280 0.011297 0.000000 -0.001147 0.000000
# 4 0.000000 0.000000 0.000000 0.045134 -0.000001 -0.001823
# 5 -0.004380 -0.002777 -0.001147 -0.000001 0.050994 0.000001
# 6 0.000000 0.000000 0.000000 -0.001823 0.000001 0.031600
#
#
# Mechanical properties :
#
#
# Convention : Reuss Voigt Hill
#
# Bulk Modulus (GPa) = 73.58026 86.06380 79.82203
# Shear Modulus (GPa) = 24.02609 25.69169 24.85889
#
# Velocity S-wave (km/s) = 3.57752 3.69945 3.63900
# Velocity P-wave (km/s) = 7.50073 8.00587 7.75741
#
# Compressibility (1/GPa) = 0.01359060
#
# Stress axis : x y z
#
# Youngs Moduli (GPa) = 52.75913 69.11484 88.51588
#
# Poissons Ratio (x) = 0.44856 0.42437
# Poissons Ratio (y) = 0.34241 0.37888
# Poissons Ratio (z) = 0.25294 0.29584
#
# Static dielectric constant tensor:
#      x y z
#    x 3.489730 0.000000 0.203150 
#    y 0.000000 3.436410 0.000000 
#    z 0.203150 0.000000 3.798760 
# 
# 
# High freq. dielectric constant tensor:
#      x y z
#    x 1.715800 0.000000 0.002630 
#    y 0.000000 1.731750 0.000000 
#    z 0.002630 0.000000 1.750900 
# 
# From -- ./inp_files/248818.got.cif
#   From: 2010.06.25/outbox.cif.g09.slc.cpg/sg12_125_cif.got.tgz:248818.got - 2010.06.28 00:19:55.
