data_PCOD8113434
_publ_section_title
;
Structure prediction by ZEFSAII (Michael W. Deem and Ramdas Pophale) SiO2 
 PCOD8113434
Probable space group: C 2/M
;
_chemical_formula_sum "Si O2"
_cell_formula_units_Z 56
_cell_length_a 19.777477
_cell_length_b 15.061278
_cell_length_c 18.874253
_cell_angle_alpha 90.000000
_cell_angle_beta 151.768017
_cell_angle_gamma 90.000000
_cell_volume 2659.517039
_symmetry_space_group_name_H-M "C 2/M"
_symmetry_group_IT_number 12
_symmetry_cell_setting 'monoclinic'
loop_
_space_group_symop_operation_xyz
x,y,z
-x,y,-z
-x,-y,-z
x,-y,z
1/2+x,1/2+y,z
1/2-x,1/2+y,-z
1/2-x,1/2-y,-z
1/2+x,1/2-y,z
loop_
_atom_site_type_symbol
_atom_site_label
_atom_site_fract_x
_atom_site_fract_y
_atom_site_fract_z
Si Si1 0.495366 0.398163 0.808681
Si Si2 0.264769 0.801831 0.085865
Si Si3 0.182392 0.104800 0.480774
Si Si4 0.331744 0.245194 0.857356
Si Si5 0.756432 0.102436 0.691509
Si Si6 0.156947 0.104384 0.615677
Si Si7 0.056918 0.398296 0.376834
O O1 0.452081 0.500000 0.764062
O O2 0.448639 0.357618 0.688825
O O3 0.396448 0.360582 0.780066
O O4 0.659894 0.386082 0.979807
O O5 0.205738 0.739821 0.094176
O O6 0.423224 0.834292 0.246366
O O7 0.250000 0.750000 0.000000
O O8 0.169248 0.144670 0.547373
O O9 0.330136 0.131847 0.578941
O O10 0.171047 0.000000 0.478540
O O11 0.245881 0.332119 0.748902
O O12 0.275144 0.154505 0.770830
O O13 0.500000 0.252686 0.000000
O O14 0.620406 0.112073 0.514357
O O15 0.770495 0.000000 0.730758
O O16 0.000000 0.125060 0.500000
O O17 0.192033 0.000000 0.652030
O O18 0.011475 0.500000 0.321910
#
# Coordination Sequence:
#
# PCOD8113434 Si02
#       7
#     8   8   8   8   8   8   8
#     4   9  18  38  64  90 123 164 206 252 310 381
#     4  12  27  39  56  92 131 168 210 261 318 381
#     4   8  17  37  67  93 116 157 211 261 315 375
#     4  12  27  44  63  95 132 170 215 264 320 386
#     4   9  20  41  69  96 126 167 209 256 319 386
#     4  10  24  45  70  94 120 164 222 277 323 367
#     4   9  20  40  65  94 126 165 212 258 314 382
#
# _framework density 21.056453999999999
#
# number of rings (size 3 to 8) (size 9 to 14) (size 15 to 20)
#    0.000    2.143    1.429    2.143    6.000    1.714 
#    0.000    5.000    0.000    0.000    0.000    0.000 
#    0.000    0.000    0.000    0.000    0.000    0.000 
#
# Total GULP energy -347126.401388 kJ/mol
# GULP energy per Si atom -12397.371478 kJ/mol
# Density = 2.100853 g / cm^3
# Si number density = 21.056454 Si / 1000 Ang^3
#
#
#
# Elastic Constant Matrix: (Units=GPa)
#
#
# Indices 1 2 3 4 5 6 
#
# 1 99.8207 19.1485 45.3517 0.0001 -22.4899 -0.0002
# 2 19.1485 58.6362 37.4206 0.0006 -4.9621 0.0003
# 3 45.3517 37.4206 115.0927 0.0026 1.6568 0.0022
# 4 0.0001 0.0006 0.0026 36.7292 0.0018 -6.2438
# 5 -22.4899 -4.9621 1.6568 0.0018 35.8559 0.0009
# 6 -0.0002 0.0003 0.0022 -6.2438 0.0009 19.3454
#
#
#
# Elastic Compliance Matrix: (Units=1/GPa)
#
#
# Indices 1 2 3 4 5 6 
#
# 1 0.014928 -0.000278 -0.005930 0.000000 0.009599 0.000000
# 2 -0.000278 0.021923 -0.007064 0.000000 0.003186 0.000000
# 3 -0.005930 -0.007064 0.013399 -0.000001 -0.005316 -0.000001
# 4 0.000000 0.000000 -0.000001 0.028807 -0.000002 0.009298
# 5 0.009599 0.003186 -0.005316 -0.000002 0.034597 -0.000001
# 6 0.000000 0.000000 -0.000001 0.009298 -0.000001 0.054693
#
#
# Mechanical properties :
#
#
# Convention : Reuss Voigt Hill
#
# Bulk Modulus (GPa) = 42.18523 53.04347 47.61435
# Shear Modulus (GPa) = 24.65569 29.82802 27.24185
#
# Velocity S-wave (km/s) = 3.42560 3.76782 3.60078
# Velocity P-wave (km/s) = 5.97697 6.64638 6.32055
#
# Compressibility (1/GPa) = 0.02370498
#
# Stress axis : x y z
#
# Youngs Moduli (GPa) = 66.98704 45.61421 74.63403
#
# Poissons Ratio (x) = 0.01269 0.44259
# Poissons Ratio (y) = 0.01864 0.52723
# Poissons Ratio (z) = 0.39724 0.32223
#
# Static dielectric constant tensor:
#      x y z
#    x 3.983990 0.000000 -0.142940 
#    y 0.000000 3.542290 -0.000020 
#    z -0.142940 -0.000020 4.198770 
# 
# 
# High freq. dielectric constant tensor:
#      x y z
#    x 1.829210 0.000000 -0.006440 
#    y 0.000000 1.809920 0.000000 
#    z -0.006440 0.000000 1.829890 
# 
# From -- ./inp_files/284583.got.cif
#   From: 2010.06.25/outbox.cif.g09.slc.cpg/sg12_143_cif.got.tgz:284583.got - 2010.06.28 00:19:55.
