data_PCOD8113986
_publ_section_title
;
Structure prediction by ZEFSAII (Michael W. Deem and Ramdas Pophale) SiO2 
 PCOD8113986
Probable space group: C 2/M
;
_chemical_formula_sum "Si O2"
_cell_formula_units_Z 40
_cell_length_a 17.351679
_cell_length_b 11.060462
_cell_length_c 10.856510
_cell_angle_alpha 90.000000
_cell_angle_beta 112.473096
_cell_angle_gamma 90.000000
_cell_volume 1925.328189
_symmetry_space_group_name_H-M "C 2/M"
_symmetry_group_IT_number 12
_symmetry_cell_setting 'monoclinic'
loop_
_space_group_symop_operation_xyz
x,y,z
-x,y,-z
-x,-y,-z
x,-y,z
1/2+x,1/2+y,z
1/2-x,1/2+y,-z
1/2-x,1/2-y,-z
1/2+x,1/2-y,z
loop_
_atom_site_type_symbol
_atom_site_label
_atom_site_fract_x
_atom_site_fract_y
_atom_site_fract_z
Si Si1 0.702103 0.357070 0.630759
Si Si2 0.012382 0.360647 0.867212
Si Si3 0.888900 0.000000 0.804109
Si Si4 0.331988 0.738044 0.130955
Si Si5 0.415040 0.500000 0.098137
Si Si6 0.636240 0.266462 0.348817
O O1 0.691591 0.500000 0.655408
O O2 0.692125 0.266764 0.740501
O O3 0.634478 0.312611 0.488985
O O4 0.794206 0.335998 0.631144
O O5 0.987218 0.500000 0.850196
O O6 0.953333 0.288034 0.738699
O O7 0.106855 0.346292 0.875046
O O8 0.000000 0.309923 0.000000
O O9 0.843687 0.117678 0.723104
O O10 0.986181 0.000000 0.832561
O O11 0.875028 0.000000 0.939775
O O12 0.382762 0.616480 0.145888
O O13 0.250000 0.750000 0.000000
#
# Coordination Sequence:
#
# PCOD8113986 Si02
#       6
#     8   8   4   8   4   8
#     4  11  24  44  65  94 131 170 212 264 322 380
#     4  11  24  44  68  94 129 172 214 261 321 383
#     4  11  20  39  63  97 124 165 220 259 312 377
#     4  12  25  41  64  97 129 166 215 266 324 376
#     4  11  22  37  65  91 131 163 211 270 311 378
#     4  11  23  42  67  93 126 173 217 258 317 385
#
# _framework density 20.775679
#
# number of rings (size 3 to 8) (size 9 to 14) (size 15 to 20)
#    0.000    0.800    4.000    4.200    1.400    2.400 
#    1.800    3.000    0.000    0.000    0.000    0.000 
#    0.000    0.000    0.000    0.000    0.000    0.000 
#
# Total GULP energy -248021.341641 kJ/mol
# GULP energy per Si atom -12401.067082 kJ/mol
# Density = 2.072839 g / cm^3
# Si number density = 20.775679 Si / 1000 Ang^3
#
#
#
# Elastic Constant Matrix: (Units=GPa)
#
#
# Indices 1 2 3 4 5 6 
#
# 1 70.0401 9.0465 41.9001 0.0000 0.8128 0.0000
# 2 9.0465 77.1944 32.1276 0.0000 1.7717 0.0000
# 3 41.9001 32.1276 149.8756 0.0000 3.7192 0.0000
# 4 0.0000 0.0000 0.0000 35.1663 0.0000 -0.4401
# 5 0.8128 1.7717 3.7192 0.0000 35.6620 0.0000
# 6 0.0000 0.0000 0.0000 -0.4401 0.0000 33.1483
#
#
#
# Elastic Compliance Matrix: (Units=1/GPa)
#
#
# Indices 1 2 3 4 5 6 
#
# 1 0.017145 -0.000017 -0.004792 0.000000 0.000110 0.000000
# 2 -0.000017 0.014229 -0.003036 0.000000 -0.000390 0.000000
# 3 -0.004792 -0.003036 0.008679 0.000000 -0.000645 0.000000
# 4 0.000000 0.000000 0.000000 0.028441 0.000000 0.000378
# 5 0.000110 -0.000390 -0.000645 0.000000 0.028125 0.000000
# 6 0.000000 0.000000 0.000000 0.000378 0.000000 0.030172
#
#
# Mechanical properties :
#
#
# Convention : Reuss Voigt Hill
#
# Bulk Modulus (GPa) = 41.04685 51.47319 46.26002
# Shear Modulus (GPa) = 33.19998 35.06439 34.13218
#
# Velocity S-wave (km/s) = 4.00186 4.11269 4.05766
# Velocity P-wave (km/s) = 6.41508 6.88345 6.65339
#
# Compressibility (1/GPa) = 0.02436241
#
# Stress axis : x y z
#
# Youngs Moduli (GPa) = 58.32470 70.28068 115.22494
#
# Poissons Ratio (x) = 0.00122 0.55219
# Poissons Ratio (y) = 0.00101 0.34977
# Poissons Ratio (z) = 0.27951 0.21334
#
# Static dielectric constant tensor:
#      x y z
#    x 3.712960 0.000000 -0.029060 
#    y 0.000000 3.758590 0.000000 
#    z -0.029060 0.000000 3.926690 
# 
# 
# High freq. dielectric constant tensor:
#      x y z
#    x 1.804530 0.000000 0.004240 
#    y 0.000000 1.819970 0.000000 
#    z 0.004240 0.000000 1.824580 
# 
# From -- ./inp_files/141145.got.cif
#   From: 2010.06.25/outbox.cif.g09.slc.cpg/sg12_71_cif.got.tgz:141145.got - 2010.06.28 00:19:55.
