data_PCOD8113493
_publ_section_title
;
Structure prediction by ZEFSAII (Michael W. Deem and Ramdas Pophale) SiO2 
 PCOD8113493
Probable space group: C 2/M
;
_chemical_formula_sum "Si O2"
_cell_formula_units_Z 36
_cell_length_a 12.986127
_cell_length_b 14.078574
_cell_length_c 9.611352
_cell_angle_alpha 90.000000
_cell_angle_beta 64.015719
_cell_angle_gamma 90.000000
_cell_volume 1579.577997
_symmetry_space_group_name_H-M "C 2/M"
_symmetry_group_IT_number 12
_symmetry_cell_setting 'monoclinic'
loop_
_space_group_symop_operation_xyz
x,y,z
-x,y,-z
-x,-y,-z
x,-y,z
1/2+x,1/2+y,z
1/2-x,1/2+y,-z
1/2-x,1/2-y,-z
1/2+x,1/2-y,z
loop_
_atom_site_type_symbol
_atom_site_label
_atom_site_fract_x
_atom_site_fract_y
_atom_site_fract_z
Si Si1 0.860973 0.795295 0.360706
Si Si2 0.833696 0.000000 0.953268
Si Si3 0.287329 0.310347 0.114359
Si Si4 0.953115 0.000000 0.372165
Si Si5 0.542169 0.848116 0.334227
Si Si6 0.067310 0.500000 0.098197
O O1 0.750000 0.750000 0.500000
O O2 0.864956 0.766246 0.192066
O O3 0.974854 0.750309 0.358676
O O4 0.873640 0.908540 0.381972
O O5 0.852905 0.905656 0.032013
O O6 0.926612 0.000000 0.779159
O O7 0.701697 0.000000 0.979713
O O8 0.176132 0.331267 0.272704
O O9 0.250000 0.250000 0.000000
O O10 0.000000 0.000000 0.500000
O O11 0.500000 0.900566 0.500000
O O12 0.524834 0.909364 0.207451
O O13 0.000000 0.500000 0.000000
#
# Coordination Sequence:
#
# PCOD8113493 Si02
#       6
#     8   4   8   4   8   4
#     4  12  27  45  75 109 147 199 252 300 383 442
#     4  10  25  47  70 103 148 188 244 299 382 423
#     4  11  25  44  72 102 146 188 244 315 364 441
#     4  12  29  49  79 110 154 196 254 317 371 453
#     4  11  23  44  68 100 145 190 246 300 371 446
#     4  10  25  42  71 108 140 190 244 303 375 443
#
# _framework density 22.790899
#
# number of rings (size 3 to 8) (size 9 to 14) (size 15 to 20)
#    0.000    0.889    2.222    3.000    9.333    4.444 
#    0.000    0.000    0.000    0.000    0.000    0.000 
#    0.000    0.000    0.000    0.000    0.000    0.000 
#
# Total GULP energy -223016.507120 kJ/mol
# GULP energy per Si atom -12389.805951 kJ/mol
# Density = 2.273903 g / cm^3
# Si number density = 22.790899 Si / 1000 Ang^3
#
#
#
# Elastic Constant Matrix: (Units=GPa)
#
#
# Indices 1 2 3 4 5 6 
#
# 1 68.6013 30.4180 67.4176 0.0000 12.8617 0.0000
# 2 30.4180 128.9964 45.2434 0.0000 -6.0052 0.0000
# 3 67.4176 45.2434 177.3959 0.0000 -0.5298 0.0000
# 4 0.0000 0.0000 0.0000 34.3491 0.0000 2.5169
# 5 12.8617 -6.0052 -0.5298 0.0000 55.5669 0.0000
# 6 0.0000 0.0000 0.0000 2.5169 0.0000 41.5708
#
#
#
# Elastic Compliance Matrix: (Units=1/GPa)
#
#
# Indices 1 2 3 4 5 6 
#
# 1 0.026258 -0.003282 -0.009162 0.000000 -0.006520 0.000000
# 2 -0.003282 0.008969 -0.001035 0.000000 0.001719 0.000000
# 3 -0.009162 -0.001035 0.009389 0.000000 0.002098 0.000000
# 4 0.000000 0.000000 0.000000 0.029243 0.000000 -0.001770
# 5 -0.006520 0.001719 0.002098 0.000000 0.019711 0.000000
# 6 0.000000 0.000000 0.000000 -0.001770 0.000000 0.024163
#
#
# Mechanical properties :
#
#
# Convention : Reuss Voigt Hill
#
# Bulk Modulus (GPa) = 56.62827 73.46128 65.04477
# Shear Modulus (GPa) = 33.20576 41.75834 37.48205
#
# Velocity S-wave (km/s) = 3.82117 4.28511 4.05977
# Velocity P-wave (km/s) = 6.66103 7.53562 7.11178
#
# Compressibility (1/GPa) = 0.01765903
#
# Stress axis : x y z
#
# Youngs Moduli (GPa) = 38.08353 111.49341 106.50640
#
# Poissons Ratio (x) = 0.36593 0.97576
# Poissons Ratio (y) = 0.12499 0.11024
# Poissons Ratio (z) = 0.34890 0.11540
#
# Static dielectric constant tensor:
#      x y z
#    x 3.995120 0.000000 -0.382770 
#    y 0.000000 4.063870 0.000000 
#    z -0.382770 0.000000 2.477830 
# 
# 
# High freq. dielectric constant tensor:
#      x y z
#    x 1.906400 0.000000 0.004080 
#    y 0.000000 1.895440 0.000000 
#    z 0.004080 0.000000 1.921410 
# 
# From -- ./inp_files/46860.got.cif
#   From: 2010.06.25/outbox.cif.g09.slc.cpg/sg12_24_cif.got.tgz:46860.got - 2010.06.28 00:19:55.
