data_PCOD8113416
_publ_section_title
;
Structure prediction by ZEFSAII (Michael W. Deem and Ramdas Pophale) SiO2 
 PCOD8113416
Probable space group: C 2/M
;
_chemical_formula_sum "Si O2"
_cell_formula_units_Z 64
_cell_length_a 9.312879
_cell_length_b 15.812380
_cell_length_c 25.212009
_cell_angle_alpha 90.000000
_cell_angle_beta 122.171895
_cell_angle_gamma 90.000000
_cell_volume 3142.622754
_symmetry_space_group_name_H-M "C 2/M"
_symmetry_group_IT_number 12
_symmetry_cell_setting 'monoclinic'
loop_
_space_group_symop_operation_xyz
x,y,z
-x,y,-z
-x,-y,-z
x,-y,z
1/2+x,1/2+y,z
1/2-x,1/2+y,-z
1/2-x,1/2-y,-z
1/2+x,1/2-y,z
loop_
_atom_site_type_symbol
_atom_site_label
_atom_site_fract_x
_atom_site_fract_y
_atom_site_fract_z
Si Si1 0.688819 0.756598 0.046490
Si Si2 0.087621 0.902528 0.859809
Si Si3 0.520984 0.092151 0.361505
Si Si4 0.238825 0.900977 0.132635
Si Si5 0.922562 0.092963 0.264554
Si Si6 0.909917 0.633592 0.741412
Si Si7 0.306779 0.299530 0.459315
Si Si8 0.783455 0.795719 0.663056
O O1 0.779688 0.834137 0.093349
O O2 0.704457 0.664658 0.078085
O O3 0.500000 0.785823 0.000000
O O4 0.750000 0.750000 0.000000
O O5 0.070268 0.879495 0.795035
O O6 0.906768 0.889808 0.852231
O O7 0.151307 0.000000 0.880347
O O8 0.575643 0.084544 0.311106
O O9 0.680499 0.121864 0.427888
O O10 0.360209 0.152784 0.334470
O O11 0.469277 0.000000 0.372357
O O12 0.415042 0.872902 0.192972
O O13 0.245183 0.000000 0.114411
O O14 0.733295 0.093317 0.249834
O O15 0.053204 0.150472 0.323289
O O16 0.997772 0.000000 0.284655
O O17 0.853702 0.728968 0.719108
O O18 0.500000 0.332421 0.500000
O O19 0.250000 0.250000 0.500000
O O20 0.295841 0.240397 0.405816
#
# Coordination Sequence:
#
# PCOD8113416 Si02
#       8
#     8   8   8   8   8   8   8   8
#     4  12  26  44  66  96 128 166 218 266 310 381
#     4  10  24  45  67  92 129 171 210 261 323 382
#     4  11  23  41  65  95 126 164 210 261 317 376
#     4  11  24  44  68  92 128 172 211 260 320 386
#     4  11  23  39  62  96 127 154 201 262 317 369
#     4  11  23  40  64  96 126 161 206 256 318 379
#     4  11  23  43  64  88 124 168 215 257 308 374
#     4  11  23  40  66  88 125 170 206 255 313 382
#
# _framework density 20.365154
#
# number of rings (size 3 to 8) (size 9 to 14) (size 15 to 20)
#    0.000    1.000    2.500    4.500    3.500    4.250 
#    0.000    1.875    0.000    0.000    0.000    0.000 
#    0.000    0.000    0.000    0.000    0.000    0.000 
#
# Total GULP energy -396710.629937 kJ/mol
# GULP energy per Si atom -12397.207186 kJ/mol
# Density = 2.031880 g / cm^3
# Si number density = 20.365154 Si / 1000 Ang^3
#
#
#
# Elastic Constant Matrix: (Units=GPa)
#
#
# Indices 1 2 3 4 5 6 
#
# 1 120.8280 43.7239 42.1420 0.0000 7.0338 0.0000
# 2 43.7239 135.1744 59.7492 0.0000 8.9257 0.0000
# 3 42.1420 59.7492 93.2210 -0.0001 19.8491 -0.0001
# 4 0.0000 0.0000 -0.0001 246.2535 0.0000 474.5976
# 5 7.0338 8.9257 19.8491 0.0000 46.8094 -0.0001
# 6 0.0000 0.0000 -0.0001 474.5976 -0.0001 976.7888
#
#
#
# Elastic Compliance Matrix: (Units=1/GPa)
#
#
# Indices 1 2 3 4 5 6 
#
# 1 0.010116 -0.001733 -0.003527 0.000000 0.000306 0.000000
# 2 -0.001733 0.010655 -0.006231 0.000000 0.000871 0.000000
# 3 -0.003527 -0.006231 0.017533 0.000000 -0.005716 0.000000
# 4 0.000000 0.000000 0.000000 0.063864 0.000000 -0.031030
# 5 0.000306 0.000871 -0.005716 0.000000 0.023575 0.000000
# 6 0.000000 0.000000 0.000000 -0.031030 0.000000 0.016100
#
#
# Mechanical properties :
#
#
# Convention : Reuss Voigt Hill
#
# Bulk Modulus (GPa) = 65.27311 71.16152 68.21732
# Shear Modulus (GPa) = 29.42312 267.54425 148.48368
#
# Velocity S-wave (km/s) = 3.80515 11.47426 8.54804
# Velocity P-wave (km/s) = 7.17123 14.51081 11.44531
#
# Compressibility (1/GPa) = 0.01532024
#
# Stress axis : x y z
#
# Youngs Moduli (GPa) = 98.85486 93.84981 57.03557
#
# Poissons Ratio (x) = 0.16266 0.20119
# Poissons Ratio (y) = 0.17133 0.35541
# Poissons Ratio (z) = 0.34870 0.58482
#
# Static dielectric constant tensor:
#      x y z
#    x 3.819500 0.000000 0.075010 
#    y 0.000000 4.067580 0.000000 
#    z 0.075010 0.000000 3.714550 
# 
# 
# High freq. dielectric constant tensor:
#      x y z
#    x 1.812150 0.000000 0.008050 
#    y 0.000000 1.806500 0.000000 
#    z 0.008050 0.000000 1.796740 
# 
# From -- ./inp_files/372585.got.cif
#   From: 2010.06.25/outbox.cif.g09.slc.cpg/sg12_187_cif.got.tgz:372585.got - 2010.06.28 00:19:55.
