data_PCOD8113456
_publ_section_title
;
Structure prediction by ZEFSAII (Michael W. Deem and Ramdas Pophale) SiO2 
 PCOD8113456
Probable space group: C 2/M
;
_chemical_formula_sum "Si O2"
_cell_formula_units_Z 36
_cell_length_a 14.133455
_cell_length_b 24.931146
_cell_length_c 9.501102
_cell_angle_alpha 90.000000
_cell_angle_beta 28.713443
_cell_angle_gamma 90.000000
_cell_volume 1608.399890
_symmetry_space_group_name_H-M "C 2/M"
_symmetry_group_IT_number 12
_symmetry_cell_setting 'monoclinic'
loop_
_space_group_symop_operation_xyz
x,y,z
-x,y,-z
-x,-y,-z
x,-y,z
1/2+x,1/2+y,z
1/2-x,1/2+y,-z
1/2-x,1/2-y,-z
1/2+x,1/2-y,z
loop_
_atom_site_type_symbol
_atom_site_label
_atom_site_fract_x
_atom_site_fract_y
_atom_site_fract_z
Si Si1 0.663507 0.819105 0.593110
Si Si2 0.301475 0.500000 0.552594
Si Si3 0.500000 0.268226 0.000000
Si Si4 0.962982 0.884645 0.383008
Si Si5 0.386634 0.888119 0.785787
Si Si6 0.065116 0.500000 0.149262
O O1 0.500166 0.862507 0.768813
O O2 0.793619 0.844377 0.550312
O O3 0.531368 0.768834 0.819918
O O4 0.801479 0.804802 0.275840
O O5 0.428752 0.445988 0.380326
O O6 0.164121 0.500000 0.593662
O O7 0.186834 0.500000 0.847905
O O8 0.000000 0.880576 0.500000
O O9 0.167510 0.865281 0.047781
O O10 0.500000 0.872655 0.500000
O O11 0.376611 0.950826 0.829040
#
# Coordination Sequence:
#
# PCOD8113456 Si02
#       6
#     8   4   4   8   8   4
#     4  11  24  47  66  98 128 170 220 273 331 383
#     4  11  22  40  68 101 134 173 218 262 310 385
#     4  10  24  46  72  88 132 168 214 290 330 370
#     4  12  23  41  70  99 130 174 219 262 318 391
#     4  12  25  42  66  99 139 174 210 263 325 389
#     4  11  22  41  66 100 138 175 210 263 318 382
#
# _framework density 22.382493
#
# number of rings (size 3 to 8) (size 9 to 14) (size 15 to 20)
#    0.000    0.667    4.444    4.000    0.000    0.000 
#    0.000   23.333    0.000    0.000    0.000    0.000 
#    0.000    0.000    0.000    0.000    0.000    0.000 
#
# Total GULP energy -223058.230980 kJ/mol
# GULP energy per Si atom -12392.123943 kJ/mol
# Density = 2.233155 g / cm^3
# Si number density = 22.382493 Si / 1000 Ang^3
#
#
#
# Elastic Constant Matrix: (Units=GPa)
#
#
# Indices 1 2 3 4 5 6 
#
# 1 94.6931 16.7311 13.8508 -0.0002 -23.2947 0.0084
# 2 16.7311 91.5709 8.6221 0.0002 -13.9299 0.0011
# 3 13.8508 8.6221 112.7919 -0.0011 -9.3939 0.0039
# 4 -0.0002 0.0002 -0.0011 36.1287 0.0010 9.0718
# 5 -23.2947 -13.9299 -9.3939 0.0010 31.6136 -0.0043
# 6 0.0084 0.0011 0.0039 9.0718 -0.0043 12.3406
#
#
#
# Elastic Compliance Matrix: (Units=1/GPa)
#
#
# Indices 1 2 3 4 5 6 
#
# 1 0.013047 -0.000947 -0.000783 0.000001 0.008964 -0.000007
# 2 -0.000947 0.011799 -0.000421 -0.000001 0.004376 0.000002
# 3 -0.000783 -0.000421 0.009157 0.000001 0.001958 -0.000002
# 4 0.000001 -0.000001 0.000001 0.033944 -0.000003 -0.024953
# 5 0.008964 0.004376 0.001958 -0.000003 0.040748 0.000010
# 6 -0.000007 0.000002 -0.000002 -0.024953 0.000010 0.099377
#
#
# Mechanical properties :
#
#
# Convention : Reuss Voigt Hill
#
# Bulk Modulus (GPa) = 33.66813 41.94043 37.80428
# Shear Modulus (GPa) = 22.49465 33.34003 27.91734
#
# Velocity S-wave (km/s) = 3.17363 3.86367 3.53552
# Velocity P-wave (km/s) = 5.33892 6.21954 5.79598
#
# Compressibility (1/GPa) = 0.02970168
#
# Stress axis : x y z
#
# Youngs Moduli (GPa) = 76.64307 84.75413 109.20167
#
# Poissons Ratio (x) = 0.08022 0.08553
# Poissons Ratio (y) = 0.07254 0.04600
# Poissons Ratio (z) = 0.06003 0.03570
#
# Static dielectric constant tensor:
#      x y z
#    x 3.996590 -0.000010 -0.416300 
#    y -0.000010 4.001230 0.000000 
#    z -0.416300 0.000000 4.532080 
# 
# 
# High freq. dielectric constant tensor:
#      x y z
#    x 1.868250 0.000000 -0.011540 
#    y 0.000000 1.888970 0.000000 
#    z -0.011540 0.000000 1.893590 
# 
# From -- ./inp_files/67272.got.cif
#   From: 2010.06.25/outbox.cif.g09.slc.cpg/sg12_34_cif.got.tgz:67272.got - 2010.06.28 00:19:55.
