data_PCOD8113967
_publ_section_title
;
Structure prediction by ZEFSAII (Michael W. Deem and Ramdas Pophale) SiO2 
 PCOD8113967
Probable space group: C 2/M
;
_chemical_formula_sum "Si O2"
_cell_formula_units_Z 44
_cell_length_a 10.494728
_cell_length_b 21.908383
_cell_length_c 12.555199
_cell_angle_alpha 90.000000
_cell_angle_beta 126.638475
_cell_angle_gamma 90.000000
_cell_volume 2316.355378
_symmetry_space_group_name_H-M "C 2/M"
_symmetry_group_IT_number 12
_symmetry_cell_setting 'monoclinic'
loop_
_space_group_symop_operation_xyz
x,y,z
-x,y,-z
-x,-y,-z
x,-y,z
1/2+x,1/2+y,z
1/2-x,1/2+y,-z
1/2-x,1/2-y,-z
1/2+x,1/2-y,z
loop_
_atom_site_type_symbol
_atom_site_label
_atom_site_fract_x
_atom_site_fract_y
_atom_site_fract_z
Si Si1 0.245136 0.127073 0.488337
Si Si2 0.369114 0.500000 0.567546
Si Si3 0.000000 0.299539 0.500000
Si Si4 0.564910 0.762878 0.920600
Si Si5 0.275834 0.500000 0.274911
Si Si6 0.847353 0.630731 0.780105
Si Si7 0.550969 0.296874 0.699555
O O1 0.220465 0.058965 0.431954
O O2 0.350870 0.159384 0.454094
O O3 0.322881 0.132641 0.642220
O O4 0.073086 0.156973 0.413836
O O5 0.340188 0.500000 0.426806
O O6 0.553327 0.500000 0.699949
O O7 0.938179 0.261659 0.369545
O O8 0.516470 0.835605 0.888117
O O9 0.489517 0.724579 0.785160
O O10 0.500000 0.735933 0.000000
O O11 0.750000 0.750000 0.000000
O O12 0.168245 0.559541 0.192129
O O13 0.722088 0.670558 0.786020
#
# Coordination Sequence:
#
# PCOD8113967 Si02
#       7
#     8   4   4   8   4   8   8
#     4  11  21  34  58  89 124 156 193 242 305 366
#     4   9  18  33  54  86 124 159 184 236 297 374
#     4  12  22  31  54  91 124 156 188 242 304 376
#     4  12  26  41  59  86 121 163 205 247 296 352
#     4   9  18  34  59  88 117 150 199 244 296 349
#     4  11  20  38  62  89 118 155 197 249 297 356
#     4  12  21  36  61  89 121 151 197 245 312 357
#
# _framework density 18.995359000000001
#
# number of rings (size 3 to 8) (size 9 to 14) (size 15 to 20)
#    0.000    0.909    7.273    1.636    0.000    0.364 
#    0.000    0.455    0.000    0.000    0.000    3.182 
#    0.000    0.000    0.000    0.000    0.000    0.000 
#
# Total GULP energy -272675.857065 kJ/mol
# GULP energy per Si atom -12394.357139 kJ/mol
# Density = 1.895212 g / cm^3
# Si number density = 18.995359 Si / 1000 Ang^3
#
#
#
# Elastic Constant Matrix: (Units=GPa)
#
#
# Indices 1 2 3 4 5 6 
#
# 1 112.0877 67.1205 38.5751 0.0000 1.1384 0.0000
# 2 67.1205 162.5337 39.1707 0.0000 7.2272 0.0000
# 3 38.5751 39.1707 59.3377 0.0000 -3.7890 0.0000
# 4 0.0000 0.0000 0.0000 83.6699 0.0000 -7.6081
# 5 1.1384 7.2272 -3.7890 0.0000 41.3720 0.0000
# 6 0.0000 0.0000 0.0000 -7.6081 0.0000 12.5304
#
#
#
# Elastic Compliance Matrix: (Units=1/GPa)
#
#
# Indices 1 2 3 4 5 6 
#
# 1 0.013458 -0.004087 -0.006065 0.000000 -0.000212 0.000000
# 2 -0.004087 0.008683 -0.003183 0.000000 -0.001696 0.000000
# 3 -0.006065 -0.003183 0.023078 0.000000 0.002837 0.000000
# 4 0.000000 0.000000 0.000000 0.012650 0.000000 0.007681
# 5 -0.000212 -0.001696 0.002837 0.000000 0.024733 0.000000
# 6 0.000000 0.000000 0.000000 0.007681 0.000000 0.084470
#
#
# Mechanical properties :
#
#
# Convention : Reuss Voigt Hill
#
# Bulk Modulus (GPa) = 53.91077 69.29908 61.60492
# Shear Modulus (GPa) = 25.00946 40.12066 32.56506
#
# Velocity S-wave (km/s) = 3.63245 4.60078 4.14499
# Velocity P-wave (km/s) = 6.78495 8.04886 7.44378
#
# Compressibility (1/GPa) = 0.01854917
#
# Stress axis : x y z
#
# Youngs Moduli (GPa) = 74.30441 115.17003 43.33129
#
# Poissons Ratio (x) = 0.47066 0.26280
# Poissons Ratio (y) = 0.30366 0.13794
# Poissons Ratio (z) = 0.45065 0.36663
#
# Static dielectric constant tensor:
#      x y z
#    x 3.266910 0.000000 -0.331130 
#    y 0.000000 3.780190 0.000000 
#    z -0.331130 0.000000 3.093120 
# 
# 
# High freq. dielectric constant tensor:
#      x y z
#    x 1.732150 0.000000 0.004950 
#    y 0.000000 1.739090 0.000000 
#    z 0.004950 0.000000 1.723760 
# 
# From -- ./inp_files/122710.got.cif
#   From: 2010.06.25/outbox.cif.g09.slc.cpg/sg12_62_cif.got.tgz:122710.got - 2010.06.28 00:19:55.
