data_PCOD8113759
_publ_section_title
;
Structure prediction by ZEFSAII (Michael W. Deem and Ramdas Pophale) SiO2 
 PCOD8113759
Probable space group: C 2/M
;
_chemical_formula_sum "Si O2"
_cell_formula_units_Z 48
_cell_length_a 28.281303
_cell_length_b 8.942492
_cell_length_c 12.186555
_cell_angle_alpha 90.000000
_cell_angle_beta 109.884293
_cell_angle_gamma 90.000000
_cell_volume 2898.297484
_symmetry_space_group_name_H-M "C 2/M"
_symmetry_group_IT_number 12
_symmetry_cell_setting 'monoclinic'
loop_
_space_group_symop_operation_xyz
x,y,z
-x,y,-z
-x,-y,-z
x,-y,z
1/2+x,1/2+y,z
1/2-x,1/2+y,-z
1/2-x,1/2-y,-z
1/2+x,1/2-y,z
loop_
_atom_site_type_symbol
_atom_site_label
_atom_site_fract_x
_atom_site_fract_y
_atom_site_fract_z
Si Si1 0.281063 0.678276 0.427334
Si Si2 0.414143 0.675103 0.262695
Si Si3 0.324067 0.673533 0.048696
Si Si4 0.384838 0.176155 0.464225
Si Si5 0.256840 0.175398 0.837467
Si Si6 0.978951 0.834683 0.605727
O O1 0.282301 0.500000 0.438239
O O2 0.250000 0.750000 0.500000
O O3 0.337328 0.740478 0.477945
O O4 0.254627 0.732044 0.293836
O O5 0.408228 0.500000 0.290984
O O6 0.381446 0.711185 0.128363
O O7 0.393279 0.772207 0.346494
O O8 0.472665 0.713577 0.282075
O O9 0.316352 0.500000 0.020617
O O10 0.288761 0.728672 0.120768
O O11 0.309161 0.756554 0.924320
O O12 0.433078 0.218571 0.578159
O O13 0.376422 0.000000 0.461821
O O14 0.262758 0.000000 0.842930
O O15 0.000000 0.839316 0.500000
O O16 0.959773 0.000000 0.624830
#
# Coordination Sequence:
#
# PCOD8113759 Si02
#       6
#     8   8   8   8   8   8
#     4  11  22  37  52  68  93 125 164 200 236 278
#     4   9  16  29  46  67  95 129 159 189 233 281
#     4   9  16  28  47  69  95 125 156 189 230 281
#     4  11  20  29  44  67  95 125 158 196 237 279
#     4   9  18  31  46  66  94 124 154 193 235 277
#     4   8  15  27  44  63  90 126 158 188 232 282
#
# _framework density 16.561447000000001
#
# number of rings (size 3 to 8) (size 9 to 14) (size 15 to 20)
#    0.000    2.500    1.667    3.000    0.000    5.000 
#    0.000    0.000    0.000    0.000    0.000    1.167 
#    0.000    9.333    0.000    0.000    0.000    0.000 
#
# Total GULP energy -297484.217183 kJ/mol
# GULP energy per Si atom -12395.175716 kJ/mol
# Density = 1.652375 g / cm^3
# Si number density = 16.561447 Si / 1000 Ang^3
#
#
#
# Elastic Constant Matrix: (Units=GPa)
#
#
# Indices 1 2 3 4 5 6 
#
# 1 91.5569 40.1665 60.7688 0.0000 23.6933 0.0000
# 2 40.1665 65.3156 35.5516 0.0000 6.6815 0.0000
# 3 60.7688 35.5516 100.1051 0.0000 26.0999 0.0000
# 4 0.0000 0.0000 0.0000 24.4163 0.0000 4.0765
# 5 23.6933 6.6815 26.0999 0.0000 32.2309 0.0000
# 6 0.0000 0.0000 0.0000 4.0765 0.0000 25.0351
#
#
#
# Elastic Compliance Matrix: (Units=1/GPa)
#
#
# Indices 1 2 3 4 5 6 
#
# 1 0.022184 -0.008202 -0.008551 0.000000 -0.007683 0.000000
# 2 -0.008202 0.022107 -0.004119 0.000000 0.004782 0.000000
# 3 -0.008551 -0.004119 0.018738 0.000000 -0.008034 0.000000
# 4 0.000000 0.000000 0.000000 0.042101 0.000000 -0.006855
# 5 -0.007683 0.004782 -0.008034 0.000000 0.042188 0.000000
# 6 0.000000 0.000000 0.000000 -0.006855 0.000000 0.041060
#
#
# Mechanical properties :
#
#
# Convention : Reuss Voigt Hill
#
# Bulk Modulus (GPa) = 46.98073 58.88348 52.93211
# Shear Modulus (GPa) = 21.07778 24.36918 22.72348
#
# Velocity S-wave (km/s) = 3.57136 3.84010 3.70817
# Velocity P-wave (km/s) = 6.74057 7.43596 7.09679
#
# Compressibility (1/GPa) = 0.02128532
#
# Stress axis : x y z
#
# Youngs Moduli (GPa) = 45.07719 45.23449 53.36879
#
# Poissons Ratio (x) = 0.37102 0.45634
# Poissons Ratio (y) = 0.36973 0.21981
# Poissons Ratio (z) = 0.38544 0.18631
#
# Static dielectric constant tensor:
#      x y z
#    x 3.202440 0.000000 0.515920 
#    y 0.000000 3.071080 0.000000 
#    z 0.515920 0.000000 3.193490 
# 
# 
# High freq. dielectric constant tensor:
#      x y z
#    x 1.614620 0.000000 0.044330 
#    y 0.000000 1.636060 0.000000 
#    z 0.044330 0.000000 1.616170 
# 
# From -- ./inp_files/185953.got.cif
#   From: 2010.06.25/outbox.cif.g09.slc.cpg/sg12_93_cif.got.tgz:185953.got - 2010.06.28 00:19:55.
