data_PCOD8113942
_publ_section_title
;
Structure prediction by ZEFSAII (Michael W. Deem and Ramdas Pophale) SiO2 
 PCOD8113942
Probable space group: C 2/M
;
_chemical_formula_sum "Si O2"
_cell_formula_units_Z 40
_cell_length_a 13.131100
_cell_length_b 18.136978
_cell_length_c 10.647240
_cell_angle_alpha 90.000000
_cell_angle_beta 50.214726
_cell_angle_gamma 90.000000
_cell_volume 1948.577004
_symmetry_space_group_name_H-M "C 2/M"
_symmetry_group_IT_number 12
_symmetry_cell_setting 'monoclinic'
loop_
_space_group_symop_operation_xyz
x,y,z
-x,y,-z
-x,-y,-z
x,-y,z
1/2+x,1/2+y,z
1/2-x,1/2+y,-z
1/2-x,1/2-y,-z
1/2+x,1/2-y,z
loop_
_atom_site_type_symbol
_atom_site_label
_atom_site_fract_x
_atom_site_fract_y
_atom_site_fract_z
Si Si1 0.118367 0.000000 0.245916
Si Si2 0.189361 0.839644 0.105539
Si Si3 0.034739 0.715119 0.118072
Si Si4 0.216724 0.347534 0.532902
Si Si5 0.307301 0.500000 0.531280
Si Si6 0.148194 0.755714 0.391260
O O1 0.157774 0.074255 0.142725
O O2 0.199158 0.000000 0.312849
O O3 0.960887 0.000000 0.377217
O O4 0.076021 0.801069 0.109629
O O5 0.203265 0.791071 0.221812
O O6 0.338861 0.833605 0.934258
O O7 0.912650 0.687633 0.298406
O O8 0.000000 0.703180 0.000000
O O9 0.223475 0.434768 0.533918
O O10 0.228111 0.316431 0.380480
O O11 0.345547 0.319452 0.507455
O O12 0.000000 0.728189 0.500000
#
# Coordination Sequence:
#
# PCOD8113942 Si02
#       6
#     4   8   8   8   4   8
#     4  11  22  37  58  87 121 149 191 251 294 345
#     4  11  23  38  62  88 117 157 195 238 297 346
#     4  11  22  39  60  87 117 157 199 235 287 356
#     4  11  23  35  62  89 119 152 198 247 287 348
#     4  11  22  35  56  93 117 152 193 246 303 339
#     4  11  20  37  61  86 117 156 193 244 285 346
#
# _framework density 20.527801
#
# number of rings (size 3 to 8) (size 9 to 14) (size 15 to 20)
#    0.000    1.000    6.000    1.200    2.800    0.800 
#    0.000    3.000    0.000    1.200    0.000    0.000 
#    0.000    0.000    0.000    0.000    0.000    0.000 
#
# Total GULP energy -247774.162811 kJ/mol
# GULP energy per Si atom -12388.708141 kJ/mol
# Density = 2.048108 g / cm^3
# Si number density = 20.527801 Si / 1000 Ang^3
#
#
#
# Elastic Constant Matrix: (Units=GPa)
#
#
# Indices 1 2 3 4 5 6 
#
# 1 74.6048 30.4995 7.1528 0.0000 -3.9176 0.0000
# 2 30.4995 175.0909 27.1291 0.0000 -5.5764 0.0000
# 3 7.1528 27.1291 35.1130 0.0000 -0.4900 0.0000
# 4 0.0000 0.0000 0.0000 21.6653 0.0000 -2.8249
# 5 -3.9176 -5.5764 -0.4900 0.0000 19.1080 0.0000
# 6 0.0000 0.0000 0.0000 -2.8249 0.0000 24.1610
#
#
#
# Elastic Compliance Matrix: (Units=1/GPa)
#
#
# Indices 1 2 3 4 5 6 
#
# 1 0.014570 -0.002283 -0.001172 0.000000 0.002291 0.000000
# 2 -0.002283 0.006906 -0.004851 0.000000 0.001423 0.000000
# 3 -0.001172 -0.004851 0.032454 0.000000 -0.000824 0.000000
# 4 0.000000 0.000000 0.000000 0.046871 0.000000 0.005480
# 5 0.002291 0.001423 -0.000824 0.000000 0.053198 0.000000
# 6 0.000000 0.000000 0.000000 0.005480 0.000000 0.042030
#
#
# Mechanical properties :
#
#
# Convention : Reuss Voigt Hill
#
# Bulk Modulus (GPa) = 26.79632 46.04127 36.41879
# Shear Modulus (GPa) = 22.21422 27.65534 24.93478
#
# Velocity S-wave (km/s) = 3.29318 3.67442 3.48901
# Velocity P-wave (km/s) = 5.24805 6.36233 5.83187
#
# Compressibility (1/GPa) = 0.03731856
#
# Stress axis : x y z
#
# Youngs Moduli (GPa) = 68.63358 144.80203 30.81245
#
# Poissons Ratio (x) = 0.33065 0.03611
# Poissons Ratio (y) = 0.15672 0.14946
# Poissons Ratio (z) = 0.08043 0.70239
#
# Static dielectric constant tensor:
#      x y z
#    x 4.012090 0.000000 -0.020410 
#    y 0.000000 3.669750 0.000000 
#    z -0.020410 0.000000 3.812970 
# 
# 
# High freq. dielectric constant tensor:
#      x y z
#    x 1.817290 0.000000 -0.012880 
#    y 0.000000 1.786980 0.000000 
#    z -0.012880 0.000000 1.790460 
# 
# From -- ./inp_files/144674.got.cif
#   From: 2010.06.25/outbox.cif.g09.slc.cpg/sg12_73_cif.got.tgz:144674.got - 2010.06.28 00:19:55.
