data_PCOD8113554
_publ_section_title
;
Structure prediction by ZEFSAII (Michael W. Deem and Ramdas Pophale) SiO2 
 PCOD8113554
Probable space group: C 2/M
;
_chemical_formula_sum "Si O2"
_cell_formula_units_Z 40
_cell_length_a 19.348618
_cell_length_b 11.249819
_cell_length_c 19.442105
_cell_angle_alpha 90.000000
_cell_angle_beta 150.163805
_cell_angle_gamma 90.000000
_cell_volume 2105.479909
_symmetry_space_group_name_H-M "C 2/M"
_symmetry_group_IT_number 12
_symmetry_cell_setting 'monoclinic'
loop_
_space_group_symop_operation_xyz
x,y,z
-x,y,-z
-x,-y,-z
x,-y,z
1/2+x,1/2+y,z
1/2-x,1/2+y,-z
1/2-x,1/2-y,-z
1/2+x,1/2-y,z
loop_
_atom_site_type_symbol
_atom_site_label
_atom_site_fract_x
_atom_site_fract_y
_atom_site_fract_z
Si Si1 0.843915 0.737203 0.674845
Si Si2 0.395777 0.360889 0.851327
Si Si3 0.688374 0.500000 0.581966
Si Si4 0.076212 0.638233 0.393029
Si Si5 0.607253 0.500000 0.668595
Si Si6 0.886154 0.255456 0.341511
O O1 0.935891 0.792467 0.815606
O O2 0.776126 0.615538 0.641934
O O3 0.941409 0.711679 0.693363
O O4 0.725108 0.832100 0.554210
O O5 0.413594 0.500000 0.854374
O O6 0.237669 0.332354 0.734503
O O7 0.500000 0.315093 0.000000
O O8 0.622924 0.500000 0.600249
O O9 0.539448 0.500000 0.414882
O O10 0.072018 0.500000 0.371809
O O11 0.952338 0.668682 0.337497
O O12 0.672498 0.630316 0.741951
O O13 0.000000 0.230042 0.500000
#
# Coordination Sequence:
#
# PCOD8113554 Si02
#       6
#     8   8   4   8   4   8
#     4  11  21  36  56  88 121 156 194 239 295 349
#     4  11  24  42  62  85 119 157 194 241 296 352
#     4  11  16  34  54  82 127 150 177 244 297 336
#     4  11  22  33  57  89 122 153 192 246 294 342
#     4  11  16  30  56  84 118 148 184 242 294 331
#     4  12  20  36  60  90 118 151 198 247 288 344
#
# _framework density 18.998044
#
# number of rings (size 3 to 8) (size 9 to 14) (size 15 to 20)
#    0.000    0.800    9.000    1.200    0.000    0.800 
#    1.800    3.000    0.000    0.000    0.000    0.000 
#    0.000    0.000    0.000    0.000    0.000    0.000 
#
# Total GULP energy -247774.279009 kJ/mol
# GULP energy per Si atom -12388.713950 kJ/mol
# Density = 1.895480 g / cm^3
# Si number density = 18.998044 Si / 1000 Ang^3
#
#
#
# Elastic Constant Matrix: (Units=GPa)
#
#
# Indices 1 2 3 4 5 6 
#
# 1 91.0234 32.7503 37.6536 -0.0001 -17.9111 -0.0001
# 2 32.7503 87.5092 24.2970 -0.0001 -15.9724 -0.0001
# 3 37.6536 24.2970 67.3652 -0.0003 -22.7230 -0.0002
# 4 -0.0001 -0.0001 -0.0003 28.7949 -0.0002 -6.6182
# 5 -17.9111 -15.9724 -22.7230 -0.0002 24.4616 -0.0002
# 6 -0.0001 -0.0001 -0.0002 -6.6182 -0.0002 23.8875
#
#
#
# Elastic Compliance Matrix: (Units=1/GPa)
#
#
# Indices 1 2 3 4 5 6 
#
# 1 0.015474 -0.003451 -0.006324 0.000000 0.003202 0.000000
# 2 -0.003451 0.014077 -0.001311 0.000000 0.005447 0.000000
# 3 -0.006324 -0.001311 0.024760 0.000000 0.017513 0.000000
# 4 0.000000 0.000000 0.000000 0.037090 0.000001 0.010276
# 5 0.003202 0.005447 0.017513 0.000001 0.063050 0.000001
# 6 0.000000 0.000000 0.000000 0.010276 0.000001 0.044710
#
#
# Mechanical properties :
#
#
# Convention : Reuss Voigt Hill
#
# Bulk Modulus (GPa) = 31.11548 48.36662 39.74105
# Shear Modulus (GPa) = 21.54738 25.50859 23.52798
#
# Velocity S-wave (km/s) = 3.37143 3.66826 3.52297
# Velocity P-wave (km/s) = 5.61864 6.59208 6.12473
#
# Compressibility (1/GPa) = 0.03213834
#
# Stress axis : x y z
#
# Youngs Moduli (GPa) = 64.62405 71.03752 40.38816
#
# Poissons Ratio (x) = 0.24513 0.25543
# Poissons Ratio (y) = 0.22300 0.05295
# Poissons Ratio (z) = 0.40871 0.09314
#
# Static dielectric constant tensor:
#      x y z
#    x 3.764410 0.000000 -0.232720 
#    y 0.000000 3.106590 0.000000 
#    z -0.232720 0.000000 3.127720 
# 
# 
# High freq. dielectric constant tensor:
#      x y z
#    x 1.751220 0.000000 -0.012900 
#    y 0.000000 1.764580 0.000000 
#    z -0.012900 0.000000 1.670700 
# 
# From -- ./inp_files/283428.got.cif
#   From: 2010.06.25/outbox.cif.g09.slc.cpg/sg12_142_cif.got.tgz:283428.got - 2010.06.28 00:19:55.
