data_PCOD8113250
_publ_section_title
;
Structure prediction by ZEFSAII (Michael W. Deem and Ramdas Pophale) SiO2 
 PCOD8113250
Probable space group: C 2/M
;
_chemical_formula_sum "Si O2"
_cell_formula_units_Z 32
_cell_length_a 8.244977
_cell_length_b 17.975209
_cell_length_c 13.278526
_cell_angle_alpha 90.000000
_cell_angle_beta 130.990263
_cell_angle_gamma 90.000000
_cell_volume 1485.447391
_symmetry_space_group_name_H-M "C 2/M"
_symmetry_group_IT_number 12
_symmetry_cell_setting 'monoclinic'
loop_
_space_group_symop_operation_xyz
x,y,z
-x,y,-z
-x,-y,-z
x,-y,z
1/2+x,1/2+y,z
1/2-x,1/2+y,-z
1/2-x,1/2-y,-z
1/2+x,1/2-y,z
loop_
_atom_site_type_symbol
_atom_site_label
_atom_site_fract_x
_atom_site_fract_y
_atom_site_fract_z
Si Si1 0.581411 0.660355 0.353797
Si Si2 0.665332 0.000000 0.978910
Si Si3 0.979420 0.879140 0.880956
Si Si4 0.384486 0.000000 0.260992
Si Si5 0.854718 0.000000 0.539264
Si Si6 0.000000 0.252947 0.500000
O O1 0.509510 0.678074 0.208961
O O2 0.584247 0.571601 0.369812
O O3 0.430339 0.699912 0.376731
O O4 0.816170 0.693539 0.465512
O O5 0.811344 0.928343 0.043981
O O6 0.500000 0.000000 0.000000
O O7 0.534328 0.000000 0.821117
O O8 0.759662 0.926520 0.779260
O O9 0.000000 0.839935 0.000000
O O10 0.598211 0.000000 0.415362
O O11 0.000000 0.000000 0.500000
#
# Coordination Sequence:
#
# PCOD8113250 Si02
#       6
#     8   4   8   4   4   4
#     4  11  22  41  61  87 126 152 207 245 302 362
#     4   9  18  29  54  87 123 154 190 251 313 340
#     4   9  19  37  57  83 117 166 201 238 298 365
#     4   9  19  33  52  85 130 154 188 247 318 351
#     4  12  23  34  62 100 116 148 211 259 286 347
#     4  10  24  40  60  88 122 174 180 246 324 360
#
# _framework density 21.542331000000001
#
# number of rings (size 3 to 8) (size 9 to 14) (size 15 to 20)
#    0.000    2.000    1.250    4.500    3.500    1.500 
#    0.000    1.250    0.000    0.000    0.000    0.000 
#    0.000    0.000    0.000    0.000    0.000    0.000 
#
# Total GULP energy -198249.874187 kJ/mol
# GULP energy per Si atom -12390.617137 kJ/mol
# Density = 2.149330 g / cm^3
# Si number density = 21.542331 Si / 1000 Ang^3
#
#
#
# Elastic Constant Matrix: (Units=GPa)
#
#
# Indices 1 2 3 4 5 6 
#
# 1 104.0637 16.6732 30.5080 0.0000 -31.5328 0.0000
# 2 16.6732 76.8605 12.8640 0.0000 -17.6773 0.0000
# 3 30.5080 12.8640 99.7919 0.0000 -40.4206 0.0000
# 4 0.0000 0.0000 0.0000 7.5402 0.0000 -5.4052
# 5 -31.5328 -17.6773 -40.4206 0.0000 53.5800 0.0000
# 6 0.0000 0.0000 0.0000 -5.4052 0.0000 14.2264
#
#
#
# Elastic Compliance Matrix: (Units=1/GPa)
#
#
# Indices 1 2 3 4 5 6 
#
# 1 0.011863 -0.001055 -0.001158 0.000000 0.005761 0.000000
# 2 -0.001055 0.014173 0.000199 0.000000 0.004205 0.000000
# 3 -0.001158 0.000199 0.014544 0.000000 0.010356 0.000000
# 4 0.000000 0.000000 0.000000 0.182267 0.000000 0.069251
# 5 0.005761 0.004205 0.010356 0.000000 0.031254 0.000000
# 6 0.000000 0.000000 0.000000 0.069251 0.000000 0.096603
#
#
# Mechanical properties :
#
#
# Convention : Reuss Voigt Hill
#
# Bulk Modulus (GPa) = 27.35731 44.53406 35.94568
# Shear Modulus (GPa) = 13.62708 29.78071 21.70390
#
# Velocity S-wave (km/s) = 2.51783 3.72213 3.17756
# Velocity P-wave (km/s) = 4.60212 6.26020 5.49407
#
# Compressibility (1/GPa) = 0.03655330
#
# Stress axis : x y z
#
# Youngs Moduli (GPa) = 84.29286 70.55508 68.75743
#
# Poissons Ratio (x) = 0.07443 0.07959
# Poissons Ratio (y) = 0.08892 -0.01367
# Poissons Ratio (z) = 0.09757 -0.01402
#
# Static dielectric constant tensor:
#      x y z
#    x 4.090550 0.000000 -0.479260 
#    y 0.000000 3.657120 0.000000 
#    z -0.479260 0.000000 4.096410 
# 
# 
# High freq. dielectric constant tensor:
#      x y z
#    x 1.855960 0.000000 -0.031390 
#    y 0.000000 1.809970 0.000000 
#    z -0.031390 0.000000 1.847520 
# 
# From -- ./inp_files/37624.got.cif
#   From: 2010.06.25/outbox.cif.g09.slc.cpg/sg12_19_cif.got.tgz:37624.got - 2010.06.28 00:19:55.
