data_PCOD8113664
_publ_section_title
;
Structure prediction by ZEFSAII (Michael W. Deem and Ramdas Pophale) SiO2 
 PCOD8113664
Probable space group: C 2/M
;
_chemical_formula_sum "Si O2"
_cell_formula_units_Z 64
_cell_length_a 9.405355
_cell_length_b 28.917450
_cell_length_c 21.135056
_cell_angle_alpha 90.000000
_cell_angle_beta 39.709577
_cell_angle_gamma 90.000000
_cell_volume 3672.561178
_symmetry_space_group_name_H-M "C 2/M"
_symmetry_group_IT_number 12
_symmetry_cell_setting 'monoclinic'
loop_
_space_group_symop_operation_xyz
x,y,z
-x,y,-z
-x,-y,-z
x,-y,z
1/2+x,1/2+y,z
1/2-x,1/2+y,-z
1/2-x,1/2-y,-z
1/2+x,1/2-y,z
loop_
_atom_site_type_symbol
_atom_site_label
_atom_site_fract_x
_atom_site_fract_y
_atom_site_fract_z
Si Si1 0.257123 0.120674 0.908525
Si Si2 0.422903 0.871620 0.096785
Si Si3 0.985526 0.300019 0.763752
Si Si4 0.616512 0.052378 0.796114
Si Si5 0.740581 0.550166 0.388209
Si Si6 0.240357 0.353969 0.573678
Si Si7 0.219955 0.705940 0.465550
Si Si8 0.174124 0.209283 0.238431
O O1 0.349822 0.140648 0.943436
O O2 0.315147 0.158548 0.835876
O O3 0.378759 0.071851 0.851798
O O4 0.000000 0.110660 0.000000
O O5 0.306358 0.916514 0.170190
O O6 0.247826 0.829724 0.162588
O O7 0.500000 0.882825 0.000000
O O8 0.831730 0.256865 0.798200
O O9 0.135665 0.314312 0.653060
O O10 0.148686 0.287706 0.765616
O O11 0.784569 0.057635 0.679224
O O12 0.592720 0.000000 0.827709
O O13 0.500000 0.546320 0.500000
O O14 0.863532 0.500000 0.357806
O O15 0.864064 0.594749 0.376993
O O16 0.500000 0.356085 0.500000
O O17 0.195667 0.340152 0.516516
O O18 0.250000 0.750000 0.500000
O O19 0.428989 0.698178 0.348180
O O20 0.000000 0.713234 0.500000
#
# Coordination Sequence:
#
# PCOD8113664 Si02
#       8
#     8   8   8   8   8   8   8   8
#     4   9  20  37  54  79 110 135 183 229 278 326
#     4   9  21  39  55  78 110 146 185 233 278 323
#     4  11  21  35  53  81 105 150 183 224 278 324
#     4   9  18  35  60  85 112 138 181 233 281 330
#     4   9  17  30  55  89 112 140 179 221 277 334
#     4  11  19  33  57  77 117 144 177 231 274 327
#     4  12  23  35  52  82 113 147 184 226 273 332
#     4  11  22  36  54  77 112 146 188 227 271 329
#
# _framework density 17.426531000000001
#
# number of rings (size 3 to 8) (size 9 to 14) (size 15 to 20)
#    0.750    1.125    3.750    1.125    1.750    2.000 
#    0.000    2.500    0.000    0.375    0.000    0.000 
#    0.000    0.000    0.000    0.000    0.000    0.000 
#
# Total GULP energy -396502.936238 kJ/mol
# GULP energy per Si atom -12390.716757 kJ/mol
# Density = 1.738687 g / cm^3
# Si number density = 17.426531 Si / 1000 Ang^3
#
#
#
# Elastic Constant Matrix: (Units=GPa)
#
#
# Indices 1 2 3 4 5 6 
#
# 1 60.0910 25.9508 25.8572 0.0000 3.5234 0.0000
# 2 25.9508 136.7614 35.7963 0.0001 12.8976 0.0000
# 3 25.8572 35.7963 101.9116 0.0003 12.9494 0.0000
# 4 0.0000 0.0001 0.0003 9.3101 -0.0001 5.0596
# 5 3.5234 12.8976 12.9494 -0.0001 26.8556 0.0000
# 6 0.0000 0.0000 0.0000 5.0596 0.0000 25.0925
#
#
#
# Elastic Compliance Matrix: (Units=1/GPa)
#
#
# Indices 1 2 3 4 5 6 
#
# 1 0.019529 -0.002700 -0.004097 0.000000 0.000710 0.000000
# 2 -0.002700 0.008609 -0.001980 0.000000 -0.002826 0.000000
# 3 -0.004097 -0.001980 0.012099 0.000000 -0.004346 0.000000
# 4 0.000000 0.000000 0.000000 0.120628 0.000000 -0.024323
# 5 0.000710 -0.002826 -0.004346 0.000000 0.040596 0.000000
# 6 0.000000 0.000000 0.000000 -0.024323 0.000000 0.044757
#
#
# Mechanical properties :
#
#
# Convention : Reuss Voigt Hill
#
# Bulk Modulus (GPa) = 44.08424 52.66365 48.37394
# Shear Modulus (GPa) = 18.42756 26.32894 22.37825
#
# Velocity S-wave (km/s) = 3.25536 3.89119 3.58739
# Velocity P-wave (km/s) = 6.28347 7.10454 6.70658
#
# Compressibility (1/GPa) = 0.02268384
#
# Stress axis : x y z
#
# Youngs Moduli (GPa) = 51.20660 116.15664 82.64853
#
# Poissons Ratio (x) = 0.31366 0.33858
# Poissons Ratio (y) = 0.13828 0.16362
# Poissons Ratio (z) = 0.20977 0.22996
#
# Static dielectric constant tensor:
#      x y z
#    x 2.950160 0.000000 0.148630 
#    y 0.000000 3.701560 0.000000 
#    z 0.148630 0.000000 3.333570 
# 
# 
# High freq. dielectric constant tensor:
#      x y z
#    x 1.630130 0.000000 0.013790 
#    y 0.000000 1.684410 0.000000 
#    z 0.013790 0.000000 1.680780 
# 
# From -- ./inp_files/260331.got.cif
#   From: 2010.06.25/outbox.cif.g09.slc.cpg/sg12_131_cif.got.tgz:260331.got - 2010.06.28 00:19:55.
