data_PCOD8113138
_publ_section_title
;
Structure prediction by ZEFSAII (Michael W. Deem and Ramdas Pophale) SiO2 
 PCOD8113138
Probable space group: C 2/M
;
_chemical_formula_sum "Si O2"
_cell_formula_units_Z 56
_cell_length_a 22.639781
_cell_length_b 8.672913
_cell_length_c 16.463346
_cell_angle_alpha 90.000000
_cell_angle_beta 54.694231
_cell_angle_gamma 90.000000
_cell_volume 2638.078616
_symmetry_space_group_name_H-M "C 2/M"
_symmetry_group_IT_number 12
_symmetry_cell_setting 'monoclinic'
loop_
_space_group_symop_operation_xyz
x,y,z
-x,y,-z
-x,-y,-z
x,-y,z
1/2+x,1/2+y,z
1/2-x,1/2+y,-z
1/2-x,1/2-y,-z
1/2+x,1/2-y,z
loop_
_atom_site_type_symbol
_atom_site_label
_atom_site_fract_x
_atom_site_fract_y
_atom_site_fract_z
Si Si1 0.075157 0.174129 0.721005
Si Si2 0.609129 0.326547 0.250265
Si Si3 0.262407 0.674230 0.403853
Si Si4 0.647283 0.675086 0.392411
Si Si5 0.531568 0.182592 0.063469
Si Si6 0.035985 0.322138 0.592631
Si Si7 0.329334 0.177270 0.951050
O O1 0.155436 0.173711 0.692995
O O2 0.081149 0.284398 0.637811
O O3 0.018426 0.236414 0.830788
O O4 0.051802 0.000000 0.715198
O O5 0.612097 0.500000 0.212251
O O6 0.662565 0.308143 0.284103
O O7 0.531866 0.290992 0.350570
O O8 0.626099 0.205647 0.166528
O O9 0.231473 0.500000 0.430877
O O10 0.250000 0.750000 0.500000
O O11 0.222853 0.777367 0.369683
O O12 0.627626 0.500000 0.431954
O O13 0.583033 0.784958 0.475547
O O14 0.616537 0.230558 0.016839
O O15 0.524280 0.000000 0.079544
O O16 0.500000 0.233702 0.000000
O O17 0.012450 0.500000 0.608820
O O18 0.312793 0.000000 0.976756
O O19 0.250000 0.250000 0.000000
#
# Coordination Sequence:
#
# PCOD8113138 Si02
#       7
#     8   8   8   8   8   8   8
#     4  11  23  39  63  92 124 163 208 256 313 376
#     4  11  24  42  64  91 127 167 210 264 320 379
#     4  11  23  38  59  88 125 168 211 259 313 372
#     4  11  24  40  60  90 128 171 215 261 315 373
#     4  10  23  44  69  97 127 163 213 268 324 388
#     4  12  23  37  62  92 124 165 210 258 312 373
#     4  11  24  43  69  98 130 170 214 267 330 391
#
# _framework density 21.227571000000001
#
# number of rings (size 3 to 8) (size 9 to 14) (size 15 to 20)
#    0.000    1.000    2.857    3.857    0.000    7.714 
#    0.000    4.286    0.000    0.000    0.000    0.000 
#    0.000    0.000    0.000    0.000    0.000    0.000 
#
# Total GULP energy -347028.961351 kJ/mol
# GULP energy per Si atom -12393.891477 kJ/mol
# Density = 2.117926 g / cm^3
# Si number density = 21.227571 Si / 1000 Ang^3
#
#
#
# Elastic Constant Matrix: (Units=GPa)
#
#
# Indices 1 2 3 4 5 6 
#
# 1 146.6921 28.0050 39.1757 -0.0003 6.2409 0.0002
# 2 28.0050 71.1541 21.2798 -0.0019 7.0077 0.0020
# 3 39.1757 21.2798 64.0043 -0.0004 1.9839 0.0004
# 4 -0.0003 -0.0019 -0.0004 32.9087 0.0002 -4.3443
# 5 6.2409 7.0077 1.9839 0.0002 30.9423 -0.0001
# 6 0.0002 0.0020 0.0004 -4.3443 -0.0001 34.3099
#
#
#
# Elastic Compliance Matrix: (Units=1/GPa)
#
#
# Indices 1 2 3 4 5 6 
#
# 1 0.008418 -0.001870 -0.004500 0.000000 -0.000986 0.000000
# 2 -0.001870 0.016346 -0.004195 0.000001 -0.003056 -0.000001
# 3 -0.004500 -0.004195 0.019755 0.000000 0.000591 0.000000
# 4 0.000000 0.000001 0.000000 0.030904 0.000000 0.003913
# 5 -0.000986 -0.003056 0.000591 0.000000 0.033171 0.000000
# 6 0.000000 -0.000001 0.000000 0.003913 0.000000 0.029642
#
#
# Mechanical properties :
#
#
# Convention : Reuss Voigt Hill
#
# Bulk Modulus (GPa) = 42.75773 50.97462 46.86618
# Shear Modulus (GPa) = 29.91129 32.52485 31.21807
#
# Velocity S-wave (km/s) = 3.75784 3.91858 3.83905
# Velocity P-wave (km/s) = 6.24618 6.67377 6.46351
#
# Compressibility (1/GPa) = 0.02338758
#
# Stress axis : x y z
#
# Youngs Moduli (GPa) = 118.79666 61.17841 50.62078
#
# Poissons Ratio (x) = 0.11442 0.22779
# Poissons Ratio (y) = 0.22217 0.21236
# Poissons Ratio (z) = 0.53458 0.25665
#
# Static dielectric constant tensor:
#      x y z
#    x 4.286470 0.000000 0.111680 
#    y 0.000000 3.887550 0.000000 
#    z 0.111680 0.000000 3.600070 
# 
# 
# High freq. dielectric constant tensor:
#      x y z
#    x 1.853310 0.000000 0.003420 
#    y 0.000000 1.837950 0.000000 
#    z 0.003420 0.000000 1.813350 
# 
# From -- ./inp_files/238352.got.cif
#   From: 2010.06.25/outbox.cif.g09.slc.cpg/sg12_120_cif.got.tgz:238352.got - 2010.06.28 00:19:55.
