data_PCOD8113233
_publ_section_title
;
Structure prediction by ZEFSAII (Michael W. Deem and Ramdas Pophale) SiO2 
 PCOD8113233
Probable space group: C 2/M
;
_chemical_formula_sum "Si O2"
_cell_formula_units_Z 64
_cell_length_a 8.928357
_cell_length_b 14.832282
_cell_length_c 30.324195
_cell_angle_alpha 90.000000
_cell_angle_beta 48.719698
_cell_angle_gamma 90.000000
_cell_volume 3017.814788
_symmetry_space_group_name_H-M "C 2/M"
_symmetry_group_IT_number 12
_symmetry_cell_setting 'monoclinic'
loop_
_space_group_symop_operation_xyz
x,y,z
-x,y,-z
-x,-y,-z
x,-y,z
1/2+x,1/2+y,z
1/2-x,1/2+y,-z
1/2-x,1/2-y,-z
1/2+x,1/2-y,z
loop_
_atom_site_type_symbol
_atom_site_label
_atom_site_fract_x
_atom_site_fract_y
_atom_site_fract_z
Si Si1 0.554638 0.902007 0.400086
Si Si2 0.916931 0.255628 0.777042
Si Si3 0.449699 0.395845 0.373867
Si Si4 0.986309 0.284443 0.857572
Si Si5 0.613556 0.898543 0.044455
Si Si6 0.345997 0.346258 0.489545
Si Si7 0.353345 0.220378 0.694996
Si Si8 0.811965 0.897242 0.917005
O O1 0.726558 0.870387 0.400579
O O2 0.341717 0.911138 0.465211
O O3 0.526462 0.833670 0.365064
O O4 0.612883 0.000000 0.370029
O O5 0.720967 0.191570 0.815819
O O6 0.918073 0.312804 0.731322
O O7 0.914011 0.314571 0.822750
O O8 0.119097 0.197176 0.736772
O O9 0.505847 0.500000 0.352111
O O10 0.462250 0.380846 0.423899
O O11 0.603469 0.327820 0.319655
O O12 0.853284 0.334671 0.919759
O O13 0.965747 0.175598 0.867572
O O14 0.397503 0.882392 0.066108
O O15 0.634719 0.000000 0.057583
O O16 0.781768 0.878649 0.975152
O O17 0.500000 0.345825 0.500000
O O18 0.250000 0.250000 0.500000
O O19 0.888963 0.000000 0.894511
#
# Coordination Sequence:
#
# PCOD8113233 Si02
#       8
#     8   8   8   8   8   8   8   8
#     4  11  24  43  68  94 124 161 203 248 306 372
#     4  10  24  38  63  83 122 156 212 252 302 350
#     4  11  24  43  68  94 124 161 203 248 306 372
#     4  11  19  40  59  91 116 163 195 256 302 352
#     4   9  18  34  59  90 122 158 198 239 295 370
#     4  12  25  40  65 100 130 164 193 245 310 373
#     4  11  22  45  61  89 117 164 201 262 300 352
#     4   9  18  34  59  90 122 158 198 239 295 370
#
# _framework density 21.207398999999999
#
# number of rings (size 3 to 8) (size 9 to 14) (size 15 to 20)
#    0.000    1.500    3.750    2.625    1.750    2.000 
#    0.000    8.125    0.000    1.500    0.000    0.000 
#    0.000    0.000    0.000    0.000    0.000    0.000 
#
# Total GULP energy -396623.419271 kJ/mol
# GULP energy per Si atom -12394.481852 kJ/mol
# Density = 2.115913 g / cm^3
# Si number density = 21.207399 Si / 1000 Ang^3
#
#
#
# Elastic Constant Matrix: (Units=GPa)
#
#
# Indices 1 2 3 4 5 6 
#
# 1 121.1212 25.5083 39.5347 -0.0006 19.9588 0.0004
# 2 25.5083 101.8663 37.2651 -0.0001 9.4910 0.0000
# 3 39.5347 37.2651 96.9681 -0.0008 22.1120 -0.0003
# 4 -0.0006 -0.0001 -0.0008 12.1653 0.0002 0.4592
# 5 19.9588 9.4910 22.1120 0.0002 43.5035 -0.0002
# 6 0.0004 0.0000 -0.0003 0.4592 -0.0002 19.3909
#
#
#
# Elastic Compliance Matrix: (Units=1/GPa)
#
#
# Indices 1 2 3 4 5 6 
#
# 1 0.009927 -0.001138 -0.002973 0.000000 -0.002795 0.000000
# 2 -0.001138 0.011556 -0.003983 0.000000 0.000025 0.000000
# 3 -0.002973 -0.003983 0.014191 0.000001 -0.004980 0.000000
# 4 0.000000 0.000000 0.000001 0.082275 -0.000001 -0.001948
# 5 -0.002795 0.000025 -0.004980 -0.000001 0.026795 0.000000
# 6 0.000000 0.000000 0.000000 -0.001948 0.000000 0.051617
#
#
# Mechanical properties :
#
#
# Convention : Reuss Voigt Hill
#
# Bulk Modulus (GPa) = 51.31573 58.28578 54.80076
# Shear Modulus (GPa) = 22.82656 29.52176 26.17416
#
# Velocity S-wave (km/s) = 3.28434 3.73507 3.51693
# Velocity P-wave (km/s) = 6.21547 6.79296 6.51062
#
# Compressibility (1/GPa) = 0.01948720
#
# Stress axis : x y z
#
# Youngs Moduli (GPa) = 100.73870 86.53170 70.46740
#
# Poissons Ratio (x) = 0.09846 0.20947
# Poissons Ratio (y) = 0.11463 0.28067
# Poissons Ratio (z) = 0.29945 0.34466
#
# Static dielectric constant tensor:
#      x y z
#    x 3.895470 0.000000 0.173050 
#    y 0.000000 3.696770 0.000010 
#    z 0.173050 0.000010 4.008250 
# 
# 
# High freq. dielectric constant tensor:
#      x y z
#    x 1.834220 0.000000 0.012870 
#    y 0.000000 1.800750 0.000000 
#    z 0.012870 0.000000 1.837450 
# 
# From -- ./inp_files/372539.got.cif
#   From: 2010.06.25/outbox.cif.g09.slc.cpg/sg12_187_cif.got.tgz:372539.got - 2010.06.28 00:19:55.
