data_PCOD8113661
_publ_section_title
;
Structure prediction by ZEFSAII (Michael W. Deem and Ramdas Pophale) SiO2 
 PCOD8113661
Probable space group: C 2/M
;
_chemical_formula_sum "Si O2"
_cell_formula_units_Z 56
_cell_length_a 12.320129
_cell_length_b 24.280692
_cell_length_c 11.471489
_cell_angle_alpha 90.000000
_cell_angle_beta 128.058254
_cell_angle_gamma 90.000000
_cell_volume 2701.984840
_symmetry_space_group_name_H-M "C 2/M"
_symmetry_group_IT_number 12
_symmetry_cell_setting 'monoclinic'
loop_
_space_group_symop_operation_xyz
x,y,z
-x,y,-z
-x,-y,-z
x,-y,z
1/2+x,1/2+y,z
1/2-x,1/2+y,-z
1/2-x,1/2-y,-z
1/2+x,1/2-y,z
loop_
_atom_site_type_symbol
_atom_site_label
_atom_site_fract_x
_atom_site_fract_y
_atom_site_fract_z
Si Si1 0.804426 0.715255 0.857209
Si Si2 0.085788 0.061553 0.674924
Si Si3 0.412411 0.842034 0.156623
Si Si4 0.632140 0.362323 0.374559
Si Si5 0.503828 0.255805 0.641200
Si Si6 0.679545 0.883121 0.293270
Si Si7 0.150843 0.841703 0.131249
O O1 0.644091 0.717402 0.783255
O O2 0.819613 0.679975 0.750255
O O3 0.859773 0.776011 0.868260
O O4 0.888476 0.690106 0.020436
O O5 0.244705 0.079110 0.753856
O O6 0.000000 0.064402 0.500000
O O7 0.013324 0.104297 0.715066
O O8 0.086127 0.000000 0.727967
O O9 0.502736 0.804439 0.305823
O O10 0.514492 0.894821 0.200450
O O11 0.267459 0.861318 0.116518
O O12 0.614539 0.298098 0.397683
O O13 0.742574 0.390348 0.532803
O O14 0.691970 0.365944 0.284275
O O15 0.500000 0.248984 0.500000
O O16 0.000000 0.865307 0.000000
#
# Coordination Sequence:
#
# PCOD8113661 Si02
#       7
#     8   8   8   8   8   8   8
#     4  11  20  37  52  80 118 156 195 227 271 331
#     4   9  19  38  63  89 109 138 188 245 294 333
#     4  11  25  34  52  81 121 161 188 221 276 343
#     4  11  20  35  57  84 113 144 194 234 281 331
#     4  11  19  33  54  80 115 152 195 233 267 322
#     4  11  21  34  59  83 111 143 184 245 284 329
#     4  11  23  36  53  79 116 163 194 221 267 343
#
# _framework density 20.725504999999998
#
# number of rings (size 3 to 8) (size 9 to 14) (size 15 to 20)
#    0.000    1.286    2.857    6.000    4.000    1.143 
#    0.000    0.000    0.000    3.000    0.000    4.000 
#    0.000    0.000    0.000    0.000    0.000    0.000 
#
# Total GULP energy -347039.059793 kJ/mol
# GULP energy per Si atom -12394.252135 kJ/mol
# Density = 2.067833 g / cm^3
# Si number density = 20.725505 Si / 1000 Ang^3
#
#
#
# Elastic Constant Matrix: (Units=GPa)
#
#
# Indices 1 2 3 4 5 6 
#
# 1 127.3270 37.3616 25.4985 0.0000 2.4165 0.0000
# 2 37.3616 38.0336 15.1990 0.0000 4.6241 0.0000
# 3 25.4985 15.1990 74.9376 0.0000 -8.7880 0.0000
# 4 0.0000 0.0000 0.0000 11.8693 0.0000 1.6069
# 5 2.4165 4.6241 -8.7880 0.0000 35.6551 0.0000
# 6 0.0000 0.0000 0.0000 1.6069 0.0000 17.1020
#
#
#
# Elastic Compliance Matrix: (Units=1/GPa)
#
#
# Indices 1 2 3 4 5 6 
#
# 1 0.011236 -0.010379 -0.001699 0.000000 0.000166 0.000000
# 2 -0.010379 0.039203 -0.005080 0.000000 -0.005633 0.000000
# 3 -0.001699 -0.005080 0.015491 0.000000 0.004592 0.000000
# 4 0.000000 0.000000 0.000000 0.085337 0.000000 -0.008018
# 5 0.000166 -0.005633 0.004592 0.000000 0.029898 0.000000
# 6 0.000000 0.000000 0.000000 -0.008018 0.000000 0.059226
#
#
# Mechanical properties :
#
#
# Convention : Reuss Voigt Hill
#
# Bulk Modulus (GPa) = 31.63075 44.04626 37.83850
# Shear Modulus (GPa) = 17.52872 23.74121 20.63497
#
# Velocity S-wave (km/s) = 2.91134 3.38821 3.15879
# Velocity P-wave (km/s) = 5.15714 6.05020 5.62143
#
# Compressibility (1/GPa) = 0.03161480
#
# Stress axis : x y z
#
# Youngs Moduli (GPa) = 88.99648 25.50801 64.55200
#
# Poissons Ratio (x) = 0.26475 0.10966
# Poissons Ratio (y) = 0.92371 0.32794
# Poissons Ratio (z) = 0.15118 0.12959
#
# Static dielectric constant tensor:
#      x y z
#    x 4.127380 0.000000 0.122840 
#    y 0.000000 3.380600 0.000000 
#    z 0.122840 0.000000 3.775950 
# 
# 
# High freq. dielectric constant tensor:
#      x y z
#    x 1.825630 0.000000 0.005750 
#    y 0.000000 1.738330 0.000000 
#    z 0.005750 0.000000 1.812450 
# 
# From -- ./inp_files/135468.got.cif
#   From: 2010.06.25/outbox.cif.g09.slc.cpg/sg12_68_cif.got.tgz:135468.got - 2010.06.28 00:19:55.
