data_PCOD8113826
_publ_section_title
;
Structure prediction by ZEFSAII (Michael W. Deem and Ramdas Pophale) SiO2 
 PCOD8113826
Probable space group: C 2/M
;
_chemical_formula_sum "Si O2"
_cell_formula_units_Z 40
_cell_length_a 18.938080
_cell_length_b 19.395604
_cell_length_c 13.388031
_cell_angle_alpha 90.000000
_cell_angle_beta 152.591923
_cell_angle_gamma 90.000000
_cell_volume 2263.708314
_symmetry_space_group_name_H-M "C 2/M"
_symmetry_group_IT_number 12
_symmetry_cell_setting 'monoclinic'
loop_
_space_group_symop_operation_xyz
x,y,z
-x,y,-z
-x,-y,-z
x,-y,z
1/2+x,1/2+y,z
1/2-x,1/2+y,-z
1/2-x,1/2-y,-z
1/2+x,1/2-y,z
loop_
_atom_site_type_symbol
_atom_site_label
_atom_site_fract_x
_atom_site_fract_y
_atom_site_fract_z
Si Si1 0.813639 0.684827 0.021023
Si Si2 0.621260 0.280031 0.067796
Si Si3 0.546766 0.420111 0.671631
Si Si4 0.113826 0.161238 0.369394
Si Si5 0.850794 0.685819 0.511313
O O1 0.833082 0.708950 0.930519
O O2 0.701577 0.620710 0.889599
O O3 0.750000 0.750000 0.000000
O O4 0.974745 0.659419 0.271531
O O5 0.768404 0.319598 0.299628
O O6 0.500000 0.257959 0.000000
O O7 0.542470 0.332641 0.891277
O O8 0.500000 0.404281 0.500000
O O9 0.579283 0.500000 0.730334
O O10 0.411327 0.396033 0.576717
O O11 0.153116 0.233348 0.469688
O O12 0.255688 0.141896 0.474654
#
# Coordination Sequence:
#
# PCOD8113826 Si02
#       5
#     8   8   8   8   8
#     4  11  20  32  53  86 110 143 181 234 273 313
#     4   9  17  30  54  83 110 136 175 233 284 319
#     4  11  23  38  54  76 115 154 181 217 277 339
#     4   9  17  34  51  79 105 141 181 223 271 323
#     4   9  17  30  56  80 107 131 178 236 275 310
#
# _framework density 17.670121000000002
#
# number of rings (size 3 to 8) (size 9 to 14) (size 15 to 20)
#    0.000    2.200    4.000    2.400    0.000    0.000 
#    0.000    1.000    0.000   10.800    0.000    0.000 
#    0.000    0.000    0.000    0.000    0.000    0.000 
#
# Total GULP energy -247915.153838 kJ/mol
# GULP energy per Si atom -12395.757692 kJ/mol
# Density = 1.762990 g / cm^3
# Si number density = 17.670121 Si / 1000 Ang^3
#
#
#
# Elastic Constant Matrix: (Units=GPa)
#
#
# Indices 1 2 3 4 5 6 
#
# 1 98.2360 41.4366 46.5933 0.0000 -1.2493 0.0000
# 2 41.4366 73.5554 37.1250 0.0000 2.7632 0.0000
# 3 46.5933 37.1250 118.7410 0.0000 9.9592 0.0000
# 4 0.0000 0.0000 0.0000 20.4461 0.0000 -0.6689
# 5 -1.2493 2.7632 9.9592 0.0000 31.4068 0.0000
# 6 0.0000 0.0000 0.0000 -0.6689 0.0000 21.1365
#
#
#
# Elastic Compliance Matrix: (Units=1/GPa)
#
#
# Indices 1 2 3 4 5 6 
#
# 1 0.014819 -0.006414 -0.004013 0.000000 0.002426 0.000000
# 2 -0.006414 0.018920 -0.003326 0.000000 -0.000865 0.000000
# 3 -0.004013 -0.003326 0.011326 0.000000 -0.003459 0.000000
# 4 0.000000 0.000000 0.000000 0.048960 0.000000 0.001549
# 5 0.002426 -0.000865 -0.003459 0.000000 0.033110 0.000000
# 6 0.000000 0.000000 0.000000 0.001549 0.000000 0.047361
#
#
# Mechanical properties :
#
#
# Convention : Reuss Voigt Hill
#
# Bulk Modulus (GPa) = 56.95028 60.09360 58.52194
# Shear Modulus (GPa) = 24.05529 25.62303 24.83916
#
# Velocity S-wave (km/s) = 3.69366 3.81212 3.75335
# Velocity P-wave (km/s) = 7.10566 7.31155 7.20934
#
# Compressibility (1/GPa) = 0.01755918
#
# Stress axis : x y z
#
# Youngs Moduli (GPa) = 67.47953 52.85527 88.28916
#
# Poissons Ratio (x) = 0.33901 0.35432
# Poissons Ratio (y) = 0.43281 0.29365
# Poissons Ratio (z) = 0.27081 0.17580
#
# Static dielectric constant tensor:
#      x y z
#    x 3.757240 0.000000 -0.089390 
#    y 0.000000 2.806730 0.000000 
#    z -0.089390 0.000000 3.692730 
# 
# 
# High freq. dielectric constant tensor:
#      x y z
#    x 1.700740 0.000000 -0.001510 
#    y 0.000000 1.616550 0.000000 
#    z -0.001510 0.000000 1.696580 
# 
# From -- ./inp_files/106317.got.cif
#   From: 2010.06.25/outbox.cif.g09.slc.cpg/sg12_54_cif.got.tgz:106317.got - 2010.06.28 00:19:55.
