data_PCOD8113596
_publ_section_title
;
Structure prediction by ZEFSAII (Michael W. Deem and Ramdas Pophale) SiO2 
 PCOD8113596
Probable space group: C 2/M
;
_chemical_formula_sum "Si O2"
_cell_formula_units_Z 64
_cell_length_a 12.046858
_cell_length_b 19.871653
_cell_length_c 16.961820
_cell_angle_alpha 90.000000
_cell_angle_beta 112.056752
_cell_angle_gamma 90.000000
_cell_volume 3763.327792
_symmetry_space_group_name_H-M "C 2/M"
_symmetry_group_IT_number 12
_symmetry_cell_setting 'monoclinic'
loop_
_space_group_symop_operation_xyz
x,y,z
-x,y,-z
-x,-y,-z
x,-y,z
1/2+x,1/2+y,z
1/2-x,1/2+y,-z
1/2-x,1/2-y,-z
1/2+x,1/2-y,z
loop_
_atom_site_type_symbol
_atom_site_label
_atom_site_fract_x
_atom_site_fract_y
_atom_site_fract_z
Si Si1 0.602257 0.421760 0.358912
Si Si2 0.758830 0.790349 0.183789
Si Si3 0.412595 0.669331 0.367918
Si Si4 0.005571 0.318148 0.912943
Si Si5 0.398439 0.668806 0.075637
Si Si6 0.228427 0.354531 0.887435
Si Si7 0.611508 0.423557 0.179386
Si Si8 0.661727 0.687959 0.483156
O O1 0.623265 0.500000 0.383172
O O2 0.464767 0.401226 0.346090
O O3 0.626908 0.404074 0.274585
O O4 0.694779 0.375527 0.434750
O O5 0.828336 0.792026 0.284606
O O6 0.624803 0.818009 0.161454
O O7 0.828027 0.836342 0.139234
O O8 0.750993 0.714872 0.152221
O O9 0.529714 0.714652 0.420915
O O10 0.337993 0.657991 0.428142
O O11 0.065609 0.244805 0.935014
O O12 0.091289 0.363530 0.880112
O O13 0.000000 0.347924 0.000000
O O14 0.515739 0.623525 0.110867
O O15 0.313168 0.640536 0.985722
O O16 0.263257 0.412684 0.834092
O O17 0.568441 0.500000 0.160398
O O18 0.750000 0.750000 0.500000
#
# Coordination Sequence:
#
# PCOD8113596 Si02
#       8
#     8   8   8   8   8   8   8   8
#     4   9  19  37  58  83 113 146 183 229 286 338
#     4  11  19  31  54  80 116 142 186 232 287 338
#     4   9  20  33  54  85 112 146 178 229 278 336
#     4  11  18  32  51  78 109 148 186 234 290 336
#     4  11  18  33  50  78 110 142 190 238 283 336
#     4  11  22  30  51  77 109 152 183 234 284 333
#     4  11  22  36  54  79 111 148 193 240 278 332
#     4   9  19  34  56  86 118 138 174 227 286 343
#
# _framework density 17.006224
#
# number of rings (size 3 to 8) (size 9 to 14) (size 15 to 20)
#    0.750    1.000    5.000    1.125    1.750    4.000 
#    0.000    0.000    0.000    1.875    0.000    4.375 
#    0.000    0.000    0.000    0.000    0.000    0.000 
#
# Total GULP energy -396584.637193 kJ/mol
# GULP energy per Si atom -12393.269912 kJ/mol
# Density = 1.696752 g / cm^3
# Si number density = 17.006224 Si / 1000 Ang^3
#
#
#
# Elastic Constant Matrix: (Units=GPa)
#
#
# Indices 1 2 3 4 5 6 
#
# 1 104.4721 19.0518 42.4569 0.0000 -9.3029 0.0000
# 2 19.0518 49.2722 26.7212 0.0000 -3.6097 0.0000
# 3 42.4569 26.7212 119.3106 0.0000 -9.8829 0.0000
# 4 0.0000 0.0000 0.0000 20.5266 0.0000 -3.3874
# 5 -9.3029 -3.6097 -9.8829 0.0000 26.5417 0.0000
# 6 0.0000 0.0000 0.0000 -3.3874 0.0000 17.8871
#
#
#
# Elastic Compliance Matrix: (Units=1/GPa)
#
#
# Indices 1 2 3 4 5 6 
#
# 1 0.011616 -0.002481 -0.003373 0.000000 0.002478 0.000000
# 2 -0.002481 0.023672 -0.004359 0.000000 0.000727 0.000000
# 3 -0.003373 -0.004359 0.010742 0.000000 0.002225 0.000000
# 4 0.000000 0.000000 0.000000 0.050289 0.000000 0.009524
# 5 0.002478 0.000727 0.002225 0.000000 0.039473 0.000000
# 6 0.000000 0.000000 0.000000 0.009524 0.000000 0.057710
#
#
# Mechanical properties :
#
#
# Convention : Reuss Voigt Hill
#
# Bulk Modulus (GPa) = 39.05413 49.94608 44.50010
# Shear Modulus (GPa) = 22.47598 25.31272 23.89435
#
# Velocity S-wave (km/s) = 3.63937 3.86221 3.75245
# Velocity P-wave (km/s) = 6.37766 7.02296 6.70807
#
# Compressibility (1/GPa) = 0.02560549
#
# Stress axis : x y z
#
# Youngs Moduli (GPa) = 86.09112 42.24460 93.09183
#
# Poissons Ratio (x) = 0.10480 0.31396
# Poissons Ratio (y) = 0.21357 0.40575
# Poissons Ratio (z) = 0.29035 0.18413
#
# Static dielectric constant tensor:
#      x y z
#    x 3.433480 0.000000 -0.206210 
#    y 0.000000 2.830280 0.000000 
#    z -0.206210 0.000000 3.216650 
# 
# 
# High freq. dielectric constant tensor:
#      x y z
#    x 1.659170 0.000000 -0.019080 
#    y 0.000000 1.613870 0.000000 
#    z -0.019080 0.000000 1.659400 
# 
# From -- ./inp_files/264830.got.cif
#   From: 2010.06.25/outbox.cif.g09.slc.cpg/sg12_133_cif.got.tgz:264830.got - 2010.06.28 00:19:55.
