data_PCOD8113662
_publ_section_title
;
Structure prediction by ZEFSAII (Michael W. Deem and Ramdas Pophale) SiO2 
 PCOD8113662
Probable space group: C 2/M
;
_chemical_formula_sum "Si O2"
_cell_formula_units_Z 56
_cell_length_a 15.081705
_cell_length_b 27.678570
_cell_length_c 10.912498
_cell_angle_alpha 90.000000
_cell_angle_beta 137.961765
_cell_angle_gamma 90.000000
_cell_volume 3050.358055
_symmetry_space_group_name_H-M "C 2/M"
_symmetry_group_IT_number 12
_symmetry_cell_setting 'monoclinic'
loop_
_space_group_symop_operation_xyz
x,y,z
-x,y,-z
-x,-y,-z
x,-y,z
1/2+x,1/2+y,z
1/2-x,1/2+y,-z
1/2-x,1/2-y,-z
1/2+x,1/2-y,z
loop_
_atom_site_type_symbol
_atom_site_label
_atom_site_fract_x
_atom_site_fract_y
_atom_site_fract_z
Si Si1 0.182455 0.446341 0.588194
Si Si2 0.282956 0.853800 0.044300
Si Si3 0.250383 0.844323 0.296045
Si Si4 0.023044 0.294976 0.332328
Si Si5 0.100159 0.552127 0.784399
Si Si6 0.868244 0.747211 0.790819
Si Si7 0.624406 0.293178 0.696380
O O1 0.249169 0.500000 0.631651
O O2 0.275668 0.398135 0.670989
O O3 0.132700 0.444931 0.675158
O O4 0.058401 0.439474 0.368517
O O5 0.238950 0.845143 0.138153
O O6 0.423433 0.829657 0.158583
O O7 0.310274 0.910408 0.047621
O O8 0.172198 0.833341 0.840796
O O9 0.396792 0.824751 0.482425
O O10 0.142417 0.805601 0.231209
O O11 0.126290 0.273391 0.340841
O O12 0.929653 0.254016 0.292390
O O13 0.137137 0.500000 0.877056
O O14 0.739468 0.723966 0.722450
O O15 0.000000 0.733340 0.000000
O O16 0.500000 0.317704 0.500000
#
# Coordination Sequence:
#
# PCOD8113662 Si02
#       7
#     8   8   8   8   8   8   8
#     4   8  14  25  46  76 108 137 169 213 269 330
#     4  11  19  33  55  77 111 145 177 223 276 322
#     4  11  20  33  53  80 113 145 175 217 281 326
#     4  12  21  36  54  81 113 149 178 223 269 328
#     4   8  14  25  46  78 107 133 172 218 270 325
#     4  12  24  37  53  78 114 152 189 223 260 321
#     4  12  24  39  54  75 110 151 189 226 267 315
#
# _framework density 18.358499999999999
#
# number of rings (size 3 to 8) (size 9 to 14) (size 15 to 20)
#    0.000    1.429    5.714    3.000    0.000    0.000 
#    0.000    0.000    0.000    0.857    0.000    4.000 
#    0.000    0.000    0.000    0.000    0.000    0.000 
#
# Total GULP energy -346908.482090 kJ/mol
# GULP energy per Si atom -12389.588646 kJ/mol
# Density = 1.831672 g / cm^3
# Si number density = 18.358500 Si / 1000 Ang^3
#
#
#
# Elastic Constant Matrix: (Units=GPa)
#
#
# Indices 1 2 3 4 5 6 
#
# 1 64.9242 24.9375 18.9237 0.0000 2.4660 0.0000
# 2 24.9375 140.1872 54.2232 0.0000 -10.5013 0.0000
# 3 18.9237 54.2232 104.8269 0.0000 2.7269 0.0000
# 4 0.0000 0.0000 0.0000 29.6363 0.0000 3.5402
# 5 2.4660 -10.5013 2.7269 0.0000 18.3538 0.0000
# 6 0.0000 0.0000 0.0000 3.5402 0.0000 15.7411
#
#
#
# Elastic Compliance Matrix: (Units=1/GPa)
#
#
# Indices 1 2 3 4 5 6 
#
# 1 0.017034 -0.002682 -0.001594 0.000000 -0.003586 0.000000
# 2 -0.002682 0.010003 -0.004867 0.000000 0.006807 0.000000
# 3 -0.001594 -0.004867 0.012460 0.000000 -0.004422 0.000000
# 4 0.000000 0.000000 0.000000 0.034674 0.000000 -0.007798
# 5 -0.003586 0.006807 -0.004422 0.000000 0.059518 0.000000
# 6 0.000000 0.000000 0.000000 -0.007798 0.000000 0.065282
#
#
# Mechanical properties :
#
#
# Convention : Reuss Voigt Hill
#
# Bulk Modulus (GPa) = 47.14841 56.23410 51.69125
# Shear Modulus (GPa) = 22.28894 26.86984 24.57939
#
# Velocity S-wave (km/s) = 3.48816 3.82988 3.66301
# Velocity P-wave (km/s) = 6.47772 7.08907 6.79028
#
# Compressibility (1/GPa) = 0.02120962
#
# Stress axis : x y z
#
# Youngs Moduli (GPa) = 58.70718 99.97191 80.25750
#
# Poissons Ratio (x) = 0.26813 0.12796
# Poissons Ratio (y) = 0.15745 0.39061
# Poissons Ratio (z) = 0.09360 0.48656
#
# Static dielectric constant tensor:
#      x y z
#    x 3.049200 0.000000 0.033360 
#    y 0.000000 3.904660 0.000000 
#    z 0.033360 0.000000 3.389330 
# 
# 
# High freq. dielectric constant tensor:
#      x y z
#    x 1.665770 0.000000 0.002800 
#    y 0.000000 1.715230 0.000000 
#    z 0.002800 0.000000 1.701260 
# 
# From -- ./inp_files/149496.got.cif
#   From: 2010.06.25/outbox.cif.g09.slc.cpg/sg12_75_cif.got.tgz:149496.got - 2010.06.28 00:19:55.
