data_PCOD8113340
_publ_section_title
;
Structure prediction by ZEFSAII (Michael W. Deem and Ramdas Pophale) SiO2 
 PCOD8113340
Probable space group: C 2/M
;
_chemical_formula_sum "Si O2"
_cell_formula_units_Z 48
_cell_length_a 15.118524
_cell_length_b 19.109220
_cell_length_c 12.758480
_cell_angle_alpha 90.000000
_cell_angle_beta 38.142500
_cell_angle_gamma 90.000000
_cell_volume 2276.524029
_symmetry_space_group_name_H-M "C 2/M"
_symmetry_group_IT_number 12
_symmetry_cell_setting 'monoclinic'
loop_
_space_group_symop_operation_xyz
x,y,z
-x,y,-z
-x,-y,-z
x,-y,z
1/2+x,1/2+y,z
1/2-x,1/2+y,-z
1/2-x,1/2-y,-z
1/2+x,1/2-y,z
loop_
_atom_site_type_symbol
_atom_site_label
_atom_site_fract_x
_atom_site_fract_y
_atom_site_fract_z
Si Si1 0.122322 0.580360 0.308215
Si Si2 0.547633 0.310756 0.688435
Si Si3 0.275161 0.692189 0.818813
Si Si4 0.881080 0.827410 0.029916
Si Si5 0.326195 0.824310 0.318678
Si Si6 0.579554 0.919171 0.104213
O O1 0.148975 0.500000 0.311796
O O2 0.273551 0.618677 0.185924
O O3 0.075163 0.591445 0.233003
O O4 0.000000 0.611244 0.500000
O O5 0.444935 0.302524 0.682792
O O6 0.581332 0.236621 0.713123
O O7 0.695714 0.347046 0.516391
O O8 0.463309 0.359480 0.851645
O O9 0.202010 0.760193 0.938475
O O10 0.245518 0.699108 0.722956
O O11 0.211332 0.621712 0.929032
O O12 0.000000 0.801769 0.000000
O O13 0.428645 0.890288 0.201368
O O14 0.594960 0.000000 0.058323
#
# Coordination Sequence:
#
# PCOD8113340 Si02
#       6
#     8   8   8   8   8   8
#     4  10  24  43  65  95 128 168 214 257 317 385
#     4  11  23  40  62  93 130 160 204 270 315 368
#     4  12  22  42  64  94 126 166 215 262 317 374
#     4  12  22  39  65  95 126 164 208 265 318 376
#     4  11  24  40  62  96 127 164 216 259 317 383
#     4  11  23  42  66  89 127 171 210 263 315 374
#
# _framework density 21.084776999999999
#
# number of rings (size 3 to 8) (size 9 to 14) (size 15 to 20)
#    0.000    0.833    5.000    2.500    2.333    3.000 
#    0.000    1.667    0.000    2.000    0.000    0.000 
#    0.000    0.000    0.000    0.000    0.000    0.000 
#
# Total GULP energy -297588.568169 kJ/mol
# GULP energy per Si atom -12399.523674 kJ/mol
# Density = 2.103679 g / cm^3
# Si number density = 21.084777 Si / 1000 Ang^3
#
#
#
# Elastic Constant Matrix: (Units=GPa)
#
#
# Indices 1 2 3 4 5 6 
#
# 1 114.3431 32.4006 22.3907 -0.0051 -16.5585 0.0033
# 2 32.4006 87.0647 45.1660 -0.0018 -10.3511 0.0013
# 3 22.3907 45.1660 136.2920 -0.0074 -19.2679 0.0052
# 4 -0.0051 -0.0018 -0.0074 27.3162 0.0038 -0.5128
# 5 -16.5585 -10.3511 -19.2679 0.0038 35.3824 -0.0027
# 6 0.0033 0.0013 0.0052 -0.5128 -0.0027 23.0082
#
#
#
# Elastic Compliance Matrix: (Units=1/GPa)
#
#
# Indices 1 2 3 4 5 6 
#
# 1 0.010250 -0.003343 -0.000039 0.000001 0.003798 -0.000001
# 2 -0.003343 0.015054 -0.004375 -0.000001 0.000457 0.000001
# 3 -0.000039 -0.004375 0.009328 0.000002 0.003781 -0.000001
# 4 0.000001 -0.000001 0.000002 0.036624 -0.000003 0.000816
# 5 0.003798 0.000457 0.003781 -0.000003 0.032233 0.000002
# 6 -0.000001 0.000001 -0.000001 0.000816 0.000002 0.043481
#
#
# Mechanical properties :
#
#
# Convention : Reuss Voigt Hill
#
# Bulk Modulus (GPa) = 52.30609 59.73497 56.02053
# Shear Modulus (GPa) = 29.61102 32.99086 31.30094
#
# Velocity S-wave (km/s) = 3.75157 3.95989 3.85714
# Velocity P-wave (km/s) = 6.60508 7.02140 6.81642
#
# Compressibility (1/GPa) = 0.01911823
#
# Stress axis : x y z
#
# Youngs Moduli (GPa) = 97.55637 66.42953 107.20391
#
# Poissons Ratio (x) = 0.22206 0.00422
# Poissons Ratio (y) = 0.32611 0.46900
# Poissons Ratio (z) = 0.00384 0.29062
#
# Static dielectric constant tensor:
#      x y z
#    x 3.899860 0.000000 -0.043230 
#    y 0.000000 3.481470 0.000010 
#    z -0.043230 0.000010 4.066550 
# 
# 
# High freq. dielectric constant tensor:
#      x y z
#    x 1.840130 0.000000 -0.001190 
#    y 0.000000 1.786500 0.000000 
#    z -0.001190 0.000000 1.843380 
# 
# From -- ./inp_files/147940.got.cif
#   From: 2010.06.25/outbox.cif.g09.slc.cpg/sg12_74_cif.got.tgz:147940.got - 2010.06.28 00:19:55.
