data_PCOD8113446
_publ_section_title
;
Structure prediction by ZEFSAII (Michael W. Deem and Ramdas Pophale) SiO2 
 PCOD8113446
Probable space group: C 2/M
;
_chemical_formula_sum "Si O2"
_cell_formula_units_Z 56
_cell_length_a 28.637532
_cell_length_b 21.214246
_cell_length_c 8.730950
_cell_angle_alpha 90.000000
_cell_angle_beta 30.452269
_cell_angle_gamma 90.000000
_cell_volume 2688.306442
_symmetry_space_group_name_H-M "C 2/M"
_symmetry_group_IT_number 12
_symmetry_cell_setting 'monoclinic'
loop_
_space_group_symop_operation_xyz
x,y,z
-x,y,-z
-x,-y,-z
x,-y,z
1/2+x,1/2+y,z
1/2-x,1/2+y,-z
1/2-x,1/2-y,-z
1/2+x,1/2-y,z
loop_
_atom_site_type_symbol
_atom_site_label
_atom_site_fract_x
_atom_site_fract_y
_atom_site_fract_z
Si Si1 0.164813 0.285439 0.813103
Si Si2 0.749190 0.181612 0.079417
Si Si3 0.891547 0.366490 0.303536
Si Si4 0.899199 0.500000 0.217415
Si Si5 0.264686 0.888289 0.175712
Si Si6 0.086546 0.166985 0.148271
Si Si7 0.915060 0.926450 0.131833
Si Si8 0.898405 0.500000 0.855322
O O1 0.250000 0.250000 0.500000
O O2 0.129902 0.337692 0.798611
O O3 0.197679 0.321051 0.872315
O O4 0.082465 0.235584 0.078850
O O5 0.648409 0.172675 0.440843
O O6 0.750000 0.250000 0.000000
O O7 0.768866 0.126637 0.901198
O O8 0.820932 0.169910 0.013053
O O9 0.847997 0.437256 0.423798
O O10 0.000000 0.369632 0.000000
O O11 0.902853 0.500000 0.024474
O O12 0.000000 0.500000 0.000000
O O13 0.179942 0.914869 0.512038
O O14 0.346439 0.938490 0.940207
O O15 0.000000 0.155453 0.500000
O O16 0.087199 0.112380 0.019444
O O17 0.924599 0.000000 0.062763
O O18 0.000000 0.904784 0.000000
O O19 0.000000 0.500000 0.500000
#
# Coordination Sequence:
#
# PCOD8113446 Si02
#       8
#     8   8   8   4   8   8   8   4
#     4  12  22  44  68  98 137 182 228 276 342 415
#     4  12  26  45  64 103 145 176 232 284 338 414
#     4  11  25  42  71  98 135 184 223 282 341 404
#     4  10  24  46  68  99 136 172 237 272 340 406
#     4  12  24  44  72  99 141 185 225 284 352 409
#     4  12  27  46  73 104 139 181 233 295 348 410
#     4  11  25  49  77 103 136 182 238 290 355 419
#     4  12  28  44  71 105 141 182 235 287 342 423
#
# _framework density 20.830957000000001
#
# number of rings (size 3 to 8) (size 9 to 14) (size 15 to 20)
#    0.000    0.429    6.429    0.857    6.000    1.429 
#    1.286    0.000    0.000    0.000    0.000    0.000 
#    0.000    0.000    0.000    0.000    0.000    0.000 
#
# Total GULP energy -347195.214847 kJ/mol
# GULP energy per Si atom -12399.829102 kJ/mol
# Density = 2.078355 g / cm^3
# Si number density = 20.830957 Si / 1000 Ang^3
#
#
#
# Elastic Constant Matrix: (Units=GPa)
#
#
# Indices 1 2 3 4 5 6 
#
# 1 120.4221 70.9196 34.7004 0.0000 6.3780 0.0000
# 2 70.9196 146.8508 56.6871 0.0000 0.8592 0.0000
# 3 34.7004 56.6871 139.1050 0.0000 4.3738 0.0000
# 4 0.0000 0.0000 0.0000 24.7714 0.0000 -1.0171
# 5 6.3780 0.8592 4.3738 0.0000 29.4915 0.0000
# 6 0.0000 0.0000 0.0000 -1.0171 0.0000 38.2337
#
#
#
# Elastic Compliance Matrix: (Units=1/GPa)
#
#
# Indices 1 2 3 4 5 6 
#
# 1 0.011820 -0.005440 -0.000659 0.000000 -0.002300 0.000000
# 2 -0.005440 0.010587 -0.002998 0.000000 0.001313 0.000000
# 3 -0.000659 -0.002998 0.008608 0.000000 -0.001047 0.000000
# 4 0.000000 0.000000 0.000000 0.040413 0.000000 0.001075
# 5 -0.002300 0.001313 -0.001047 0.000000 0.034522 0.000000
# 6 0.000000 0.000000 0.000000 0.001075 0.000000 0.026184
#
#
# Mechanical properties :
#
#
# Convention : Reuss Voigt Hill
#
# Bulk Modulus (GPa) = 78.01045 81.22133 79.61589
# Shear Modulus (GPa) = 32.34099 34.77071 33.55585
#
# Velocity S-wave (km/s) = 3.94451 4.09000 4.01791
# Velocity P-wave (km/s) = 7.63388 7.83450 7.73484
#
# Compressibility (1/GPa) = 0.01281880
#
# Stress axis : x y z
#
# Youngs Moduli (GPa) = 84.60362 94.45813 116.17041
#
# Poissons Ratio (x) = 0.51388 0.07658
# Poissons Ratio (y) = 0.46027 0.34832
# Poissons Ratio (z) = 0.05577 0.28322
#
# Static dielectric constant tensor:
#      x y z
#    x 3.861310 0.000000 -0.003130 
#    y 0.000000 4.840490 0.000000 
#    z -0.003130 0.000000 3.852540 
# 
# 
# High freq. dielectric constant tensor:
#      x y z
#    x 1.829860 0.000000 0.006610 
#    y 0.000000 1.834720 0.000000 
#    z 0.006610 0.000000 1.811430 
# 
# From -- ./inp_files/113377.got.cif
#   From: 2010.06.25/outbox.cif.g09.slc.cpg/sg12_57_cif.got.tgz:113377.got - 2010.06.28 00:19:55.
