data_PCOD8113345
_publ_section_title
;
Structure prediction by ZEFSAII (Michael W. Deem and Ramdas Pophale) SiO2 
 PCOD8113345
Probable space group: C 2/M
;
_chemical_formula_sum "Si O2"
_cell_formula_units_Z 36
_cell_length_a 21.768429
_cell_length_b 10.595030
_cell_length_c 22.613900
_cell_angle_alpha 90.000000
_cell_angle_beta 18.930785
_cell_angle_gamma 90.000000
_cell_volume 1692.076523
_symmetry_space_group_name_H-M "C 2/M"
_symmetry_group_IT_number 12
_symmetry_cell_setting 'monoclinic'
loop_
_space_group_symop_operation_xyz
x,y,z
-x,y,-z
-x,-y,-z
x,-y,z
1/2+x,1/2+y,z
1/2-x,1/2+y,-z
1/2-x,1/2-y,-z
1/2+x,1/2-y,z
loop_
_atom_site_type_symbol
_atom_site_label
_atom_site_fract_x
_atom_site_fract_y
_atom_site_fract_z
Si Si1 0.953831 0.853002 0.606335
Si Si2 0.737238 0.000000 0.101203
Si Si3 0.584554 0.500000 0.712042
Si Si4 0.405018 0.718753 0.027295
Si Si5 0.123471 0.500000 0.646090
Si Si6 0.176550 0.731226 0.678968
O O1 0.740325 0.826384 0.820225
O O2 0.000000 0.794835 0.500000
O O3 0.100816 0.792534 0.518232
O O4 0.992706 0.000000 0.570694
O O5 0.788360 0.118944 0.095011
O O6 0.518857 0.000000 0.280576
O O7 0.857816 0.000000 0.929498
O O8 0.658781 0.500000 0.576898
O O9 0.663806 0.374287 0.669743
O O10 0.500000 0.658385 0.000000
O O11 0.567561 0.784914 0.840336
O O12 0.087412 0.628081 0.715470
#
# Coordination Sequence:
#
# PCOD8113345 Si02
#       6
#     8   4   4   8   4   8
#     4  11  23  39  63  95 133 172 219 265 330 392
#     4  10  25  44  67  98 129 176 223 265 335 394
#     4  10  24  43  66  93 137 166 223 274 322 384
#     4  11  23  42  68  97 136 170 215 275 331 396
#     4  12  24  43  69  93 137 176 228 269 323 390
#     4  11  24  43  67 101 130 178 219 270 335 392
#
# _framework density 21.275632999999999
#
# number of rings (size 3 to 8) (size 9 to 14) (size 15 to 20)
#    0.000    1.111    3.333    2.333    1.556    5.778 
#    0.000    1.111    0.000    0.000    0.000    0.000 
#    0.000    0.000    0.000    0.000    0.000    0.000 
#
# Total GULP energy -223162.251521 kJ/mol
# GULP energy per Si atom -12397.902862 kJ/mol
# Density = 2.122721 g / cm^3
# Si number density = 21.275633 Si / 1000 Ang^3
#
#
#
# Elastic Constant Matrix: (Units=GPa)
#
#
# Indices 1 2 3 4 5 6 
#
# 1 105.5674 38.9026 28.6078 0.0464 0.7803 -0.0381
# 2 38.9026 116.3599 26.7961 0.1620 1.5298 -0.1213
# 3 28.6078 26.7961 105.0317 0.1037 20.7633 -0.0861
# 4 0.0464 0.1620 0.1037 31.8740 -0.0285 -5.8322
# 5 0.7803 1.5298 20.7633 -0.0285 44.3470 0.0254
# 6 -0.0381 -0.1213 -0.0861 -5.8322 0.0254 28.1315
#
#
#
# Elastic Compliance Matrix: (Units=1/GPa)
#
#
# Indices 1 2 3 4 5 6 
#
# 1 0.011325 -0.003231 -0.002472 0.000008 0.001069 -0.000005
# 2 -0.003231 0.010082 -0.001801 -0.000035 0.000552 0.000026
# 3 -0.002472 -0.001801 0.011717 -0.000026 -0.005380 0.000024
# 4 0.000008 -0.000035 -0.000026 0.032611 0.000030 0.006761
# 5 0.001069 0.000552 -0.005380 0.000030 0.025031 -0.000029
# 6 -0.000005 0.000026 0.000024 0.006761 -0.000029 0.036949
#
#
# Mechanical properties :
#
#
# Convention : Reuss Voigt Hill
#
# Bulk Modulus (GPa) = 55.19913 57.28580 56.24246
# Shear Modulus (GPa) = 33.61063 36.38066 34.99565
#
# Velocity S-wave (km/s) = 3.97895 4.13966 4.06010
# Velocity P-wave (km/s) = 6.86370 7.05925 6.96217
#
# Compressibility (1/GPa) = 0.01811623
#
# Stress axis : x y z
#
# Youngs Moduli (GPa) = 88.29797 99.18732 85.34319
#
# Poissons Ratio (x) = 0.32050 0.21095
# Poissons Ratio (y) = 0.28531 0.15372
# Poissons Ratio (z) = 0.21825 0.17865
#
# Static dielectric constant tensor:
#      x y z
#    x 3.843070 -0.000040 0.216130 
#    y -0.000040 3.671660 0.000070 
#    z 0.216130 0.000070 4.084900 
# 
# 
# High freq. dielectric constant tensor:
#      x y z
#    x 1.832540 0.000000 0.007720 
#    y 0.000000 1.833160 0.000010 
#    z 0.007720 0.000010 1.847990 
# 
# From -- ./inp_files/23620.got.cif
#   From: 2010.06.25/outbox.cif.g09.slc.cpg/sg12_12_cif.got.tgz:23620.got - 2010.06.28 00:19:55.
