data_PCOD8113481
_publ_section_title
;
Structure prediction by ZEFSAII (Michael W. Deem and Ramdas Pophale) SiO2 
 PCOD8113481
Probable space group: C 2/M
;
_chemical_formula_sum "Si O2"
_cell_formula_units_Z 52
_cell_length_a 12.762498
_cell_length_b 20.806460
_cell_length_c 11.146264
_cell_angle_alpha 90.000000
_cell_angle_beta 126.346137
_cell_angle_gamma 90.000000
_cell_volume 2383.979401
_symmetry_space_group_name_H-M "C 2/M"
_symmetry_group_IT_number 12
_symmetry_cell_setting 'monoclinic'
loop_
_space_group_symop_operation_xyz
x,y,z
-x,y,-z
-x,-y,-z
x,-y,z
1/2+x,1/2+y,z
1/2-x,1/2+y,-z
1/2-x,1/2-y,-z
1/2+x,1/2-y,z
loop_
_atom_site_type_symbol
_atom_site_label
_atom_site_fract_x
_atom_site_fract_y
_atom_site_fract_z
Si Si1 0.262009 0.428139 0.195620
Si Si2 0.635239 0.301776 0.150336
Si Si3 0.198983 0.862757 0.446484
Si Si4 0.101569 0.500000 0.730115
Si Si5 0.183175 0.369687 0.906292
Si Si6 0.812007 0.500000 0.483883
Si Si7 0.000000 0.890711 0.500000
Si Si8 0.396101 0.832988 0.761419
O O1 0.214767 0.500000 0.131827
O O2 0.402947 0.433000 0.353207
O O3 0.156430 0.398185 0.214272
O O4 0.270430 0.384580 0.082103
O O5 0.657040 0.338593 0.289041
O O6 0.747532 0.318873 0.132839
O O7 0.640875 0.226041 0.177962
O O8 0.500000 0.324049 0.000000
O O9 0.224288 0.939018 0.457333
O O10 0.329084 0.826653 0.583902
O O11 0.085253 0.847435 0.466235
O O12 0.162022 0.436487 0.826092
O O13 0.143679 0.500000 0.622093
O O14 0.946813 0.500000 0.649682
O O15 0.050083 0.335627 0.854223
#
# Coordination Sequence:
#
# PCOD8113481 Si02
#       8
#     8   8   8   4   8   4   4   8
#     4  11  24  41  66 102 138 178 231 287 348 411
#     4  12  27  48  67  99 143 186 231 276 339 418
#     4  11  24  44  69 103 137 181 233 286 341 413
#     4  11  22  42  70 110 134 177 222 295 358 393
#     4  12  24  44  74 103 135 179 230 290 349 402
#     4  11  22  41  71 104 141 169 234 292 349 405
#     4  10  25  40  64  96 138 186 217 266 352 413
#     4  11  27  44  70 101 135 182 231 288 344 404
#
# _framework density 21.812269000000001
#
# number of rings (size 3 to 8) (size 9 to 14) (size 15 to 20)
#    0.000    0.769    3.846    3.000    6.462    6.154 
#    0.000    0.769    0.000    0.000    0.000    0.000 
#    0.000    0.000    0.000    0.000    0.000    0.000 
#
# Total GULP energy -322456.820579 kJ/mol
# GULP energy per Si atom -12402.185407 kJ/mol
# Density = 2.176262 g / cm^3
# Si number density = 21.812269 Si / 1000 Ang^3
#
#
#
# Elastic Constant Matrix: (Units=GPa)
#
#
# Indices 1 2 3 4 5 6 
#
# 1 132.7223 60.5030 60.3873 0.0000 1.3081 0.0000
# 2 60.5030 114.8729 52.3233 0.0000 5.3125 0.0000
# 3 60.3873 52.3233 167.0787 0.0000 -8.5374 0.0000
# 4 0.0000 0.0000 0.0000 24.2549 0.0000 -0.9004
# 5 1.3081 5.3125 -8.5374 0.0000 34.9512 0.0000
# 6 0.0000 0.0000 0.0000 -0.9004 0.0000 21.6862
#
#
#
# Elastic Compliance Matrix: (Units=1/GPa)
#
#
# Indices 1 2 3 4 5 6 
#
# 1 0.010718 -0.004500 -0.002481 0.000000 -0.000323 0.000000
# 2 -0.004500 0.012237 -0.002321 0.000000 -0.002259 0.000000
# 3 -0.002481 -0.002321 0.007728 0.000000 0.002333 0.000000
# 4 0.000000 0.000000 0.000000 0.041292 0.000000 0.001715
# 5 -0.000323 -0.002259 0.002333 0.000000 0.029537 0.000000
# 6 0.000000 0.000000 0.000000 0.001715 0.000000 0.046183
#
#
# Mechanical properties :
#
#
# Convention : Reuss Voigt Hill
#
# Bulk Modulus (GPa) = 82.79121 84.56680 83.67901
# Shear Modulus (GPa) = 29.35537 32.27582 30.81559
#
# Velocity S-wave (km/s) = 3.67252 3.85087 3.76275
# Velocity P-wave (km/s) = 7.48478 7.65681 7.57128
#
# Compressibility (1/GPa) = 0.01207858
#
# Stress axis : x y z
#
# Youngs Moduli (GPa) = 93.30128 81.71818 129.39815
#
# Poissons Ratio (x) = 0.36774 0.32104
# Poissons Ratio (y) = 0.41986 0.30036
# Poissons Ratio (z) = 0.23148 0.18969
#
# Static dielectric constant tensor:
#      x y z
#    x 3.889440 0.000000 -0.075770 
#    y 0.000000 3.774310 0.000000 
#    z -0.075770 0.000000 4.347740 
# 
# 
# High freq. dielectric constant tensor:
#      x y z
#    x 1.857260 0.000000 -0.009470 
#    y 0.000000 1.850790 0.000000 
#    z -0.009470 0.000000 1.880140 
# 
# From -- ./inp_files/136053.got.cif
#   From: 2010.06.25/outbox.cif.g09.slc.cpg/sg12_69_cif.got.tgz:136053.got - 2010.06.28 00:19:55.
