data_PCOD8113742
_publ_section_title
;
Structure prediction by ZEFSAII (Michael W. Deem and Ramdas Pophale) SiO2 
 PCOD8113742
Probable space group: C 2/M
;
_chemical_formula_sum "Si O2"
_cell_formula_units_Z 36
_cell_length_a 11.411878
_cell_length_b 14.869883
_cell_length_c 11.030817
_cell_angle_alpha 90.000000
_cell_angle_beta 82.717629
_cell_angle_gamma 90.000000
_cell_volume 1856.756296
_symmetry_space_group_name_H-M "C 2/M"
_symmetry_group_IT_number 12
_symmetry_cell_setting 'monoclinic'
loop_
_space_group_symop_operation_xyz
x,y,z
-x,y,-z
-x,-y,-z
x,-y,z
1/2+x,1/2+y,z
1/2-x,1/2+y,-z
1/2-x,1/2-y,-z
1/2+x,1/2-y,z
loop_
_atom_site_type_symbol
_atom_site_label
_atom_site_fract_x
_atom_site_fract_y
_atom_site_fract_z
Si Si1 0.720350 0.000000 0.684634
Si Si2 0.358525 0.639650 0.215568
Si Si3 0.329261 0.500000 0.406569
Si Si4 0.088953 0.340289 0.811105
Si Si5 0.844470 0.393999 0.935470
Si Si6 0.535689 0.500000 0.236067
O O1 0.776064 0.000000 0.545159
O O2 0.641735 0.088283 0.709663
O O3 0.823649 0.000000 0.773153
O O4 0.288875 0.589381 0.335438
O O5 0.383533 0.742409 0.246455
O O6 0.280796 0.631500 0.104735
O O7 0.484552 0.588992 0.174106
O O8 0.474266 0.500000 0.380164
O O9 0.948722 0.354414 0.838223
O O10 0.150719 0.349977 0.933061
O O11 0.863149 0.500000 0.947640
#
# Coordination Sequence:
#
# PCOD8113742 Si02
#       6
#     4   8   4   8   8   4
#     4  12  21  37  62  86 116 144 204 227 285 342
#     4   9  21  39  60  79 113 157 188 232 291 329
#     4   8  21  40  60  80 115 154 187 239 287 324
#     4  11  23  34  61  90 111 154 187 237 282 343
#     4  11  19  43  56  82 122 152 184 237 290 337
#     4   8  21  40  56  80 113 154 185 239 281 324
#
# _framework density 19.388649999999998
#
# number of rings (size 3 to 8) (size 9 to 14) (size 15 to 20)
#    1.333    0.444    4.444    1.667    3.111    0.889 
#    0.000    3.333    0.000    0.000    0.000    0.000 
#    0.000    0.000    0.000    0.000    0.000    0.000 
#
# Total GULP energy -223023.862405 kJ/mol
# GULP energy per Si atom -12390.214578 kJ/mol
# Density = 1.934452 g / cm^3
# Si number density = 19.388650 Si / 1000 Ang^3
#
#
#
# Elastic Constant Matrix: (Units=GPa)
#
#
# Indices 1 2 3 4 5 6 
#
# 1 32.5135 26.6208 18.2064 0.0000 2.7789 0.0000
# 2 26.6208 184.7314 28.4901 0.0000 -8.5388 0.0000
# 3 18.2064 28.4901 39.7890 0.0000 -13.5808 0.0000
# 4 0.0000 0.0000 0.0000 13.4834 0.0000 4.1430
# 5 2.7789 -8.5388 -13.5808 0.0000 24.4257 0.0000
# 6 0.0000 0.0000 0.0000 4.1430 0.0000 14.6036
#
#
#
# Elastic Compliance Matrix: (Units=1/GPa)
#
#
# Indices 1 2 3 4 5 6 
#
# 1 0.052466 -0.004167 -0.029076 0.000000 -0.023592 0.000000
# 2 -0.004167 0.006419 -0.002174 0.000000 0.001509 0.000000
# 3 -0.029076 -0.002174 0.050435 0.000000 0.030590 0.000000
# 4 0.000000 0.000000 0.000000 0.081248 0.000000 -0.023049
# 5 -0.023592 0.001509 0.030590 0.000000 0.061160 0.000000
# 6 0.000000 0.000000 0.000000 -0.023049 0.000000 0.075015
#
#
# Mechanical properties :
#
#
# Convention : Reuss Voigt Hill
#
# Bulk Modulus (GPa) = 25.98392 44.85206 35.41799
# Shear Modulus (GPa) = 12.18307 22.75032 17.46669
#
# Velocity S-wave (km/s) = 2.50943 3.42918 3.00471
# Velocity P-wave (km/s) = 4.67194 6.23398 5.50861
#
# Compressibility (1/GPa) = 0.03848534
#
# Stress axis : x y z
#
# Youngs Moduli (GPa) = 19.05993 155.79170 19.82757
#
# Poissons Ratio (x) = 0.64917 0.57651
# Poissons Ratio (y) = 0.07942 0.04311
# Poissons Ratio (z) = 0.55419 0.33874
#
# Static dielectric constant tensor:
#      x y z
#    x 3.450340 0.000000 0.000650 
#    y 0.000000 3.589270 0.000000 
#    z 0.000650 0.000000 3.105980 
# 
# 
# High freq. dielectric constant tensor:
#      x y z
#    x 1.749230 0.000000 0.000270 
#    y 0.000000 1.763340 0.000000 
#    z 0.000270 0.000000 1.722440 
# 
# From -- ./inp_files/128588.got.cif
#   From: 2010.06.25/outbox.cif.g09.slc.cpg/sg12_65_cif.got.tgz:128588.got - 2010.06.28 00:19:55.
