data_PCOD8113559
_publ_section_title
;
Structure prediction by ZEFSAII (Michael W. Deem and Ramdas Pophale) SiO2 
 PCOD8113559
Probable space group: C 2/M
;
_chemical_formula_sum "Si O2"
_cell_formula_units_Z 44
_cell_length_a 12.969394
_cell_length_b 18.265115
_cell_length_c 10.875316
_cell_angle_alpha 90.000000
_cell_angle_beta 54.886644
_cell_angle_gamma 90.000000
_cell_volume 2107.393308
_symmetry_space_group_name_H-M "C 2/M"
_symmetry_group_IT_number 12
_symmetry_cell_setting 'monoclinic'
loop_
_space_group_symop_operation_xyz
x,y,z
-x,y,-z
-x,-y,-z
x,-y,z
1/2+x,1/2+y,z
1/2-x,1/2+y,-z
1/2-x,1/2-y,-z
1/2+x,1/2-y,z
loop_
_atom_site_type_symbol
_atom_site_label
_atom_site_fract_x
_atom_site_fract_y
_atom_site_fract_z
Si Si1 0.637210 0.916421 0.350390
Si Si2 0.857619 0.000000 0.558626
Si Si3 0.525974 0.500000 0.122027
Si Si4 0.861682 0.119010 0.354790
Si Si5 0.722800 0.000000 0.908022
Si Si6 0.323618 0.142335 0.942450
Si Si7 0.449637 0.707520 0.898150
O O1 0.500000 0.913718 0.500000
O O2 0.729164 0.871955 0.377712
O O3 0.634929 0.877301 0.222594
O O4 0.686246 0.000000 0.306317
O O5 0.834707 0.922875 0.502225
O O6 0.000000 0.000000 0.500000
O O7 0.768032 0.000000 0.736962
O O8 0.462675 0.571933 0.214001
O O9 0.670914 0.500000 0.059358
O O10 0.500000 0.500000 0.000000
O O11 0.941447 0.195314 0.284955
O O12 0.645094 0.074260 0.987534
O O13 0.412577 0.207603 0.925797
O O14 0.175270 0.161059 0.049215
O O15 0.500000 0.686017 0.000000
#
# Coordination Sequence:
#
# PCOD8113559 Si02
#       7
#     8   4   4   8   4   8   8
#     4  11  22  40  66  95 125 159 219 274 322 385
#     4  11  20  36  61 104 138 165 210 259 335 389
#     4  11  17  28  61 101 116 154 211 256 319 367
#     4  11  20  37  64  95 129 168 210 268 322 391
#     4  12  21  39  62  99 137 165 209 273 321 386
#     4  11  23  40  66  96 126 167 214 274 327 381
#     4  11  22  40  65  96 130 165 218 270 326 389
#
# _framework density 20.878872999999999
#
# number of rings (size 3 to 8) (size 9 to 14) (size 15 to 20)
#    0.000    0.909    8.182    1.636    0.000    0.000 
#    3.273    5.909    0.000    0.000    0.000    0.000 
#    0.000    0.000    0.000    0.818    0.000    0.000 
#
# Total GULP energy -272588.390518 kJ/mol
# GULP energy per Si atom -12390.381387 kJ/mol
# Density = 2.083135 g / cm^3
# Si number density = 20.878873 Si / 1000 Ang^3
#
#
#
# Elastic Constant Matrix: (Units=GPa)
#
#
# Indices 1 2 3 4 5 6 
#
# 1 55.9041 28.0522 24.5768 0.0000 -2.1311 0.0000
# 2 28.0522 120.8026 41.2176 0.0000 -1.7788 0.0000
# 3 24.5768 41.2176 83.1362 0.0000 21.2262 0.0000
# 4 0.0000 0.0000 0.0000 27.3420 0.0000 -6.7473
# 5 -2.1311 -1.7788 21.2262 0.0000 35.7395 0.0000
# 6 0.0000 0.0000 0.0000 -6.7473 0.0000 10.6454
#
#
#
# Elastic Compliance Matrix: (Units=1/GPa)
#
#
# Indices 1 2 3 4 5 6 
#
# 1 0.022381 -0.002923 -0.006448 0.000000 0.005019 0.000000
# 2 -0.002923 0.010867 -0.005442 0.000000 0.003599 0.000000
# 3 -0.006448 -0.005442 0.019803 0.000000 -0.012417 0.000000
# 4 0.000000 0.000000 0.000000 0.043355 0.000000 0.027480
# 5 0.005019 0.003599 -0.012417 0.000000 0.035833 0.000000
# 6 0.000000 0.000000 0.000000 0.027480 0.000000 0.111355
#
#
# Mechanical properties :
#
#
# Convention : Reuss Voigt Hill
#
# Bulk Modulus (GPa) = 42.69288 49.72624 46.20956
# Shear Modulus (GPa) = 17.79178 25.81179 21.80179
#
# Velocity S-wave (km/s) = 2.92232 3.51987 3.23492
# Velocity P-wave (km/s) = 5.64614 6.35512 6.01109
#
# Compressibility (1/GPa) = 0.02342311
#
# Stress axis : x y z
#
# Youngs Moduli (GPa) = 44.68127 92.02507 50.49713
#
# Poissons Ratio (x) = 0.26899 0.32563
# Poissons Ratio (y) = 0.13061 0.27482
# Poissons Ratio (z) = 0.28812 0.50082
#
# Static dielectric constant tensor:
#      x y z
#    x 3.695590 0.000000 -0.071710 
#    y 0.000000 4.261810 0.000000 
#    z -0.071710 0.000000 3.586480 
# 
# 
# High freq. dielectric constant tensor:
#      x y z
#    x 1.812120 0.000000 -0.004400 
#    y 0.000000 1.817990 0.000000 
#    z -0.004400 0.000000 1.812580 
# 
# From -- ./inp_files/145379.got.cif
#   From: 2010.06.25/outbox.cif.g09.slc.cpg/sg12_73_cif.got.tgz:145379.got - 2010.06.28 00:19:55.
