data_PCOD8113523
_publ_section_title
;
Structure prediction by ZEFSAII (Michael W. Deem and Ramdas Pophale) SiO2 
 PCOD8113523
Probable space group: C 2/M
;
_chemical_formula_sum "Si O2"
_cell_formula_units_Z 56
_cell_length_a 23.792116
_cell_length_b 19.859565
_cell_length_c 5.365827
_cell_angle_alpha 90.000000
_cell_angle_beta 72.076188
_cell_angle_gamma 90.000000
_cell_volume 2412.309390
_symmetry_space_group_name_H-M "C 2/M"
_symmetry_group_IT_number 12
_symmetry_cell_setting 'monoclinic'
loop_
_space_group_symop_operation_xyz
x,y,z
-x,y,-z
-x,-y,-z
x,-y,z
1/2+x,1/2+y,z
1/2-x,1/2+y,-z
1/2-x,1/2-y,-z
1/2+x,1/2-y,z
loop_
_atom_site_type_symbol
_atom_site_label
_atom_site_fract_x
_atom_site_fract_y
_atom_site_fract_z
Si Si1 0.658938 0.631700 0.611005
Si Si2 0.152118 0.575731 0.017370
Si Si3 0.199155 0.245391 0.264740
Si Si4 0.903017 0.788023 0.923123
Si Si5 0.466161 0.159670 0.805237
Si Si6 0.430515 0.425414 0.629930
Si Si7 0.718614 0.114736 0.425841
O O1 0.700601 0.667695 0.348942
O O2 0.607350 0.583766 0.573688
O O3 0.710821 0.593937 0.694177
O O4 0.630041 0.699392 0.771798
O O5 0.127556 0.500000 0.058420
O O6 0.188547 0.583755 0.711307
O O7 0.097426 0.625855 0.106784
O O8 0.192199 0.587245 0.205057
O O9 0.135735 0.254165 0.219164
O O10 0.208779 0.304030 0.455881
O O11 0.250000 0.250000 0.000000
O O12 0.960754 0.740996 0.861336
O O13 0.914356 0.866448 0.840330
O O14 0.500000 0.144905 0.500000
O O15 0.500000 0.129974 0.000000
O O16 0.500000 0.420396 0.500000
O O17 0.415194 0.500000 0.758069
#
# Coordination Sequence:
#
# PCOD8113523 Si02
#       7
#     8   8   8   8   8   8   8
#     4  11  25  39  70 105 141 187 236 295 359 432
#     4  12  28  49  74 105 148 198 244 301 371 439
#     4  11  21  40  67 104 144 186 229 295 366 431
#     4  11  24  41  71 105 140 184 237 303 355 429
#     4  12  28  47  75 109 143 187 246 311 366 431
#     4  10  25  47  67  95 142 193 241 290 353 426
#     4  12  24  45  71 109 147 189 242 295 364 439
#
# _framework density 23.214271
#
# number of rings (size 3 to 8) (size 9 to 14) (size 15 to 20)
#    0.000    0.714    2.857    3.857    8.000    2.286 
#    0.000    1.429    0.000    0.000    0.000    0.000 
#    0.000    0.000    0.000    0.000    0.000    0.000 
#
# Total GULP energy -346909.025444 kJ/mol
# GULP energy per Si atom -12389.608052 kJ/mol
# Density = 2.316143 g / cm^3
# Si number density = 23.214271 Si / 1000 Ang^3
#
#
#
# Elastic Constant Matrix: (Units=GPa)
#
#
# Indices 1 2 3 4 5 6 
#
# 1 148.2960 45.7800 44.5395 0.0000 13.7009 0.0000
# 2 45.7800 122.6246 18.1786 0.0000 0.3364 0.0000
# 3 44.5395 18.1786 116.1921 0.0000 9.9596 0.0000
# 4 0.0000 0.0000 0.0000 30.0075 0.0000 1.7136
# 5 13.7009 0.3364 9.9596 0.0000 31.3913 0.0000
# 6 0.0000 0.0000 0.0000 1.7136 0.0000 10.2950
#
#
#
# Elastic Compliance Matrix: (Units=1/GPa)
#
#
# Indices 1 2 3 4 5 6 
#
# 1 0.008682 -0.002843 -0.002633 0.000000 -0.002923 0.000000
# 2 -0.002843 0.009283 -0.000473 0.000000 0.001291 0.000000
# 3 -0.002633 -0.000473 0.009859 0.000000 -0.001974 0.000000
# 4 0.000000 0.000000 0.000000 0.033645 0.000000 -0.005600
# 5 -0.002923 0.001291 -0.001974 0.000000 0.033744 0.000000
# 6 0.000000 0.000000 0.000000 -0.005600 0.000000 0.098067
#
#
# Mechanical properties :
#
#
# Convention : Reuss Voigt Hill
#
# Bulk Modulus (GPa) = 62.79055 67.12323 64.95689
# Shear Modulus (GPa) = 23.75461 32.91306 28.33383
#
# Velocity S-wave (km/s) = 3.20234 3.76945 3.49741
# Velocity P-wave (km/s) = 6.38594 6.92260 6.65968
#
# Compressibility (1/GPa) = 0.01592596
#
# Stress axis : x y z
#
# Youngs Moduli (GPa) = 115.18561 107.72458 101.43215
#
# Poissons Ratio (x) = 0.30625 0.26702
# Poissons Ratio (y) = 0.32746 0.04801
# Poissons Ratio (z) = 0.30323 0.05099
#
# Static dielectric constant tensor:
#      x y z
#    x 4.531530 0.000000 0.172310 
#    y 0.000000 4.546870 0.000000 
#    z 0.172310 0.000000 4.204720 
# 
# 
# High freq. dielectric constant tensor:
#      x y z
#    x 1.937100 0.000000 0.006650 
#    y 0.000000 1.913020 0.000000 
#    z 0.006650 0.000000 1.914770 
# 
# From -- ./inp_files/25611.got.cif
#   From: 2010.06.25/outbox.cif.g09.slc.cpg/sg12_13_cif.got.tgz:25611.got - 2010.06.28 00:19:55.
