data_PCOD8113932
_publ_section_title
;
Structure prediction by ZEFSAII (Michael W. Deem and Ramdas Pophale) SiO2 
 PCOD8113932
Probable space group: C 2/M
;
_chemical_formula_sum "Si O2"
_cell_formula_units_Z 48
_cell_length_a 12.148807
_cell_length_b 18.740807
_cell_length_c 10.650281
_cell_angle_alpha 90.000000
_cell_angle_beta 105.890747
_cell_angle_gamma 90.000000
_cell_volume 2332.175512
_symmetry_space_group_name_H-M "C 2/M"
_symmetry_group_IT_number 12
_symmetry_cell_setting 'monoclinic'
loop_
_space_group_symop_operation_xyz
x,y,z
-x,y,-z
-x,-y,-z
x,-y,z
1/2+x,1/2+y,z
1/2-x,1/2+y,-z
1/2-x,1/2-y,-z
1/2+x,1/2-y,z
loop_
_atom_site_type_symbol
_atom_site_label
_atom_site_fract_x
_atom_site_fract_y
_atom_site_fract_z
Si Si1 0.294156 0.370275 0.743414
Si Si2 0.419414 0.221377 0.353699
Si Si3 0.938825 0.734146 0.847209
Si Si4 0.351332 0.500000 0.330460
Si Si5 0.873161 0.920417 0.015094
Si Si6 0.214397 0.147643 0.775710
Si Si7 0.102402 0.000000 0.368041
O O1 0.172853 0.341315 0.657627
O O2 0.386567 0.307534 0.781199
O O3 0.281941 0.406239 0.876189
O O4 0.337317 0.428694 0.659903
O O5 0.500000 0.219149 0.500000
O O6 0.480299 0.206324 0.239553
O O7 0.356865 0.298156 0.333489
O O8 0.841194 0.675521 0.840895
O O9 0.000000 0.746047 0.000000
O O10 0.275612 0.570244 0.284350
O O11 0.468752 0.500000 0.282781
O O12 0.392025 0.500000 0.483535
O O13 0.848592 0.000000 0.061442
O O14 0.853878 0.860303 0.114220
O O15 0.000000 0.914644 0.000000
#
# Coordination Sequence:
#
# PCOD8113932 Si02
#       7
#     8   8   8   4   8   8   4
#     4  11  23  41  67  94 125 163 212 263 318 370
#     4  11  26  42  66  93 128 170 216 258 313 381
#     4  11  24  44  67  92 130 171 212 258 315 380
#     4  11  24  39  63  97 128 160 209 262 325 366
#     4  11  20  36  64  97 126 155 200 264 322 368
#     4  11  24  41  67  95 128 165 209 264 318 374
#     4  11  24  39  65  94 128 163 206 269 317 370
#
# _framework density 20.58164
#
# number of rings (size 3 to 8) (size 9 to 14) (size 15 to 20)
#    0.000    1.000    1.667    5.500    7.000    4.000 
#    0.000    1.667    0.000    0.000    0.000    0.000 
#    0.000    0.000    0.000    0.000    0.000    0.000 
#
# Total GULP energy -297641.272648 kJ/mol
# GULP energy per Si atom -12401.719694 kJ/mol
# Density = 2.053480 g / cm^3
# Si number density = 20.581640 Si / 1000 Ang^3
#
#
#
# Elastic Constant Matrix: (Units=GPa)
#
#
# Indices 1 2 3 4 5 6 
#
# 1 95.6065 69.1709 41.1286 0.0000 9.7454 0.0000
# 2 69.1709 144.5961 39.6536 0.0000 8.7286 0.0000
# 3 41.1286 39.6536 117.6356 0.0000 11.7750 0.0000
# 4 0.0000 0.0000 0.0000 21.0939 0.0000 -12.5324
# 5 9.7454 8.7286 11.7750 0.0000 35.0899 0.0000
# 6 0.0000 0.0000 0.0000 -12.5324 0.0000 17.3193
#
#
#
# Elastic Compliance Matrix: (Units=1/GPa)
#
#
# Indices 1 2 3 4 5 6 
#
# 1 0.017383 -0.007258 -0.003444 0.000000 -0.001866 0.000000
# 2 -0.007258 0.010690 -0.001036 0.000000 -0.000296 0.000000
# 3 -0.003444 -0.001036 0.010278 0.000000 -0.002235 0.000000
# 4 0.000000 0.000000 0.000000 0.083157 0.000000 0.060173
# 5 -0.001866 -0.000296 -0.002235 0.000000 0.029840 0.000000
# 6 0.000000 0.000000 0.000000 0.060173 0.000000 0.101281
#
#
# Mechanical properties :
#
#
# Convention : Reuss Voigt Hill
#
# Bulk Modulus (GPa) = 67.23265 73.08271 70.15768
# Shear Modulus (GPa) = 17.78960 28.55963 23.17461
#
# Velocity S-wave (km/s) = 2.94316 3.72913 3.35921
# Velocity P-wave (km/s) = 6.65484 7.35715 7.01479
#
# Compressibility (1/GPa) = 0.01487373
#
# Stress axis : x y z
#
# Youngs Moduli (GPa) = 57.52861 93.54555 97.29614
#
# Poissons Ratio (x) = 0.67898 0.33508
# Poissons Ratio (y) = 0.41756 0.10082
# Poissons Ratio (z) = 0.19813 0.09693
#
# Static dielectric constant tensor:
#      x y z
#    x 3.655030 0.000000 0.017850 
#    y 0.000000 3.930060 0.000000 
#    z 0.017850 0.000000 3.815290 
# 
# 
# High freq. dielectric constant tensor:
#      x y z
#    x 1.790260 0.000000 -0.004690 
#    y 0.000000 1.813300 0.000000 
#    z -0.004690 0.000000 1.820250 
# 
# From -- ./inp_files/131819.got.cif
#   From: 2010.06.25/outbox.cif.g09.slc.cpg/sg12_66_cif.got.tgz:131819.got - 2010.06.28 00:19:55.
