data_PCOD8113841
_publ_section_title
;
Structure prediction by ZEFSAII (Michael W. Deem and Ramdas Pophale) SiO2 
 PCOD8113841
Probable space group: C 2/M
;
_chemical_formula_sum "Si O2"
_cell_formula_units_Z 48
_cell_length_a 10.702309
_cell_length_b 25.071420
_cell_length_c 8.977108
_cell_angle_alpha 90.000000
_cell_angle_beta 89.120194
_cell_angle_gamma 90.000000
_cell_volume 2408.472349
_symmetry_space_group_name_H-M "C 2/M"
_symmetry_group_IT_number 12
_symmetry_cell_setting 'monoclinic'
loop_
_space_group_symop_operation_xyz
x,y,z
-x,y,-z
-x,-y,-z
x,-y,z
1/2+x,1/2+y,z
1/2-x,1/2+y,-z
1/2-x,1/2-y,-z
1/2+x,1/2-y,z
loop_
_atom_site_type_symbol
_atom_site_label
_atom_site_fract_x
_atom_site_fract_y
_atom_site_fract_z
Si Si1 0.127486 0.269222 0.590827
Si Si2 0.172588 0.440402 0.632091
Si Si3 0.759467 0.845464 0.783500
Si Si4 0.530666 0.731740 0.167022
Si Si5 0.377015 0.845709 0.916407
Si Si6 0.116600 0.560869 0.299894
O O1 0.250000 0.250000 0.500000
O O2 0.153825 0.325822 0.667903
O O3 0.000000 0.274357 0.500000
O O4 0.096591 0.230722 0.732647
O O5 0.219277 0.500000 0.655612
O O6 0.269349 0.406869 0.733377
O O7 0.179255 0.426185 0.457396
O O8 0.031984 0.433471 0.692181
O O9 0.884738 0.812281 0.753646
O O10 0.727792 0.836014 0.956813
O O11 0.597728 0.790118 0.171671
O O12 0.500000 0.715070 0.000000
O O13 0.330617 0.893764 0.811748
O O14 0.500000 0.865230 0.000000
O O15 0.151028 0.500000 0.249074
#
# Coordination Sequence:
#
# PCOD8113841 Si02
#       6
#     8   8   8   8   8   8
#     4  12  25  40  61  93 127 165 210 256 302 372
#     4   9  19  34  53  82 118 158 205 257 314 370
#     4  12  23  37  61  87 121 169 205 255 312 371
#     4  11  24  43  58  84 129 165 207 252 311 367
#     4  11  20  33  53  83 120 163 197 243 305 369
#     4   9  18  33  53  82 123 161 199 255 317 372
#
# _framework density 19.929646000000002
#
# number of rings (size 3 to 8) (size 9 to 14) (size 15 to 20)
#    0.000    1.333    6.667    1.500    4.667    1.000 
#    0.000    0.000    0.000    0.500    0.000    2.333 
#    0.000    0.000    0.000    0.000    0.000    0.000 
#
# Total GULP energy -297425.484165 kJ/mol
# GULP energy per Si atom -12392.728507 kJ/mol
# Density = 1.988429 g / cm^3
# Si number density = 19.929646 Si / 1000 Ang^3
#
#
#
# Elastic Constant Matrix: (Units=GPa)
#
#
# Indices 1 2 3 4 5 6 
#
# 1 69.1140 41.0894 42.6351 0.0000 -4.7856 0.0000
# 2 41.0894 115.7362 54.0602 0.0000 1.8875 0.0000
# 3 42.6351 54.0602 113.7481 0.0000 -12.4503 0.0000
# 4 0.0000 0.0000 0.0000 42.8385 0.0000 9.9882
# 5 -4.7856 1.8875 -12.4503 0.0000 29.5067 0.0000
# 6 0.0000 0.0000 0.0000 9.9882 0.0000 25.9015
#
#
#
# Elastic Compliance Matrix: (Units=1/GPa)
#
#
# Indices 1 2 3 4 5 6 
#
# 1 0.020755 -0.004926 -0.005279 0.000000 0.001454 0.000000
# 2 -0.004926 0.012549 -0.004501 0.000000 -0.003501 0.000000
# 3 -0.005279 -0.004501 0.013469 0.000000 0.005115 0.000000
# 4 0.000000 0.000000 0.000000 0.025650 0.000000 -0.009891
# 5 0.001454 -0.003501 0.005115 0.000000 0.036509 0.000000
# 6 0.000000 0.000000 0.000000 -0.009891 0.000000 0.042422
#
#
# Mechanical properties :
#
#
# Convention : Reuss Voigt Hill
#
# Bulk Modulus (GPa) = 57.60187 63.79641 60.69914
# Shear Modulus (GPa) = 26.80235 30.37026 28.58630
#
# Velocity S-wave (km/s) = 3.67120 3.90792 3.79140
# Velocity P-wave (km/s) = 6.85096 7.24173 7.04905
#
# Compressibility (1/GPa) = 0.01736055
#
# Stress axis : x y z
#
# Youngs Moduli (GPa) = 48.18161 79.68982 74.24598
#
# Poissons Ratio (x) = 0.39259 0.39193
# Poissons Ratio (y) = 0.23737 0.33415
# Poissons Ratio (z) = 0.25434 0.35865
#
# Static dielectric constant tensor:
#      x y z
#    x 3.205280 0.000000 -0.061220 
#    y 0.000000 3.630940 0.000000 
#    z -0.061220 0.000000 3.877330 
# 
# 
# High freq. dielectric constant tensor:
#      x y z
#    x 1.728080 0.000000 0.004710 
#    y 0.000000 1.771110 0.000000 
#    z 0.004710 0.000000 1.794130 
# 
# From -- ./inp_files/50584.got.cif
#   From: 2010.06.25/outbox.cif.g09.slc.cpg/sg12_26_cif.got.tgz:50584.got - 2010.06.28 00:19:55.
