data_PCOD8113736
_publ_section_title
;
Structure prediction by ZEFSAII (Michael W. Deem and Ramdas Pophale) SiO2 
 PCOD8113736
Probable space group: C 2/M
;
_chemical_formula_sum "Si O2"
_cell_formula_units_Z 44
_cell_length_a 17.675159
_cell_length_b 18.067804
_cell_length_c 6.632670
_cell_angle_alpha 90.000000
_cell_angle_beta 80.589038
_cell_angle_gamma 90.000000
_cell_volume 2089.643416
_symmetry_space_group_name_H-M "C 2/M"
_symmetry_group_IT_number 12
_symmetry_cell_setting 'monoclinic'
loop_
_space_group_symop_operation_xyz
x,y,z
-x,y,-z
-x,-y,-z
x,-y,z
1/2+x,1/2+y,z
1/2-x,1/2+y,-z
1/2-x,1/2-y,-z
1/2+x,1/2-y,z
loop_
_atom_site_type_symbol
_atom_site_label
_atom_site_fract_x
_atom_site_fract_y
_atom_site_fract_z
Si Si1 0.574129 0.500000 0.103815
Si Si2 0.149572 0.000000 0.681047
Si Si3 0.835372 0.349152 0.951754
Si Si4 0.500000 0.119544 0.000000
Si Si5 0.775999 0.779198 0.701564
Si Si6 0.583622 0.620912 0.428944
Si Si7 0.946075 0.500000 0.336391
Si Si8 0.183397 0.500000 0.291286
O O1 0.578081 0.572384 0.233353
O O2 0.500000 0.500000 0.000000
O O3 0.645972 0.500000 0.924338
O O4 0.109336 0.927511 0.608911
O O5 0.239494 0.000000 0.611867
O O6 0.792157 0.291892 0.828914
O O7 0.828666 0.430224 0.852976
O O8 0.927021 0.332789 0.947857
O O9 0.786901 0.337647 0.181313
O O10 0.539082 0.071728 0.806483
O O11 0.750000 0.750000 0.500000
O O12 0.858206 0.814746 0.636782
O O13 0.500000 0.656398 0.500000
O O14 0.865008 0.500000 0.481557
O O15 0.000000 0.500000 0.500000
#
# Coordination Sequence:
#
# PCOD8113736 Si02
#       8
#     4   4   8   4   8   8   4   4
#     4  11  19  41  66  96 139 164 217 288 329 395
#     4  11  22  37  66 102 130 175 220 277 341 399
#     4  11  26  47  67 103 136 176 237 280 349 417
#     4  11  24  42  70 102 136 175 224 292 338 421
#     4  11  27  48  65  96 144 184 228 289 343 428
#     4  11  23  41  65  99 130 175 233 272 338 416
#     4  11  22  42  67 103 138 164 227 284 347 407
#     4  12  23  44  75 100 134 184 224 295 358 397
#
# _framework density 21.056225000000001
#
# number of rings (size 3 to 8) (size 9 to 14) (size 15 to 20)
#    0.000    0.909    3.636    3.273    5.091    3.636 
#    1.636    0.000    0.000    0.000    0.000    0.000 
#    0.000    0.000    0.000    0.000    0.000    0.000 
#
# Total GULP energy -272609.554286 kJ/mol
# GULP energy per Si atom -12391.343377 kJ/mol
# Density = 2.100830 g / cm^3
# Si number density = 21.056225 Si / 1000 Ang^3
#
#
#
# Elastic Constant Matrix: (Units=GPa)
#
#
# Indices 1 2 3 4 5 6 
#
# 1 179.0175 38.1186 55.5588 0.0000 -14.0390 0.0000
# 2 38.1186 85.8093 40.0780 0.0000 -10.2058 0.0000
# 3 55.5588 40.0780 147.9408 0.0000 -15.0098 0.0000
# 4 0.0000 0.0000 0.0000 29.2185 0.0000 4.9653
# 5 -14.0390 -10.2058 -15.0098 0.0000 47.7635 0.0000
# 6 0.0000 0.0000 0.0000 4.9653 0.0000 32.5162
#
#
#
# Elastic Compliance Matrix: (Units=1/GPa)
#
#
# Indices 1 2 3 4 5 6 
#
# 1 0.006661 -0.001972 -0.001871 0.000000 0.000948 0.000000
# 2 -0.001972 0.014073 -0.002918 0.000000 0.001510 0.000000
# 3 -0.001871 -0.002918 0.008402 0.000000 0.001467 0.000000
# 4 0.000000 0.000000 0.000000 0.035137 0.000000 -0.005365
# 5 0.000948 0.001510 0.001467 0.000000 0.021999 0.000000
# 6 0.000000 0.000000 0.000000 -0.005365 0.000000 0.031573
#
#
# Mechanical properties :
#
#
# Convention : Reuss Voigt Hill
#
# Bulk Modulus (GPa) = 64.05465 75.58648 69.82057
# Shear Modulus (GPa) = 36.61092 40.50048 38.55570
#
# Velocity S-wave (km/s) = 4.17432 4.39047 4.28376
# Velocity P-wave (km/s) = 7.32940 7.85347 7.59596
#
# Compressibility (1/GPa) = 0.01561167
#
# Stress axis : x y z
#
# Youngs Moduli (GPa) = 150.12595 71.06016 119.02590
#
# Poissons Ratio (x) = 0.14015 0.22270
# Poissons Ratio (y) = 0.29610 0.34737
# Poissons Ratio (z) = 0.28089 0.20738
#
# Static dielectric constant tensor:
#      x y z
#    x 4.153400 0.000000 -0.117730 
#    y 0.000000 3.669760 0.000000 
#    z -0.117730 0.000000 4.428400 
# 
# 
# High freq. dielectric constant tensor:
#      x y z
#    x 1.851440 0.000000 -0.000830 
#    y 0.000000 1.803850 0.000000 
#    z -0.000830 0.000000 1.845400 
# 
# From -- ./inp_files/16122.got.cif
#   From: 2010.06.25/outbox.cif.g09.slc.cpg/sg12_9_cif.got.tgz:16122.got - 2010.06.28 00:19:55.
