data_PCOD8113364
_publ_section_title
;
Structure prediction by ZEFSAII (Michael W. Deem and Ramdas Pophale) SiO2 
 PCOD8113364
Probable space group: C 2/M
;
_chemical_formula_sum "Si O2"
_cell_formula_units_Z 56
_cell_length_a 24.923399
_cell_length_b 8.445783
_cell_length_c 12.370739
_cell_angle_alpha 90.000000
_cell_angle_beta 104.788946
_cell_angle_gamma 90.000000
_cell_volume 2517.747133
_symmetry_space_group_name_H-M "C 2/M"
_symmetry_group_IT_number 12
_symmetry_cell_setting 'monoclinic'
loop_
_space_group_symop_operation_xyz
x,y,z
-x,y,-z
-x,-y,-z
x,-y,z
1/2+x,1/2+y,z
1/2-x,1/2+y,-z
1/2-x,1/2-y,-z
1/2+x,1/2-y,z
loop_
_atom_site_type_symbol
_atom_site_label
_atom_site_fract_x
_atom_site_fract_y
_atom_site_fract_z
Si Si1 0.628891 0.319584 0.607347
Si Si2 0.801329 0.182723 0.087643
Si Si3 0.045696 0.818661 0.753741
Si Si4 0.934506 0.317288 0.617383
Si Si5 0.764881 0.682327 0.283860
Si Si6 0.400484 0.818748 0.024238
Si Si7 0.855523 0.312766 0.771378
O O1 0.646797 0.500000 0.602414
O O2 0.602774 0.291307 0.714601
O O3 0.581276 0.280705 0.496540
O O4 0.683878 0.211939 0.606374
O O5 0.786216 0.196055 0.204477
O O6 0.849088 0.302239 0.077900
O O7 0.815778 0.000000 0.066195
O O8 0.750000 0.250000 0.000000
O O9 0.051637 0.775159 0.885103
O O10 0.998520 0.710235 0.677823
O O11 0.027012 0.000000 0.735949
O O12 0.925023 0.500000 0.587056
O O13 0.896956 0.262107 0.698592
O O14 0.762995 0.500000 0.246692
O O15 0.703410 0.732317 0.288312
O O16 0.419417 0.000000 0.021851
O O17 0.382932 0.748715 0.897834
O O18 0.846358 0.500000 0.776464
#
# Coordination Sequence:
#
# PCOD8113364 Si02
#       7
#     8   8   8   8   8   8   8
#     4  11  24  43  67  94 128 165 209 267 324 377
#     4  12  22  35  57  91 130 167 207 258 316 375
#     4  11  24  42  66  95 128 165 209 266 326 376
#     4  11  25  45  67  91 124 168 219 267 316 377
#     4  12  24  38  64  97 128 166 211 260 316 381
#     4  11  22  38  64  94 127 166 211 260 314 376
#     4  10  24  44  64  91 131 173 210 259 318 378
#
# _framework density 22.242106
#
# number of rings (size 3 to 8) (size 9 to 14) (size 15 to 20)
#    0.000    0.857    2.857    4.714    0.000    6.286 
#    0.000    2.857    0.000    0.000    0.000    0.000 
#    0.000    0.000    0.000    0.000    0.000    0.000 
#
# Total GULP energy -347080.423452 kJ/mol
# GULP energy per Si atom -12395.729409 kJ/mol
# Density = 2.219148 g / cm^3
# Si number density = 22.242106 Si / 1000 Ang^3
#
#
#
# Elastic Constant Matrix: (Units=GPa)
#
#
# Indices 1 2 3 4 5 6 
#
# 1 75.4633 30.5081 23.0329 0.0000 9.3119 0.0000
# 2 30.5081 82.8514 26.2821 0.0000 -2.2334 0.0000
# 3 23.0329 26.2821 79.0927 0.0000 13.8547 0.0000
# 4 0.0000 0.0000 0.0000 31.7068 0.0000 7.1963
# 5 9.3119 -2.2334 13.8547 0.0000 37.1987 0.0000
# 6 0.0000 0.0000 0.0000 7.1963 0.0000 31.8165
#
#
#
# Elastic Compliance Matrix: (Units=1/GPa)
#
#
# Indices 1 2 3 4 5 6 
#
# 1 0.016636 -0.005462 -0.002399 0.000000 -0.003599 0.000000
# 2 -0.005462 0.015534 -0.004252 0.000000 0.003883 0.000000
# 3 -0.002399 -0.004252 0.015720 0.000000 -0.005510 0.000000
# 4 0.000000 0.000000 0.000000 0.033246 0.000000 -0.007519
# 5 -0.003599 0.003883 -0.005510 0.000000 0.030069 0.000000
# 6 0.000000 0.000000 0.000000 -0.007519 0.000000 0.033131
#
#
# Mechanical properties :
#
#
# Convention : Reuss Voigt Hill
#
# Bulk Modulus (GPa) = 42.25681 44.11706 43.18694
# Shear Modulus (GPa) = 28.33674 30.65003 29.49339
#
# Velocity S-wave (km/s) = 3.57320 3.71619 3.64540
# Velocity P-wave (km/s) = 6.00529 6.18801 6.09734
#
# Compressibility (1/GPa) = 0.02366482
#
# Stress axis : x y z
#
# Youngs Moduli (GPa) = 60.11103 64.37346 63.61296
#
# Poissons Ratio (x) = 0.35159 0.15263
# Poissons Ratio (y) = 0.32831 0.27047
# Poissons Ratio (z) = 0.14423 0.27370
#
# Static dielectric constant tensor:
#      x y z
#    x 3.928470 0.000000 0.177500 
#    y 0.000000 3.816980 0.000000 
#    z 0.177500 0.000000 4.105180 
# 
# 
# High freq. dielectric constant tensor:
#      x y z
#    x 1.871560 0.000000 0.023260 
#    y 0.000000 1.871710 0.000000 
#    z 0.023260 0.000000 1.884010 
# 
# From -- ./inp_files/181070.got.cif
#   From: 2010.06.25/outbox.cif.g09.slc.cpg/sg12_91_cif.got.tgz:181070.got - 2010.06.28 00:19:55.
