data_PCOD8113327
_publ_section_title
;
Structure prediction by ZEFSAII (Michael W. Deem and Ramdas Pophale) SiO2 
 PCOD8113327
Probable space group: C 2/M
;
_chemical_formula_sum "Si O2"
_cell_formula_units_Z 40
_cell_length_a 24.655160
_cell_length_b 8.755141
_cell_length_c 18.765133
_cell_angle_alpha 90.000000
_cell_angle_beta 150.370571
_cell_angle_gamma 90.000000
_cell_volume 2002.584689
_symmetry_space_group_name_H-M "C 2/M"
_symmetry_group_IT_number 12
_symmetry_cell_setting 'monoclinic'
loop_
_space_group_symop_operation_xyz
x,y,z
-x,y,-z
-x,-y,-z
x,-y,z
1/2+x,1/2+y,z
1/2-x,1/2+y,-z
1/2-x,1/2-y,-z
1/2+x,1/2-y,z
loop_
_atom_site_type_symbol
_atom_site_label
_atom_site_fract_x
_atom_site_fract_y
_atom_site_fract_z
Si Si1 0.066157 0.819397 0.645573
Si Si2 0.001151 0.675172 0.157713
Si Si3 0.201906 0.322166 0.285588
Si Si4 0.084639 0.678628 0.409079
Si Si5 0.290534 0.679078 0.860350
O O1 0.188015 0.754194 0.782700
O O2 0.000000 0.766730 0.500000
O O3 0.008169 0.753143 0.648533
O O4 0.070922 0.000000 0.656882
O O5 0.961217 0.500000 0.109869
O O6 0.087328 0.706818 0.193540
O O7 0.057064 0.715008 0.296164
O O8 0.897608 0.784496 0.029042
O O9 0.227346 0.500000 0.303840
O O10 0.297625 0.250943 0.442006
O O11 0.195111 0.244593 0.201702
O O12 0.089717 0.500000 0.431122
O O13 0.271568 0.500000 0.834132
#
# Coordination Sequence:
#
# PCOD8113327 Si02
#       5
#     8   8   8   8   8
#     4  11  23  41  66  91 120 162 206 250 306 372
#     4  10  24  43  62  90 129 167 203 248 307 368
#     4  11  22  40  65  91 125 168 207 248 302 366
#     4  11  23  40  65  95 125 160 205 257 305 358
#     4  12  25  40  64  94 124 161 207 259 306 357
#
# _framework density 19.974184999999999
#
# number of rings (size 3 to 8) (size 9 to 14) (size 15 to 20)
#    0.000    1.000    2.000    4.800    0.000    7.200 
#    0.000    0.000    0.000    0.000    0.000    0.000 
#    0.000    0.000    0.000    0.000    0.000    0.000 
#
# Total GULP energy -248154.896275 kJ/mol
# GULP energy per Si atom -12407.744814 kJ/mol
# Density = 1.992872 g / cm^3
# Si number density = 19.974185 Si / 1000 Ang^3
#
#
#
# Elastic Constant Matrix: (Units=GPa)
#
#
# Indices 1 2 3 4 5 6 
#
# 1 27.6358 25.3188 11.1223 0.0000 8.6039 0.0000
# 2 25.3188 100.3131 39.7664 0.0000 4.9482 0.0000
# 3 11.1223 39.7664 103.3150 0.0000 11.2609 0.0000
# 4 0.0000 0.0000 0.0000 37.5214 0.0000 -2.5650
# 5 8.6039 4.9482 11.2609 0.0000 28.3755 0.0000
# 6 0.0000 0.0000 0.0000 -2.5650 0.0000 21.6243
#
#
#
# Elastic Compliance Matrix: (Units=1/GPa)
#
#
# Indices 1 2 3 4 5 6 
#
# 1 0.051811 -0.012723 0.000826 0.000000 -0.013819 0.000000
# 2 -0.012723 0.014890 -0.004702 0.000000 0.003127 0.000000
# 3 0.000826 -0.004702 0.011851 0.000000 -0.004133 0.000000
# 4 0.000000 0.000000 0.000000 0.026869 0.000000 0.003187
# 5 -0.013819 0.003127 -0.004133 0.000000 0.040527 0.000000
# 6 0.000000 0.000000 0.000000 0.003187 0.000000 0.046622
#
#
# Mechanical properties :
#
#
# Convention : Reuss Voigt Hill
#
# Bulk Modulus (GPa) = 22.04943 42.63099 32.34021
# Shear Modulus (GPa) = 20.75668 27.84134 24.29901
#
# Velocity S-wave (km/s) = 3.22712 3.73750 3.49165
# Velocity P-wave (km/s) = 4.99487 6.32571 5.69927
#
# Compressibility (1/GPa) = 0.04535264
#
# Stress axis : x y z
#
# Youngs Moduli (GPa) = 19.30092 67.16002 84.38287
#
# Poissons Ratio (x) = 0.85445 -0.06966
# Poissons Ratio (y) = 0.24556 0.39680
# Poissons Ratio (z) = -0.01593 0.31581
#
# Static dielectric constant tensor:
#      x y z
#    x 3.777530 0.000000 0.036630 
#    y 0.000000 3.773040 0.000000 
#    z 0.036630 0.000000 3.831600 
# 
# 
# High freq. dielectric constant tensor:
#      x y z
#    x 1.792490 0.000000 0.004530 
#    y 0.000000 1.790880 0.000000 
#    z 0.004530 0.000000 1.790140 
# 
# From -- ./inp_files/162368.got.cif
#   From: 2010.06.25/outbox.cif.g09.slc.cpg/sg12_82_cif.got.tgz:162368.got - 2010.06.28 00:19:55.
