data_PCOD8113844
_publ_section_title
;
Structure prediction by ZEFSAII (Michael W. Deem and Ramdas Pophale) SiO2 
 PCOD8113844
Probable space group: C 2/M
;
_chemical_formula_sum "Si O2"
_cell_formula_units_Z 56
_cell_length_a 21.034513
_cell_length_b 18.609193
_cell_length_c 16.485741
_cell_angle_alpha 90.000000
_cell_angle_beta 154.799318
_cell_angle_gamma 90.000000
_cell_volume 2747.666347
_symmetry_space_group_name_H-M "C 2/M"
_symmetry_group_IT_number 12
_symmetry_cell_setting 'monoclinic'
loop_
_space_group_symop_operation_xyz
x,y,z
-x,y,-z
-x,-y,-z
x,-y,z
1/2+x,1/2+y,z
1/2-x,1/2+y,-z
1/2-x,1/2-y,-z
1/2+x,1/2-y,z
loop_
_atom_site_type_symbol
_atom_site_label
_atom_site_fract_x
_atom_site_fract_y
_atom_site_fract_z
Si Si1 0.945577 0.500000 0.071157
Si Si2 0.400204 0.776393 0.716329
Si Si3 0.710533 0.000000 0.275681
Si Si4 0.318801 0.360221 0.448543
Si Si5 0.680845 0.855018 0.003532
Si Si6 0.408846 0.585319 0.141597
Si Si7 0.928203 0.154825 0.998156
Si Si8 0.165102 0.760424 0.680008
O O1 0.884304 0.430712 0.045005
O O2 0.125482 0.500000 0.265862
O O3 0.896325 0.500000 0.922466
O O4 0.250000 0.750000 0.500000
O O5 0.346359 0.846361 0.704553
O O6 0.539943 0.801823 0.821062
O O7 0.454593 0.715236 0.839606
O O8 0.818039 0.068241 0.394154
O O9 0.443485 0.370886 0.661665
O O10 0.350849 0.294901 0.426711
O O11 0.773696 0.871934 0.029321
O O12 0.782776 0.818185 0.191073
O O13 0.412286 0.500000 0.166776
O O14 0.398994 0.594633 0.033170
O O15 0.771139 0.191909 0.797646
O O16 0.000000 0.118898 0.000000
O O17 0.000000 0.729617 0.500000
#
# Coordination Sequence:
#
# PCOD8113844 Si02
#       8
#     4   8   4   8   8   8   8   8
#     4  11  20  33  55  93 131 170 202 248 303 391
#     4  11  23  40  65  93 127 162 215 266 318 377
#     4  11  22  31  59  93 133 168 209 244 308 390
#     4  12  21  37  61  98 127 169 208 257 317 384
#     4  11  23  37  62  94 132 168 204 254 323 382
#     4  12  26  42  65  94 130 170 215 266 321 380
#     4  11  25  44  66  91 123 170 218 272 322 372
#     4  11  23  38  64  96 133 165 206 258 324 388
#
# _framework density 20.380932000000001
#
# number of rings (size 3 to 8) (size 9 to 14) (size 15 to 20)
#    0.000    0.714    8.571    0.000    0.000    3.714 
#    0.000    2.143    0.000    0.429    0.000    0.000 
#    0.000    0.000    0.000    0.000    0.000    0.000 
#
# Total GULP energy -346947.947787 kJ/mol
# GULP energy per Si atom -12390.998135 kJ/mol
# Density = 2.033454 g / cm^3
# Si number density = 20.380932 Si / 1000 Ang^3
#
#
#
# Elastic Constant Matrix: (Units=GPa)
#
#
# Indices 1 2 3 4 5 6 
#
# 1 120.2032 18.0632 32.7563 0.0000 5.9673 0.0000
# 2 18.0632 49.3615 22.6578 0.0000 -1.2225 0.0000
# 3 32.7563 22.6578 109.4823 0.0000 13.2064 0.0001
# 4 0.0000 0.0000 0.0000 28.3861 0.0000 1.1975
# 5 5.9673 -1.2225 13.2064 0.0000 30.6353 0.0000
# 6 0.0000 0.0000 0.0001 1.1975 0.0000 32.4947
#
#
#
# Elastic Compliance Matrix: (Units=1/GPa)
#
#
# Indices 1 2 3 4 5 6 
#
# 1 0.009325 -0.002442 -0.002166 0.000000 -0.000980 0.000000
# 2 -0.002442 0.023298 -0.004494 0.000000 0.003343 0.000000
# 3 -0.002166 -0.004494 0.011269 0.000000 -0.004615 0.000000
# 4 0.000000 0.000000 0.000000 0.035283 0.000000 -0.001300
# 5 -0.000980 0.003343 -0.004615 0.000000 0.034956 0.000000
# 6 0.000000 0.000000 0.000000 -0.001300 0.000000 0.030822
#
#
# Mechanical properties :
#
#
# Convention : Reuss Voigt Hill
#
# Bulk Modulus (GPa) = 38.93092 47.33353 43.13223
# Shear Modulus (GPa) = 29.11690 32.00787 30.56239
#
# Velocity S-wave (km/s) = 3.78383 3.96723 3.87661
# Velocity P-wave (km/s) = 6.18328 6.65282 6.42234
#
# Compressibility (1/GPa) = 0.02568652
#
# Stress axis : x y z
#
# Youngs Moduli (GPa) = 107.23547 42.92191 88.74008
#
# Poissons Ratio (x) = 0.10483 0.19225
# Poissons Ratio (y) = 0.26190 0.39881
# Poissons Ratio (z) = 0.23231 0.19290
#
# Static dielectric constant tensor:
#      x y z
#    x 3.880060 0.000000 0.294780 
#    y 0.000000 3.618780 0.000000 
#    z 0.294780 0.000000 3.881310 
# 
# 
# High freq. dielectric constant tensor:
#      x y z
#    x 1.794410 0.000000 0.018210 
#    y 0.000000 1.787360 0.000000 
#    z 0.018210 0.000000 1.795510 
# 
# From -- ./inp_files/227681.got.cif
#   From: 2010.06.25/outbox.cif.g09.slc.cpg/sg12_114_cif.got.tgz:227681.got - 2010.06.28 00:19:55.
