data_PCOD8113854
_publ_section_title
;
Structure prediction by ZEFSAII (Michael W. Deem and Ramdas Pophale) SiO2 
 PCOD8113854
Probable space group: C 2/M
;
_chemical_formula_sum "Si O2"
_cell_formula_units_Z 64
_cell_length_a 29.278657
_cell_length_b 21.265882
_cell_length_c 12.491964
_cell_angle_alpha 90.000000
_cell_angle_beta 153.599113
_cell_angle_gamma 90.000000
_cell_volume 3458.459070
_symmetry_space_group_name_H-M "C 2/M"
_symmetry_group_IT_number 12
_symmetry_cell_setting 'monoclinic'
loop_
_space_group_symop_operation_xyz
x,y,z
-x,y,-z
-x,-y,-z
x,-y,z
1/2+x,1/2+y,z
1/2-x,1/2+y,-z
1/2-x,1/2-y,-z
1/2+x,1/2-y,z
loop_
_atom_site_type_symbol
_atom_site_label
_atom_site_fract_x
_atom_site_fract_y
_atom_site_fract_z
Si Si1 0.433614 0.779982 0.755235
Si Si2 0.891535 0.072677 0.497091
Si Si3 0.186906 0.849411 0.861576
Si Si4 0.113810 0.282656 0.756064
Si Si5 0.226206 0.848478 0.324768
Si Si6 0.627463 0.572630 0.943447
Si Si7 0.690098 0.347915 0.491672
Si Si8 0.873312 0.723358 0.967824
O O1 0.346352 0.832926 0.567212
O O2 0.383264 0.711667 0.647337
O O3 0.500000 0.789826 0.000000
O O4 0.507132 0.789354 0.806945
O O5 0.827321 0.111856 0.276295
O O6 0.857604 0.093908 0.543983
O O7 0.011538 0.085603 0.735282
O O8 0.864301 0.000000 0.424796
O O9 0.122975 0.784618 0.716465
O O10 0.147941 0.889386 0.878974
O O11 0.307256 0.832642 0.129465
O O12 0.000000 0.309849 0.500000
O O13 0.143277 0.272493 0.941085
O O14 0.197355 0.868943 0.384050
O O15 0.157008 0.788902 0.149795
O O16 0.202475 0.905949 0.195956
O O17 0.648156 0.500000 0.962356
O O18 0.803791 0.332014 0.773200
#
# Coordination Sequence:
#
# PCOD8113854 Si02
#       8
#     8   8   8   8   8   8   8   8
#     4  11  20  33  60  88 116 157 185 229 297 355
#     4  11  24  41  62  83 112 160 202 240 287 339
#     4  11  23  41  60  87 122 152 192 242 290 353
#     4  11  24  35  61  97 121 150 183 239 305 349
#     4  11  22  37  57  90 122 151 194 239 289 347
#     4  11  24  40  61  85 114 156 199 243 288 336
#     4  11  22  36  58  88 122 152 192 241 284 346
#     4  11  20  37  55  88 123 153 188 229 300 356
#
# _framework density 18.505351000000001
#
# number of rings (size 3 to 8) (size 9 to 14) (size 15 to 20)
#    0.000    1.000    5.000    3.000    3.500    1.500 
#    0.000    1.250    0.000    4.125    0.000    0.000 
#    0.000    0.000    0.000    0.000    0.000    0.000 
#
# Total GULP energy -396980.491443 kJ/mol
# GULP energy per Si atom -12405.640358 kJ/mol
# Density = 1.846323 g / cm^3
# Si number density = 18.505351 Si / 1000 Ang^3
#
#
#
# Elastic Constant Matrix: (Units=GPa)
#
#
# Indices 1 2 3 4 5 6 
#
# 1 86.1565 27.4328 19.1770 0.0000 6.4691 0.0000
# 2 27.4328 79.6971 33.0539 0.0000 6.2961 0.0000
# 3 19.1770 33.0539 86.6856 0.0000 11.9025 0.0000
# 4 0.0000 0.0000 0.0000 16.5454 0.0000 4.4352
# 5 6.4691 6.2961 11.9025 0.0000 39.3900 0.0000
# 6 0.0000 0.0000 0.0000 4.4352 0.0000 21.8637
#
#
#
# Elastic Compliance Matrix: (Units=1/GPa)
#
#
# Indices 1 2 3 4 5 6 
#
# 1 0.013229 -0.003937 -0.001266 0.000000 -0.001161 0.000000
# 2 -0.003937 0.016094 -0.005218 0.000000 -0.000349 0.000000
# 3 -0.001266 -0.005218 0.014254 0.000000 -0.003265 0.000000
# 4 0.000000 0.000000 0.000000 0.063915 0.000000 -0.012966
# 5 -0.001161 -0.000349 -0.003265 0.000000 0.026620 0.000000
# 6 0.000000 0.000000 0.000000 -0.012966 0.000000 0.048368
#
#
# Mechanical properties :
#
#
# Convention : Reuss Voigt Hill
#
# Bulk Modulus (GPa) = 43.98372 45.76297 44.87335
# Shear Modulus (GPa) = 23.70772 27.08485 25.39629
#
# Velocity S-wave (km/s) = 3.58317 3.82988 3.70858
# Velocity P-wave (km/s) = 6.39832 6.65887 6.52990
#
# Compressibility (1/GPa) = 0.02273568
#
# Stress axis : x y z
#
# Youngs Moduli (GPa) = 75.58987 62.13355 70.15560
#
# Poissons Ratio (x) = 0.24461 0.08882
# Poissons Ratio (y) = 0.29759 0.36607
# Poissons Ratio (z) = 0.09570 0.32421
#
# Static dielectric constant tensor:
#      x y z
#    x 3.642660 0.000000 0.080130 
#    y 0.000000 3.208490 0.000000 
#    z 0.080130 0.000000 3.531530 
# 
# 
# High freq. dielectric constant tensor:
#      x y z
#    x 1.737890 0.000000 0.000270 
#    y 0.000000 1.687640 0.000000 
#    z 0.000270 0.000000 1.723890 
# 
# From -- ./inp_files/184679.got.cif
#   From: 2010.06.25/outbox.cif.g09.slc.cpg/sg12_93_cif.got.tgz:184679.got - 2010.06.28 00:19:55.
