data_PCOD8113348
_publ_section_title
;
Structure prediction by ZEFSAII (Michael W. Deem and Ramdas Pophale) SiO2 
 PCOD8113348
Probable space group: C 2/M
;
_chemical_formula_sum "Si O2"
_cell_formula_units_Z 64
_cell_length_a 29.717331
_cell_length_b 18.938453
_cell_length_c 9.415821
_cell_angle_alpha 90.000000
_cell_angle_beta 35.119668
_cell_angle_gamma 90.000000
_cell_volume 3048.571256
_symmetry_space_group_name_H-M "C 2/M"
_symmetry_group_IT_number 12
_symmetry_cell_setting 'monoclinic'
loop_
_space_group_symop_operation_xyz
x,y,z
-x,y,-z
-x,-y,-z
x,-y,z
1/2+x,1/2+y,z
1/2-x,1/2+y,-z
1/2-x,1/2-y,-z
1/2+x,1/2-y,z
loop_
_atom_site_type_symbol
_atom_site_label
_atom_site_fract_x
_atom_site_fract_y
_atom_site_fract_z
Si Si1 0.828344 0.672618 0.350288
Si Si2 0.216646 0.790363 0.874804
Si Si3 0.772898 0.655641 0.999023
Si Si4 0.742308 0.579814 0.348735
Si Si5 0.453873 0.829444 0.480561
Si Si6 0.929591 0.423160 0.285315
Si Si7 0.425917 0.420301 0.091003
Si Si8 0.072025 0.779712 0.078292
O O1 0.750536 0.701435 0.628065
O O2 0.802669 0.629606 0.277246
O O3 0.864383 0.624758 0.380914
O O4 0.888516 0.733853 0.150232
O O5 0.231164 0.853815 0.952086
O O6 0.124360 0.778532 0.086758
O O7 0.261231 0.723169 0.827730
O O8 0.862870 0.674744 0.745272
O O9 0.756296 0.588778 0.142858
O O10 0.763651 0.500000 0.334140
O O11 0.652568 0.596504 0.618171
O O12 0.500000 0.855434 0.500000
O O13 0.466806 0.888685 0.328641
O O14 0.488521 0.754582 0.334056
O O15 0.892655 0.500000 0.418880
O O16 0.000000 0.435510 0.000000
O O17 0.421325 0.500000 0.037230
O O18 0.437501 0.361579 0.939896
O O19 0.500000 0.414356 0.000000
#
# Coordination Sequence:
#
# PCOD8113348 Si02
#       8
#     8   8   8   8   8   8   8   8
#     4  12  21  41  67  99 124 166 231 271 321 385
#     4  11  22  39  64  90 128 162 216 279 316 372
#     4  11  24  41  60  96 135 171 214 264 317 391
#     4  11  23  43  68  96 136 175 212 267 329 389
#     4  12  24  42  62  96 134 172 221 259 320 396
#     4  11  25  43  62  92 134 173 217 272 319 377
#     4  10  24  43  67 100 130 164 215 271 335 395
#     4  12  23  40  69  96 128 171 215 278 329 379
#
# _framework density 20.99344
#
# number of rings (size 3 to 8) (size 9 to 14) (size 15 to 20)
#    0.000    0.750    6.250    1.500    1.750    2.750 
#    0.000    0.625    0.000    0.375    0.000    0.000 
#    0.000    0.000    0.000    0.000    0.000    0.000 
#
# Total GULP energy -396718.457726 kJ/mol
# GULP energy per Si atom -12397.451804 kJ/mol
# Density = 2.094566 g / cm^3
# Si number density = 20.993440 Si / 1000 Ang^3
#
#
#
# Elastic Constant Matrix: (Units=GPa)
#
#
# Indices 1 2 3 4 5 6 
#
# 1 105.7808 39.1005 25.6688 0.0000 11.8879 0.0000
# 2 39.1005 105.4635 33.7366 0.0000 5.1376 0.0000
# 3 25.6688 33.7366 84.0597 0.0000 5.2917 0.0000
# 4 0.0000 0.0000 0.0000 30.7049 0.0000 7.3381
# 5 11.8879 5.1376 5.2917 0.0000 38.0151 0.0000
# 6 0.0000 0.0000 0.0000 7.3381 0.0000 24.7919
#
#
#
# Elastic Compliance Matrix: (Units=1/GPa)
#
#
# Indices 1 2 3 4 5 6 
#
# 1 0.011547 -0.003523 -0.001931 0.000000 -0.002866 0.000000
# 2 -0.003523 0.011982 -0.003733 0.000000 0.000002 0.000000
# 3 -0.001931 -0.003733 0.014038 0.000000 -0.000846 0.000000
# 4 0.000000 0.000000 0.000000 0.035047 0.000000 -0.010374
# 5 -0.002866 0.000002 -0.000846 0.000000 0.027319 0.000000
# 6 0.000000 0.000000 0.000000 -0.010374 0.000000 0.043406
#
#
# Mechanical properties :
#
#
# Convention : Reuss Voigt Hill
#
# Bulk Modulus (GPa) = 52.10925 54.70175 53.40550
# Shear Modulus (GPa) = 29.74205 31.82224 30.78215
#
# Velocity S-wave (km/s) = 3.76803 3.89758 3.83335
# Velocity P-wave (km/s) = 6.61863 6.80940 6.71470
#
# Compressibility (1/GPa) = 0.01919045
#
# Stress axis : x y z
#
# Youngs Moduli (GPa) = 86.60512 83.45579 71.23717
#
# Poissons Ratio (x) = 0.29405 0.13759
# Poissons Ratio (y) = 0.30515 0.26594
# Poissons Ratio (z) = 0.16727 0.31156
#
# Static dielectric constant tensor:
#      x y z
#    x 4.028300 0.000000 0.154680 
#    y 0.000000 4.075810 0.000000 
#    z 0.154680 0.000000 3.852480 
# 
# 
# High freq. dielectric constant tensor:
#      x y z
#    x 1.829550 0.000000 0.002140 
#    y 0.000000 1.813700 0.000000 
#    z 0.002140 0.000000 1.821550 
# 
# From -- ./inp_files/112840.got.cif
#   From: 2010.06.25/outbox.cif.g09.slc.cpg/sg12_57_cif.got.tgz:112840.got - 2010.06.28 00:19:55.
