data_PCOD8113392
_publ_section_title
;
Structure prediction by ZEFSAII (Michael W. Deem and Ramdas Pophale) SiO2 
 PCOD8113392
Probable space group: C 2/M
;
_chemical_formula_sum "Si O2"
_cell_formula_units_Z 44
_cell_length_a 13.073081
_cell_length_b 27.117792
_cell_length_c 9.263326
_cell_angle_alpha 90.000000
_cell_angle_beta 41.333065
_cell_angle_gamma 90.000000
_cell_volume 2168.849302
_symmetry_space_group_name_H-M "C 2/M"
_symmetry_group_IT_number 12
_symmetry_cell_setting 'monoclinic'
loop_
_space_group_symop_operation_xyz
x,y,z
-x,y,-z
-x,-y,-z
x,-y,z
1/2+x,1/2+y,z
1/2-x,1/2+y,-z
1/2-x,1/2-y,-z
1/2+x,1/2-y,z
loop_
_atom_site_type_symbol
_atom_site_label
_atom_site_fract_x
_atom_site_fract_y
_atom_site_fract_z
Si Si1 0.170432 0.102896 0.314364
Si Si2 0.168572 0.160808 0.813109
Si Si3 0.960625 0.500000 0.794430
Si Si4 0.733339 0.000000 0.706350
Si Si5 0.136948 0.663313 0.671817
Si Si6 0.357859 0.897376 0.838642
Si Si7 0.500000 0.753266 0.000000
O O1 0.295750 0.137606 0.257303
O O2 0.000000 0.126583 0.500000
O O3 0.163214 0.049374 0.399600
O O4 0.215940 0.099532 0.099350
O O5 0.225183 0.168550 0.589117
O O6 0.299406 0.129867 0.757038
O O7 0.138883 0.216376 0.908436
O O8 0.000000 0.132976 0.000000
O O9 0.916776 0.452791 0.743186
O O10 0.140375 0.500000 0.652694
O O11 0.873921 0.500000 0.039322
O O12 0.000992 0.631108 0.752169
O O13 0.063761 0.715279 0.798029
#
# Coordination Sequence:
#
# PCOD8113392 Si02
#       7
#     8   8   4   4   8   8   4
#     4  11  21  35  63  95 132 161 211 259 315 367
#     4  10  25  43  62  91 133 160 209 266 318 369
#     4   9  18  34  65  91 130 161 216 247 306 378
#     4   9  17  34  57  96 125 171 199 265 297 376
#     4  12  21  43  66  93 123 169 210 259 315 381
#     4  11  21  41  64  95 125 170 210 256 313 378
#     4  10  24  44  68  88 126 162 224 260 316 372
#
# _framework density 20.287254999999998
#
# number of rings (size 3 to 8) (size 9 to 14) (size 15 to 20)
#    0.545    0.909    3.636    2.455    0.000    0.727 
#    0.000    3.182    0.000    0.000    0.000    0.000 
#    0.000    0.000    0.000    0.000    0.000    0.000 
#
# Total GULP energy -272683.534887 kJ/mol
# GULP energy per Si atom -12394.706131 kJ/mol
# Density = 2.024108 g / cm^3
# Si number density = 20.287255 Si / 1000 Ang^3
#
#
#
# Elastic Constant Matrix: (Units=GPa)
#
#
# Indices 1 2 3 4 5 6 
#
# 1 85.8229 41.0985 15.8643 0.0000 -5.1499 0.0000
# 2 41.0985 126.0477 7.4617 0.0000 4.4995 0.0000
# 3 15.8643 7.4617 81.5118 0.0000 2.0422 0.0000
# 4 0.0000 0.0000 0.0000 4.6048 0.0000 0.1691
# 5 -5.1499 4.4995 2.0422 0.0000 30.5624 0.0000
# 6 0.0000 0.0000 0.0000 0.1691 0.0000 48.9207
#
#
#
# Elastic Compliance Matrix: (Units=1/GPa)
#
#
# Indices 1 2 3 4 5 6 
#
# 1 0.014572 -0.004723 -0.002487 0.000000 0.003317 0.000000
# 2 -0.004723 0.009546 0.000101 0.000000 -0.002208 0.000000
# 3 -0.002487 0.000101 0.012775 0.000000 -0.001288 0.000000
# 4 0.000000 0.000000 0.000000 0.217193 0.000000 -0.000751
# 5 0.003317 -0.002208 -0.001288 0.000000 0.033690 0.000000
# 6 0.000000 0.000000 0.000000 -0.000751 0.000000 0.020444
#
#
# Mechanical properties :
#
#
# Convention : Reuss Voigt Hill
#
# Bulk Modulus (GPa) = 44.09980 46.91459 45.50720
# Shear Modulus (GPa) = 15.15169 32.08143 23.61656
#
# Velocity S-wave (km/s) = 2.73583 3.98094 3.41560
# Velocity P-wave (km/s) = 5.63601 6.65627 6.16727
#
# Compressibility (1/GPa) = 0.02267584
#
# Stress axis : x y z
#
# Youngs Moduli (GPa) = 68.62414 104.75414 78.27645
#
# Poissons Ratio (x) = 0.49470 0.19467
# Poissons Ratio (y) = 0.32408 -0.00787
# Poissons Ratio (z) = 0.17066 -0.01053
#
# Static dielectric constant tensor:
#      x y z
#    x 3.432620 0.000000 -0.046600 
#    y 0.000000 3.798870 0.000000 
#    z -0.046600 0.000000 3.671440 
# 
# 
# High freq. dielectric constant tensor:
#      x y z
#    x 1.773550 0.000000 -0.011660 
#    y 0.000000 1.792200 0.000000 
#    z -0.011660 0.000000 1.793990 
# 
# From -- ./inp_files/53034.got.cif
#   From: 2010.06.25/outbox.cif.g09.slc.cpg/sg12_27_cif.got.tgz:53034.got - 2010.06.28 00:19:55.
