data_PCOD8113572
_publ_section_title
;
Structure prediction by ZEFSAII (Michael W. Deem and Ramdas Pophale) SiO2 
 PCOD8113572
Probable space group: C 2/M
;
_chemical_formula_sum "Si O2"
_cell_formula_units_Z 48
_cell_length_a 19.978515
_cell_length_b 18.787016
_cell_length_c 13.819086
_cell_angle_alpha 90.000000
_cell_angle_beta 151.415887
_cell_angle_gamma 90.000000
_cell_volume 2481.620844
_symmetry_space_group_name_H-M "C 2/M"
_symmetry_group_IT_number 12
_symmetry_cell_setting 'monoclinic'
loop_
_space_group_symop_operation_xyz
x,y,z
-x,y,-z
-x,-y,-z
x,-y,z
1/2+x,1/2+y,z
1/2-x,1/2+y,-z
1/2-x,1/2-y,-z
1/2+x,1/2-y,z
loop_
_atom_site_type_symbol
_atom_site_label
_atom_site_fract_x
_atom_site_fract_y
_atom_site_fract_z
Si Si1 0.508535 0.582196 0.621295
Si Si2 0.146081 0.781394 0.139497
Si Si3 0.646293 0.789797 0.444362
Si Si4 0.485242 0.922935 0.824227
Si Si5 0.626482 0.296328 0.888471
Si Si6 0.197960 0.384699 0.231961
O O1 0.500000 0.609388 0.500000
O O2 0.554139 0.500000 0.686882
O O3 0.620140 0.627140 0.826730
O O4 0.352063 0.593780 0.460848
O O5 0.269070 0.819648 0.355703
O O6 0.172318 0.699121 0.195452
O O7 0.153914 0.803886 0.037839
O O8 0.000000 0.805715 0.000000
O O9 0.750000 0.750000 0.500000
O O10 0.565564 0.858580 0.305044
O O11 0.525697 0.736336 0.324668
O O12 0.396555 0.921711 0.808676
O O13 0.467685 0.000000 0.750099
O O14 0.649150 0.913819 0.064128
O O15 0.750000 0.250000 0.000000
#
# Coordination Sequence:
#
# PCOD8113572 Si02
#       6
#     8   8   8   8   8   8
#     4  11  24  40  61  89 125 161 197 249 315 371
#     4  12  21  38  64  90 123 164 212 256 305 367
#     4  12  21  39  63  87 123 167 209 252 303 371
#     4  11  21  33  57  93 124 153 198 255 310 358
#     4  12  25  40  63  94 126 161 208 256 304 371
#     4  11  17  35  58  89 121 153 198 254 305 359
#
# _framework density 19.342196000000001
#
# number of rings (size 3 to 8) (size 9 to 14) (size 15 to 20)
#    0.000    0.500    8.333    3.000    0.000    0.000 
#    0.000    0.833    0.000    1.000    0.000    2.333 
#    0.000    0.000    0.000    0.000    0.000    0.000 
#
# Total GULP energy -297424.379220 kJ/mol
# GULP energy per Si atom -12392.682468 kJ/mol
# Density = 1.929817 g / cm^3
# Si number density = 19.342196 Si / 1000 Ang^3
#
#
#
# Elastic Constant Matrix: (Units=GPa)
#
#
# Indices 1 2 3 4 5 6 
#
# 1 89.7162 13.3460 38.1546 0.0000 -12.3675 0.0000
# 2 13.3460 96.0431 25.0532 0.0000 -10.8797 0.0000
# 3 38.1546 25.0532 113.5032 0.0000 -17.9921 0.0000
# 4 0.0000 0.0000 0.0000 13.7224 0.0000 -17.2645
# 5 -12.3675 -10.8797 -17.9921 0.0000 37.7961 0.0000
# 6 0.0000 0.0000 0.0000 -17.2645 0.0000 14.9165
#
#
#
# Elastic Compliance Matrix: (Units=1/GPa)
#
#
# Indices 1 2 3 4 5 6 
#
# 1 0.013228 -0.000545 -0.003964 0.000000 0.002284 0.000000
# 2 -0.000545 0.011240 -0.001961 0.000000 0.002123 0.000000
# 3 -0.003964 -0.001961 0.011120 0.000000 0.003432 0.000000
# 4 0.000000 0.000000 0.000000 -0.159755 0.000000 -0.184902
# 5 0.002284 0.002123 0.003432 0.000000 0.029450 0.000000
# 6 0.000000 0.000000 0.000000 -0.184902 0.000000 -0.146967
#
#
# Mechanical properties :
#
#
# Convention : Reuss Voigt Hill
#
# Bulk Modulus (GPa) = 44.15664 50.26336 47.21000
# Shear Modulus (GPa) = -22.60464 28.13424 2.76480
#
# Velocity S-wave (km/s) = -3.42229 3.81800 1.19688
# Velocity P-wave (km/s) = 2.69493 6.74381 5.13525
#
# Compressibility (1/GPa) = 0.02264665
#
# Stress axis : x y z
#
# Youngs Moduli (GPa) = 75.59600 88.96916 89.93001
#
# Poissons Ratio (x) = 0.04852 0.35650
# Poissons Ratio (y) = 0.04122 0.17636
# Poissons Ratio (z) = 0.29968 0.17447
#
# Static dielectric constant tensor:
#      x y z
#    x 3.516450 0.000000 -0.016260 
#    y 0.000000 3.483630 0.000000 
#    z -0.016260 0.000000 4.112100 
# 
# 
# High freq. dielectric constant tensor:
#      x y z
#    x 1.736850 0.000000 0.008910 
#    y 0.000000 1.737650 0.000000 
#    z 0.008910 0.000000 1.767030 
# 
# From -- ./inp_files/234343.got.cif
#   From: 2010.06.25/outbox.cif.g09.slc.cpg/sg12_118_cif.got.tgz:234343.got - 2010.06.28 00:19:55.
