data_PCOD8113641
_publ_section_title
;
Structure prediction by ZEFSAII (Michael W. Deem and Ramdas Pophale) SiO2 
 PCOD8113641
Probable space group: C 2/M
;
_chemical_formula_sum "Si O2"
_cell_formula_units_Z 48
_cell_length_a 17.511834
_cell_length_b 13.590228
_cell_length_c 21.080729
_cell_angle_alpha 90.000000
_cell_angle_beta 145.055977
_cell_angle_gamma 90.000000
_cell_volume 2873.615846
_symmetry_space_group_name_H-M "C 2/M"
_symmetry_group_IT_number 12
_symmetry_cell_setting 'monoclinic'
loop_
_space_group_symop_operation_xyz
x,y,z
-x,y,-z
-x,-y,-z
x,-y,z
1/2+x,1/2+y,z
1/2-x,1/2+y,-z
1/2-x,1/2-y,-z
1/2+x,1/2-y,z
loop_
_atom_site_type_symbol
_atom_site_label
_atom_site_fract_x
_atom_site_fract_y
_atom_site_fract_z
Si Si1 0.282174 0.109532 0.036137
Si Si2 0.926106 0.111577 0.215126
Si Si3 0.547344 0.384102 0.627296
Si Si4 0.292323 0.383956 0.382083
Si Si5 0.027642 0.886935 0.945052
Si Si6 0.538615 0.755062 0.204529
O O1 0.396472 0.190380 0.112640
O O2 0.344016 0.000000 0.083643
O O3 0.206447 0.119121 0.917347
O O4 0.181612 0.126795 0.027262
O O5 0.903409 0.153506 0.270634
O O6 0.043814 0.174591 0.263831
O O7 0.977816 0.000000 0.254670
O O8 0.558741 0.500000 0.628917
O O9 0.393761 0.354575 0.507926
O O10 0.646274 0.341586 0.641519
O O11 0.266164 0.500000 0.362305
O O12 0.152086 0.332494 0.295987
O O13 0.942695 0.805225 0.848616
O O14 0.984533 0.000000 0.899537
O O15 0.000000 0.865230 0.000000
#
# Coordination Sequence:
#
# PCOD8113641 Si02
#       6
#     8   8   8   8   8   8
#     4   9  18  31  45  66  95 121 146 180 224 268
#     4   9  17  30  47  64  86 120 154 182 215 259
#     4   8  16  33  50  62  85 119 153 185 217 264
#     4   9  18  31  47  68  91 117 147 181 225 270
#     4   9  18  32  47  63  89 126 159 180 207 259
#     4  11  19  27  46  72  95 115 142 187 231 264
#
# _framework density 16.703693999999999
#
# number of rings (size 3 to 8) (size 9 to 14) (size 15 to 20)
#    0.000    2.833    0.000    5.000    0.000    3.333 
#    0.000    0.000    0.000    5.000    0.000    9.333 
#    0.000    0.000    0.000    0.000    0.000    0.000 
#
# Total GULP energy -297344.724006 kJ/mol
# GULP energy per Si atom -12389.363500 kJ/mol
# Density = 1.666568 g / cm^3
# Si number density = 16.703694 Si / 1000 Ang^3
#
#
#
# Elastic Constant Matrix: (Units=GPa)
#
#
# Indices 1 2 3 4 5 6 
#
# 1 93.4388 26.6069 49.8350 0.0000 -15.7363 0.0000
# 2 26.6069 65.5355 24.4982 0.0000 2.8729 0.0000
# 3 49.8350 24.4982 67.0697 0.0000 2.9057 0.0000
# 4 0.0000 0.0000 0.0000 18.4465 0.0000 2.0334
# 5 -15.7363 2.8729 2.9057 0.0000 24.7439 0.0000
# 6 0.0000 0.0000 0.0000 2.0334 0.0000 21.1345
#
#
#
# Elastic Compliance Matrix: (Units=1/GPa)
#
#
# Indices 1 2 3 4 5 6 
#
# 1 0.023965 -0.004127 -0.017067 0.000000 0.017724 0.000000
# 2 -0.004127 0.018424 -0.003475 0.000000 -0.004355 0.000000
# 3 -0.017067 -0.003475 0.029463 0.000000 -0.013911 0.000000
# 4 0.000000 0.000000 0.000000 0.054792 0.000000 -0.005272
# 5 0.017724 -0.004355 -0.013911 0.000000 0.053825 0.000000
# 6 0.000000 0.000000 0.000000 -0.005272 0.000000 0.047823
#
#
# Mechanical properties :
#
#
# Convention : Reuss Voigt Hill
#
# Bulk Modulus (GPa) = 44.41485 47.54713 45.98099
# Shear Modulus (GPa) = 17.53553 21.20524 19.37039
#
# Velocity S-wave (km/s) = 3.24358 3.56686 3.40905
# Velocity P-wave (km/s) = 6.37772 6.74464 6.56374
#
# Compressibility (1/GPa) = 0.02251499
#
# Stress axis : x y z
#
# Youngs Moduli (GPa) = 41.72750 54.27664 33.94043
#
# Poissons Ratio (x) = 0.22397 0.57927
# Poissons Ratio (y) = 0.17219 0.11794
# Poissons Ratio (z) = 0.71218 0.18860
#
# Static dielectric constant tensor:
#      x y z
#    x 3.307490 0.000000 -0.258810 
#    y 0.000000 3.224500 0.000000 
#    z -0.258810 0.000000 2.995030 
# 
# 
# High freq. dielectric constant tensor:
#      x y z
#    x 1.642020 0.000000 -0.011770 
#    y 0.000000 1.642880 0.000000 
#    z -0.011770 0.000000 1.618170 
# 
# From -- ./inp_files/188988.got.cif
#   From: 2010.06.25/outbox.cif.g09.slc.cpg/sg12_95_cif.got.tgz:188988.got - 2010.06.28 00:19:55.
