data_PCOD8113457
_publ_section_title
;
Structure prediction by ZEFSAII (Michael W. Deem and Ramdas Pophale) SiO2 
 PCOD8113457
Probable space group: C 2/M
;
_chemical_formula_sum "Si O2"
_cell_formula_units_Z 36
_cell_length_a 8.737094
_cell_length_b 25.476435
_cell_length_c 11.728399
_cell_angle_alpha 90.000000
_cell_angle_beta 141.139627
_cell_angle_gamma 90.000000
_cell_volume 1637.970133
_symmetry_space_group_name_H-M "C 2/M"
_symmetry_group_IT_number 12
_symmetry_cell_setting 'monoclinic'
loop_
_space_group_symop_operation_xyz
x,y,z
-x,y,-z
-x,-y,-z
x,-y,z
1/2+x,1/2+y,z
1/2-x,1/2+y,-z
1/2-x,1/2-y,-z
1/2+x,1/2-y,z
loop_
_atom_site_type_symbol
_atom_site_label
_atom_site_fract_x
_atom_site_fract_y
_atom_site_fract_z
Si Si1 0.116008 0.000000 0.941917
Si Si2 0.748779 0.102896 0.422917
Si Si3 0.347349 0.888426 0.023623
Si Si4 0.067527 0.817457 0.312473
Si Si5 0.700200 0.000000 0.520810
Si Si6 0.000000 0.246481 0.500000
O O1 0.255891 0.055029 0.012815
O O2 0.951593 0.000000 0.733618
O O3 0.000000 0.000000 0.000000
O O4 0.775159 0.133201 0.556652
O O5 0.663209 0.046134 0.409937
O O6 0.000000 0.100159 0.500000
O O7 0.538485 0.132198 0.228807
O O8 0.148509 0.841619 0.891809
O O9 0.500000 0.899431 0.000000
O O10 0.249793 0.779828 0.349371
O O11 0.971599 0.788809 0.370956
O O12 0.500000 0.000000 0.500000
#
# Coordination Sequence:
#
# PCOD8113457 Si02
#       6
#     4   8   8   8   4   4
#     4  12  25  42  63 107 145 176 224 273 329 405
#     4  12  23  43  70  98 138 183 222 268 334 408
#     4  12  23  43  70 101 138 182 226 271 331 412
#     4  11  23  46  70  98 135 172 232 278 350 396
#     4  12  25  42  63 101 145 181 219 272 328 396
#     4  10  24  46  72  98 132 174 224 306 336 402
#
# _framework density 21.978421999999998
#
# number of rings (size 3 to 8) (size 9 to 14) (size 15 to 20)
#    0.000    0.444    5.556    2.667    1.556    1.778 
#    0.000   12.222    0.000    0.000    0.000    0.000 
#    0.000    0.000    0.000    0.000    0.000    0.000 
#
# Total GULP energy -223067.173534 kJ/mol
# GULP energy per Si atom -12392.620752 kJ/mol
# Density = 2.192840 g / cm^3
# Si number density = 21.978422 Si / 1000 Ang^3
#
#
#
# Elastic Constant Matrix: (Units=GPa)
#
#
# Indices 1 2 3 4 5 6 
#
# 1 86.7347 43.5498 33.6342 0.0000 13.6009 0.0000
# 2 43.5498 121.3368 36.2259 0.0000 15.3032 0.0000
# 3 33.6342 36.2259 171.8834 0.0000 8.3996 0.0000
# 4 0.0000 0.0000 0.0000 -2.2243 0.0000 15.7324
# 5 13.6009 15.3032 8.3996 0.0000 28.2645 0.0000
# 6 0.0000 0.0000 0.0000 15.7324 0.0000 28.7084
#
#
#
# Elastic Compliance Matrix: (Units=1/GPa)
#
#
# Indices 1 2 3 4 5 6 
#
# 1 0.015094 -0.004319 -0.001829 0.000000 -0.004381 0.000000
# 2 -0.004319 0.010570 -0.001222 0.000000 -0.003282 0.000000
# 3 -0.001829 -0.001222 0.006452 0.000000 -0.000375 0.000000
# 4 0.000000 0.000000 0.000000 -0.092203 0.000000 0.050527
# 5 -0.004381 -0.003282 -0.000375 0.000000 0.039377 0.000000
# 6 0.000000 0.000000 0.000000 0.050527 0.000000 0.007144
#
#
# Mechanical properties :
#
#
# Convention : Reuss Voigt Hill
#
# Bulk Modulus (GPa) = 57.55194 67.41941 62.48568
# Shear Modulus (GPa) = 717.62102 28.71940 373.17021
#
# Velocity S-wave (km/s) = 18.08924 3.61876 13.04446
# Velocity P-wave (km/s) = 21.50666 6.94280 15.98028
#
# Compressibility (1/GPa) = 0.01737561
#
# Stress axis : x y z
#
# Youngs Moduli (GPa) = 66.24985 94.60327 154.99520
#
# Poissons Ratio (x) = 0.40858 0.28354
# Poissons Ratio (y) = 0.28612 0.18946
# Poissons Ratio (z) = 0.12119 0.11564
#
# Static dielectric constant tensor:
#      x y z
#    x 4.003100 0.000000 0.218410 
#    y 0.000000 4.120460 0.000000 
#    z 0.218410 0.000000 4.080110 
# 
# 
# High freq. dielectric constant tensor:
#      x y z
#    x 1.865840 0.000000 -0.000150 
#    y 0.000000 1.876610 0.000000 
#    z -0.000150 0.000000 1.875230 
# 
# From -- ./inp_files/124023.got.cif
#   From: 2010.06.25/outbox.cif.g09.slc.cpg/sg12_63_cif.got.tgz:124023.got - 2010.06.28 00:19:55.
