data_PCOD8113428
_publ_section_title
;
Structure prediction by ZEFSAII (Michael W. Deem and Ramdas Pophale) SiO2 
 PCOD8113428
Probable space group: C 2/M
;
_chemical_formula_sum "Si O2"
_cell_formula_units_Z 56
_cell_length_a 14.240397
_cell_length_b 14.141000
_cell_length_c 13.663435
_cell_angle_alpha 90.000000
_cell_angle_beta 88.344747
_cell_angle_gamma 90.000000
_cell_volume 2750.304984
_symmetry_space_group_name_H-M "C 2/M"
_symmetry_group_IT_number 12
_symmetry_cell_setting 'monoclinic'
loop_
_space_group_symop_operation_xyz
x,y,z
-x,y,-z
-x,-y,-z
x,-y,z
1/2+x,1/2+y,z
1/2-x,1/2+y,-z
1/2-x,1/2-y,-z
1/2+x,1/2-y,z
loop_
_atom_site_type_symbol
_atom_site_label
_atom_site_fract_x
_atom_site_fract_y
_atom_site_fract_z
Si Si1 0.254877 0.154312 0.060269
Si Si2 0.760419 0.391946 0.460853
Si Si3 0.649786 0.890133 0.748751
Si Si4 0.465837 0.228875 0.760626
Si Si5 0.102057 0.253100 0.449705
Si Si6 0.956036 0.893250 0.900789
Si Si7 0.417903 0.897251 0.932045
O O1 0.302008 0.167014 0.164880
O O2 0.155487 0.106474 0.081369
O O3 0.250000 0.250000 0.000000
O O4 0.321629 0.087705 0.993645
O O5 0.746038 0.500000 0.494538
O O6 0.782237 0.384484 0.345662
O O7 0.847646 0.350152 0.519626
O O8 0.664579 0.335103 0.485239
O O9 0.554175 0.834812 0.727465
O O10 0.629649 0.000000 0.776526
O O11 0.403925 0.247946 0.667207
O O12 0.492216 0.329392 0.809280
O O13 0.402498 0.173929 0.842406
O O14 0.000000 0.243766 0.500000
O O15 0.989553 0.000000 0.877357
O O16 0.000000 0.854616 0.000000
O O17 0.449523 0.000000 0.891184
O O18 0.500000 0.856031 0.000000
#
# Coordination Sequence:
#
# PCOD8113428 Si02
#       7
#     8   8   8   8   8   8   8
#     4  12  22  37  60  89 126 169 207 258 313 374
#     4  10  24  45  69  96 129 171 215 266 329 392
#     4  11  22  39  67  96 125 164 214 263 321 389
#     4  12  22  39  64  93 125 164 208 265 328 378
#     4  11  24  44  68  98 130 165 215 277 327 388
#     4  11  24  42  60  87 130 177 221 255 302 380
#     4  11  22  37  58  89 124 156 201 258 315 374
#
# _framework density 20.361378999999999
#
# number of rings (size 3 to 8) (size 9 to 14) (size 15 to 20)
#    0.000    0.857    4.286    3.857    0.000    3.429 
#    0.000    0.000    0.000    0.000    0.000    0.000 
#    0.000    0.000    0.000    0.000    0.000    0.000 
#
# Total GULP energy -347224.057552 kJ/mol
# GULP energy per Si atom -12400.859198 kJ/mol
# Density = 2.031504 g / cm^3
# Si number density = 20.361379 Si / 1000 Ang^3
#
#
#
# Elastic Constant Matrix: (Units=GPa)
#
#
# Indices 1 2 3 4 5 6 
#
# 1 106.3874 28.8334 19.5759 0.0000 0.0087 0.0000
# 2 28.8334 135.3150 46.4971 0.0000 11.1447 0.0000
# 3 19.5759 46.4971 107.5540 0.0000 15.6991 0.0000
# 4 0.0000 0.0000 0.0000 23.4302 0.0000 3.6032
# 5 0.0087 11.1447 15.6991 0.0000 28.4677 0.0000
# 6 0.0000 0.0000 0.0000 3.6032 0.0000 18.3168
#
#
#
# Elastic Compliance Matrix: (Units=1/GPa)
#
#
# Indices 1 2 3 4 5 6 
#
# 1 0.010130 -0.001844 -0.001252 0.000000 0.001409 0.000000
# 2 -0.001844 0.009070 -0.003336 0.000000 -0.001711 0.000000
# 3 -0.001252 -0.003336 0.011720 0.000000 -0.005157 0.000000
# 4 0.000000 0.000000 0.000000 0.044011 0.000000 -0.008658
# 5 0.001409 -0.001711 -0.005157 0.000000 0.038641 0.000000
# 6 0.000000 0.000000 0.000000 -0.008658 0.000000 0.056298
#
#
# Mechanical properties :
#
#
# Convention : Reuss Voigt Hill
#
# Bulk Modulus (GPa) = 55.38335 59.89658 57.63996
# Shear Modulus (GPa) = 26.48958 30.99963 28.74461
#
# Velocity S-wave (km/s) = 3.61081 3.90612 3.76137
# Velocity P-wave (km/s) = 6.68156 7.05863 6.87268
#
# Compressibility (1/GPa) = 0.01805597
#
# Stress axis : x y z
#
# Youngs Moduli (GPa) = 98.71919 110.24975 85.32104
#
# Poissons Ratio (x) = 0.20333 0.10683
# Poissons Ratio (y) = 0.18207 0.28462
# Poissons Ratio (z) = 0.12361 0.36777
#
# Static dielectric constant tensor:
#      x y z
#    x 3.762820 0.000000 0.038890 
#    y 0.000000 3.769130 0.000000 
#    z 0.038890 0.000000 3.736690 
# 
# 
# High freq. dielectric constant tensor:
#      x y z
#    x 1.796120 0.000000 0.002410 
#    y 0.000000 1.803240 0.000000 
#    z 0.002410 0.000000 1.793660 
# 
# From -- ./inp_files/143755.got.cif
#   From: 2010.06.25/outbox.cif.g09.slc.cpg/sg12_72_cif.got.tgz:143755.got - 2010.06.28 00:19:55.
