data_PCOD8113843
_publ_section_title
;
Structure prediction by ZEFSAII (Michael W. Deem and Ramdas Pophale) SiO2 
 PCOD8113843
Probable space group: C 2/M
;
_chemical_formula_sum "Si O2"
_cell_formula_units_Z 48
_cell_length_a 8.927534
_cell_length_b 25.578472
_cell_length_c 14.544854
_cell_angle_alpha 90.000000
_cell_angle_beta 41.547568
_cell_angle_gamma 90.000000
_cell_volume 2202.861767
_symmetry_space_group_name_H-M "C 2/M"
_symmetry_group_IT_number 12
_symmetry_cell_setting 'monoclinic'
loop_
_space_group_symop_operation_xyz
x,y,z
-x,y,-z
-x,-y,-z
x,-y,z
1/2+x,1/2+y,z
1/2-x,1/2+y,-z
1/2-x,1/2-y,-z
1/2+x,1/2-y,z
loop_
_atom_site_type_symbol
_atom_site_label
_atom_site_fract_x
_atom_site_fract_y
_atom_site_fract_z
Si Si1 0.054585 0.620505 0.576811
Si Si2 0.723491 0.258145 0.229732
Si Si3 0.028857 0.059004 0.594515
Si Si4 0.222204 0.285486 0.598892
Si Si5 0.582165 0.648785 0.861910
Si Si6 0.240283 0.370706 0.860635
O O1 0.205827 0.568297 0.499089
O O2 0.227037 0.655932 0.557885
O O3 0.000000 0.643495 0.500000
O O4 0.817102 0.617438 0.738537
O O5 0.627913 0.275226 0.377691
O O6 0.533620 0.230996 0.253240
O O7 0.907301 0.211893 0.156223
O O8 0.816265 0.311030 0.143341
O O9 0.853632 0.097400 0.725844
O O10 0.000000 0.066664 0.500000
O O11 0.971401 0.000000 0.651012
O O12 0.250000 0.250000 0.500000
O O13 0.405308 0.626529 0.870886
O O14 0.500000 0.633293 0.000000
O O15 0.000000 0.395794 0.000000
#
# Coordination Sequence:
#
# PCOD8113843 Si02
#       6
#     8   8   8   8   8   8
#     4  11  22  43  67  93 131 171 221 279 332 393
#     4  11  22  37  58  90 139 182 222 262 318 389
#     4  11  26  49  75 101 129 168 225 284 343 403
#     4  11  20  33  55  91 133 175 219 269 317 389
#     4  11  25  42  62  99 142 179 226 264 318 403
#     4  12  26  43  68  99 137 182 224 275 335 392
#
# _framework density 21.789839000000001
#
# number of rings (size 3 to 8) (size 9 to 14) (size 15 to 20)
#    0.000    0.833    3.333    5.000    7.000    2.000 
#    0.000    0.000    0.000    1.000    0.000    0.000 
#    0.000    0.000    0.000    0.000    0.000    0.000 
#
# Total GULP energy -297409.904954 kJ/mol
# GULP energy per Si atom -12392.079373 kJ/mol
# Density = 2.174024 g / cm^3
# Si number density = 21.789839 Si / 1000 Ang^3
#
#
#
# Elastic Constant Matrix: (Units=GPa)
#
#
# Indices 1 2 3 4 5 6 
#
# 1 105.0645 31.4853 24.8377 0.0000 -0.5668 0.0000
# 2 31.4853 86.0487 40.5663 0.0000 -8.7592 0.0000
# 3 24.8377 40.5663 132.3181 0.0000 1.1584 0.0000
# 4 0.0000 0.0000 0.0000 14.8169 0.0000 -0.1823
# 5 -0.5668 -8.7592 1.1584 0.0000 37.1250 0.0000
# 6 0.0000 0.0000 0.0000 -0.1823 0.0000 18.1200
#
#
#
# Elastic Compliance Matrix: (Units=1/GPa)
#
#
# Indices 1 2 3 4 5 6 
#
# 1 0.010807 -0.003585 -0.000924 0.000000 -0.000652 0.000000
# 2 -0.003585 0.015200 -0.004019 0.000000 0.003657 0.000000
# 3 -0.000924 -0.004019 0.008974 0.000000 -0.001242 0.000000
# 4 0.000000 0.000000 0.000000 0.067499 0.000000 0.000679
# 5 -0.000652 0.003657 -0.001242 0.000000 0.027828 0.000000
# 6 0.000000 0.000000 0.000000 0.000679 0.000000 0.055195
#
#
# Mechanical properties :
#
#
# Convention : Reuss Voigt Hill
#
# Bulk Modulus (GPa) = 55.78754 57.46777 56.62766
# Shear Modulus (GPa) = 23.97691 29.11518 26.54604
#
# Velocity S-wave (km/s) = 3.32078 3.65935 3.49417
# Velocity P-wave (km/s) = 6.35308 6.65472 6.50565
#
# Compressibility (1/GPa) = 0.01792515
#
# Stress axis : x y z
#
# Youngs Moduli (GPa) = 92.53053 65.78873 111.43295
#
# Poissons Ratio (x) = 0.23587 0.10294
# Poissons Ratio (y) = 0.33175 0.44786
# Poissons Ratio (z) = 0.08548 0.26441
#
# Static dielectric constant tensor:
#      x y z
#    x 10.402720 0.000000 -2.584650 
#    y 0.000000 3.585800 0.000000 
#    z -2.584650 0.000000 5.031890 
# 
# 
# High freq. dielectric constant tensor:
#      x y z
#    x 1.878030 0.000000 -0.002280 
#    y 0.000000 1.814130 0.000000 
#    z -0.002280 0.000000 1.865370 
# 
# From -- ./inp_files/200134.got.cif
#   From: 2010.06.25/outbox.cif.g09.slc.cpg/sg12_101_cif.got.tgz:200134.got - 2010.06.28 00:19:55.
