data_PCOD8113343
_publ_section_title
;
Structure prediction by ZEFSAII (Michael W. Deem and Ramdas Pophale) SiO2 
 PCOD8113343
Probable space group: C 2/M
;
_chemical_formula_sum "Si O2"
_cell_formula_units_Z 48
_cell_length_a 14.087593
_cell_length_b 26.089683
_cell_length_c 14.289398
_cell_angle_alpha 90.000000
_cell_angle_beta 158.021246
_cell_angle_gamma 90.000000
_cell_volume 1965.604522
_symmetry_space_group_name_H-M "C 2/M"
_symmetry_group_IT_number 12
_symmetry_cell_setting 'monoclinic'
loop_
_space_group_symop_operation_xyz
x,y,z
-x,y,-z
-x,-y,-z
x,-y,z
1/2+x,1/2+y,z
1/2-x,1/2+y,-z
1/2-x,1/2-y,-z
1/2+x,1/2-y,z
loop_
_atom_site_type_symbol
_atom_site_label
_atom_site_fract_x
_atom_site_fract_y
_atom_site_fract_z
Si Si1 0.430337 0.711899 0.041398
Si Si2 0.385890 0.057784 0.994493
Si Si3 0.568056 0.725871 0.457554
Si Si4 0.271002 0.058673 0.230177
Si Si5 0.984935 0.136359 0.248514
Si Si6 0.628137 0.944399 0.402501
O O1 0.673177 0.741124 0.307892
O O2 0.360134 0.664239 0.044701
O O3 0.500000 0.693636 0.000000
O O4 0.176134 0.745593 0.809191
O O5 0.196886 0.101756 0.854239
O O6 0.264112 0.000000 0.877770
O O7 0.500000 0.074475 0.000000
O O8 0.614587 0.057097 0.278000
O O9 0.500000 0.708623 0.500000
O O10 0.618652 0.676254 0.440997
O O11 0.500000 0.084394 0.500000
O O12 0.346376 0.063382 0.189320
O O13 0.245174 0.000000 0.239970
O O14 0.000000 0.086472 0.000000
O O15 0.194409 0.099488 0.394762
O O16 0.734032 0.000000 0.532119
#
# Coordination Sequence:
#
# PCOD8113343 Si02
#       6
#     8   8   8   8   8   8
#     4  10  24  48  72 106 150 186 229 302 377 437
#     4  10  25  46  68 100 148 194 244 308 364 417
#     4  10  24  44  74 108 146 186 236 303 369 439
#     4   9  19  38  64  91 128 179 231 281 338 405
#     4  12  25  40  75 105 141 192 252 295 359 446
#     4  10  24  43  66 102 144 190 243 300 357 421
#
# _framework density 24.419968000000001
#
# number of rings (size 3 to 8) (size 9 to 14) (size 15 to 20)
#    0.000    1.833    0.000    1.500    9.333    0.667 
#    3.000    2.500    0.000    1.000    0.000    0.000 
#    0.000    0.000    0.000    0.000    0.000    0.000 
#
# Total GULP energy -297488.394509 kJ/mol
# GULP energy per Si atom -12395.349771 kJ/mol
# Density = 2.436439 g / cm^3
# Si number density = 24.419968 Si / 1000 Ang^3
#
#
#
# Elastic Constant Matrix: (Units=GPa)
#
#
# Indices 1 2 3 4 5 6 
#
# 1 146.5923 70.8359 54.6577 0.0005 2.5796 0.0016
# 2 70.8359 136.2625 58.6103 -0.0012 4.8211 -0.0030
# 3 54.6577 58.6103 152.2902 0.0063 13.5687 0.0079
# 4 0.0005 -0.0012 0.0063 14.4075 0.0031 -20.5154
# 5 2.5796 4.8211 13.5687 0.0031 37.3155 0.0062
# 6 0.0016 -0.0030 0.0079 -20.5154 0.0062 -80.9253
#
#
#
# Elastic Compliance Matrix: (Units=1/GPa)
#
#
# Indices 1 2 3 4 5 6 
#
# 1 0.009520 -0.004168 -0.001863 0.000000 0.000558 0.000000
# 2 -0.004168 0.010619 -0.002578 0.000001 -0.000146 -0.000001
# 3 -0.001863 -0.002578 0.008460 -0.000002 -0.002614 0.000001
# 4 0.000000 0.000001 -0.000002 0.050999 -0.000002 -0.012929
# 5 0.000558 -0.000146 -0.002614 -0.000002 0.027730 0.000002
# 6 0.000000 -0.000001 0.000001 -0.012929 0.000002 -0.009080
#
#
# Mechanical properties :
#
#
# Convention : Reuss Voigt Hill
#
# Bulk Modulus (GPa) = 87.85069 89.26143 88.55606
# Shear Modulus (GPa) = 41.92540 10.89561 26.41050
#
# Velocity S-wave (km/s) = 4.14798 2.11458 3.29220
# Velocity P-wave (km/s) = 7.68076 6.52640 7.12699
#
# Compressibility (1/GPa) = 0.01138295
#
# Stress axis : x y z
#
# Youngs Moduli (GPa) = 105.04011 94.16695 118.20248
#
# Poissons Ratio (x) = 0.39245 0.22016
# Poissons Ratio (y) = 0.43777 0.30474
# Poissons Ratio (z) = 0.19564 0.24278
#
# Static dielectric constant tensor:
#      x y z
#    x 4.600480 0.000000 -0.065310 
#    y 0.000000 4.308430 -0.000010 
#    z -0.065310 -0.000010 4.349860 
# 
# 
# High freq. dielectric constant tensor:
#      x y z
#    x 1.991060 0.000000 -0.007290 
#    y 0.000000 1.961710 0.000000 
#    z -0.007290 0.000000 1.959960 
# 
# From -- ./inp_files/219612.got.cif
#   From: 2010.06.25/outbox.cif.g09.slc.cpg/sg12_110_cif.got.tgz:219612.got - 2010.06.28 00:19:55.
