data_PCOD8113878
_publ_section_title
;
Structure prediction by ZEFSAII (Michael W. Deem and Ramdas Pophale) SiO2 
 PCOD8113878
Probable space group: C 2/M
;
_chemical_formula_sum "Si O2"
_cell_formula_units_Z 64
_cell_length_a 32.909094
_cell_length_b 13.263883
_cell_length_c 9.616033
_cell_angle_alpha 90.000000
_cell_angle_beta 133.689493
_cell_angle_gamma 90.000000
_cell_volume 3035.129380
_symmetry_space_group_name_H-M "C 2/M"
_symmetry_group_IT_number 12
_symmetry_cell_setting 'monoclinic'
loop_
_space_group_symop_operation_xyz
x,y,z
-x,y,-z
-x,-y,-z
x,-y,z
1/2+x,1/2+y,z
1/2-x,1/2+y,-z
1/2-x,1/2-y,-z
1/2+x,1/2-y,z
loop_
_atom_site_type_symbol
_atom_site_label
_atom_site_fract_x
_atom_site_fract_y
_atom_site_fract_z
Si Si1 0.783359 0.113489 0.719164
Si Si2 0.426953 0.381224 0.430855
Si Si3 0.340910 0.113643 0.637521
Si Si4 0.876204 0.616947 0.033401
Si Si5 0.546283 0.703838 0.778331
Si Si6 0.852722 0.200540 0.479735
Si Si7 0.394684 0.613975 0.838433
Si Si8 0.768212 0.718773 0.889404
O O1 0.725736 0.125383 0.498794
O O2 0.832538 0.151462 0.734657
O O3 0.785955 0.175855 0.865526
O O4 0.794126 0.000000 0.792678
O O5 0.431562 0.500000 0.482235
O O6 0.420659 0.372121 0.248795
O O7 0.480409 0.313024 0.601706
O O8 0.375021 0.321751 0.377440
O O9 0.366124 0.140537 0.846790
O O10 0.362200 0.186152 0.562818
O O11 0.357060 0.000000 0.630329
O O12 0.890314 0.500000 0.092389
O O13 0.821111 0.643130 0.997721
O O14 0.931124 0.683166 0.203953
O O15 0.559533 0.678573 0.970331
O O16 0.892927 0.129181 0.668737
O O17 0.786434 0.172870 0.319715
O O18 0.408423 0.500000 0.907090
O O19 0.750000 0.750000 0.000000
#
# Coordination Sequence:
#
# PCOD8113878 Si02
#       8
#     8   8   8   8   8   8   8   8
#     4   9  18  32  55  83 116 158 203 241 292 365
#     4  11  25  44  65  89 123 164 205 255 320 383
#     4   9  18  36  59  87 125 167 205 252 309 364
#     4  11  22  39  64  92 122 164 211 254 302 365
#     4  11  22  44  64  87 118 164 208 255 308 372
#     4  11  22  37  60  94 130 159 204 260 312 367
#     4  11  20  34  60  90 118 155 205 256 312 371
#     4  11  22  37  55  88 131 169 196 246 308 367
#
# _framework density 21.086416
#
# number of rings (size 3 to 8) (size 9 to 14) (size 15 to 20)
#    0.000    1.500    2.500    3.375    0.000    5.000 
#    0.000    6.250    0.000    1.500    0.000    0.000 
#    0.000    0.000    0.000    0.000    0.000    0.000 
#
# Total GULP energy -396560.471336 kJ/mol
# GULP energy per Si atom -12392.514729 kJ/mol
# Density = 2.103842 g / cm^3
# Si number density = 21.086416 Si / 1000 Ang^3
#
#
#
# Elastic Constant Matrix: (Units=GPa)
#
#
# Indices 1 2 3 4 5 6 
#
# 1 49.4804 22.0947 -13.6655 0.0000 2.1748 0.0000
# 2 22.0947 101.0445 21.8099 0.0000 18.3390 0.0000
# 3 -13.6655 21.8099 44.4964 0.0000 -0.6251 0.0000
# 4 0.0000 0.0000 0.0000 33.5615 0.0000 -0.5889
# 5 2.1748 18.3390 -0.6251 0.0000 29.2656 0.0000
# 6 0.0000 0.0000 0.0000 -0.5889 0.0000 28.2917
#
#
#
# Elastic Compliance Matrix: (Units=1/GPa)
#
#
# Indices 1 2 3 4 5 6 
#
# 1 0.028176 -0.009885 0.013560 0.000000 0.004390 0.000000
# 2 -0.009885 0.016211 -0.011117 0.000000 -0.009661 0.000000
# 3 0.013560 -0.011117 0.032181 0.000000 0.006646 0.000000
# 4 0.000000 0.000000 0.000000 0.029807 0.000000 0.000620
# 5 0.004390 -0.009661 0.006646 0.000000 0.040040 0.000000
# 6 0.000000 0.000000 0.000000 0.000620 0.000000 0.035359
#
#
# Mechanical properties :
#
#
# Convention : Reuss Voigt Hill
#
# Bulk Modulus (GPa) = 16.21178 28.38883 22.30030
# Shear Modulus (GPa) = 23.01826 29.20922 26.11374
#
# Velocity S-wave (km/s) = 3.30755 3.72589 3.52293
# Velocity P-wave (km/s) = 4.72138 5.65703 5.21025
#
# Compressibility (1/GPa) = 0.06168356
#
# Stress axis : x y z
#
# Youngs Moduli (GPa) = 35.49139 61.68597 31.07450
#
# Poissons Ratio (x) = 0.60974 -0.42136
# Poissons Ratio (y) = 0.35082 0.34547
# Poissons Ratio (z) = -0.48126 0.68578
#
# Static dielectric constant tensor:
#      x y z
#    x 3.977170 0.000000 -0.205990 
#    y 0.000000 3.838850 0.000000 
#    z -0.205990 0.000000 3.863520 
# 
# 
# High freq. dielectric constant tensor:
#      x y z
#    x 1.808270 0.000000 -0.006110 
#    y 0.000000 1.825730 0.000000 
#    z -0.006110 0.000000 1.826330 
# 
# From -- ./inp_files/112035.got.cif
#   From: 2010.06.25/outbox.cif.g09.slc.cpg/sg12_57_cif.got.tgz:112035.got - 2010.06.28 00:19:55.
