data_PCOD8113240
_publ_section_title
;
Structure prediction by ZEFSAII (Michael W. Deem and Ramdas Pophale) SiO2 
 PCOD8113240
Probable space group: C 2/M
;
_chemical_formula_sum "Si O2"
_cell_formula_units_Z 40
_cell_length_a 8.797833
_cell_length_b 17.444413
_cell_length_c 11.371345
_cell_angle_alpha 90.000000
_cell_angle_beta 70.950906
_cell_angle_gamma 90.000000
_cell_volume 1649.626649
_symmetry_space_group_name_H-M "C 2/M"
_symmetry_group_IT_number 12
_symmetry_cell_setting 'monoclinic'
loop_
_space_group_symop_operation_xyz
x,y,z
-x,y,-z
-x,-y,-z
x,-y,z
1/2+x,1/2+y,z
1/2-x,1/2+y,-z
1/2-x,1/2-y,-z
1/2+x,1/2-y,z
loop_
_atom_site_type_symbol
_atom_site_label
_atom_site_fract_x
_atom_site_fract_y
_atom_site_fract_z
Si Si1 0.553215 0.265341 0.720237
Si Si2 0.810798 0.412823 0.070661
Si Si3 0.810305 0.853464 0.651183
Si Si4 0.731265 0.153394 0.154382
Si Si5 0.633184 0.000000 0.305315
Si Si6 0.736763 0.000000 0.533256
O O1 0.692649 0.212239 0.628565
O O2 0.489013 0.319543 0.629891
O O3 0.405713 0.217184 0.807645
O O4 0.616067 0.318293 0.810568
O O5 0.748410 0.500000 0.084058
O O6 0.770394 0.376659 0.205279
O O7 0.719725 0.363390 0.993052
O O8 0.000000 0.408340 0.000000
O O9 0.825656 0.924854 0.559866
O O10 0.663276 0.074458 0.221817
O O11 0.749484 0.000000 0.389282
O O12 0.447532 0.000000 0.384417
#
# Coordination Sequence:
#
# PCOD8113240 Si02
#       6
#     8   8   8   8   4   4
#     4  10  24  39  63  90 132 156 195 253 304 362
#     4  11  20  34  64  89 122 160 204 247 286 362
#     4  11  22  42  61  94 121 162 202 245 304 357
#     4  11  22  42  61  94 121 162 202 245 304 357
#     4  11  22  42  68  89 116 161 211 251 293 362
#     4  11  22  42  68  89 116 161 211 251 293 362
#
# _framework density 24.247910999999998
#
# number of rings (size 3 to 8) (size 9 to 14) (size 15 to 20)
#    0.000    1.200    6.000    0.000    0.000    6.400 
#    0.000    9.000    0.000    0.000    0.000    0.000 
#    0.000    0.000    0.000    0.000    0.000    0.000 
#
# Total GULP energy -248097.509181 kJ/mol
# GULP energy per Si atom -12404.875459 kJ/mol
# Density = 2.419272 g / cm^3
# Si number density = 24.247911 Si / 1000 Ang^3
#
#
#
# Elastic Constant Matrix: (Units=GPa)
#
#
# Indices 1 2 3 4 5 6 
#
# 1 108.1378 44.3397 3.4031 0.0000 32.7309 0.0000
# 2 44.3397 130.0634 10.0518 0.0000 24.1396 0.0000
# 3 3.4031 10.0518 50.4169 0.0000 26.8556 0.0000
# 4 0.0000 0.0000 0.0000 57.4175 0.0000 3.0056
# 5 32.7309 24.1396 26.8556 0.0000 34.2966 0.0000
# 6 0.0000 0.0000 0.0000 3.0056 0.0000 46.3518
#
#
#
# Elastic Compliance Matrix: (Units=1/GPa)
#
#
# Indices 1 2 3 4 5 6 
#
# 1 0.017195 -0.002275 0.012319 0.000000 -0.024455 0.000000
# 2 -0.002275 0.009358 0.001098 0.000000 -0.005275 0.000000
# 3 0.012319 0.001098 0.043676 0.000000 -0.046730 0.000000
# 4 0.000000 0.000000 0.000000 0.017476 0.000000 -0.001133
# 5 -0.024455 -0.005275 -0.046730 0.000000 0.092800 0.000000
# 6 0.000000 0.000000 0.000000 -0.001133 0.000000 0.021648
#
#
# Mechanical properties :
#
#
# Convention : Reuss Voigt Hill
#
# Bulk Modulus (GPa) = 10.80931 44.91193 27.86062
# Shear Modulus (GPa) = 23.72981 43.00142 33.36561
#
# Velocity S-wave (km/s) = 3.13171 4.21575 3.71350
# Velocity P-wave (km/s) = 4.18859 6.50069 5.46824
#
# Compressibility (1/GPa) = 0.09251285
#
# Stress axis : x y z
#
# Youngs Moduli (GPa) = 58.15782 106.85597 22.89604
#
# Poissons Ratio (x) = 0.24310 -0.28207
# Poissons Ratio (y) = 0.13231 -0.02513
# Poissons Ratio (z) = -0.71647 -0.11730
#
# Static dielectric constant tensor:
#      x y z
#    x 4.473760 0.000000 0.474010 
#    y 0.000000 11.099860 0.000000 
#    z 0.474010 0.000000 4.331770 
# 
# 
# High freq. dielectric constant tensor:
#      x y z
#    x 1.959620 0.000000 0.019160 
#    y 0.000000 1.984320 0.000000 
#    z 0.019160 0.000000 1.957460 
# 
# From -- ./inp_files/118962.got.cif
#   From: 2010.06.25/outbox.cif.g09.slc.cpg/sg12_60_cif.got.tgz:118962.got - 2010.06.28 00:19:55.
