data_PCOD8113356
_publ_section_title
;
Structure prediction by ZEFSAII (Michael W. Deem and Ramdas Pophale) SiO2 
 PCOD8113356
Probable space group: C 2/M
;
_chemical_formula_sum "Si O2"
_cell_formula_units_Z 56
_cell_length_a 13.638962
_cell_length_b 16.818253
_cell_length_c 19.819339
_cell_angle_alpha 90.000000
_cell_angle_beta 34.406243
_cell_angle_gamma 90.000000
_cell_volume 2568.878437
_symmetry_space_group_name_H-M "C 2/M"
_symmetry_group_IT_number 12
_symmetry_cell_setting 'monoclinic'
loop_
_space_group_symop_operation_xyz
x,y,z
-x,y,-z
-x,-y,-z
x,-y,z
1/2+x,1/2+y,z
1/2-x,1/2+y,-z
1/2-x,1/2-y,-z
1/2+x,1/2-y,z
loop_
_atom_site_type_symbol
_atom_site_label
_atom_site_fract_x
_atom_site_fract_y
_atom_site_fract_z
Si Si1 0.164889 0.351092 0.864927
Si Si2 0.033648 0.090629 0.664527
Si Si3 0.646907 0.676480 0.467595
Si Si4 0.422048 0.091888 0.231056
Si Si5 0.688197 0.850678 0.396563
Si Si6 0.350656 0.329729 0.160619
Si Si7 0.200391 0.092072 0.945545
O O1 0.342911 0.381965 0.798150
O O2 0.163647 0.385882 0.790728
O O3 0.160290 0.256425 0.866664
O O4 0.000000 0.384484 0.000000
O O5 0.097567 0.150179 0.570465
O O6 0.166458 0.094424 0.651934
O O7 0.027773 0.000000 0.641700
O O8 0.500000 0.644573 0.500000
O O9 0.831279 0.639464 0.342916
O O10 0.662753 0.771431 0.455649
O O11 0.624172 0.115325 0.115230
O O12 0.396523 0.000000 0.261728
O O13 0.500000 0.894334 0.500000
O O14 0.741390 0.829613 0.290467
O O15 0.276792 0.391961 0.147631
O O16 0.550215 0.352991 0.062657
O O17 0.152984 0.000000 0.983102
#
# Coordination Sequence:
#
# PCOD8113356 Si02
#       7
#     8   8   8   8   8   8   8
#     4  12  25  42  67 100 136 176 223 272 333 403
#     4  12  28  45  67  99 138 180 216 273 342 398
#     4  11  22  45  70  95 128 172 226 276 325 391
#     4  11  24  41  67  98 131 175 225 276 331 392
#     4  11  26  45  70  99 132 172 227 280 330 395
#     4  11  22  44  69  96 133 174 223 277 332 391
#     4  10  24  43  70 100 132 178 228 277 328 391
#
# _framework density 21.799396000000002
#
# number of rings (size 3 to 8) (size 9 to 14) (size 15 to 20)
#    0.000    0.857    4.286    3.000    6.000    3.714 
#    0.000    0.000    0.000    0.000    0.000    0.000 
#    0.000    0.000    0.000    0.000    0.000    0.000 
#
# Total GULP energy -347322.240748 kJ/mol
# GULP energy per Si atom -12404.365741 kJ/mol
# Density = 2.174978 g / cm^3
# Si number density = 21.799396 Si / 1000 Ang^3
#
#
#
# Elastic Constant Matrix: (Units=GPa)
#
#
# Indices 1 2 3 4 5 6 
#
# 1 84.6680 15.3685 39.4111 -0.0002 -29.2317 -0.0008
# 2 15.3685 74.6533 30.7115 0.0024 -19.6240 -0.0029
# 3 39.4111 30.7115 131.7325 0.0067 -11.6087 -0.0055
# 4 -0.0002 0.0024 0.0067 30.1184 0.0001 -4.9469
# 5 -29.2317 -19.6240 -11.6087 0.0001 46.8937 0.0012
# 6 -0.0008 -0.0029 -0.0055 -4.9469 0.0012 23.5681
#
#
#
# Elastic Compliance Matrix: (Units=1/GPa)
#
#
# Indices 1 2 3 4 5 6 
#
# 1 0.017173 0.000931 -0.004475 0.000001 0.009986 -0.000001
# 2 0.000931 0.016376 -0.003518 0.000000 0.006562 0.000001
# 3 -0.004475 -0.003518 0.009584 -0.000002 -0.001889 0.000001
# 4 0.000001 0.000000 -0.000002 0.034388 0.000000 0.007218
# 5 0.009986 0.006562 -0.001889 0.000000 0.029828 -0.000001
# 6 -0.000001 0.000001 0.000001 0.007218 -0.000001 0.043945
#
#
# Mechanical properties :
#
#
# Convention : Reuss Voigt Hill
#
# Bulk Modulus (GPa) = 34.47288 51.33734 42.90511
# Shear Modulus (GPa) = 28.55727 33.82021 31.18874
#
# Velocity S-wave (km/s) = 3.62332 3.94309 3.78658
# Velocity P-wave (km/s) = 5.77517 6.65820 6.23235
#
# Compressibility (1/GPa) = 0.02900831
#
# Stress axis : x y z
#
# Youngs Moduli (GPa) = 58.23248 61.06534 104.34592
#
# Poissons Ratio (x) = -0.05683 0.46690
# Poissons Ratio (y) = -0.05420 0.36708
# Poissons Ratio (z) = 0.26056 0.21482
#
# Static dielectric constant tensor:
#      x y z
#    x 3.978930 0.000000 -0.315050 
#    y 0.000000 3.814420 0.000010 
#    z -0.315050 0.000010 4.081080 
# 
# 
# High freq. dielectric constant tensor:
#      x y z
#    x 1.854150 0.000000 -0.013620 
#    y 0.000000 1.853210 0.000000 
#    z -0.013620 0.000000 1.867090 
# 
# From -- ./inp_files/311704.got.cif
#   From: 2010.06.25/outbox.cif.g09.slc.cpg/sg12_156_cif.got.tgz:311704.got - 2010.06.28 00:19:55.
