data_PCOD8113429
_publ_section_title
;
Structure prediction by ZEFSAII (Michael W. Deem and Ramdas Pophale) SiO2 
 PCOD8113429
Probable space group: C 2/M
;
_chemical_formula_sum "Si O2"
_cell_formula_units_Z 48
_cell_length_a 26.586008
_cell_length_b 14.253858
_cell_length_c 12.016995
_cell_angle_alpha 90.000000
_cell_angle_beta 150.916176
_cell_angle_gamma 90.000000
_cell_volume 2213.588762
_symmetry_space_group_name_H-M "C 2/M"
_symmetry_group_IT_number 12
_symmetry_cell_setting 'monoclinic'
loop_
_space_group_symop_operation_xyz
x,y,z
-x,y,-z
-x,-y,-z
x,-y,z
1/2+x,1/2+y,z
1/2-x,1/2+y,-z
1/2-x,1/2-y,-z
1/2+x,1/2-y,z
loop_
_atom_site_type_symbol
_atom_site_label
_atom_site_fract_x
_atom_site_fract_y
_atom_site_fract_z
Si Si1 0.400325 0.765921 0.247066
Si Si2 0.966583 0.896054 0.809133
Si Si3 0.351662 0.101186 0.535867
Si Si4 0.762250 0.388225 0.129724
Si Si5 0.054341 0.709315 0.907759
Si Si6 0.761544 0.347669 0.580076
O O1 0.500000 0.724219 0.500000
O O2 0.357246 0.849482 0.240979
O O3 0.427039 0.817404 0.183447
O O4 0.333063 0.673070 0.097880
O O5 0.843102 0.877884 0.558951
O O6 0.040263 0.822336 0.888004
O O7 0.990007 0.000000 0.805894
O O8 0.000000 0.889203 0.000000
O O9 0.280738 0.137380 0.296105
O O10 0.446066 0.169967 0.744020
O O11 0.287626 0.084980 0.526403
O O12 0.396139 0.000000 0.585511
O O13 0.745197 0.500000 0.078046
O O14 0.146382 0.660751 0.153424
O O15 0.750000 0.250000 0.500000
#
# Coordination Sequence:
#
# PCOD8113429 Si02
#       6
#     8   8   8   8   8   8
#     4  11  24  44  69  95 128 172 219 272 323 380
#     4  11  24  41  63  96 134 175 215 259 319 389
#     4  11  23  41  67  97 131 170 216 265 323 390
#     4  10  24  45  69  97 127 170 218 267 326 387
#     4  12  24  41  67  96 131 171 218 269 324 383
#     4  12  22  40  63  93 134 175 208 264 324 383
#
# _framework density 21.684244
#
# number of rings (size 3 to 8) (size 9 to 14) (size 15 to 20)
#    0.000    0.833    5.000    2.000    0.000    4.000 
#    0.000    1.667    0.000    0.000    0.000    0.000 
#    0.000    0.000    0.000    0.000    0.000    0.000 
#
# Total GULP energy -297488.178369 kJ/mol
# GULP energy per Si atom -12395.340765 kJ/mol
# Density = 2.163489 g / cm^3
# Si number density = 21.684244 Si / 1000 Ang^3
#
#
#
# Elastic Constant Matrix: (Units=GPa)
#
#
# Indices 1 2 3 4 5 6 
#
# 1 100.8930 9.7857 37.4218 0.0000 -15.4332 0.0000
# 2 9.7857 93.8845 34.1285 0.0000 -6.1542 0.0000
# 3 37.4218 34.1285 150.5618 0.0000 -13.7123 0.0000
# 4 0.0000 0.0000 0.0000 17.8848 0.0000 -3.4820
# 5 -15.4332 -6.1542 -13.7123 0.0000 34.7932 0.0000
# 6 0.0000 0.0000 0.0000 -3.4820 0.0000 20.3921
#
#
#
# Elastic Compliance Matrix: (Units=1/GPa)
#
#
# Indices 1 2 3 4 5 6 
#
# 1 0.011457 -0.000028 -0.002467 0.000000 0.004105 0.000000
# 2 -0.000028 0.011645 -0.002537 0.000000 0.001047 0.000000
# 3 -0.002467 -0.002537 0.007976 0.000000 0.001600 0.000000
# 4 0.000000 0.000000 0.000000 0.057836 0.000000 0.009876
# 5 0.004105 0.001047 0.001600 0.000000 0.031378 0.000000
# 6 0.000000 0.000000 0.000000 0.009876 0.000000 0.050725
#
#
# Mechanical properties :
#
#
# Convention : Reuss Voigt Hill
#
# Bulk Modulus (GPa) = 47.59038 56.44572 52.01805
# Shear Modulus (GPa) = 26.58340 32.21425 29.39883
#
# Velocity S-wave (km/s) = 3.50513 3.85854 3.68607
# Velocity P-wave (km/s) = 6.19483 6.77778 6.49285
#
# Compressibility (1/GPa) = 0.02101265
#
# Stress axis : x y z
#
# Youngs Moduli (GPa) = 87.28066 85.87130 125.37692
#
# Poissons Ratio (x) = 0.00242 0.30936
# Poissons Ratio (y) = 0.00246 0.31812
# Poissons Ratio (z) = 0.21536 0.21788
#
# Static dielectric constant tensor:
#      x y z
#    x 4.152990 0.000000 1.478910 
#    y 0.000000 3.935380 0.000000 
#    z 1.478910 0.000000 7.604550 
# 
# 
# High freq. dielectric constant tensor:
#      x y z
#    x 1.847550 0.000000 0.003380 
#    y 0.000000 1.855360 0.000000 
#    z 0.003380 0.000000 1.860740 
# 
# From -- ./inp_files/183871.got.cif
#   From: 2010.06.25/outbox.cif.g09.slc.cpg/sg12_92_cif.got.tgz:183871.got - 2010.06.28 00:19:55.
