data_PCOD8113963
_publ_section_title
;
Structure prediction by ZEFSAII (Michael W. Deem and Ramdas Pophale) SiO2 
 PCOD8113963
Probable space group: C 2/M
;
_chemical_formula_sum "Si O2"
_cell_formula_units_Z 32
_cell_length_a 10.914226
_cell_length_b 15.231188
_cell_length_c 16.981343
_cell_angle_alpha 90.000000
_cell_angle_beta 145.786663
_cell_angle_gamma 90.000000
_cell_volume 1587.260519
_symmetry_space_group_name_H-M "C 2/M"
_symmetry_group_IT_number 12
_symmetry_cell_setting 'monoclinic'
loop_
_space_group_symop_operation_xyz
x,y,z
-x,y,-z
-x,-y,-z
x,-y,z
1/2+x,1/2+y,z
1/2-x,1/2+y,-z
1/2-x,1/2-y,-z
1/2+x,1/2-y,z
loop_
_atom_site_type_symbol
_atom_site_label
_atom_site_fract_x
_atom_site_fract_y
_atom_site_fract_z
Si Si1 0.830562 0.143464 0.712262
Si Si2 0.318406 0.500000 0.108898
Si Si3 0.844594 0.500000 0.800933
Si Si4 0.749242 0.168075 0.350928
Si Si5 0.399538 0.900514 0.566486
O O1 0.863147 0.246675 0.749606
O O2 0.758619 0.140106 0.582914
O O3 0.649327 0.101217 0.672119
O O4 0.049838 0.088384 0.842060
O O5 0.257999 0.500000 0.167876
O O6 0.105958 0.500000 0.941447
O O7 0.761089 0.585998 0.712410
O O8 0.623133 0.151641 0.364839
O O9 0.000000 0.191846 0.500000
O O10 0.324852 0.000000 0.541243
#
# Coordination Sequence:
#
# PCOD8113963 Si02
#       5
#     8   4   4   8   8
#     4  11  22  38  66  91 124 159 203 253 307 363
#     4  11  24  46  65  83 124 168 212 243 301 370
#     4  11  27  43  61  90 124 170 202 249 304 369
#     4  12  24  39  63  96 127 155 202 261 311 356
#     4  11  20  38  61  98 121 158 202 256 315 354
#
# _framework density 20.160520999999999
#
# number of rings (size 3 to 8) (size 9 to 14) (size 15 to 20)
#    0.000    0.750    6.250    3.375    3.500    1.000 
#    0.000    2.500    0.000    0.000    0.000    0.000 
#    0.000    0.000    0.000    0.000    0.000    0.000 
#
# Total GULP energy -198476.341023 kJ/mol
# GULP energy per Si atom -12404.771314 kJ/mol
# Density = 2.011463 g / cm^3
# Si number density = 20.160521 Si / 1000 Ang^3
#
#
#
# Elastic Constant Matrix: (Units=GPa)
#
#
# Indices 1 2 3 4 5 6 
#
# 1 56.7378 9.5172 9.8898 -0.0022 3.4183 -0.0003
# 2 9.5172 166.6417 25.0086 -0.0032 10.0693 0.0005
# 3 9.8898 25.0086 51.9431 -0.0152 17.7285 0.0005
# 4 -0.0022 -0.0032 -0.0152 9.3904 -0.0035 8.8310
# 5 3.4183 10.0693 17.7285 -0.0035 24.7454 -0.0003
# 6 -0.0003 0.0005 0.0005 8.8310 -0.0003 21.6324
#
#
#
# Elastic Compliance Matrix: (Units=1/GPa)
#
#
# Indices 1 2 3 4 5 6 
#
# 1 0.018279 -0.000562 -0.003211 -0.000002 0.000004 0.000001
# 2 -0.000562 0.006491 -0.002837 -0.000004 -0.000531 0.000002
# 3 -0.003211 -0.002837 0.027378 0.000059 -0.018017 -0.000025
# 4 -0.000002 -0.000004 0.000059 0.172852 -0.000017 -0.070563
# 5 0.000004 -0.000531 -0.018017 -0.000017 0.053535 0.000008
# 6 0.000001 0.000002 -0.000025 -0.070563 0.000008 0.075033
#
#
# Mechanical properties :
#
#
# Convention : Reuss Voigt Hill
#
# Bulk Modulus (GPa) = 25.68856 40.46154 33.07505
# Shear Modulus (GPa) = 13.16609 26.54743 19.85676
#
# Velocity S-wave (km/s) = 2.55828 3.63271 3.14177
# Velocity P-wave (km/s) = 4.63639 6.14074 5.44081
#
# Compressibility (1/GPa) = 0.03892784
#
# Stress axis : x y z
#
# Youngs Moduli (GPa) = 54.70852 154.06351 36.52537
#
# Poissons Ratio (x) = 0.08663 0.11728
# Poissons Ratio (y) = 0.03076 0.10361
# Poissons Ratio (z) = 0.17567 0.43703
#
# Static dielectric constant tensor:
#      x y z
#    x 3.756460 0.000000 0.154890 
#    y 0.000000 3.969500 0.000000 
#    z 0.154890 0.000000 3.414990 
# 
# 
# High freq. dielectric constant tensor:
#      x y z
#    x 1.800210 0.000000 0.013080 
#    y 0.000000 1.811440 0.000000 
#    z 0.013080 0.000000 1.745740 
# 
# From -- ./inp_files/45264.got.cif
#   From: 2010.06.25/outbox.cif.g09.slc.cpg/sg12_23_cif.got.tgz:45264.got - 2010.06.28 00:19:55.
