data_PCOD8113234
_publ_section_title
;
Structure prediction by ZEFSAII (Michael W. Deem and Ramdas Pophale) SiO2 
 PCOD8113234
Probable space group: C 2/M
;
_chemical_formula_sum "Si O2"
_cell_formula_units_Z 36
_cell_length_a 21.711048
_cell_length_b 9.718021
_cell_length_c 8.705289
_cell_angle_alpha 90.000000
_cell_angle_beta 107.792558
_cell_angle_gamma 90.000000
_cell_volume 1748.863418
_symmetry_space_group_name_H-M "C 2/M"
_symmetry_group_IT_number 12
_symmetry_cell_setting 'monoclinic'
loop_
_space_group_symop_operation_xyz
x,y,z
-x,y,-z
-x,-y,-z
x,-y,z
1/2+x,1/2+y,z
1/2-x,1/2+y,-z
1/2-x,1/2-y,-z
1/2+x,1/2-y,z
loop_
_atom_site_type_symbol
_atom_site_label
_atom_site_fract_x
_atom_site_fract_y
_atom_site_fract_z
Si Si1 0.266053 0.344323 0.369370
Si Si2 0.014012 0.000000 0.263494
Si Si3 0.130105 0.651754 0.701923
Si Si4 0.315680 0.230247 0.957824
Si Si5 0.893697 0.000000 0.955794
Si Si6 0.500000 0.726075 0.500000
O O1 0.284740 0.500000 0.433288
O O2 0.250000 0.250000 0.500000
O O3 0.326623 0.275015 0.330490
O O4 0.203267 0.353425 0.210216
O O5 0.068167 0.000000 0.174718
O O6 0.023342 0.134330 0.374687
O O7 0.942259 0.000000 0.136997
O O8 0.152122 0.500000 0.659826
O O9 0.056946 0.674412 0.596308
O O10 0.134389 0.651651 0.891992
O O11 0.346491 0.371681 0.926293
O O12 0.250000 0.250000 0.000000
#
# Coordination Sequence:
#
# PCOD8113234 Si02
#       6
#     8   4   8   8   4   4
#     4  11  26  42  65  96 131 169 217 276 337 398
#     4  10  24  40  70 100 132 176 228 281 320 401
#     4  11  24  42  65  92 131 176 220 269 334 401
#     4  10  24  38  67  92 133 170 220 268 333 395
#     4  11  22  44  66 102 132 178 228 273 329 398
#     4  11  23  40  66  98 130 174 222 278 338 386
#
# _framework density 20.584797999999999
#
# number of rings (size 3 to 8) (size 9 to 14) (size 15 to 20)
#    0.000    1.333    2.222    1.667   20.222    0.000 
#    0.000    0.000    0.000    1.333    0.000    0.000 
#    0.000    0.000    0.000    0.000    0.000    0.000 
#
# Total GULP energy -223158.039012 kJ/mol
# GULP energy per Si atom -12397.668834 kJ/mol
# Density = 2.053795 g / cm^3
# Si number density = 20.584798 Si / 1000 Ang^3
#
#
#
# Elastic Constant Matrix: (Units=GPa)
#
#
# Indices 1 2 3 4 5 6 
#
# 1 91.1844 46.2354 46.5399 0.0000 9.5446 0.0000
# 2 46.2354 163.0071 42.1598 0.0000 0.0662 0.0000
# 3 46.5399 42.1598 142.8580 0.0000 10.4780 0.0000
# 4 0.0000 0.0000 0.0000 19.2191 0.0000 11.1748
# 5 9.5446 0.0662 10.4780 0.0000 36.9263 0.0000
# 6 0.0000 0.0000 0.0000 11.1748 0.0000 29.0204
#
#
#
# Elastic Compliance Matrix: (Units=1/GPa)
#
#
# Indices 1 2 3 4 5 6 
#
# 1 0.014764 -0.003243 -0.003649 0.000000 -0.002775 0.000000
# 2 -0.003243 0.007365 -0.001203 0.000000 0.001166 0.000000
# 3 -0.003649 -0.001203 0.008655 0.000000 -0.001510 0.000000
# 4 0.000000 0.000000 0.000000 0.067042 0.000000 -0.025816
# 5 -0.002775 0.001166 -0.001510 0.000000 0.028225 0.000000
# 6 0.000000 0.000000 0.000000 -0.025816 0.000000 0.044399
#
#
# Mechanical properties :
#
#
# Convention : Reuss Voigt Hill
#
# Bulk Modulus (GPa) = 68.52014 74.10219 71.31117
# Shear Modulus (GPa) = 26.10915 34.50746 30.30831
#
# Velocity S-wave (km/s) = 3.56528 4.09877 3.84130
# Velocity P-wave (km/s) = 7.09277 7.64700 7.37509
#
# Compressibility (1/GPa) = 0.01459425
#
# Stress axis : x y z
#
# Youngs Moduli (GPa) = 67.73205 135.77640 115.54651
#
# Poissons Ratio (x) = 0.44028 0.42166
# Poissons Ratio (y) = 0.21964 0.13897
# Poissons Ratio (z) = 0.24717 0.16330
#
# Static dielectric constant tensor:
#      x y z
#    x 3.528470 0.000000 0.201570 
#    y 0.000000 3.670220 0.000000 
#    z 0.201570 0.000000 4.476830 
# 
# 
# High freq. dielectric constant tensor:
#      x y z
#    x 1.787200 0.000000 0.014190 
#    y 0.000000 1.806670 0.000000 
#    z 0.014190 0.000000 1.828790 
# 
# From -- ./inp_files/92663.got.cif
#   From: 2010.06.25/outbox.cif.g09.slc.cpg/sg12_47_cif.got.tgz:92663.got - 2010.06.28 00:19:55.
