data_PCOD8113907
_publ_section_title
;
Structure prediction by ZEFSAII (Michael W. Deem and Ramdas Pophale) SiO2 
 PCOD8113907
Probable space group: C 2/M
;
_chemical_formula_sum "Si O2"
_cell_formula_units_Z 40
_cell_length_a 20.129793
_cell_length_b 10.309784
_cell_length_c 17.186306
_cell_angle_alpha 90.000000
_cell_angle_beta 142.084484
_cell_angle_gamma 90.000000
_cell_volume 2191.757499
_symmetry_space_group_name_H-M "C 2/M"
_symmetry_group_IT_number 12
_symmetry_cell_setting 'monoclinic'
loop_
_space_group_symop_operation_xyz
x,y,z
-x,y,-z
-x,-y,-z
x,-y,z
1/2+x,1/2+y,z
1/2-x,1/2+y,-z
1/2-x,1/2-y,-z
1/2+x,1/2-y,z
loop_
_atom_site_type_symbol
_atom_site_label
_atom_site_fract_x
_atom_site_fract_y
_atom_site_fract_z
Si Si1 0.907891 0.355360 0.979012
Si Si2 0.616097 0.000000 0.569149
Si Si3 0.397909 0.500000 0.634881
Si Si4 0.749729 0.252778 0.714932
Si Si5 0.858571 0.500000 0.588456
Si Si6 0.568081 0.244231 0.245765
Si Si7 0.605530 0.500000 0.545828
O O1 0.868893 0.500000 0.965827
O O2 0.808007 0.274581 0.851737
O O3 0.000000 0.367447 0.000000
O O4 0.954955 0.283639 0.098089
O O5 0.500000 0.000000 0.500000
O O6 0.678913 0.874764 0.657600
O O7 0.602631 0.000000 0.464159
O O8 0.269692 0.500000 0.525258
O O9 0.449566 0.373896 0.721827
O O10 0.433684 0.500000 0.578901
O O11 0.835353 0.234140 0.725373
O O12 0.676169 0.374379 0.627250
O O13 0.904397 0.626927 0.671832
O O14 0.500000 0.500000 0.500000
#
# Coordination Sequence:
#
# PCOD8113907 Si02
#       7
#     8   4   4   8   4   8   4
#     4   9  18  33  58  88 115 147 191 242 292 339
#     4  12  26  39  55  85 125 160 186 227 297 354
#     4  12  22  35  57  87 123 146 190 242 293 336
#     4  11  20  38  60  84 118 152 194 240 283 341
#     4  12  20  37  61  81 121 152 188 242 291 340
#     4  11  20  35  61  91 114 147 191 247 292 337
#     4  12  24  37  59  85 117 156 194 235 281 344
#
# _framework density 18.250195000000001
#
# number of rings (size 3 to 8) (size 9 to 14) (size 15 to 20)
#    0.000    1.000    6.000    2.400    0.000    0.800 
#    0.000    3.000    0.000    7.200    0.000    0.000 
#    0.000    0.000    0.000    0.000    0.000    0.000 
#
# Total GULP energy -248068.473423 kJ/mol
# GULP energy per Si atom -12403.423671 kJ/mol
# Density = 1.820866 g / cm^3
# Si number density = 18.250195 Si / 1000 Ang^3
#
#
#
# Elastic Constant Matrix: (Units=GPa)
#
#
# Indices 1 2 3 4 5 6 
#
# 1 92.2406 35.9463 51.9664 0.0000 -8.3378 0.0000
# 2 35.9463 180.7193 91.7758 0.0000 -10.7314 0.0000
# 3 51.9664 91.7758 156.9223 0.0000 -24.2475 0.0000
# 4 0.0000 0.0000 0.0000 14.3664 0.0000 -20.8118
# 5 -8.3378 -10.7314 -24.2475 0.0000 22.5281 0.0000
# 6 0.0000 0.0000 0.0000 -20.8118 0.0000 36.2865
#
#
#
# Elastic Compliance Matrix: (Units=1/GPa)
#
#
# Indices 1 2 3 4 5 6 
#
# 1 0.013373 -0.000594 -0.004031 0.000000 0.000328 0.000000
# 2 -0.000594 0.007937 -0.004672 0.000000 -0.001468 0.000000
# 3 -0.004031 -0.004672 0.011834 0.000000 0.009019 0.000000
# 4 0.000000 0.000000 0.000000 0.411520 0.000000 0.236024
# 5 0.000328 -0.001468 0.009019 0.000000 0.053519 0.000000
# 6 0.000000 0.000000 0.000000 0.236024 0.000000 0.162928
#
#
# Mechanical properties :
#
#
# Convention : Reuss Voigt Hill
#
# Bulk Modulus (GPa) = 68.72510 87.69545 78.21027
# Shear Modulus (GPa) = 7.30403 31.31579 19.30991
#
# Velocity S-wave (km/s) = 2.00271 4.14685 3.25632
# Velocity P-wave (km/s) = 6.56405 8.43117 7.55551
#
# Compressibility (1/GPa) = 0.01455073
#
# Stress axis : x y z
#
# Youngs Moduli (GPa) = 74.77741 125.99123 84.50526
#
# Poissons Ratio (x) = 0.07478 0.34062
# Poissons Ratio (y) = 0.04438 0.39483
# Poissons Ratio (z) = 0.30141 0.58866
#
# Static dielectric constant tensor:
#      x y z
#    x 2.771830 0.000000 0.050840 
#    y 0.000000 3.511660 0.000000 
#    z 0.050840 0.000000 3.563080 
# 
# 
# High freq. dielectric constant tensor:
#      x y z
#    x 1.671740 0.000000 -0.015250 
#    y 0.000000 1.725590 0.000000 
#    z -0.015250 0.000000 1.720340 
# 
# From -- ./inp_files/229701.got.cif
#   From: 2010.06.25/outbox.cif.g09.slc.cpg/sg12_115_cif.got.tgz:229701.got - 2010.06.28 00:19:55.
