data_PCOD8113716
_publ_section_title
;
Structure prediction by ZEFSAII (Michael W. Deem and Ramdas Pophale) SiO2 
 PCOD8113716
Probable space group: C 2/M
;
_chemical_formula_sum "Si O2"
_cell_formula_units_Z 36
_cell_length_a 19.232052
_cell_length_b 13.140287
_cell_length_c 19.958116
_cell_angle_alpha 90.000000
_cell_angle_beta 159.164338
_cell_angle_gamma 90.000000
_cell_volume 1793.990519
_symmetry_space_group_name_H-M "C 2/M"
_symmetry_group_IT_number 12
_symmetry_cell_setting 'monoclinic'
loop_
_space_group_symop_operation_xyz
x,y,z
-x,y,-z
-x,-y,-z
x,-y,z
1/2+x,1/2+y,z
1/2-x,1/2+y,-z
1/2-x,1/2-y,-z
1/2+x,1/2-y,z
loop_
_atom_site_type_symbol
_atom_site_label
_atom_site_fract_x
_atom_site_fract_y
_atom_site_fract_z
Si Si1 0.449466 0.500000 0.235525
Si Si2 0.500000 0.830673 0.500000
Si Si3 0.021866 0.000000 0.896831
Si Si4 0.937835 0.500000 0.336331
Si Si5 0.391011 0.000000 0.646650
Si Si6 0.589547 0.284852 0.152608
Si Si7 0.647424 0.164445 0.951160
O O1 0.479732 0.500000 0.183714
O O2 0.662001 0.500000 0.462687
O O3 0.321325 0.598236 0.140866
O O4 0.319346 0.757240 0.356165
O O5 0.442517 0.898948 0.384527
O O6 0.911311 0.097051 0.826864
O O7 0.244140 0.000000 0.118418
O O8 0.109976 0.500000 0.435680
O O9 0.500070 0.900316 0.772525
O O10 0.479260 0.213174 0.104552
O O11 0.500000 0.267213 0.000000
O O12 0.750000 0.250000 0.000000
#
# Coordination Sequence:
#
# PCOD8113716 Si02
#       7
#     4   4   4   4   4   8   8
#     4  11  23  43  68  94 132 169 214 268 322 374
#     4  11  24  34  60  97 130 166 204 249 332 399
#     4  12  19  42  64  95 136 171 193 268 337 392
#     4  11  19  38  61  93 132 169 197 254 332 398
#     4  11  24  43  67  92 134 170 214 268 319 374
#     4  12  24  40  64  95 134 168 210 263 325 390
#     4  11  24  43  66  98 129 169 220 263 319 382
#
# _framework density 20.066996
#
# number of rings (size 3 to 8) (size 9 to 14) (size 15 to 20)
#    0.000    0.667    6.667    3.000    0.000    2.667 
#    0.000    2.222    0.000    4.000    0.000    0.000 
#    0.000    0.000    0.000    0.000    0.000    0.000 
#
# Total GULP energy -223232.748268 kJ/mol
# GULP energy per Si atom -12401.819348 kJ/mol
# Density = 2.002132 g / cm^3
# Si number density = 20.066996 Si / 1000 Ang^3
#
#
#
# Elastic Constant Matrix: (Units=GPa)
#
#
# Indices 1 2 3 4 5 6 
#
# 1 148.2466 61.6980 51.1320 -0.0036 17.6662 -0.0007
# 2 61.6980 117.1287 52.8235 -0.0024 16.0480 -0.0102
# 3 51.1320 52.8235 142.7992 -0.0033 36.0332 0.0041
# 4 -0.0036 -0.0024 -0.0033 11.1986 0.0017 16.0647
# 5 17.6662 16.0480 36.0332 0.0017 42.9179 0.0026
# 6 -0.0007 -0.0102 0.0041 16.0647 0.0026 72.5733
#
#
#
# Elastic Compliance Matrix: (Units=1/GPa)
#
#
# Indices 1 2 3 4 5 6 
#
# 1 0.009025 -0.003930 -0.001537 0.000003 -0.000955 -0.000001
# 2 -0.003930 0.011981 -0.002922 -0.000003 -0.000410 0.000003
# 3 -0.001537 -0.002922 0.010402 0.000006 -0.007009 -0.000002
# 4 0.000003 -0.000003 0.000006 0.130846 -0.000009 -0.028964
# 5 -0.000955 -0.000410 -0.007009 -0.000009 0.029731 0.000001
# 6 -0.000001 0.000003 -0.000002 -0.028964 0.000001 0.020191
#
#
# Mechanical properties :
#
#
# Convention : Reuss Voigt Hill
#
# Bulk Modulus (GPa) = 68.34279 82.16460 75.25370
# Shear Modulus (GPa) = 21.38302 41.50603 31.44453
#
# Velocity S-wave (km/s) = 3.26787 4.55287 3.96280
# Velocity P-wave (km/s) = 6.95484 8.28687 7.64990
#
# Compressibility (1/GPa) = 0.01463212
#
# Stress axis : x y z
#
# Youngs Moduli (GPa) = 110.80316 83.46230 96.13190
#
# Poissons Ratio (x) = 0.32801 0.14773
# Poissons Ratio (y) = 0.43546 0.28086
# Poissons Ratio (z) = 0.17028 0.24384
#
# Static dielectric constant tensor:
#      x y z
#    x 3.827570 -0.000050 0.317290 
#    y -0.000050 3.708260 -0.000020 
#    z 0.317290 -0.000020 4.021580 
# 
# 
# High freq. dielectric constant tensor:
#      x y z
#    x 1.788090 0.000000 0.017430 
#    y 0.000000 1.758530 0.000000 
#    z 0.017430 0.000000 1.803450 
# 
# From -- ./inp_files/321668.got.cif
#   From: 2010.06.25/outbox.cif.g09.slc.cpg/sg12_161_cif.got.tgz:321668.got - 2010.06.28 00:19:55.
