data_PCOD8113579
_publ_section_title
;
Structure prediction by ZEFSAII (Michael W. Deem and Ramdas Pophale) SiO2 
 PCOD8113579
Probable space group: C 2/M
;
_chemical_formula_sum "Si O2"
_cell_formula_units_Z 64
_cell_length_a 21.299985
_cell_length_b 14.105546
_cell_length_c 13.779526
_cell_angle_alpha 90.000000
_cell_angle_beta 111.877459
_cell_angle_gamma 90.000000
_cell_volume 3841.877040
_symmetry_space_group_name_H-M "C 2/M"
_symmetry_group_IT_number 12
_symmetry_cell_setting 'monoclinic'
loop_
_space_group_symop_operation_xyz
x,y,z
-x,y,-z
-x,-y,-z
x,-y,z
1/2+x,1/2+y,z
1/2-x,1/2+y,-z
1/2-x,1/2-y,-z
1/2+x,1/2-y,z
loop_
_atom_site_type_symbol
_atom_site_label
_atom_site_fract_x
_atom_site_fract_y
_atom_site_fract_z
Si Si1 0.151909 0.391816 0.794547
Si Si2 0.150412 0.390164 0.156206
Si Si3 0.473987 0.395977 0.829156
Si Si4 0.443982 0.800154 0.752831
Si Si5 0.771487 0.237194 0.902527
Si Si6 0.103389 0.103546 0.014779
Si Si7 0.013275 0.388308 0.615802
Si Si8 0.436261 0.105606 0.076922
O O1 0.173454 0.500000 0.783953
O O2 0.215438 0.323265 0.811480
O O3 0.089331 0.360298 0.690345
O O4 0.129890 0.380847 0.893972
O O5 0.171123 0.500000 0.183499
O O6 0.125692 0.343409 0.243582
O O7 0.215535 0.334812 0.149542
O O8 0.086522 0.381300 0.046671
O O9 0.463504 0.500000 0.774026
O O10 0.441682 0.314379 0.742552
O O11 0.437954 0.393998 0.910923
O O12 0.553870 0.378326 0.894609
O O13 0.457643 0.841926 0.654401
O O14 0.505193 0.821792 0.862242
O O15 0.842318 0.184845 0.948319
O O16 0.750000 0.250000 0.000000
O O17 0.137988 0.000000 0.022043
O O18 0.002821 0.500000 0.617524
O O19 0.000000 0.350492 0.500000
O O20 0.465945 0.000000 0.112011
#
# Coordination Sequence:
#
# PCOD8113579 Si02
#       8
#     8   8   8   8   8   8   8   8
#     4   9  18  32  49  70  98 131 169 204 239 292
#     4  11  21  30  41  68 103 136 167 197 237 294
#     4   9  18  30  46  69  95 127 171 211 238 280
#     4  11  18  29  52  72  97 125 161 203 264 301
#     4  12  21  29  44  66 101 146 172 195 231 285
#     4   9  18  31  44  63  96 136 172 204 235 272
#     4   9  19  36  58  82 100 118 156 213 266 308
#     4   9  17  28  43  68  99 130 162 199 240 296
#
# _framework density 16.658522999999999
#
# number of rings (size 3 to 8) (size 9 to 14) (size 15 to 20)
#    0.000    2.125    2.500    4.125    3.500    1.500 
#    0.000    0.000    0.000    1.125    0.000    0.000 
#    0.000    0.000    0.000    0.000    0.000    0.000 
#
# Total GULP energy -396671.900103 kJ/mol
# GULP energy per Si atom -12395.996878 kJ/mol
# Density = 1.662061 g / cm^3
# Si number density = 16.658523 Si / 1000 Ang^3
#
#
#
# Elastic Constant Matrix: (Units=GPa)
#
#
# Indices 1 2 3 4 5 6 
#
# 1 76.6517 46.5771 28.4703 0.0000 -7.3595 0.0000
# 2 46.5771 114.6842 27.3027 0.0000 -5.2043 0.0000
# 3 28.4703 27.3027 63.2513 0.0000 -14.3606 0.0000
# 4 0.0000 0.0000 0.0000 13.0164 0.0000 -0.4166
# 5 -7.3595 -5.2043 -14.3606 0.0000 16.5892 0.0000
# 6 0.0000 0.0000 0.0000 -0.4166 0.0000 28.1107
#
#
#
# Elastic Compliance Matrix: (Units=1/GPa)
#
#
# Indices 1 2 3 4 5 6 
#
# 1 0.019121 -0.006388 -0.005449 0.000000 0.001762 0.000000
# 2 -0.006388 0.011860 -0.002542 0.000000 -0.001314 0.000000
# 3 -0.005449 -0.002542 0.023187 0.000000 0.016857 0.000000
# 4 0.000000 0.000000 0.000000 0.076863 0.000000 0.001139
# 5 0.001762 -0.001314 0.016857 0.000000 0.075242 0.000000
# 6 0.000000 0.000000 0.000000 0.001139 0.000000 0.035591
#
#
# Mechanical properties :
#
#
# Convention : Reuss Voigt Hill
#
# Bulk Modulus (GPa) = 39.35668 51.03194 45.19431
# Shear Modulus (GPa) = 17.91521 21.69240 19.80381
#
# Velocity S-wave (km/s) = 3.28295 3.61249 3.45165
# Velocity P-wave (km/s) = 6.16824 6.93547 6.56307
#
# Compressibility (1/GPa) = 0.02540865
#
# Stress axis : x y z
#
# Youngs Moduli (GPa) = 52.29848 84.31885 43.12700
#
# Poissons Ratio (x) = 0.53867 0.23500
# Poissons Ratio (y) = 0.33411 0.10964
# Poissons Ratio (z) = 0.28498 0.21435
#
# Static dielectric constant tensor:
#      x y z
#    x 2.854640 0.000000 -0.088750 
#    y 0.000000 3.272070 0.000000 
#    z -0.088750 0.000000 2.736260 
# 
# 
# High freq. dielectric constant tensor:
#      x y z
#    x 1.635100 0.000000 -0.011190 
#    y 0.000000 1.655670 0.000000 
#    z -0.011190 0.000000 1.578100 
# 
# From -- ./inp_files/233176.got.cif
#   From: 2010.06.25/outbox.cif.g09.slc.cpg/sg12_117_cif.got.tgz:233176.got - 2010.06.28 00:19:55.
