data_PCOD8113332
_publ_section_title
;
Structure prediction by ZEFSAII (Michael W. Deem and Ramdas Pophale) SiO2 
 PCOD8113332
Probable space group: C 2/M
;
_chemical_formula_sum "Si O2"
_cell_formula_units_Z 48
_cell_length_a 17.191950
_cell_length_b 12.806636
_cell_length_c 10.666077
_cell_angle_alpha 90.000000
_cell_angle_beta 74.810590
_cell_angle_gamma 90.000000
_cell_volume 2266.321180
_symmetry_space_group_name_H-M "C 2/M"
_symmetry_group_IT_number 12
_symmetry_cell_setting 'monoclinic'
loop_
_space_group_symop_operation_xyz
x,y,z
-x,y,-z
-x,-y,-z
x,-y,z
1/2+x,1/2+y,z
1/2-x,1/2+y,-z
1/2-x,1/2-y,-z
1/2+x,1/2-y,z
loop_
_atom_site_type_symbol
_atom_site_label
_atom_site_fract_x
_atom_site_fract_y
_atom_site_fract_z
Si Si1 0.332451 0.121270 0.916686
Si Si2 0.700471 0.247618 0.827048
Si Si3 0.465422 0.780512 0.714438
Si Si4 0.762070 0.118246 0.563753
Si Si5 0.621517 0.213026 0.506443
Si Si6 0.042679 0.119137 0.848684
O O1 0.269549 0.178657 0.853019
O O2 0.423876 0.139428 0.828655
O O3 0.311371 0.000000 0.926613
O O4 0.328409 0.164276 0.058478
O O5 0.735001 0.182015 0.697322
O O6 0.625572 0.317161 0.814956
O O7 0.406136 0.769218 0.622933
O O8 0.550771 0.823845 0.629336
O O9 0.480331 0.668921 0.774599
O O10 0.690650 0.124461 0.489891
O O11 0.840540 0.174238 0.470322
O O12 0.783042 0.000000 0.588595
O O13 0.060137 0.000000 0.801752
O O14 0.000000 0.124046 0.000000
#
# Coordination Sequence:
#
# PCOD8113332 Si02
#       6
#     8   8   8   8   8   8
#     4  11  24  41  69  97 127 172 209 264 333 377
#     4  11  22  45  66  95 134 159 217 272 312 395
#     4  11  22  44  63  92 135 162 215 268 307 386
#     4  11  23  43  69  93 126 171 216 266 320 375
#     4  10  24  43  63  91 132 169 213 264 312 378
#     4  11  23  41  68  95 127 171 210 265 329 373
#
# _framework density 21.179697999999998
#
# number of rings (size 3 to 8) (size 9 to 14) (size 15 to 20)
#    0.000    1.167    5.000    1.000    0.000    2.667 
#    0.000    4.167    0.000    0.000    0.000    0.000 
#    0.000    0.000    0.000    0.000    0.000    0.000 
#
# Total GULP energy -297537.141433 kJ/mol
# GULP energy per Si atom -12397.380893 kJ/mol
# Density = 2.113149 g / cm^3
# Si number density = 21.179698 Si / 1000 Ang^3
#
#
#
# Elastic Constant Matrix: (Units=GPa)
#
#
# Indices 1 2 3 4 5 6 
#
# 1 85.0349 16.1304 33.1681 0.0000 -3.3618 0.0000
# 2 16.1304 117.8597 30.8426 0.0000 -6.0248 0.0000
# 3 33.1681 30.8426 82.9768 0.0000 -2.1627 0.0000
# 4 0.0000 0.0000 0.0000 21.2711 0.0000 2.2380
# 5 -3.3618 -6.0248 -2.1627 0.0000 40.3855 0.0000
# 6 0.0000 0.0000 0.0000 2.2380 0.0000 19.9195
#
#
#
# Elastic Compliance Matrix: (Units=1/GPa)
#
#
# Indices 1 2 3 4 5 6 
#
# 1 0.013985 -0.000460 -0.005398 0.000000 0.000806 0.000000
# 2 -0.000460 0.009474 -0.003306 0.000000 0.001198 0.000000
# 3 -0.005398 -0.003306 0.015435 0.000000 -0.000116 0.000000
# 4 0.000000 0.000000 0.000000 0.047574 0.000000 -0.005345
# 5 0.000806 0.001198 -0.000116 0.000000 0.025001 0.000000
# 6 0.000000 0.000000 0.000000 -0.005345 0.000000 0.050803
#
#
# Mechanical properties :
#
#
# Convention : Reuss Voigt Hill
#
# Bulk Modulus (GPa) = 48.62647 49.57264 49.09956
# Shear Modulus (GPa) = 26.67294 30.03058 28.35176
#
# Velocity S-wave (km/s) = 3.55260 3.76958 3.66270
# Velocity P-wave (km/s) = 6.31164 6.51175 6.41247
#
# Compressibility (1/GPa) = 0.02056493
#
# Stress axis : x y z
#
# Youngs Moduli (GPa) = 71.50761 105.55064 64.78682
#
# Poissons Ratio (x) = 0.04857 0.34972
# Poissons Ratio (y) = 0.03290 0.21421
# Poissons Ratio (z) = 0.38599 0.34899
#
# Static dielectric constant tensor:
#      x y z
#    x 4.078570 0.000000 -0.043290 
#    y 0.000000 3.682430 0.000000 
#    z -0.043290 0.000000 4.083130 
# 
# 
# High freq. dielectric constant tensor:
#      x y z
#    x 1.843270 0.000000 -0.003560 
#    y 0.000000 1.809440 0.000000 
#    z -0.003560 0.000000 1.851060 
# 
# From -- ./inp_files/154211.got.cif
#   From: 2010.06.25/outbox.cif.g09.slc.cpg/sg12_78_cif.got.tgz:154211.got - 2010.06.28 00:19:55.
