data_PCOD8113051
_publ_section_title
;
Structure prediction by ZEFSAII (Michael W. Deem and Ramdas Pophale) SiO2 
 PCOD8113051
Probable space group: C 2/M
;
_chemical_formula_sum "Si O2"
_cell_formula_units_Z 44
_cell_length_a 9.056020
_cell_length_b 19.637279
_cell_length_c 12.542261
_cell_angle_alpha 90.000000
_cell_angle_beta 108.362201
_cell_angle_gamma 90.000000
_cell_volume 2116.894379
_symmetry_space_group_name_H-M "C 2/M"
_symmetry_group_IT_number 12
_symmetry_cell_setting 'monoclinic'
loop_
_space_group_symop_operation_xyz
x,y,z
-x,y,-z
-x,-y,-z
x,-y,z
1/2+x,1/2+y,z
1/2-x,1/2+y,-z
1/2-x,1/2-y,-z
1/2+x,1/2-y,z
loop_
_atom_site_type_symbol
_atom_site_label
_atom_site_fract_x
_atom_site_fract_y
_atom_site_fract_z
Si Si1 0.000000 0.114683 0.000000
Si Si2 0.385051 0.320567 0.186062
Si Si3 0.826265 0.423248 0.149693
Si Si4 0.024998 0.304121 0.122221
Si Si5 0.031938 0.077326 0.388309
Si Si6 0.626393 0.076927 0.604149
O O1 0.909672 0.155871 0.070594
O O2 0.140288 0.072477 0.085900
O O3 0.206522 0.317311 0.180884
O O4 0.462681 0.245257 0.202761
O O5 0.461820 0.371458 0.286866
O O6 0.890358 0.500000 0.151540
O O7 0.854040 0.391310 0.273955
O O8 0.925775 0.374255 0.096113
O O9 0.000000 0.270037 0.000000
O O10 0.215427 0.078953 0.423515
O O11 0.000000 0.103091 0.500000
O O12 0.968454 0.000000 0.354210
O O13 0.500000 0.115370 0.500000
O O14 0.568891 0.000000 0.610330
#
# Coordination Sequence:
#
# PCOD8113051 Si02
#       6
#     4   8   8   8   8   8
#     4  12  21  42  68  96 135 170 218 268 329 402
#     4  12  25  43  69  93 129 179 222 266 330 397
#     4  11  24  40  64 100 134 170 218 274 334 394
#     4  12  25  44  64  93 131 178 218 271 332 391
#     4  10  23  43  67  98 132 168 213 270 335 392
#     4   9  19  37  62  90 126 170 210 257 322 390
#
# _framework density 20.785166
#
# number of rings (size 3 to 8) (size 9 to 14) (size 15 to 20)
#    0.000    1.091    4.545    1.909    2.545    1.818 
#    0.000    1.818    0.000    0.000    0.000    0.000 
#    0.000    0.000    0.000    0.000    0.000    0.000 
#
# Total GULP energy -272641.521237 kJ/mol
# GULP energy per Si atom -12392.796420 kJ/mol
# Density = 2.073786 g / cm^3
# Si number density = 20.785166 Si / 1000 Ang^3
#
#
#
# Elastic Constant Matrix: (Units=GPa)
#
#
# Indices 1 2 3 4 5 6 
#
# 1 130.4581 48.5722 44.9532 0.0000 12.7052 0.0000
# 2 48.5722 106.7371 42.4842 0.0000 0.3522 0.0000
# 3 44.9532 42.4842 130.8444 0.0000 13.1013 0.0000
# 4 0.0000 0.0000 0.0000 15.2332 0.0000 -19.3384
# 5 12.7052 0.3522 13.1013 0.0000 37.9118 0.0000
# 6 0.0000 0.0000 0.0000 -19.3384 0.0000 1.2579
#
#
#
# Elastic Compliance Matrix: (Units=1/GPa)
#
#
# Indices 1 2 3 4 5 6 
#
# 1 0.009995 -0.003765 -0.001947 0.000000 -0.002642 0.000000
# 2 -0.003765 0.012226 -0.002891 0.000000 0.002147 0.000000
# 3 -0.001947 -0.002891 0.009511 0.000000 -0.002608 0.000000
# 4 0.000000 0.000000 0.000000 -0.003545 0.000000 -0.054503
# 5 -0.002642 0.002147 -0.002608 0.000000 0.028143 0.000000
# 6 0.000000 0.000000 0.000000 -0.054503 0.000000 -0.042933
#
#
# Mechanical properties :
#
#
# Convention : Reuss Voigt Hill
#
# Bulk Modulus (GPa) = 68.84034 71.11763 69.97898
# Shear Modulus (GPa) = 141.06091 26.34925 83.70508
#
# Velocity S-wave (km/s) = 8.24703 3.56433 6.35287
# Velocity P-wave (km/s) = 11.12998 7.15745 9.35697
#
# Compressibility (1/GPa) = 0.01452637
#
# Stress axis : x y z
#
# Youngs Moduli (GPa) = 100.04817 81.79501 105.13664
#
# Poissons Ratio (x) = 0.30794 0.20471
# Poissons Ratio (y) = 0.37666 0.30397
# Poissons Ratio (z) = 0.19480 0.23648
#
# Static dielectric constant tensor:
#      x y z
#    x 3.816160 0.000000 0.004270 
#    y 0.000000 3.625430 0.000000 
#    z 0.004270 0.000000 3.876790 
# 
# 
# High freq. dielectric constant tensor:
#      x y z
#    x 1.823720 0.000000 -0.002190 
#    y 0.000000 1.795560 0.000000 
#    z -0.002190 0.000000 1.813810 
# 
# From -- ./inp_files/120808.got.cif
#   From: 2010.06.25/outbox.cif.g09.slc.cpg/sg12_61_cif.got.tgz:120808.got - 2010.06.28 00:19:55.
