data_PCOD8113503
_publ_section_title
;
Structure prediction by ZEFSAII (Michael W. Deem and Ramdas Pophale) SiO2 
 PCOD8113503
Probable space group: C 2/M
;
_chemical_formula_sum "Si O2"
_cell_formula_units_Z 28
_cell_length_a 6.478038
_cell_length_b 18.408056
_cell_length_c 11.762621
_cell_angle_alpha 90.000000
_cell_angle_beta 116.191214
_cell_angle_gamma 90.000000
_cell_volume 1258.652386
_symmetry_space_group_name_H-M "C 2/M"
_symmetry_group_IT_number 12
_symmetry_cell_setting 'monoclinic'
loop_
_space_group_symop_operation_xyz
x,y,z
-x,y,-z
-x,-y,-z
x,-y,z
1/2+x,1/2+y,z
1/2-x,1/2+y,-z
1/2-x,1/2-y,-z
1/2+x,1/2-y,z
loop_
_atom_site_type_symbol
_atom_site_label
_atom_site_fract_x
_atom_site_fract_y
_atom_site_fract_z
Si Si1 0.000000 0.353730 0.500000
Si Si2 0.526284 0.416517 0.310517
Si Si3 0.868825 0.315203 0.707784
Si Si4 0.643513 0.326113 0.143889
O O1 0.786282 0.405389 0.416229
O O2 0.925621 0.302664 0.587630
O O3 0.456132 0.500000 0.304246
O O4 0.342705 0.370537 0.337485
O O5 0.509738 0.391289 0.174277
O O6 0.819249 0.239293 0.756985
O O7 0.096153 0.349616 0.824975
O O8 0.500000 0.300525 0.000000
#
# Coordination Sequence:
#
# PCOD8113503 Si02
#       4
#     4   8   8   8
#     4  10  25  44  68  96 139 170 224 270 333 398
#     4  11  25  44  67  99 136 176 217 272 337 393
#     4  11  23  41  70  99 128 176 222 271 326 389
#     4  11  24  44  70  97 135 174 224 272 328 393
#
# _framework density 22.246016999999998
#
# number of rings (size 3 to 8) (size 9 to 14) (size 15 to 20)
#    0.000    1.143    2.857    2.143    0.000   12.000 
#    0.000    1.429    0.000    0.000    0.000    0.000 
#    0.000    0.000    0.000    0.000    0.000    0.000 
#
# Total GULP energy -173527.059025 kJ/mol
# GULP energy per Si atom -12394.789930 kJ/mol
# Density = 2.219538 g / cm^3
# Si number density = 22.246017 Si / 1000 Ang^3
#
#
#
# Elastic Constant Matrix: (Units=GPa)
#
#
# Indices 1 2 3 4 5 6 
#
# 1 143.9821 46.7860 60.9359 0.0000 12.8017 0.0000
# 2 46.7860 110.9368 65.2257 0.0000 0.9481 0.0000
# 3 60.9359 65.2257 113.0394 0.0000 -4.0956 0.0000
# 4 0.0000 0.0000 0.0000 16.8375 0.0000 -5.7789
# 5 12.8017 0.9481 -4.0956 0.0000 28.3968 0.0000
# 6 0.0000 0.0000 0.0000 -5.7789 0.0000 18.6445
#
#
#
# Elastic Compliance Matrix: (Units=1/GPa)
#
#
# Indices 1 2 3 4 5 6 
#
# 1 0.009821 -0.001329 -0.004711 0.000000 -0.005062 0.000000
# 2 -0.001329 0.013895 -0.007335 0.000000 -0.000923 0.000000
# 3 -0.004711 -0.007335 0.015786 0.000000 0.004645 0.000000
# 4 0.000000 0.000000 0.000000 0.066461 0.000000 0.020600
# 5 -0.005062 -0.000923 0.004645 0.000000 0.038198 0.000000
# 6 0.000000 0.000000 0.000000 0.020600 0.000000 0.060020
#
#
# Mechanical properties :
#
#
# Convention : Reuss Voigt Hill
#
# Bulk Modulus (GPa) = 78.40906 79.31703 78.86305
# Shear Modulus (GPa) = 21.26012 25.77649 23.51831
#
# Velocity S-wave (km/s) = 3.09476 3.40766 3.25498
# Velocity P-wave (km/s) = 6.93491 7.15645 7.04655
#
# Compressibility (1/GPa) = 0.01275363
#
# Stress axis : x y z
#
# Youngs Moduli (GPa) = 101.82361 71.96885 63.34539
#
# Poissons Ratio (x) = 0.09563 0.29841
# Poissons Ratio (y) = 0.13531 0.46462
# Poissons Ratio (z) = 0.47967 0.52787
#
# Static dielectric constant tensor:
#      x y z
#    x 4.580590 0.000000 0.135360 
#    y 0.000000 3.566610 0.000000 
#    z 0.135360 0.000000 4.049200 
# 
# 
# High freq. dielectric constant tensor:
#      x y z
#    x 1.905880 0.000000 0.013370 
#    y 0.000000 1.838760 0.000000 
#    z 0.013370 0.000000 1.876600 
# 
# From -- ./inp_files/114578.got.cif
#   From: 2010.06.25/outbox.cif.g09.slc.cpg/sg12_58_cif.got.tgz:114578.got - 2010.06.28 00:19:55.
