data_PCOD8113442
_publ_section_title
;
Structure prediction by ZEFSAII (Michael W. Deem and Ramdas Pophale) SiO2 
 PCOD8113442
Probable space group: C 2/M
;
_chemical_formula_sum "Si O2"
_cell_formula_units_Z 48
_cell_length_a 32.517222
_cell_length_b 13.787581
_cell_length_c 12.766711
_cell_angle_alpha 90.000000
_cell_angle_beta 155.104992
_cell_angle_gamma 90.000000
_cell_volume 2409.450747
_symmetry_space_group_name_H-M "C 2/M"
_symmetry_group_IT_number 12
_symmetry_cell_setting 'monoclinic'
loop_
_space_group_symop_operation_xyz
x,y,z
-x,y,-z
-x,-y,-z
x,-y,z
1/2+x,1/2+y,z
1/2-x,1/2+y,-z
1/2-x,1/2-y,-z
1/2+x,1/2-y,z
loop_
_atom_site_type_symbol
_atom_site_label
_atom_site_fract_x
_atom_site_fract_y
_atom_site_fract_z
Si Si1 0.108097 0.249840 0.478927
Si Si2 0.236534 0.361354 0.487747
Si Si3 0.992268 0.887739 0.359461
Si Si4 0.770128 0.890066 0.805536
Si Si5 0.902380 0.894481 0.725348
Si Si6 0.974173 0.392057 0.055247
O O1 0.203996 0.316615 0.723577
O O2 0.139152 0.179096 0.456142
O O3 0.073082 0.182877 0.494235
O O4 0.018122 0.320022 0.242687
O O5 0.250000 0.250000 0.500000
O O6 0.228097 0.387390 0.590548
O O7 0.328153 0.414279 0.648435
O O8 0.142387 0.396509 0.206159
O O9 0.000000 0.870463 0.500000
O O10 0.014870 0.000000 0.382904
O O11 0.883536 0.858397 0.069869
O O12 0.760447 0.000000 0.827390
O O13 0.925807 0.000000 0.728317
O O14 0.000000 0.848525 0.000000
O O15 0.017614 0.500000 0.174290
O O16 0.000000 0.352397 0.000000
#
# Coordination Sequence:
#
# PCOD8113442 Si02
#       6
#     8   8   8   8   8   8
#     4  12  22  36  62  88 117 152 203 246 295 354
#     4  12  20  34  54  82 122 162 195 226 278 348
#     4  10  24  46  67  86 112 150 201 263 323 369
#     4  11  22  38  62  89 119 159 201 242 294 361
#     4  11  22  34  50  80 120 157 193 238 284 338
#     4  11  21  34  53  85 126 163 194 226 271 345
#
# _framework density 19.921552999999999
#
# number of rings (size 3 to 8) (size 9 to 14) (size 15 to 20)
#    0.000    0.833    3.333    6.000    0.000    3.333 
#    0.000    0.000    0.000    2.000    0.000    0.000 
#    0.000    0.000    0.000    0.000    0.000    0.000 
#
# Total GULP energy -297561.890990 kJ/mol
# GULP energy per Si atom -12398.412125 kJ/mol
# Density = 1.987621 g / cm^3
# Si number density = 19.921553 Si / 1000 Ang^3
#
#
#
# Elastic Constant Matrix: (Units=GPa)
#
#
# Indices 1 2 3 4 5 6 
#
# 1 92.8790 43.3467 26.8136 0.0000 16.5163 0.0000
# 2 43.3467 126.3275 17.7088 0.0000 4.7041 0.0000
# 3 26.8136 17.7088 51.9847 0.0000 15.5588 0.0000
# 4 0.0000 0.0000 0.0000 46.2017 0.0000 28.0983
# 5 16.5163 4.7041 15.5588 0.0000 32.0989 0.0000
# 6 0.0000 0.0000 0.0000 28.0983 0.0000 61.0928
#
#
#
# Elastic Compliance Matrix: (Units=1/GPa)
#
#
# Indices 1 2 3 4 5 6 
#
# 1 0.015018 -0.004295 -0.004865 0.000000 -0.004740 0.000000
# 2 -0.004295 0.009542 -0.001495 0.000000 0.001536 0.000000
# 3 -0.004865 -0.001495 0.025078 0.000000 -0.009434 0.000000
# 4 0.000000 0.000000 0.000000 0.030049 0.000000 -0.013821
# 5 -0.004740 0.001536 -0.009434 0.000000 0.037940 0.000000
# 6 0.000000 0.000000 0.000000 -0.013821 0.000000 0.022725
#
#
# Mechanical properties :
#
#
# Convention : Reuss Voigt Hill
#
# Bulk Modulus (GPa) = 35.29863 49.65882 42.47873
# Shear Modulus (GPa) = 29.22167 40.10015 34.66091
#
# Velocity S-wave (km/s) = 3.83409 4.49141 4.17570
# Velocity P-wave (km/s) = 6.11208 7.20266 6.67966
#
# Compressibility (1/GPa) = 0.02832971
#
# Stress axis : x y z
#
# Youngs Moduli (GPa) = 66.58488 104.80003 39.87504
#
# Poissons Ratio (x) = 0.45010 0.19398
# Poissons Ratio (y) = 0.28597 0.05961
# Poissons Ratio (z) = 0.32391 0.15668
#
# Static dielectric constant tensor:
#      x y z
#    x 6.056130 0.000000 1.718630 
#    y 0.000000 3.922230 0.000000 
#    z 1.718630 0.000000 4.404940 
# 
# 
# High freq. dielectric constant tensor:
#      x y z
#    x 1.744630 0.000000 0.031220 
#    y 0.000000 1.804210 0.000000 
#    z 0.031220 0.000000 1.764340 
# 
# From -- ./inp_files/143194.got.cif
#   From: 2010.06.25/outbox.cif.g09.slc.cpg/sg12_72_cif.got.tgz:143194.got - 2010.06.28 00:19:55.
