data_PCOD8113966
_publ_section_title
;
Structure prediction by ZEFSAII (Michael W. Deem and Ramdas Pophale) SiO2 
 PCOD8113966
Probable space group: C 2/M
;
_chemical_formula_sum "Si O2"
_cell_formula_units_Z 44
_cell_length_a 10.501008
_cell_length_b 22.110094
_cell_length_c 10.476456
_cell_angle_alpha 90.000000
_cell_angle_beta 99.588097
_cell_angle_gamma 90.000000
_cell_volume 2398.426376
_symmetry_space_group_name_H-M "C 2/M"
_symmetry_group_IT_number 12
_symmetry_cell_setting 'monoclinic'
loop_
_space_group_symop_operation_xyz
x,y,z
-x,y,-z
-x,-y,-z
x,-y,z
1/2+x,1/2+y,z
1/2-x,1/2+y,-z
1/2-x,1/2-y,-z
1/2+x,1/2-y,z
loop_
_atom_site_type_symbol
_atom_site_label
_atom_site_fract_x
_atom_site_fract_y
_atom_site_fract_z
Si Si1 0.000000 0.298884 0.000000
Si Si2 0.171987 0.000000 0.930365
Si Si3 0.855832 0.723472 0.421498
Si Si4 0.304875 0.629235 0.735650
Si Si5 0.751236 0.627403 0.976670
Si Si6 0.552574 0.295425 0.794924
Si Si7 0.400140 0.500000 0.787093
O O1 0.121727 0.340223 0.049656
O O2 0.984877 0.260806 0.124523
O O3 0.260859 0.058803 0.928026
O O4 0.056620 0.000000 0.805601
O O5 0.121866 0.000000 0.066194
O O6 0.750000 0.750000 0.500000
O O7 0.812269 0.656103 0.368504
O O8 0.859628 0.770929 0.305359
O O9 0.000000 0.716583 0.500000
O O10 0.425755 0.671747 0.721049
O O11 0.338323 0.559188 0.708536
O O12 0.265488 0.634164 0.875753
O O13 0.626320 0.656300 0.892475
#
# Coordination Sequence:
#
# PCOD8113966 Si02
#       7
#     4   4   8   8   8   8   4
#     4  12  22  31  54  91 126 152 178 242 308 360
#     4   9  18  33  54  85 120 154 183 230 289 372
#     4  12  26  41  59  87 121 162 204 244 290 346
#     4  11  20  38  62  88 117 153 196 242 293 355
#     4  11  21  34  58  89 124 152 189 236 302 364
#     4  12  21  36  61  89 120 150 191 244 305 352
#     4   9  18  34  59  86 113 151 192 236 293 349
#
# _framework density 18.345362000000002
#
# number of rings (size 3 to 8) (size 9 to 14) (size 15 to 20)
#    0.000    0.909    7.273    1.636    0.000    0.364 
#    0.000    0.455    0.000    3.273    0.000    0.000 
#    0.000    0.000    0.000    0.000    0.000    0.000 
#
# Total GULP energy -272778.842842 kJ/mol
# GULP energy per Si atom -12399.038311 kJ/mol
# Density = 1.830361 g / cm^3
# Si number density = 18.345362 Si / 1000 Ang^3
#
#
#
# Elastic Constant Matrix: (Units=GPa)
#
#
# Indices 1 2 3 4 5 6 
#
# 1 101.0971 57.6220 38.3989 0.0000 5.9888 0.0000
# 2 57.6220 159.6274 48.3615 0.0000 6.0622 0.0000
# 3 38.3989 48.3615 75.0339 0.0000 -1.5552 0.0000
# 4 0.0000 0.0000 0.0000 28.6263 0.0000 5.2461
# 5 5.9888 6.0622 -1.5552 0.0000 35.3792 0.0000
# 6 0.0000 0.0000 0.0000 5.2461 0.0000 -14.5632
#
#
#
# Elastic Compliance Matrix: (Units=1/GPa)
#
#
# Indices 1 2 3 4 5 6 
#
# 1 0.013826 -0.003430 -0.004906 0.000000 -0.001968 0.000000
# 2 -0.003430 0.008722 -0.003889 0.000000 -0.001085 0.000000
# 3 -0.004906 -0.003889 0.018392 0.000000 0.002305 0.000000
# 4 0.000000 0.000000 0.000000 0.032770 0.000000 0.011805
# 5 -0.001968 -0.001085 0.002305 0.000000 0.028886 0.000000
# 6 0.000000 0.000000 0.000000 0.011805 0.000000 -0.064414
#
#
# Mechanical properties :
#
#
# Convention : Reuss Voigt Hill
#
# Bulk Modulus (GPa) = 60.63764 69.39147 65.01456
# Shear Modulus (GPa) = 73.39074 22.64684 48.01879
#
# Velocity S-wave (km/s) = 6.33182 3.51732 5.12169
# Velocity P-wave (km/s) = 9.30489 7.37581 8.39594
#
# Compressibility (1/GPa) = 0.01649141
#
# Stress axis : x y z
#
# Youngs Moduli (GPa) = 72.32543 114.65101 54.37113
#
# Poissons Ratio (x) = 0.39325 0.26673
# Poissons Ratio (y) = 0.24808 0.21144
# Poissons Ratio (z) = 0.35481 0.44586
#
# Static dielectric constant tensor:
#      x y z
#    x 3.396430 0.000000 0.062050 
#    y 0.000000 3.886580 0.000000 
#    z 0.062050 0.000000 3.199780 
# 
# 
# High freq. dielectric constant tensor:
#      x y z
#    x 1.713600 0.000000 0.007670 
#    y 0.000000 1.719650 0.000000 
#    z 0.007670 0.000000 1.686810 
# 
# From -- ./inp_files/49406.got.cif
#   From: 2010.06.25/outbox.cif.g09.slc.cpg/sg12_25_cif.got.tgz:49406.got - 2010.06.28 00:19:55.
