data_PCOD8113497
_publ_section_title
;
Structure prediction by ZEFSAII (Michael W. Deem and Ramdas Pophale) SiO2 
 PCOD8113497
Probable space group: C 2/M
;
_chemical_formula_sum "Si O2"
_cell_formula_units_Z 28
_cell_length_a 9.425086
_cell_length_b 20.614896
_cell_length_c 12.300425
_cell_angle_alpha 90.000000
_cell_angle_beta 31.122730
_cell_angle_gamma 90.000000
_cell_volume 1235.294243
_symmetry_space_group_name_H-M "C 2/M"
_symmetry_group_IT_number 12
_symmetry_cell_setting 'monoclinic'
loop_
_space_group_symop_operation_xyz
x,y,z
-x,y,-z
-x,-y,-z
x,-y,z
1/2+x,1/2+y,z
1/2-x,1/2+y,-z
1/2-x,1/2-y,-z
1/2+x,1/2-y,z
loop_
_atom_site_type_symbol
_atom_site_label
_atom_site_fract_x
_atom_site_fract_y
_atom_site_fract_z
Si Si1 0.537774 0.776642 0.852865
Si Si2 0.858696 0.608612 0.375165
Si Si3 0.500000 0.822910 0.500000
Si Si4 0.376803 0.000000 0.907462
Si Si5 0.073025 0.000000 0.313752
O O1 0.662235 0.831827 0.694215
O O2 0.756148 0.718904 0.711535
O O3 0.500000 0.803985 0.000000
O O4 0.250000 0.750000 0.000000
O O5 0.587231 0.564713 0.546507
O O6 0.884320 0.632431 0.480872
O O7 0.121014 0.564249 0.169466
O O8 0.643732 0.000000 0.808985
O O9 0.110984 0.000000 0.158292
#
# Coordination Sequence:
#
# PCOD8113497 Si02
#       5
#     8   8   4   4   4
#     4  12  28  46  73 108 145 192 236 295 365 430
#     4  11  25  45  69 103 141 182 241 293 352 426
#     4  12  28  45  72 107 146 188 238 302 360 430
#     4  10  25  43  73 101 138 193 236 297 356 427
#     4  10  25  45  72 103 138 189 238 301 355 421
#
# _framework density 22.666664999999998
#
# number of rings (size 3 to 8) (size 9 to 14) (size 15 to 20)
#    0.000    0.857    2.857    2.571   12.000    2.286 
#    0.000    1.429    0.000    0.000    0.000    0.000 
#    0.000    0.000    0.000    0.000    0.000    0.000 
#
# Total GULP energy -173624.277321 kJ/mol
# GULP energy per Si atom -12401.734094 kJ/mol
# Density = 2.261508 g / cm^3
# Si number density = 22.666665 Si / 1000 Ang^3
#
#
#
# Elastic Constant Matrix: (Units=GPa)
#
#
# Indices 1 2 3 4 5 6 
#
# 1 100.2829 36.7271 31.9975 -0.0317 27.0707 -0.0088
# 2 36.7271 119.1479 36.6963 -0.0115 12.5514 -0.0129
# 3 31.9975 36.6963 124.5170 -0.0675 22.7475 -0.0161
# 4 -0.0317 -0.0115 -0.0675 21.0555 0.0274 5.7576
# 5 27.0707 12.5514 22.7475 0.0274 58.0799 -0.0128
# 6 -0.0088 -0.0129 -0.0161 5.7576 -0.0128 2.4292
#
#
#
# Elastic Compliance Matrix: (Units=1/GPa)
#
#
# Indices 1 2 3 4 5 6 
#
# 1 0.012836 -0.002979 -0.001557 0.000057 -0.004729 -0.000141
# 2 -0.002979 0.009977 -0.002191 -0.000040 0.000091 0.000122
# 3 -0.001557 -0.002191 0.009540 0.000061 -0.002538 -0.000112
# 4 0.000057 -0.000040 0.000061 0.134969 -0.000176 -0.319895
# 5 -0.004729 0.000091 -0.002538 -0.000176 0.020396 0.000492
# 6 -0.000141 0.000122 -0.000112 -0.319895 0.000492 1.169858
#
#
# Mechanical properties :
#
#
# Convention : Reuss Voigt Hill
#
# Bulk Modulus (GPa) = 52.91189 61.64332 57.27760
# Shear Modulus (GPa) = 3.63021 32.21471 17.92246
#
# Velocity S-wave (km/s) = 1.26690 3.77402 2.81498
# Velocity P-wave (km/s) = 5.05314 6.80041 5.99082
#
# Compressibility (1/GPa) = 0.01889934
#
# Stress axis : x y z
#
# Youngs Moduli (GPa) = 77.90467 100.23502 104.81739
#
# Poissons Ratio (x) = 0.29861 0.16315
# Poissons Ratio (y) = 0.23209 0.22968
# Poissons Ratio (z) = 0.12126 0.21964
#
# Static dielectric constant tensor:
#      x y z
#    x 3.996350 -0.000010 0.415220 
#    y -0.000010 4.281060 0.000000 
#    z 0.415220 0.000000 4.719550 
# 
# 
# High freq. dielectric constant tensor:
#      x y z
#    x 1.885170 0.000000 0.023840 
#    y 0.000000 1.903340 0.000000 
#    z 0.023840 0.000000 1.915390 
# 
# From -- ./inp_files/119895.got.cif
#   From: 2010.06.25/outbox.cif.g09.slc.cpg/sg12_60_cif.got.tgz:119895.got - 2010.06.28 00:19:55.
