data_PCOD8113981
_publ_section_title
;
Structure prediction by ZEFSAII (Michael W. Deem and Ramdas Pophale) SiO2 
 PCOD8113981
Probable space group: C 2/M
;
_chemical_formula_sum "Si O2"
_cell_formula_units_Z 48
_cell_length_a 18.867543
_cell_length_b 9.917534
_cell_length_c 13.481819
_cell_angle_alpha 90.000000
_cell_angle_beta 66.250619
_cell_angle_gamma 90.000000
_cell_volume 2309.077514
_symmetry_space_group_name_H-M "C 2/M"
_symmetry_group_IT_number 12
_symmetry_cell_setting 'monoclinic'
loop_
_space_group_symop_operation_xyz
x,y,z
-x,y,-z
-x,-y,-z
x,-y,z
1/2+x,1/2+y,z
1/2-x,1/2+y,-z
1/2-x,1/2-y,-z
1/2+x,1/2-y,z
loop_
_atom_site_type_symbol
_atom_site_label
_atom_site_fract_x
_atom_site_fract_y
_atom_site_fract_z
Si Si1 0.711402 0.500000 0.723363
Si Si2 0.291914 0.000000 0.358553
Si Si3 0.483735 0.841681 0.803548
Si Si4 0.861669 0.275323 0.184474
Si Si5 0.822040 0.654377 0.986635
Si Si6 0.044119 0.752309 0.565789
Si Si7 0.645319 0.500000 0.548367
Si Si8 0.861754 0.500000 0.536836
O O1 0.676104 0.628178 0.798682
O O2 0.696595 0.500000 0.615944
O O3 0.805149 0.500000 0.665673
O O4 0.318513 0.135773 0.290774
O O5 0.198548 0.000000 0.419628
O O6 0.325664 0.000000 0.448478
O O7 0.547264 0.767320 0.837926
O O8 0.397281 0.797752 0.882669
O O9 0.491255 0.804265 0.684025
O O10 0.498100 0.000000 0.810865
O O11 0.847139 0.341630 0.086696
O O12 0.799408 0.500000 0.972714
O O13 0.750000 0.750000 0.000000
O O14 0.087737 0.633665 0.483341
O O15 0.000000 0.825577 0.500000
O O16 0.097719 0.863816 0.584175
#
# Coordination Sequence:
#
# PCOD8113981 Si02
#       8
#     4   4   8   8   8   8   4   4
#     4  11  24  36  69  95 134 164 213 281 316 371
#     4  11  20  38  71  89 128 168 217 271 316 377
#     4  11  22  44  72  95 125 172 222 270 316 388
#     4  12  21  44  68 100 125 173 223 270 320 383
#     4  11  27  48  70  98 130 167 216 270 333 390
#     4  12  23  40  61  94 134 174 213 256 321 392
#     4  11  23  40  57  98 134 170 209 265 327 375
#     4  11  21  40  61  96 128 172 221 261 315 377
#
# _framework density 20.787523
#
# number of rings (size 3 to 8) (size 9 to 14) (size 15 to 20)
#    0.000    0.667    5.833    2.000    1.167    6.667 
#    3.000    0.833    0.000    0.000    0.000    0.000 
#    0.000    0.000    0.000    0.000    0.000    0.000 
#
# Total GULP energy -297603.447362 kJ/mol
# GULP energy per Si atom -12400.143640 kJ/mol
# Density = 2.074021 g / cm^3
# Si number density = 20.787523 Si / 1000 Ang^3
#
#
#
# Elastic Constant Matrix: (Units=GPa)
#
#
# Indices 1 2 3 4 5 6 
#
# 1 92.5545 20.1884 55.9410 0.0000 -18.2068 0.0000
# 2 20.1884 102.0317 18.6474 0.0000 -28.1006 0.0000
# 3 55.9410 18.6474 83.7015 0.0000 -20.5081 0.0000
# 4 0.0000 0.0000 0.0000 28.3912 0.0000 2.6069
# 5 -18.2068 -28.1006 -20.5081 0.0000 43.4360 0.0000
# 6 0.0000 0.0000 0.0000 2.6069 0.0000 36.4038
#
#
#
# Elastic Compliance Matrix: (Units=1/GPa)
#
#
# Indices 1 2 3 4 5 6 
#
# 1 0.018401 -0.001095 -0.011690 0.000000 0.001485 0.000000
# 2 -0.001095 0.012047 -0.000175 0.000000 0.007252 0.000000
# 3 -0.011690 -0.000175 0.021000 0.000000 0.004902 0.000000
# 4 0.000000 0.000000 0.000000 0.035455 0.000000 -0.002539
# 5 0.001485 0.007252 0.004902 0.000000 0.030651 0.000000
# 6 0.000000 0.000000 0.000000 -0.002539 0.000000 0.027651
#
#
# Mechanical properties :
#
#
# Convention : Reuss Voigt Hill
#
# Bulk Modulus (GPa) = 39.17431 51.98236 45.57834
# Shear Modulus (GPa) = 27.83396 33.88025 30.85711
#
# Velocity S-wave (km/s) = 3.66317 4.04150 3.85698
# Velocity P-wave (km/s) = 6.06447 6.84391 6.46595
#
# Compressibility (1/GPa) = 0.02552693
#
# Stress axis : x y z
#
# Youngs Moduli (GPa) = 54.34391 83.00930 47.61817
#
# Poissons Ratio (x) = 0.09093 0.55668
# Poissons Ratio (y) = 0.05953 0.00833
# Poissons Ratio (z) = 0.63530 0.01452
#
# Static dielectric constant tensor:
#      x y z
#    x 3.905220 0.000000 -0.227940 
#    y 0.000000 3.738010 0.000000 
#    z -0.227940 0.000000 3.862890 
# 
# 
# High freq. dielectric constant tensor:
#      x y z
#    x 1.815480 0.000000 -0.003660 
#    y 0.000000 1.813380 0.000000 
#    z -0.003660 0.000000 1.819810 
# 
# From -- ./inp_files/154272.got.cif
#   From: 2010.06.25/outbox.cif.g09.slc.cpg/sg12_78_cif.got.tgz:154272.got - 2010.06.28 00:19:55.
