data_PCOD8113222
_publ_section_title
;
Structure prediction by ZEFSAII (Michael W. Deem and Ramdas Pophale) SiO2 
 PCOD8113222
Probable space group: C 2/M
;
_chemical_formula_sum "Si O2"
_cell_formula_units_Z 48
_cell_length_a 8.813175
_cell_length_b 20.420949
_cell_length_c 12.149616
_cell_angle_alpha 90.000000
_cell_angle_beta 84.983963
_cell_angle_gamma 90.000000
_cell_volume 2178.233537
_symmetry_space_group_name_H-M "C 2/M"
_symmetry_group_IT_number 12
_symmetry_cell_setting 'monoclinic'
loop_
_space_group_symop_operation_xyz
x,y,z
-x,y,-z
-x,-y,-z
x,-y,z
1/2+x,1/2+y,z
1/2-x,1/2+y,-z
1/2-x,1/2-y,-z
1/2+x,1/2-y,z
loop_
_atom_site_type_symbol
_atom_site_label
_atom_site_fract_x
_atom_site_fract_y
_atom_site_fract_z
Si Si1 0.648696 0.660160 0.774353
Si Si2 0.276357 0.925387 0.937786
Si Si3 0.654739 0.574885 0.558583
Si Si4 0.579844 0.753533 0.309092
Si Si5 0.112148 0.574712 0.832679
Si Si6 0.685208 0.159262 0.618393
O O1 0.647532 0.619861 0.888941
O O2 0.632855 0.608880 0.676434
O O3 0.510082 0.711422 0.777549
O O4 0.806032 0.699700 0.762529
O O5 0.431073 0.919283 0.857164
O O6 0.218768 0.000000 0.940124
O O7 0.304587 0.902399 0.060717
O O8 0.500000 0.579725 0.500000
O O9 0.703162 0.500000 0.575260
O O10 0.792925 0.610182 0.484942
O O11 0.464432 0.796811 0.389638
O O12 0.668135 0.706693 0.388210
O O13 0.156147 0.500000 0.802125
O O14 0.174671 0.620250 0.733087
#
# Coordination Sequence:
#
# PCOD8113222 Si02
#       6
#     8   8   8   8   8   8
#     4  11  21  42  58  90 120 157 199 247 286 359
#     4   9  18  36  63  90 119 156 197 248 302 349
#     4  11  24  40  64  91 120 155 190 249 308 344
#     4  10  24  37  63  84 120 162 205 233 294 344
#     4   9  18  36  63  90 119 156 197 248 302 349
#     4  11  21  42  58  90 120 157 199 247 286 359
#
# _framework density 22.036204000000001
#
# number of rings (size 3 to 8) (size 9 to 14) (size 15 to 20)
#    0.000    1.833    3.333    2.000    0.000    4.667 
#    0.000    6.667    0.000    2.000    0.000    0.000 
#    0.000    0.000    0.000    0.000    0.000    0.000 
#
# Total GULP energy -297645.907750 kJ/mol
# GULP energy per Si atom -12401.912823 kJ/mol
# Density = 2.198605 g / cm^3
# Si number density = 22.036204 Si / 1000 Ang^3
#
#
#
# Elastic Constant Matrix: (Units=GPa)
#
#
# Indices 1 2 3 4 5 6 
#
# 1 71.9942 30.9695 -1.0268 0.0000 7.4221 0.0000
# 2 30.9695 118.9404 32.3767 0.0000 6.8823 0.0000
# 3 -1.0268 32.3767 69.9718 0.0000 7.5203 0.0000
# 4 0.0000 0.0000 0.0000 25.8379 0.0000 6.3403
# 5 7.4221 6.8823 7.5203 0.0000 25.2445 0.0000
# 6 0.0000 0.0000 0.0000 6.3403 0.0000 30.1817
#
#
#
# Elastic Compliance Matrix: (Units=1/GPa)
#
#
# Indices 1 2 3 4 5 6 
#
# 1 0.016466 -0.004837 0.002953 0.000000 -0.004402 0.000000
# 2 -0.004837 0.011084 -0.005194 0.000000 -0.000052 0.000000
# 3 0.002953 -0.005194 0.017231 0.000000 -0.004585 0.000000
# 4 0.000000 0.000000 0.000000 0.040806 0.000000 -0.008572
# 5 -0.004402 -0.000052 -0.004585 0.000000 0.042287 0.000000
# 6 0.000000 0.000000 0.000000 -0.008572 0.000000 0.034933
#
#
# Mechanical properties :
#
#
# Convention : Reuss Voigt Hill
#
# Bulk Modulus (GPa) = 32.65240 42.83837 37.74538
# Shear Modulus (GPa) = 26.71340 29.49197 28.10268
#
# Velocity S-wave (km/s) = 3.48552 3.66230 3.57500
# Velocity P-wave (km/s) = 5.57209 6.11273 5.84866
#
# Compressibility (1/GPa) = 0.03062562
#
# Stress axis : x y z
#
# Youngs Moduli (GPa) = 60.72947 90.22206 58.03539
#
# Poissons Ratio (x) = 0.43636 -0.17136
# Poissons Ratio (y) = 0.29372 0.30143
# Poissons Ratio (z) = -0.17932 0.46861
#
# Static dielectric constant tensor:
#      x y z
#    x 3.923080 0.000000 0.148540 
#    y 0.000000 4.384880 0.000000 
#    z 0.148540 0.000000 3.647250 
# 
# 
# High freq. dielectric constant tensor:
#      x y z
#    x 1.859910 0.000000 0.013590 
#    y 0.000000 1.884150 0.000000 
#    z 0.013590 0.000000 1.847830 
# 
# From -- ./inp_files/196470.got.cif
#   From: 2010.06.25/outbox.cif.g09.slc.cpg/sg12_99_cif.got.tgz:196470.got - 2010.06.28 00:19:55.
