data_PCOD8113384
_publ_section_title
;
Structure prediction by ZEFSAII (Michael W. Deem and Ramdas Pophale) SiO2 
 PCOD8113384
Probable space group: C 2/M
;
_chemical_formula_sum "Si O2"
_cell_formula_units_Z 48
_cell_length_a 24.501380
_cell_length_b 10.564549
_cell_length_c 9.270475
_cell_angle_alpha 90.000000
_cell_angle_beta 68.288077
_cell_angle_gamma 90.000000
_cell_volume 2229.385665
_symmetry_space_group_name_H-M "C 2/M"
_symmetry_group_IT_number 12
_symmetry_cell_setting 'monoclinic'
loop_
_space_group_symop_operation_xyz
x,y,z
-x,y,-z
-x,-y,-z
x,-y,z
1/2+x,1/2+y,z
1/2-x,1/2+y,-z
1/2-x,1/2-y,-z
1/2+x,1/2-y,z
loop_
_atom_site_type_symbol
_atom_site_label
_atom_site_fract_x
_atom_site_fract_y
_atom_site_fract_z
Si Si1 0.122987 0.279839 0.147306
Si Si2 0.674300 0.852903 0.798991
Si Si3 0.003428 0.233283 0.832311
Si Si4 0.304477 0.645302 0.710620
Si Si5 0.089649 0.500000 0.364895
Si Si6 0.877836 0.144175 0.360857
Si Si7 0.472926 0.000000 0.293701
O O1 0.169722 0.176668 0.156300
O O2 0.124192 0.376165 0.280785
O O3 0.059197 0.216635 0.184800
O O4 0.144000 0.351061 0.984419
O O5 0.740281 0.795844 0.743245
O O6 0.640745 0.751424 0.734115
O O7 0.669737 0.000000 0.746675
O O8 0.051050 0.149105 0.699164
O O9 0.026031 0.378495 0.810106
O O10 0.000000 0.185867 0.000000
O O11 0.290211 0.500000 0.726991
O O12 0.350594 0.681490 0.540988
O O13 0.083695 0.500000 0.544565
O O14 0.028089 0.500000 0.343948
O O15 0.859165 0.000000 0.334712
#
# Coordination Sequence:
#
# PCOD8113384 Si02
#       7
#     8   8   8   8   4   8   4
#     4  11  21  40  63  95 130 167 208 268 325 379
#     4  11  23  44  69  96 127 169 220 268 316 380
#     4  11  22  37  62  93 130 169 215 262 324 386
#     4  10  24  44  66  92 128 171 219 265 317 383
#     4   9  18  34  54  92 130 157 208 259 308 378
#     4  11  25  44  64  96 133 169 216 266 319 388
#     4   9  19  32  58  88 127 170 205 254 312 373
#
# _framework density 21.530595000000002
#
# number of rings (size 3 to 8) (size 9 to 14) (size 15 to 20)
#    0.000    1.500    2.500    2.250    1.167    3.667 
#    3.000    1.667    0.000    0.000    0.000    0.000 
#    0.000    0.000    0.000    0.000    0.000    0.000 
#
# Total GULP energy -297518.148448 kJ/mol
# GULP energy per Si atom -12396.589519 kJ/mol
# Density = 2.148159 g / cm^3
# Si number density = 21.530595 Si / 1000 Ang^3
#
#
#
# Elastic Constant Matrix: (Units=GPa)
#
#
# Indices 1 2 3 4 5 6 
#
# 1 106.1028 34.4762 24.9005 0.0000 -15.0338 0.0000
# 2 34.4762 67.9925 34.1945 0.0000 -0.2029 0.0000
# 3 24.9005 34.1945 56.4575 0.0000 -5.3724 0.0000
# 4 0.0000 0.0000 0.0000 24.0368 0.0000 -7.8894
# 5 -15.0338 -0.2029 -5.3724 0.0000 28.8723 0.0000
# 6 0.0000 0.0000 0.0000 -7.8894 0.0000 12.3669
#
#
#
# Elastic Compliance Matrix: (Units=1/GPa)
#
#
# Indices 1 2 3 4 5 6 
#
# 1 0.012455 -0.005506 -0.001573 0.000000 0.006154 0.000000
# 2 -0.005506 0.023732 -0.012422 0.000000 -0.005012 0.000000
# 3 -0.001573 -0.012422 0.026309 0.000000 0.003989 0.000000
# 4 0.000000 0.000000 0.000000 0.052621 0.000000 0.033569
# 5 0.006154 -0.005012 0.003989 0.000000 0.038547 0.000000
# 6 0.000000 0.000000 0.000000 0.033569 0.000000 0.102277
#
#
# Mechanical properties :
#
#
# Convention : Reuss Voigt Hill
#
# Bulk Modulus (GPa) = 42.56354 46.41057 44.48706
# Shear Modulus (GPa) = 16.51398 22.18730 19.35064
#
# Velocity S-wave (km/s) = 2.77248 3.21362 3.00117
# Velocity P-wave (km/s) = 5.48276 5.94746 5.71983
#
# Compressibility (1/GPa) = 0.02349428
#
# Stress axis : x y z
#
# Youngs Moduli (GPa) = 80.28921 42.13776 38.00933
#
# Poissons Ratio (x) = 0.23201 0.05978
# Poissons Ratio (y) = 0.44208 0.47215
# Poissons Ratio (z) = 0.12628 0.52344
#
# Static dielectric constant tensor:
#      x y z
#    x 3.846310 0.000000 -0.330240 
#    y 0.000000 3.824890 0.000000 
#    z -0.330240 0.000000 4.026190 
# 
# 
# High freq. dielectric constant tensor:
#      x y z
#    x 1.844470 0.000000 -0.016560 
#    y 0.000000 1.834600 0.000000 
#    z -0.016560 0.000000 1.848300 
# 
# From -- ./inp_files/94940.got.cif
#   From: 2010.06.25/outbox.cif.g09.slc.cpg/sg12_48_cif.got.tgz:94940.got - 2010.06.28 00:19:55.
