data_PCOD8113246
_publ_section_title
;
Structure prediction by ZEFSAII (Michael W. Deem and Ramdas Pophale) SiO2 
 PCOD8113246
Probable space group: C 2/M
;
_chemical_formula_sum "Si O2"
_cell_formula_units_Z 48
_cell_length_a 13.290454
_cell_length_b 26.455921
_cell_length_c 8.279693
_cell_angle_alpha 90.000000
_cell_angle_beta 51.774914
_cell_angle_gamma 90.000000
_cell_volume 2287.023900
_symmetry_space_group_name_H-M "C 2/M"
_symmetry_group_IT_number 12
_symmetry_cell_setting 'monoclinic'
loop_
_space_group_symop_operation_xyz
x,y,z
-x,y,-z
-x,-y,-z
x,-y,z
1/2+x,1/2+y,z
1/2-x,1/2+y,-z
1/2-x,1/2-y,-z
1/2+x,1/2-y,z
loop_
_atom_site_type_symbol
_atom_site_label
_atom_site_fract_x
_atom_site_fract_y
_atom_site_fract_z
Si Si1 0.581413 0.557630 0.660852
Si Si2 0.373803 0.855517 0.022116
Si Si3 0.630738 0.694268 0.432920
Si Si4 0.677798 0.787037 0.193194
Si Si5 0.806934 0.942697 0.801061
Si Si6 0.371151 0.656972 0.214420
O O1 0.605906 0.500000 0.694765
O O2 0.654944 0.568617 0.421756
O O3 0.429832 0.567560 0.791834
O O4 0.635297 0.597077 0.738514
O O5 0.260182 0.828703 0.233812
O O6 0.313847 0.908907 0.025348
O O7 0.500000 0.865168 0.000000
O O8 0.415821 0.821100 0.826672
O O9 0.500000 0.665720 0.500000
O O10 0.612425 0.752612 0.394732
O O11 0.637740 0.691899 0.618219
O O12 0.762110 0.829380 0.196876
O O13 0.750000 0.750000 0.000000
O O14 0.761456 0.000000 0.864920
O O15 0.500000 0.672952 0.000000
#
# Coordination Sequence:
#
# PCOD8113246 Si02
#       6
#     8   8   8   8   8   8
#     4   9  18  34  63  97 128 162 205 258 318 375
#     4  11  23  41  64  93 126 164 214 262 314 381
#     4  11  23  42  65  89 123 166 213 264 319 376
#     4  10  24  40  56  85 124 165 210 259 315 375
#     4   9  17  35  63  94 128 166 207 253 309 384
#     4  12  22  36  63  94 129 164 208 265 323 373
#
# _framework density 20.987976
#
# number of rings (size 3 to 8) (size 9 to 14) (size 15 to 20)
#    0.000    1.667    1.667    5.500    0.000    7.333 
#    0.000    0.833    0.000    0.000    0.000    2.333 
#    0.000    0.000    0.000    0.000    0.000    0.000 
#
# Total GULP energy -297435.255441 kJ/mol
# GULP energy per Si atom -12393.135643 kJ/mol
# Density = 2.094021 g / cm^3
# Si number density = 20.987976 Si / 1000 Ang^3
#
#
#
# Elastic Constant Matrix: (Units=GPa)
#
#
# Indices 1 2 3 4 5 6 
#
# 1 92.3865 58.1682 18.1948 0.0000 4.2784 0.0000
# 2 58.1682 143.3660 41.4948 0.0000 8.3228 0.0000
# 3 18.1948 41.4948 61.6689 0.0000 6.5230 0.0000
# 4 0.0000 0.0000 0.0000 -56.0538 0.0000 12.5406
# 5 4.2784 8.3228 6.5230 0.0000 34.6628 0.0000
# 6 0.0000 0.0000 0.0000 12.5406 0.0000 40.0960
#
#
#
# Elastic Compliance Matrix: (Units=1/GPa)
#
#
# Indices 1 2 3 4 5 6 
#
# 1 0.014550 -0.005776 -0.000370 0.000000 -0.000339 0.000000
# 2 -0.005776 0.010990 -0.005598 0.000000 -0.000872 0.000000
# 3 -0.000370 -0.005598 0.020350 0.000000 -0.002440 0.000000
# 4 0.000000 0.000000 0.000000 -0.016673 0.000000 0.005215
# 5 -0.000339 -0.000872 -0.002440 0.000000 0.029560 0.000000
# 6 0.000000 0.000000 0.000000 0.005215 0.000000 0.023309
#
#
# Mechanical properties :
#
#
# Convention : Reuss Voigt Hill
#
# Bulk Modulus (GPa) = 44.64319 59.23744 51.94032
# Shear Modulus (GPa) = 44.23193 15.71188 29.97191
#
# Velocity S-wave (km/s) = 4.59572 2.73905 3.78306
# Velocity P-wave (km/s) = 7.03405 6.18780 6.62445
#
# Compressibility (1/GPa) = 0.02239983
#
# Stress axis : x y z
#
# Youngs Moduli (GPa) = 68.73015 90.99386 49.14094
#
# Poissons Ratio (x) = 0.52562 0.01819
# Poissons Ratio (y) = 0.39702 0.27509
# Poissons Ratio (z) = 0.02544 0.50939
#
# Static dielectric constant tensor:
#      x y z
#    x 3.534300 0.000000 0.149770 
#    y 0.000000 4.136700 0.000000 
#    z 0.149770 0.000000 3.755740 
# 
# 
# High freq. dielectric constant tensor:
#      x y z
#    x 1.806100 0.000000 0.014430 
#    y 0.000000 1.835670 0.000000 
#    z 0.014430 0.000000 1.805750 
# 
# From -- ./inp_files/52460.got.cif
#   From: 2010.06.25/outbox.cif.g09.slc.cpg/sg12_27_cif.got.tgz:52460.got - 2010.06.28 00:19:55.
