data_PCOD8113748
_publ_section_title
;
Structure prediction by ZEFSAII (Michael W. Deem and Ramdas Pophale) SiO2 
 PCOD8113748
Probable space group: C 2/M
;
_chemical_formula_sum "Si O2"
_cell_formula_units_Z 64
_cell_length_a 27.020995
_cell_length_b 9.479262
_cell_length_c 19.243417
_cell_angle_alpha 90.000000
_cell_angle_beta 58.431888
_cell_angle_gamma 90.000000
_cell_volume 4199.591448
_symmetry_space_group_name_H-M "C 2/M"
_symmetry_group_IT_number 12
_symmetry_cell_setting 'monoclinic'
loop_
_space_group_symop_operation_xyz
x,y,z
-x,y,-z
-x,-y,-z
x,-y,z
1/2+x,1/2+y,z
1/2-x,1/2+y,-z
1/2-x,1/2-y,-z
1/2+x,1/2-y,z
loop_
_atom_site_type_symbol
_atom_site_label
_atom_site_fract_x
_atom_site_fract_y
_atom_site_fract_z
Si Si1 0.288231 0.833492 0.026112
Si Si2 0.780822 0.660372 0.187415
Si Si3 0.696569 0.836486 0.509311
Si Si4 0.025940 0.164161 0.829974
Si Si5 0.420884 0.160822 0.932323
Si Si6 0.416796 0.157724 0.095718
Si Si7 0.866505 0.836635 0.343563
Si Si8 0.758108 0.159798 0.329247
O O1 0.266827 0.790970 0.119110
O O2 0.281280 0.000000 0.020004
O O3 0.250000 0.750000 0.000000
O O4 0.355236 0.788825 0.966547
O O5 0.761530 0.500000 0.211897
O O6 0.848495 0.680619 0.151674
O O7 0.745239 0.750769 0.269663
O O8 0.750000 0.750000 0.500000
O O9 0.639165 0.760606 0.582839
O O10 0.702118 0.825817 0.421479
O O11 0.698722 0.000000 0.531283
O O12 0.052003 0.225584 0.881524
O O13 0.069987 0.190818 0.734189
O O14 0.965070 0.240578 0.856636
O O15 0.014391 0.000000 0.850213
O O16 0.428666 0.000000 0.902037
O O17 0.436999 0.175471 0.001605
O O18 0.433187 0.000000 0.109893
O O19 0.817185 0.789922 0.324442
O O20 0.857190 0.000000 0.370821
O O21 0.766655 0.000000 0.298519
#
# Coordination Sequence:
#
# PCOD8113748 Si02
#       8
#     8   8   8   8   8   8   8   8
#     4   9  19  35  51  67  87 110 141 181 221 263
#     4   9  17  28  44  65  85 111 147 179 212 259
#     4   9  17  27  39  56  80 112 149 184 215 251
#     4  11  20  28  40  61  88 114 147 186 214 246
#     4   9  19  33  45  60  84 112 144 179 214 259
#     4   9  17  29  42  57  82 116 148 177 211 251
#     4   9  18  29  38  55  85 117 149 184 215 247
#     4   9  16  27  40  58  85 112 143 184 218 246
#
# _framework density 15.239578
#
# number of rings (size 3 to 8) (size 9 to 14) (size 15 to 20)
#    0.000    2.750    1.250    3.375    0.000    6.500 
#    0.000    2.500    0.000    0.000    0.000    0.000 
#    0.000    1.000    0.000   11.000    0.000    8.000 
#
# Total GULP energy -396647.520723 kJ/mol
# GULP energy per Si atom -12395.235023 kJ/mol
# Density = 1.520489 g / cm^3
# Si number density = 15.239578 Si / 1000 Ang^3
#
#
#
# Elastic Constant Matrix: (Units=GPa)
#
#
# Indices 1 2 3 4 5 6 
#
# 1 52.0691 39.5786 40.6684 0.0000 4.2602 -0.0001
# 2 39.5786 90.2790 66.4336 0.0000 0.2336 -0.0004
# 3 40.6684 66.4336 104.8430 0.0000 0.0751 0.0000
# 4 0.0000 0.0000 0.0000 31.6873 0.0000 0.4751
# 5 4.2602 0.2336 0.0751 0.0000 13.1455 0.0000
# 6 -0.0001 -0.0004 0.0000 0.4751 0.0000 22.5441
#
#
#
# Elastic Compliance Matrix: (Units=1/GPa)
#
#
# Indices 1 2 3 4 5 6 
#
# 1 0.032249 -0.009203 -0.006671 0.000000 -0.010250 0.000000
# 2 -0.009203 0.023381 -0.011248 0.000000 0.002631 0.000000
# 3 -0.006671 -0.011248 0.019251 0.000000 0.002252 0.000000
# 4 0.000000 0.000000 0.000000 0.031568 0.000000 -0.000665
# 5 -0.010250 0.002631 0.002252 0.000000 0.079334 0.000000
# 6 0.000000 0.000000 0.000000 -0.000665 0.000000 0.044371
#
#
# Mechanical properties :
#
#
# Convention : Reuss Voigt Hill
#
# Bulk Modulus (GPa) = 48.45149 60.06138 54.25643
# Shear Modulus (GPa) = 17.16575 20.17607 18.67091
#
# Velocity S-wave (km/s) = 3.35982 3.64253 3.50402
# Velocity P-wave (km/s) = 6.84933 7.56225 7.21461
#
# Compressibility (1/GPa) = 0.02063920
#
# Stress axis : x y z
#
# Youngs Moduli (GPa) = 31.00844 42.76905 51.94513
#
# Poissons Ratio (x) = 0.39360 0.34651
# Poissons Ratio (y) = 0.28537 0.58426
# Poissons Ratio (z) = 0.20685 0.48105
#
# Static dielectric constant tensor:
#      x y z
#    x 2.518440 0.000000 -0.092710 
#    y 0.000000 3.000460 0.000000 
#    z -0.092710 0.000000 3.241200 
# 
# 
# High freq. dielectric constant tensor:
#      x y z
#    x 1.524450 0.000000 -0.009070 
#    y 0.000000 1.592010 0.000000 
#    z -0.009070 0.000000 1.588060 
# 
# From -- ./inp_files/323687.got.cif
#   From: 2010.06.25/outbox.cif.g09.slc.cpg/sg12_162_cif.got.tgz:323687.got - 2010.06.28 00:19:55.
