data_PCOD8113594
_publ_section_title
;
Structure prediction by ZEFSAII (Michael W. Deem and Ramdas Pophale) SiO2 
 PCOD8113594
Probable space group: C 2/M
;
_chemical_formula_sum "Si O2"
_cell_formula_units_Z 56
_cell_length_a 26.318231
_cell_length_b 21.461604
_cell_length_c 17.229347
_cell_angle_alpha 90.000000
_cell_angle_beta 19.634980
_cell_angle_gamma 90.000000
_cell_volume 3270.102833
_symmetry_space_group_name_H-M "C 2/M"
_symmetry_group_IT_number 12
_symmetry_cell_setting 'monoclinic'
loop_
_space_group_symop_operation_xyz
x,y,z
-x,y,-z
-x,-y,-z
x,-y,z
1/2+x,1/2+y,z
1/2-x,1/2+y,-z
1/2-x,1/2-y,-z
1/2+x,1/2-y,z
loop_
_atom_site_type_symbol
_atom_site_label
_atom_site_fract_x
_atom_site_fract_y
_atom_site_fract_z
Si Si1 0.377862 0.220769 0.610434
Si Si2 0.090800 0.240338 0.797536
Si Si3 0.672924 0.069074 0.771645
Si Si4 0.670474 0.679400 0.027545
Si Si5 0.649890 0.170251 0.930821
Si Si6 0.619874 0.181698 0.143925
Si Si7 0.155714 0.167490 0.559617
O O1 0.500000 0.237612 0.500000
O O2 0.293616 0.284850 0.710739
O O3 0.457569 0.190223 0.420026
O O4 0.258705 0.170211 0.818292
O O5 0.121025 0.180449 0.700004
O O6 0.243478 0.272585 0.611542
O O7 0.000000 0.212553 0.000000
O O8 0.000178 0.294443 0.882897
O O9 0.691397 0.109013 0.822844
O O10 0.755859 0.103064 0.580082
O O11 0.742776 0.000000 0.682921
O O12 0.500000 0.063133 0.000000
O O13 0.686106 0.752532 0.021169
O O14 0.496747 0.659914 0.271665
O O15 0.760311 0.647043 0.970184
O O16 0.612795 0.145563 0.071853
#
# Coordination Sequence:
#
# PCOD8113594 Si02
#       7
#     8   8   8   8   8   8   8
#     4   9  17  28  45  74 111 139 159 198 262 322
#     4  11  21  31  48  81 105 128 157 215 275 306
#     4  11  23  39  53  69 101 146 183 202 238 305
#     4   9  17  28  43  72 101 136 165 199 257 316
#     4  11  18  32  48  76 101 134 170 215 246 305
#     4   9  17  27  45  69 104 136 163 199 256 313
#     4  11  19  33  52  72 107 133 167 212 258 306
#
# _framework density 17.124842999999998
#
# number of rings (size 3 to 8) (size 9 to 14) (size 15 to 20)
#    0.000    1.857    5.714    1.714    0.000    0.000 
#    0.000    0.000    0.000    4.286    0.000    1.000 
#    0.000    3.429    0.000    0.000    0.000    0.000 
#
# Total GULP energy -346892.528842 kJ/mol
# GULP energy per Si atom -12389.018887 kJ/mol
# Density = 1.708587 g / cm^3
# Si number density = 17.124843 Si / 1000 Ang^3
#
#
#
# Elastic Constant Matrix: (Units=GPa)
#
#
# Indices 1 2 3 4 5 6 
#
# 1 91.7365 40.6782 53.5179 -0.0116 19.4566 0.0027
# 2 40.6782 75.7261 30.7247 -0.0068 11.5050 0.0022
# 3 53.5179 30.7247 116.6636 -0.0174 12.8505 0.0045
# 4 -0.0116 -0.0068 -0.0174 7.8868 0.0109 0.0148
# 5 19.4566 11.5050 12.8505 0.0109 40.3976 -0.0032
# 6 0.0027 0.0022 0.0045 0.0148 -0.0032 10.2004
#
#
#
# Elastic Compliance Matrix: (Units=1/GPa)
#
#
# Indices 1 2 3 4 5 6 
#
# 1 0.018550 -0.006683 -0.006192 0.000015 -0.005061 -0.000002
# 2 -0.006683 0.017573 -0.001415 0.000004 -0.001336 -0.000002
# 3 -0.006192 -0.001415 0.011826 0.000016 -0.000377 -0.000003
# 4 0.000015 0.000004 0.000016 0.126795 -0.000048 -0.000185
# 5 -0.005061 -0.001336 -0.000377 -0.000048 0.027692 0.000011
# 6 -0.000002 -0.000002 -0.000003 -0.000185 0.000011 0.098036
#
#
# Mechanical properties :
#
#
# Convention : Reuss Voigt Hill
#
# Bulk Modulus (GPa) = 51.63042 59.32978 55.48010
# Shear Modulus (GPa) = 14.90275 22.31064 18.60669
#
# Velocity S-wave (km/s) = 2.95319 3.61338 3.29983
# Velocity P-wave (km/s) = 6.46864 7.22006 6.85466
#
# Compressibility (1/GPa) = 0.01936843
#
# Stress axis : x y z
#
# Youngs Moduli (GPa) = 53.90783 56.90657 84.55740
#
# Poissons Ratio (x) = 0.38033 0.52358
# Poissons Ratio (y) = 0.36029 0.11964
# Poissons Ratio (z) = 0.33380 0.08052
#
# Static dielectric constant tensor:
#      x y z
#    x 3.679180 0.000000 0.118940 
#    y 0.000000 2.715730 0.000010 
#    z 0.118940 0.000010 3.557500 
# 
# 
# High freq. dielectric constant tensor:
#      x y z
#    x 1.676350 0.000000 0.003980 
#    y 0.000000 1.568160 0.000000 
#    z 0.003980 0.000000 1.686040 
# 
# From -- ./inp_files/294229.got.cif
#   From: 2010.06.25/outbox.cif.g09.slc.cpg/sg12_148_cif.got.tgz:294229.got - 2010.06.28 00:19:55.
