data_PCOD8113659
_publ_section_title
;
Structure prediction by ZEFSAII (Michael W. Deem and Ramdas Pophale) SiO2 
 PCOD8113659
Probable space group: C 2/M
;
_chemical_formula_sum "Si O2"
_cell_formula_units_Z 52
_cell_length_a 23.576751
_cell_length_b 29.090419
_cell_length_c 7.934737
_cell_angle_alpha 90.000000
_cell_angle_beta 148.323294
_cell_angle_gamma 90.000000
_cell_volume 2857.786281
_symmetry_space_group_name_H-M "C 2/M"
_symmetry_group_IT_number 12
_symmetry_cell_setting 'monoclinic'
loop_
_space_group_symop_operation_xyz
x,y,z
-x,y,-z
-x,-y,-z
x,-y,z
1/2+x,1/2+y,z
1/2-x,1/2+y,-z
1/2-x,1/2-y,-z
1/2+x,1/2-y,z
loop_
_atom_site_type_symbol
_atom_site_label
_atom_site_fract_x
_atom_site_fract_y
_atom_site_fract_z
Si Si1 0.643770 0.646089 0.172428
Si Si2 0.894279 0.695292 0.302879
Si Si3 0.945093 0.789756 0.603901
Si Si4 0.797993 0.861549 0.047637
Si Si5 0.413874 0.550844 0.430292
Si Si6 0.260856 0.286935 0.385167
Si Si7 0.000000 0.076512 0.000000
O O1 0.747771 0.664456 0.539402
O O2 0.595025 0.607678 0.168272
O O3 0.563288 0.689027 0.929517
O O4 0.689076 0.625618 0.114634
O O5 0.944478 0.737525 0.535195
O O6 0.000000 0.668489 0.500000
O O7 0.822209 0.658485 0.222564
O O8 0.824819 0.718719 0.979065
O O9 0.883990 0.823278 0.319018
O O10 0.882658 0.786763 0.621816
O O11 0.821286 0.909837 0.202173
O O12 0.500000 0.564270 0.500000
O O13 0.366771 0.500000 0.269876
O O14 0.462736 0.547212 0.743284
O O15 0.250000 0.250000 0.500000
#
# Coordination Sequence:
#
# PCOD8113659 Si02
#       7
#     8   8   8   8   8   8   4
#     4  12  20  33  56  81 111 148 184 232 288 343
#     4  11  23  36  51  73 106 152 200 236 275 325
#     4  11  19  33  51  77 107 147 184 222 287 343
#     4  11  20  37  55  76 111 151 184 224 285 338
#     4  11  22  37  59  88 120 149 182 228 288 353
#     4  11  20  31  46  75 106 142 195 240 271 325
#     4  12  19  36  54  88 118 146 182 216 283 350
#
# _framework density 18.195902
#
# number of rings (size 3 to 8) (size 9 to 14) (size 15 to 20)
#    0.000    0.769    4.615    7.154    0.000    0.000 
#    0.000    2.308    0.000    0.462    0.000    0.000 
#    0.000    2.462    0.000    0.000    0.000    0.000 
#
# Total GULP energy -322102.215569 kJ/mol
# GULP energy per Si atom -12388.546753 kJ/mol
# Density = 1.815449 g / cm^3
# Si number density = 18.195902 Si / 1000 Ang^3
#
#
#
# Elastic Constant Matrix: (Units=GPa)
#
#
# Indices 1 2 3 4 5 6 
#
# 1 114.4567 20.7846 16.6881 0.0000 -10.6700 0.0000
# 2 20.7846 94.8603 15.3027 0.0000 8.3135 0.0000
# 3 16.6881 15.3027 33.0537 0.0000 5.1699 0.0000
# 4 0.0000 0.0000 0.0000 16.6882 0.0000 -3.0880
# 5 -10.6700 8.3135 5.1699 0.0000 26.8560 0.0000
# 6 0.0000 0.0000 0.0000 -3.0880 0.0000 14.3814
#
#
#
# Elastic Compliance Matrix: (Units=1/GPa)
#
#
# Indices 1 2 3 4 5 6 
#
# 1 0.010387 -0.001932 -0.005247 0.000000 0.005735 0.000000
# 2 -0.001932 0.011929 -0.003969 0.000000 -0.003696 0.000000
# 3 -0.005247 -0.003969 0.035957 0.000000 -0.007778 0.000000
# 4 0.000000 0.000000 0.000000 0.062402 0.000000 0.013399
# 5 0.005735 -0.003696 -0.007778 0.000000 0.042156 0.000000
# 6 0.000000 0.000000 0.000000 0.013399 0.000000 0.072412
#
#
# Mechanical properties :
#
#
# Convention : Reuss Voigt Hill
#
# Bulk Modulus (GPa) = 27.79535 38.65793 33.22664
# Shear Modulus (GPa) = 18.55066 24.22480 21.38773
#
# Velocity S-wave (km/s) = 3.19642 3.65270 3.43215
# Velocity P-wave (km/s) = 5.37881 6.25149 5.83150
#
# Compressibility (1/GPa) = 0.03597725
#
# Stress axis : x y z
#
# Youngs Moduli (GPa) = 96.26993 83.82620 27.81103
#
# Poissons Ratio (x) = 0.16197 0.14592
# Poissons Ratio (y) = 0.18601 0.11039
# Poissons Ratio (z) = 0.50512 0.33273
#
# Static dielectric constant tensor:
#      x y z
#    x 3.800840 0.000000 -0.316580 
#    y 0.000000 3.058490 0.000000 
#    z -0.316580 0.000000 3.738490 
# 
# 
# High freq. dielectric constant tensor:
#      x y z
#    x 1.729730 0.000000 -0.022930 
#    y 0.000000 1.679310 0.000000 
#    z -0.022930 0.000000 1.677190 
# 
# From -- ./inp_files/100170.got.cif
#   From: 2010.06.25/outbox.cif.g09.slc.cpg/sg12_51_cif.got.tgz:100170.got - 2010.06.28 00:19:55.
