data_PCOD8113414
_publ_section_title
;
Structure prediction by ZEFSAII (Michael W. Deem and Ramdas Pophale) SiO2 
 PCOD8113414
Probable space group: C 2/M
;
_chemical_formula_sum "Si O2"
_cell_formula_units_Z 36
_cell_length_a 10.783289
_cell_length_b 14.904812
_cell_length_c 26.575049
_cell_angle_alpha 90.000000
_cell_angle_beta 156.891864
_cell_angle_gamma 90.000000
_cell_volume 1676.315542
_symmetry_space_group_name_H-M "C 2/M"
_symmetry_group_IT_number 12
_symmetry_cell_setting 'monoclinic'
loop_
_space_group_symop_operation_xyz
x,y,z
-x,y,-z
-x,-y,-z
x,-y,z
1/2+x,1/2+y,z
1/2-x,1/2+y,-z
1/2-x,1/2-y,-z
1/2+x,1/2-y,z
loop_
_atom_site_type_symbol
_atom_site_label
_atom_site_fract_x
_atom_site_fract_y
_atom_site_fract_z
Si Si1 0.242873 0.688328 0.547339
Si Si2 0.744500 0.854534 0.051475
Si Si3 0.729228 0.000000 0.495799
Si Si4 0.537972 0.167321 0.161006
Si Si5 0.462337 0.000000 0.770622
Si Si6 0.753419 0.500000 0.230938
O O1 0.250000 0.750000 0.500000
O O2 0.133669 0.587991 0.491833
O O3 0.589490 0.687965 0.701010
O O4 0.000000 0.724430 0.500000
O O5 0.838578 0.754063 0.102319
O O6 0.500000 0.894220 0.000000
O O7 0.566736 0.863964 0.932687
O O8 0.061869 0.911031 0.171811
O O9 0.096769 0.000000 0.620288
O O10 0.565387 0.000000 0.380713
O O11 0.446952 0.089006 0.165284
O O12 0.667577 0.000000 0.797763
#
# Coordination Sequence:
#
# PCOD8113414 Si02
#       6
#     8   8   4   8   4   4
#     4  11  25  44  71 103 134 179 224 279 339 400
#     4  11  26  43  65  98 135 177 223 274 328 396
#     4  10  24  45  67 101 135 176 216 281 333 399
#     4  10  25  43  68  96 136 176 217 280 332 397
#     4  10  24  45  69  99 133 171 225 273 341 399
#     4  12  25  42  71 100 132 177 224 277 330 399
#
# _framework density 21.475670999999998
#
# number of rings (size 3 to 8) (size 9 to 14) (size 15 to 20)
#    0.000    1.333    0.000    3.000   12.444    6.222 
#    0.000    0.000    0.000    0.000    0.000    0.000 
#    0.000    0.000    0.000    0.000    0.000    0.000 
#
# Total GULP energy -223281.487902 kJ/mol
# GULP energy per Si atom -12404.527106 kJ/mol
# Density = 2.142679 g / cm^3
# Si number density = 21.475671 Si / 1000 Ang^3
#
#
#
# Elastic Constant Matrix: (Units=GPa)
#
#
# Indices 1 2 3 4 5 6 
#
# 1 158.7214 74.0840 48.3946 0.0163 11.7573 -0.0027
# 2 74.0840 114.8475 52.1981 0.0418 -14.6094 -0.0042
# 3 48.3946 52.1981 113.3897 0.0415 -20.3410 -0.0119
# 4 0.0163 0.0418 0.0415 -5.2654 -0.0289 -2.1428
# 5 11.7573 -14.6094 -20.3410 -0.0289 34.1247 0.0029
# 6 -0.0027 -0.0042 -0.0119 -2.1428 0.0029 23.7174
#
#
#
# Elastic Compliance Matrix: (Units=1/GPa)
#
#
# Indices 1 2 3 4 5 6 
#
# 1 0.011072 -0.006812 -0.003132 0.000003 -0.008598 0.000000
# 2 -0.006812 0.015313 -0.002849 0.000037 0.007205 0.000003
# 3 -0.003132 -0.002849 0.012812 0.000025 0.007496 0.000007
# 4 0.000003 0.000037 0.000025 -0.183184 -0.000124 -0.016550
# 5 -0.008598 0.007205 0.007496 -0.000124 0.039819 -0.000012
# 6 0.000000 0.000003 0.000007 -0.016550 -0.000012 0.040668
#
#
# Mechanical properties :
#
#
# Convention : Reuss Voigt Hill
#
# Bulk Modulus (GPa) = 73.47489 81.81243 77.64366
# Shear Modulus (GPa) = -149.80703 24.66749 -62.56977
#
# Velocity S-wave (km/s) = -8.36110 3.39281 -5.40356
# Velocity P-wave (km/s) = 7.67616 7.31617 1.64272
#
# Compressibility (1/GPa) = 0.01361009
#
# Stress axis : x y z
#
# Youngs Moduli (GPa) = 90.31912 65.30352 78.05052
#
# Poissons Ratio (x) = 0.44487 0.24444
# Poissons Ratio (y) = 0.61529 0.22239
# Poissons Ratio (z) = 0.28286 0.18607
#
# Static dielectric constant tensor:
#      x y z
#    x 3.722440 0.000010 -0.082320 
#    y 0.000010 4.092660 -0.000030 
#    z -0.082320 -0.000030 3.990990 
# 
# 
# High freq. dielectric constant tensor:
#      x y z
#    x 1.843550 0.000000 -0.005280 
#    y 0.000000 1.855660 0.000000 
#    z -0.005280 0.000000 1.860850 
# 
# From -- ./inp_files/374175.got.cif
#   From: 2010.06.25/outbox.cif.g09.slc.cpg/sg12_188_cif.got.tgz:374175.got - 2010.06.28 00:19:55.
