data_PCOD8113177
_publ_section_title
;
Structure prediction by ZEFSAII (Michael W. Deem and Ramdas Pophale) SiO2 
 PCOD8113177
Probable space group: C 2/M
;
_chemical_formula_sum "Si O2"
_cell_formula_units_Z 48
_cell_length_a 11.721639
_cell_length_b 18.164991
_cell_length_c 11.172587
_cell_angle_alpha 90.000000
_cell_angle_beta 66.162311
_cell_angle_gamma 90.000000
_cell_volume 2175.971052
_symmetry_space_group_name_H-M "C 2/M"
_symmetry_group_IT_number 12
_symmetry_cell_setting 'monoclinic'
loop_
_space_group_symop_operation_xyz
x,y,z
-x,y,-z
-x,-y,-z
x,-y,z
1/2+x,1/2+y,z
1/2-x,1/2+y,-z
1/2-x,1/2-y,-z
1/2+x,1/2-y,z
loop_
_atom_site_type_symbol
_atom_site_label
_atom_site_fract_x
_atom_site_fract_y
_atom_site_fract_z
Si Si1 0.031275 0.915419 0.853446
Si Si2 0.935935 0.330961 0.744914
Si Si3 0.839260 0.827846 0.786124
Si Si4 0.793883 0.416192 0.628264
Si Si5 0.867469 0.417705 0.995488
Si Si6 0.222057 0.323195 0.585450
O O1 0.176891 0.905300 0.766395
O O2 0.959074 0.872783 0.779388
O O3 0.989582 0.000000 0.863973
O O4 0.000000 0.884226 0.000000
O O5 0.860453 0.257287 0.808675
O O6 0.903660 0.361643 0.626342
O O7 0.082726 0.317274 0.697151
O O8 0.886629 0.395665 0.850700
O O9 0.718336 0.858181 0.903932
O O10 0.820326 0.834511 0.651253
O O11 0.840368 0.500000 0.607352
O O12 0.760723 0.393820 0.506794
O O13 0.808411 0.500000 0.025413
O O14 0.000000 0.416911 0.000000
O O15 0.250000 0.250000 0.500000
#
# Coordination Sequence:
#
# PCOD8113177 Si02
#       6
#     8   8   8   8   8   8
#     4  10  23  45  71 101 139 180 228 290 353 416
#     4  12  25  44  71  98 138 186 228 286 352 414
#     4  12  25  43  75  99 138 184 234 283 351 416
#     4  11  25  43  68 101 137 184 236 284 344 417
#     4  11  24  44  68 102 139 171 223 288 348 415
#     4  12  26  46  66 101 142 185 236 290 343 407
#
# _framework density 22.059117000000001
#
# number of rings (size 3 to 8) (size 9 to 14) (size 15 to 20)
#    0.000    0.667    3.333    4.000    0.000    7.333 
#    0.000    1.667    0.000    0.000    0.000    0.000 
#    0.000    0.000    0.000    0.000    0.000    0.000 
#
# Total GULP energy -297699.871897 kJ/mol
# GULP energy per Si atom -12404.161329 kJ/mol
# Density = 2.200891 g / cm^3
# Si number density = 22.059117 Si / 1000 Ang^3
#
#
#
# Elastic Constant Matrix: (Units=GPa)
#
#
# Indices 1 2 3 4 5 6 
#
# 1 98.6214 52.3458 27.5829 0.0000 22.2726 0.0000
# 2 52.3458 142.7370 42.7131 0.0000 2.7994 0.0000
# 3 27.5829 42.7131 100.5868 0.0000 11.8130 0.0000
# 4 0.0000 0.0000 0.0000 39.9025 0.0000 9.3114
# 5 22.2726 2.7994 11.8130 0.0000 42.0174 0.0000
# 6 0.0000 0.0000 0.0000 9.3114 0.0000 13.1765
#
#
#
# Elastic Compliance Matrix: (Units=1/GPa)
#
#
# Indices 1 2 3 4 5 6 
#
# 1 0.014665 -0.004909 -0.001098 0.000000 -0.007138 0.000000
# 2 -0.004909 0.009677 -0.003095 0.000000 0.002828 0.000000
# 3 -0.001098 -0.003095 0.011856 0.000000 -0.002545 0.000000
# 4 0.000000 0.000000 0.000000 0.030010 0.000000 -0.021207
# 5 -0.007138 0.002828 -0.002545 0.000000 0.028110 0.000000
# 6 0.000000 0.000000 0.000000 -0.021207 0.000000 0.090879
#
#
# Mechanical properties :
#
#
# Convention : Reuss Voigt Hill
#
# Bulk Modulus (GPa) = 55.58001 65.24765 60.41383
# Shear Modulus (GPa) = 23.87780 33.63952 28.75866
#
# Velocity S-wave (km/s) = 3.29362 3.90932 3.61461
# Velocity P-wave (km/s) = 6.30195 7.07247 6.69830
#
# Compressibility (1/GPa) = 0.01799208
#
# Stress axis : x y z
#
# Youngs Moduli (GPa) = 68.19117 103.33783 84.34521
#
# Poissons Ratio (x) = 0.50731 0.09265
# Poissons Ratio (y) = 0.33477 0.26106
# Poissons Ratio (z) = 0.07490 0.31984
#
# Static dielectric constant tensor:
#      x y z
#    x 4.040200 0.000000 0.100780 
#    y 0.000000 4.076080 0.000000 
#    z 0.100780 0.000000 4.001820 
# 
# 
# High freq. dielectric constant tensor:
#      x y z
#    x 1.879190 0.000000 0.005900 
#    y 0.000000 1.873790 0.000000 
#    z 0.005900 0.000000 1.870920 
# 
# From -- ./inp_files/131639.got.cif
#   From: 2010.06.25/outbox.cif.g09.slc.cpg/sg12_66_cif.got.tgz:131639.got - 2010.06.28 00:19:55.
