data_PCOD8113677
_publ_section_title
;
Structure prediction by ZEFSAII (Michael W. Deem and Ramdas Pophale) SiO2 
 PCOD8113677
Probable space group: C 2/M
;
_chemical_formula_sum "Si O2"
_cell_formula_units_Z 48
_cell_length_a 19.947203
_cell_length_b 27.656880
_cell_length_c 10.012254
_cell_angle_alpha 90.000000
_cell_angle_beta 28.720241
_cell_angle_gamma 90.000000
_cell_volume 2654.242356
_symmetry_space_group_name_H-M "C 2/M"
_symmetry_group_IT_number 12
_symmetry_cell_setting 'monoclinic'
loop_
_space_group_symop_operation_xyz
x,y,z
-x,y,-z
-x,-y,-z
x,-y,z
1/2+x,1/2+y,z
1/2-x,1/2+y,-z
1/2-x,1/2-y,-z
1/2+x,1/2-y,z
loop_
_atom_site_type_symbol
_atom_site_label
_atom_site_fract_x
_atom_site_fract_y
_atom_site_fract_z
Si Si1 0.906003 0.205113 0.033409
Si Si2 0.274302 0.553723 0.372716
Si Si3 0.648432 0.151446 0.594286
Si Si4 0.352620 0.185996 0.102857
Si Si5 0.933630 0.150056 0.476132
Si Si6 0.983426 0.945981 0.248455
O O1 0.775735 0.169816 0.282148
O O2 0.845475 0.256598 0.094955
O O3 0.000000 0.211170 0.000000
O O4 0.001931 0.183107 0.751495
O O5 0.208608 0.500000 0.497557
O O6 0.151150 0.593024 0.591292
O O7 0.373478 0.564547 0.324181
O O8 0.362189 0.558448 0.082891
O O9 0.665877 0.173709 0.709794
O O10 0.500863 0.166709 0.788990
O O11 0.231600 0.160582 0.228636
O O12 0.961695 0.093265 0.402032
O O13 0.000000 0.165135 0.500000
O O14 0.961776 0.000000 0.345526
#
# Coordination Sequence:
#
# PCOD8113677 Si02
#       6
#     8   8   8   8   8   8
#     4  12  20  38  64  84 109 156 196 227 277 342
#     4   9  16  30  58  89 110 139 184 237 285 331
#     4  11  19  34  59  89 112 142 186 246 276 331
#     4  11  23  35  56  90 115 143 193 240 282 322
#     4  12  25  39  57  85 119 151 190 235 281 335
#     4   9  17  33  57  84 111 144 190 231 275 336
#
# _framework density 18.084256
#
# number of rings (size 3 to 8) (size 9 to 14) (size 15 to 20)
#    0.000    1.333    6.667    2.500    0.000    1.000 
#    0.000    3.333    0.000    0.000    0.000    2.333 
#    0.000    0.000    0.000    0.000    0.000    0.000 
#
# Total GULP energy -297636.631464 kJ/mol
# GULP energy per Si atom -12401.526311 kJ/mol
# Density = 1.804310 g / cm^3
# Si number density = 18.084256 Si / 1000 Ang^3
#
#
#
# Elastic Constant Matrix: (Units=GPa)
#
#
# Indices 1 2 3 4 5 6 
#
# 1 73.6310 15.1830 22.6203 0.0000 -10.9192 0.0003
# 2 15.1830 131.1475 23.9833 0.0002 -4.1980 0.0002
# 3 22.6203 23.9833 61.3984 -0.0031 -16.4838 0.0018
# 4 0.0000 0.0002 -0.0031 12.6654 0.0009 -3.7242
# 5 -10.9192 -4.1980 -16.4838 0.0009 20.2224 -0.0005
# 6 0.0003 0.0002 0.0018 -3.7242 -0.0005 4.0601
#
#
#
# Elastic Compliance Matrix: (Units=1/GPa)
#
#
# Indices 1 2 3 4 5 6 
#
# 1 0.015772 -0.000913 -0.004120 -0.000001 0.004968 0.000000
# 2 -0.000913 0.008286 -0.003291 -0.000001 -0.001456 0.000000
# 3 -0.004120 -0.003291 0.023439 0.000003 0.016198 -0.000005
# 4 -0.000001 -0.000001 0.000003 0.108114 0.000000 0.099168
# 5 0.004968 -0.001456 0.016198 0.000000 0.065034 0.000001
# 6 0.000000 0.000000 -0.000005 0.099168 0.000001 0.337261
#
#
# Mechanical properties :
#
#
# Convention : Reuss Voigt Hill
#
# Bulk Modulus (GPa) = 32.41658 43.30555 37.86107
# Shear Modulus (GPa) = 8.54937 21.01561 14.78249
#
# Velocity S-wave (km/s) = 2.17664 3.41265 2.86216
# Velocity P-wave (km/s) = 4.92760 6.28703 5.64836
#
# Compressibility (1/GPa) = 0.03084841
#
# Stress axis : x y z
#
# Youngs Moduli (GPa) = 63.40315 120.68582 42.66349
#
# Poissons Ratio (x) = 0.11024 0.17578
# Poissons Ratio (y) = 0.05792 0.14040
# Poissons Ratio (z) = 0.26123 0.39717
#
# Static dielectric constant tensor:
#      x y z
#    x 2.956790 0.000000 -0.171070 
#    y 0.000000 3.591130 0.000000 
#    z -0.171070 0.000000 3.474400 
# 
# 
# High freq. dielectric constant tensor:
#      x y z
#    x 1.651540 0.000000 -0.010460 
#    y 0.000000 1.721780 0.000000 
#    z -0.010460 0.000000 1.695090 
# 
# From -- ./inp_files/80599.got.cif
#   From: 2010.06.25/outbox.cif.g09.slc.cpg/sg12_41_cif.got.tgz:80599.got - 2010.06.28 00:19:55.
