data_PCOD8113194
_publ_section_title
;
Structure prediction by ZEFSAII (Michael W. Deem and Ramdas Pophale) SiO2 
 PCOD8113194
Probable space group: C 2/M
;
_chemical_formula_sum "Si O2"
_cell_formula_units_Z 28
_cell_length_a 12.977435
_cell_length_b 16.295057
_cell_length_c 4.881658
_cell_angle_alpha 90.000000
_cell_angle_beta 77.631641
_cell_angle_gamma 90.000000
_cell_volume 1008.355379
_symmetry_space_group_name_H-M "C 2/M"
_symmetry_group_IT_number 12
_symmetry_cell_setting 'monoclinic'
loop_
_space_group_symop_operation_xyz
x,y,z
-x,y,-z
-x,-y,-z
x,-y,z
1/2+x,1/2+y,z
1/2-x,1/2+y,-z
1/2-x,1/2-y,-z
1/2+x,1/2-y,z
loop_
_atom_site_type_symbol
_atom_site_label
_atom_site_fract_x
_atom_site_fract_y
_atom_site_fract_z
Si Si1 0.423980 0.000000 0.790673
Si Si2 0.708425 0.152167 0.002328
Si Si3 0.122577 0.911327 0.461614
Si Si4 0.381976 0.236792 0.455355
O O1 0.500000 0.000000 0.500000
O O2 0.500000 0.000000 0.000000
O O3 0.352216 0.080377 0.807060
O O4 0.823068 0.114769 0.858090
O O5 0.639287 0.172535 0.770292
O O6 0.702101 0.226946 0.235631
O O7 0.138792 0.830742 0.645455
O O8 0.000000 0.925257 0.500000
O O9 0.169887 0.000000 0.538610
O O10 0.500000 0.225691 0.500000
#
# Coordination Sequence:
#
# PCOD8113194 Si02
#       4
#     4   8   8   8
#     4  12  24  40  67 102 141 180 220 282 349 416
#     4  12  23  45  69 104 141 182 233 286 352 413
#     4  10  23  46  71 102 140 187 239 287 342 413
#     4  11  24  43  73 104 140 182 232 289 349 416
#
# _framework density 27.767983999999998
#
# number of rings (size 3 to 8) (size 9 to 14) (size 15 to 20)
#    0.000    0.857    1.429    6.857    0.000    0.000 
#    0.000    8.571    0.000   17.143    0.000    0.000 
#    0.000    0.000    0.000    0.000    0.000    0.000 
#
# Total GULP energy -173453.176820 kJ/mol
# GULP energy per Si atom -12389.512630 kJ/mol
# Density = 2.770478 g / cm^3
# Si number density = 27.767984 Si / 1000 Ang^3
#
#
#
# Elastic Constant Matrix: (Units=GPa)
#
#
# Indices 1 2 3 4 5 6 
#
# 1 100.7052 67.0827 28.4476 0.0000 -42.9160 0.0000
# 2 67.0827 187.7406 73.3066 0.0000 -11.3081 0.0000
# 3 28.4476 73.3066 144.9982 0.0000 -22.1726 0.0000
# 4 0.0000 0.0000 0.0000 30.2114 0.0000 -0.0008
# 5 -42.9160 -11.3081 -22.1726 0.0000 50.7488 0.0000
# 6 0.0000 0.0000 0.0000 -0.0008 0.0000 22.7788
#
#
#
# Elastic Compliance Matrix: (Units=1/GPa)
#
#
# Indices 1 2 3 4 5 6 
#
# 1 0.022055 -0.007702 0.002311 0.000000 0.017944 0.000000
# 2 -0.007702 0.009326 -0.004160 0.000000 -0.006253 0.000000
# 3 0.002311 -0.004160 0.009327 0.000000 0.005102 0.000000
# 4 0.000000 0.000000 0.000000 0.033100 0.000000 0.000001
# 5 0.017944 -0.006253 0.005102 0.000000 0.035715 0.000000
# 6 0.000000 0.000000 0.000000 0.000001 0.000000 0.043900
#
#
# Mechanical properties :
#
#
# Convention : Reuss Voigt Hill
#
# Bulk Modulus (GPa) = 46.28521 85.67974 65.98248
# Shear Modulus (GPa) = 27.81983 38.38829 33.10406
#
# Velocity S-wave (km/s) = 3.16866 3.72219 3.45652
# Velocity P-wave (km/s) = 5.48561 7.02819 6.30426
#
# Compressibility (1/GPa) = 0.02160517
#
# Stress axis : x y z
#
# Youngs Moduli (GPa) = 45.34182 107.22328 107.21885
#
# Poissons Ratio (x) = 0.82583 -0.24777
# Poissons Ratio (y) = 0.34922 0.44605
# Poissons Ratio (z) = -0.10478 0.44607
#
# Static dielectric constant tensor:
#      x y z
#    x 5.097130 0.000000 -0.607110 
#    y 0.000000 6.114330 0.000000 
#    z -0.607110 0.000000 4.950390 
# 
# 
# High freq. dielectric constant tensor:
#      x y z
#    x 2.131100 0.000000 -0.032910 
#    y 0.000000 2.167900 0.000000 
#    z -0.032910 0.000000 2.111900 
# 
# From -- ./inp_files/5896.got.cif
#   From: 2010.06.25/outbox.cif.g09.slc.cpg/sg12_3_cif.got.tgz:5896.got - 2010.06.28 00:19:55.
