data_PCOD8113476
_publ_section_title
;
Structure prediction by ZEFSAII (Michael W. Deem and Ramdas Pophale) SiO2 
 PCOD8113476
Probable space group: C 2/M
;
_chemical_formula_sum "Si O2"
_cell_formula_units_Z 64
_cell_length_a 13.613042
_cell_length_b 22.924721
_cell_length_c 9.344226
_cell_angle_alpha 90.000000
_cell_angle_beta 90.871539
_cell_angle_gamma 90.000000
_cell_volume 2915.763743
_symmetry_space_group_name_H-M "C 2/M"
_symmetry_group_IT_number 12
_symmetry_cell_setting 'monoclinic'
loop_
_space_group_symop_operation_xyz
x,y,z
-x,y,-z
-x,-y,-z
x,-y,z
1/2+x,1/2+y,z
1/2-x,1/2+y,-z
1/2-x,1/2-y,-z
1/2+x,1/2-y,z
loop_
_atom_site_type_symbol
_atom_site_label
_atom_site_fract_x
_atom_site_fract_y
_atom_site_fract_z
Si Si1 0.933654 0.374530 0.196801
Si Si2 0.067093 0.067814 0.137997
Si Si3 0.724415 0.932948 0.979794
Si Si4 0.384390 0.749977 0.142262
Si Si5 0.151967 0.384576 0.243409
Si Si6 0.338863 0.749727 0.820767
Si Si7 0.114883 0.565417 0.531903
Si Si8 0.486039 0.328983 0.670390
O O1 0.870770 0.394013 0.059190
O O2 0.951401 0.304954 0.191130
O O3 0.866813 0.395288 0.328525
O O4 0.040377 0.404370 0.202251
O O5 0.177137 0.087331 0.097192
O O6 0.032855 0.105598 0.272955
O O7 0.062122 0.000000 0.181816
O O8 0.000000 0.080581 0.000000
O O9 0.703017 0.000000 0.946523
O O10 0.731308 0.920127 0.149778
O O11 0.273324 0.770566 0.168466
O O12 0.418553 0.696065 0.242276
O O13 0.396191 0.737567 0.972340
O O14 0.165169 0.316266 0.226532
O O15 0.174510 0.403689 0.405966
O O16 0.392283 0.711689 0.701156
O O17 0.155647 0.500000 0.557532
O O18 0.000000 0.564037 0.500000
O O19 0.500000 0.330440 0.500000
#
# Coordination Sequence:
#
# PCOD8113476 Si02
#       8
#     8   8   8   8   8   8   8   8
#     4  11  21  37  62  91 132 172 211 263 327 389
#     4  10  24  49  74  94 125 171 223 280 330 382
#     4  11  23  39  64  98 129 166 221 273 325 382
#     4  11  24  42  67  93 131 173 222 273 324 394
#     4  11  22  36  62  95 130 170 215 265 320 389
#     4  11  24  42  65  98 130 176 218 273 328 383
#     4   9  20  37  57  84 129 180 211 246 313 394
#     4  12  27  43  70 101 134 173 216 270 339 401
#
# _framework density 21.949653000000001
#
# number of rings (size 3 to 8) (size 9 to 14) (size 15 to 20)
#    0.000    1.250    2.500    3.000    5.250    2.750 
#    2.250    0.000    0.000    0.000    0.000    0.000 
#    0.000    0.000    0.000    0.000    0.000    0.000 
#
# Total GULP energy -396831.839329 kJ/mol
# GULP energy per Si atom -12400.994979 kJ/mol
# Density = 2.189969 g / cm^3
# Si number density = 21.949653 Si / 1000 Ang^3
#
#
#
# Elastic Constant Matrix: (Units=GPa)
#
#
# Indices 1 2 3 4 5 6 
#
# 1 41.4170 24.1190 21.6173 0.0000 -11.4651 0.0000
# 2 24.1190 101.7102 60.3220 0.0000 -11.3159 0.0000
# 3 21.6173 60.3220 161.6386 0.0000 -31.0820 0.0000
# 4 0.0000 0.0000 0.0000 35.5614 0.0000 -9.5113
# 5 -11.4651 -11.3159 -31.0820 0.0000 25.3255 0.0000
# 6 0.0000 0.0000 0.0000 -9.5113 0.0000 22.8437
#
#
#
# Elastic Compliance Matrix: (Units=1/GPa)
#
#
# Indices 1 2 3 4 5 6 
#
# 1 0.030799 -0.006284 0.000481 0.000000 0.011725 0.000000
# 2 -0.006284 0.013909 -0.004846 0.000000 -0.002578 0.000000
# 3 0.000481 -0.004846 0.009890 0.000000 0.010191 0.000000
# 4 0.000000 0.000000 0.000000 0.031644 0.000000 0.013176
# 5 0.011725 -0.002578 0.010191 0.000000 0.056150 0.000000
# 6 0.000000 0.000000 0.000000 0.013176 0.000000 0.049262
#
#
# Mechanical properties :
#
#
# Convention : Reuss Voigt Hill
#
# Bulk Modulus (GPa) = 30.02986 57.43137 43.73061
# Shear Modulus (GPa) = 22.31611 29.99330 26.15470
#
# Velocity S-wave (km/s) = 3.19203 3.70057 3.45567
# Velocity P-wave (km/s) = 5.22459 6.66940 5.99071
#
# Compressibility (1/GPa) = 0.03330019
#
# Stress axis : x y z
#
# Youngs Moduli (GPa) = 32.46853 71.89402 101.10723
#
# Poissons Ratio (x) = 0.45180 -0.04862
# Poissons Ratio (y) = 0.20404 0.48997
# Poissons Ratio (z) = -0.01561 0.34840
#
# Static dielectric constant tensor:
#      x y z
#    x 3.938940 0.000000 -0.152210 
#    y 0.000000 3.885320 0.000000 
#    z -0.152210 0.000000 3.995920 
# 
# 
# High freq. dielectric constant tensor:
#      x y z
#    x 1.855360 0.000000 -0.012790 
#    y 0.000000 1.866470 0.000000 
#    z -0.012790 0.000000 1.857560 
# 
# From -- ./inp_files/65888.got.cif
#   From: 2010.06.25/outbox.cif.g09.slc.cpg/sg12_33_cif.got.tgz:65888.got - 2010.06.28 00:19:55.
