data_PCOD8113189
_publ_section_title
;
Structure prediction by ZEFSAII (Michael W. Deem and Ramdas Pophale) SiO2 
 PCOD8113189
Probable space group: C 2/M
;
_chemical_formula_sum "Si O2"
_cell_formula_units_Z 48
_cell_length_a 16.987567
_cell_length_b 17.554268
_cell_length_c 8.458126
_cell_angle_alpha 90.000000
_cell_angle_beta 118.663950
_cell_angle_gamma 90.000000
_cell_volume 2213.143205
_symmetry_space_group_name_H-M "C 2/M"
_symmetry_group_IT_number 12
_symmetry_cell_setting 'monoclinic'
loop_
_space_group_symop_operation_xyz
x,y,z
-x,y,-z
-x,-y,-z
x,-y,z
1/2+x,1/2+y,z
1/2-x,1/2+y,-z
1/2-x,1/2-y,-z
1/2+x,1/2-y,z
loop_
_atom_site_type_symbol
_atom_site_label
_atom_site_fract_x
_atom_site_fract_y
_atom_site_fract_z
Si Si1 0.746343 0.678736 0.619641
Si Si2 0.260417 0.418020 0.669958
Si Si3 0.585592 0.637006 0.979405
Si Si4 0.157889 0.286360 0.982945
Si Si5 0.081829 0.414977 0.686099
Si Si6 0.900075 0.085711 0.349382
O O1 0.750000 0.750000 0.500000
O O2 0.759186 0.604149 0.528273
O O3 0.655709 0.657375 0.631827
O O4 0.825064 0.686426 0.821764
O O5 0.308688 0.500000 0.719918
O O6 0.326555 0.361100 0.824288
O O7 0.164437 0.421899 0.651736
O O8 0.500000 0.611688 0.000000
O O9 0.578948 0.723459 0.909782
O O10 0.601616 0.583558 0.843792
O O11 0.112835 0.357153 0.851242
O O12 0.250000 0.250000 0.000000
O O13 0.059053 0.500000 0.732875
O O14 0.000000 0.383389 0.500000
O O15 0.000000 0.101584 0.500000
O O16 0.868145 0.000000 0.371001
#
# Coordination Sequence:
#
# PCOD8113189 Si02
#       6
#     8   8   8   8   8   8
#     4  12  23  41  68  96 139 182 229 284 348 422
#     4  11  23  42  68  98 136 180 226 285 348 419
#     4  12  25  42  68 104 139 182 230 288 357 425
#     4  12  23  45  68  97 136 181 234 286 352 417
#     4  10  23  45  73 102 137 185 237 288 351 422
#     4  11  25  43  66  99 139 181 229 286 347 423
#
# _framework density 21.688610000000001
#
# number of rings (size 3 to 8) (size 9 to 14) (size 15 to 20)
#    0.000    0.667    5.000    2.000    0.000    7.333 
#    3.000    0.000    0.000    3.500    0.000    0.000 
#    0.000    0.000    0.000    0.000    0.000    0.000 
#
# Total GULP energy -297318.922667 kJ/mol
# GULP energy per Si atom -12388.288444 kJ/mol
# Density = 2.163925 g / cm^3
# Si number density = 21.688610 Si / 1000 Ang^3
#
#
#
# Elastic Constant Matrix: (Units=GPa)
#
#
# Indices 1 2 3 4 5 6 
#
# 1 69.3344 58.9062 25.4213 0.0000 -7.6401 0.0000
# 2 58.9062 93.1446 66.8330 0.0000 -1.7796 0.0000
# 3 25.4213 66.8330 155.3051 0.0000 -4.4434 0.0000
# 4 0.0000 0.0000 0.0000 60.2794 0.0000 -19.1938
# 5 -7.6401 -1.7796 -4.4434 0.0000 38.5758 0.0000
# 6 0.0000 0.0000 0.0000 -19.1938 0.0000 41.2058
#
#
#
# Elastic Compliance Matrix: (Units=1/GPa)
#
#
# Indices 1 2 3 4 5 6 
#
# 1 0.035512 -0.026470 0.005763 0.000000 0.006476 0.000000
# 2 -0.026470 0.035262 -0.010981 0.000000 -0.004881 0.000000
# 3 0.005763 -0.010981 0.010273 0.000000 0.001818 0.000000
# 4 0.000000 0.000000 0.000000 0.019478 0.000000 0.009073
# 5 0.006476 -0.004881 0.001818 0.000000 0.027190 0.000000
# 6 0.000000 0.000000 0.000000 0.009073 0.000000 0.028495
#
#
# Mechanical properties :
#
#
# Convention : Reuss Voigt Hill
#
# Bulk Modulus (GPa) = 56.58831 68.90057 62.74444
# Shear Modulus (GPa) = 22.17514 39.12044 30.64779
#
# Velocity S-wave (km/s) = 3.20102 4.25164 3.76318
# Velocity P-wave (km/s) = 6.30951 7.47924 6.91914
#
# Compressibility (1/GPa) = 0.01767149
#
# Stress axis : x y z
#
# Youngs Moduli (GPa) = 28.15926 28.35889 97.34043
#
# Poissons Ratio (x) = 0.75067 -0.56102
# Poissons Ratio (y) = 0.74538 1.06893
# Poissons Ratio (z) = -0.16229 0.31142
#
# Static dielectric constant tensor:
#      x y z
#    x 3.823770 0.000000 -0.151110 
#    y 0.000000 5.426440 0.000000 
#    z -0.151110 0.000000 4.069540 
# 
# 
# High freq. dielectric constant tensor:
#      x y z
#    x 1.836350 0.000000 -0.008570 
#    y 0.000000 1.866280 0.000000 
#    z -0.008570 0.000000 1.862610 
# 
# From -- ./inp_files/75452.got.cif
#   From: 2010.06.25/outbox.cif.g09.slc.cpg/sg12_38_cif.got.tgz:75452.got - 2010.06.28 00:19:55.
