data_PCOD8113832
_publ_section_title
;
Structure prediction by ZEFSAII (Michael W. Deem and Ramdas Pophale) SiO2 
 PCOD8113832
Probable space group: C 2/M
;
_chemical_formula_sum "Si O2"
_cell_formula_units_Z 56
_cell_length_a 13.841262
_cell_length_b 17.788855
_cell_length_c 14.667641
_cell_angle_alpha 90.000000
_cell_angle_beta 48.423749
_cell_angle_gamma 90.000000
_cell_volume 2701.643657
_symmetry_space_group_name_H-M "C 2/M"
_symmetry_group_IT_number 12
_symmetry_cell_setting 'monoclinic'
loop_
_space_group_symop_operation_xyz
x,y,z
-x,y,-z
-x,-y,-z
x,-y,z
1/2+x,1/2+y,z
1/2-x,1/2+y,-z
1/2-x,1/2-y,-z
1/2+x,1/2-y,z
loop_
_atom_site_type_symbol
_atom_site_label
_atom_site_fract_x
_atom_site_fract_y
_atom_site_fract_z
Si Si1 0.540395 0.353864 0.741178
Si Si2 0.074218 0.000000 0.602879
Si Si3 0.710854 0.211114 0.345805
Si Si4 0.018494 0.587312 0.192449
Si Si5 0.673743 0.500000 0.362221
Si Si6 0.971865 0.294927 0.371338
Si Si7 0.272032 0.588148 0.940520
Si Si8 0.816453 0.361954 0.194241
O O1 0.574240 0.425354 0.660810
O O2 0.662852 0.342627 0.731298
O O3 0.512689 0.281434 0.695698
O O4 0.409466 0.373589 0.879766
O O5 0.194928 0.000000 0.458830
O O6 0.965373 0.000000 0.595276
O O7 0.651813 0.215996 0.485204
O O8 0.599597 0.183215 0.348127
O O9 0.763876 0.288037 0.274319
O O10 0.979457 0.500000 0.228126
O O11 0.955877 0.634178 0.314380
O O12 0.964810 0.621777 0.130299
O O13 0.174809 0.595120 0.087390
O O14 0.736586 0.425351 0.290703
O O15 0.291678 0.500000 0.900603
O O16 0.207273 0.635008 0.898673
#
# Coordination Sequence:
#
# PCOD8113832 Si02
#       8
#     8   4   8   8   4   8   8   8
#     4  12  21  40  66  90 127 164 206 258 320 371
#     4  11  22  34  57  98 128 163 202 260 326 379
#     4  11  25  40  64  94 127 164 207 264 310 378
#     4  11  25  41  65  89 129 174 211 259 311 375
#     4  11  20  32  60  96 127 156 205 261 325 387
#     4  11  24  46  61  91 131 165 210 258 315 376
#     4  11  22  42  63  96 129 161 212 265 315 374
#     4  12  19  38  62  97 126 163 203 260 325 376
#
# _framework density 20.728123
#
# number of rings (size 3 to 8) (size 9 to 14) (size 15 to 20)
#    0.000    0.714    6.429    1.714    2.000    4.000 
#    1.286    1.429    0.000    1.714    0.000    0.000 
#    0.000    0.000    0.000    0.000    0.000    0.000 
#
# Total GULP energy -346928.944894 kJ/mol
# GULP energy per Si atom -12390.319461 kJ/mol
# Density = 2.068094 g / cm^3
# Si number density = 20.728123 Si / 1000 Ang^3
#
#
#
# Elastic Constant Matrix: (Units=GPa)
#
#
# Indices 1 2 3 4 5 6 
#
# 1 95.8328 25.3597 4.2048 0.0000 -15.0809 0.0000
# 2 25.3597 112.3554 34.2352 0.0000 7.7117 0.0000
# 3 4.2048 34.2352 60.9352 0.0000 -11.3716 0.0000
# 4 0.0000 0.0000 0.0000 -20.3030 0.0001 -44.1048
# 5 -15.0809 7.7117 -11.3716 0.0001 32.8333 0.0000
# 6 0.0000 0.0000 0.0000 -44.1048 0.0000 7.6971
#
#
#
# Elastic Compliance Matrix: (Units=1/GPa)
#
#
# Indices 1 2 3 4 5 6 
#
# 1 0.012690 -0.004329 0.003030 0.000000 0.007895 0.000000
# 2 -0.004329 0.013018 -0.008507 0.000000 -0.007993 0.000000
# 3 0.003030 -0.008507 0.023107 0.000000 0.011393 0.000000
# 4 0.000000 0.000000 0.000000 -0.003663 0.000000 -0.020987
# 5 0.007895 -0.007993 0.011393 0.000000 0.039906 0.000000
# 6 0.000000 0.000000 0.000000 -0.020987 0.000000 0.009661
#
#
# Mechanical properties :
#
#
# Convention : Reuss Voigt Hill
#
# Bulk Modulus (GPa) = 34.24285 44.08034 39.16159
# Shear Modulus (GPa) = 40.30084 17.73373 29.01728
#
# Velocity S-wave (km/s) = 4.41416 2.92813 3.74558
# Velocity P-wave (km/s) = 6.52193 5.72224 6.13513
#
# Compressibility (1/GPa) = 0.02920318
#
# Stress axis : x y z
#
# Youngs Moduli (GPa) = 78.80233 76.81578 43.27639
#
# Poissons Ratio (x) = 0.33257 -0.13113
# Poissons Ratio (y) = 0.34117 0.36814
# Poissons Ratio (z) = -0.23878 0.65346
#
# Static dielectric constant tensor:
#      x y z
#    x 3.785700 0.000000 -0.090810 
#    y 0.000000 4.170840 0.000000 
#    z -0.090810 0.000000 3.706350 
# 
# 
# High freq. dielectric constant tensor:
#      x y z
#    x 1.809030 0.000000 -0.022190 
#    y 0.000000 1.809670 0.000000 
#    z -0.022190 0.000000 1.810870 
# 
# From -- ./inp_files/216328.got.cif
#   From: 2010.06.25/outbox.cif.g09.slc.cpg/sg12_109_cif.got.tgz:216328.got - 2010.06.28 00:19:55.
