data_PCOD8113666
_publ_section_title
;
Structure prediction by ZEFSAII (Michael W. Deem and Ramdas Pophale) SiO2 
 PCOD8113666
Probable space group: C 2/M
;
_chemical_formula_sum "Si O2"
_cell_formula_units_Z 56
_cell_length_a 19.245436
_cell_length_b 20.224506
_cell_length_c 11.044872
_cell_angle_alpha 90.000000
_cell_angle_beta 134.260546
_cell_angle_gamma 90.000000
_cell_volume 3078.822187
_symmetry_space_group_name_H-M "C 2/M"
_symmetry_group_IT_number 12
_symmetry_cell_setting 'monoclinic'
loop_
_space_group_symop_operation_xyz
x,y,z
-x,y,-z
-x,-y,-z
x,-y,z
1/2+x,1/2+y,z
1/2-x,1/2+y,-z
1/2-x,1/2-y,-z
1/2+x,1/2-y,z
loop_
_atom_site_type_symbol
_atom_site_label
_atom_site_fract_x
_atom_site_fract_y
_atom_site_fract_z
Si Si1 0.014251 0.864870 0.736417
Si Si2 0.917217 0.256040 0.483081
Si Si3 0.262135 0.182502 0.443170
Si Si4 0.899792 0.795107 0.940520
Si Si5 0.319529 0.573310 0.503808
Si Si6 0.742486 0.206734 0.109668
Si Si7 0.178058 0.925333 0.780791
O O1 0.073015 0.905155 0.705987
O O2 0.968701 0.797066 0.631462
O O3 0.927270 0.909592 0.682543
O O4 0.085546 0.847680 0.933961
O O5 0.865103 0.313759 0.497823
O O6 0.838018 0.218231 0.306355
O O7 0.000000 0.289549 0.500000
O O8 0.250000 0.250000 0.500000
O O9 0.173755 0.171250 0.242941
O O10 0.261099 0.122199 0.537045
O O11 0.853851 0.726799 0.934753
O O12 0.000000 0.774997 0.000000
O O13 0.290930 0.500000 0.511041
O O14 0.323925 0.579371 0.365488
O O15 0.741590 0.128307 0.075735
O O16 0.750000 0.250000 0.000000
O O17 0.205031 0.000000 0.855669
#
# Coordination Sequence:
#
# PCOD8113666 Si02
#       7
#     8   8   8   8   8   8   8
#     4  12  19  35  55  86 117 148 182 227 288 340
#     4  11  19  33  57  83 114 145 189 236 277 326
#     4  11  21  36  56  81 116 151 192 231 277 330
#     4  11  21  34  57  82 114 148 188 235 278 326
#     4  11  21  35  55  82 117 151 185 227 281 341
#     4  11  20  34  56  81 113 147 188 231 275 328
#     4  11  22  35  55  84 117 150 184 226 283 343
#
# _framework density 18.188773999999999
#
# number of rings (size 3 to 8) (size 9 to 14) (size 15 to 20)
#    0.000    0.857    7.143    1.714    0.000    1.143 
#    0.000    2.143    0.000    0.857    0.000    7.000 
#    0.000    0.000    0.000    0.000    0.000    0.000 
#
# Total GULP energy -347126.034279 kJ/mol
# GULP energy per Si atom -12397.358367 kJ/mol
# Density = 1.814738 g / cm^3
# Si number density = 18.188774 Si / 1000 Ang^3
#
#
#
# Elastic Constant Matrix: (Units=GPa)
#
#
# Indices 1 2 3 4 5 6 
#
# 1 148.8508 69.0214 20.3918 0.0000 11.3295 0.0000
# 2 69.0214 143.3500 29.0711 0.0000 -1.1108 0.0000
# 3 20.3918 29.0711 66.0401 0.0000 -14.6380 0.0000
# 4 0.0000 0.0000 0.0000 17.8611 0.0000 -3.8963
# 5 11.3295 -1.1108 -14.6380 0.0000 24.7618 0.0000
# 6 0.0000 0.0000 0.0000 -3.8963 0.0000 27.6417
#
#
#
# Elastic Compliance Matrix: (Units=1/GPa)
#
#
# Indices 1 2 3 4 5 6 
#
# 1 0.009389 -0.004077 -0.002413 0.000000 -0.005905 0.000000
# 2 -0.004077 0.009508 -0.002784 0.000000 0.000646 0.000000
# 3 -0.002413 -0.002784 0.019943 0.000000 0.012769 0.000000
# 4 0.000000 0.000000 0.000000 0.057764 0.000000 0.008142
# 5 -0.005905 0.000646 0.012769 0.000000 0.050664 0.000000
# 6 0.000000 0.000000 0.000000 0.008142 0.000000 0.037325
#
#
# Mechanical properties :
#
#
# Convention : Reuss Voigt Hill
#
# Bulk Modulus (GPa) = 49.27862 66.13437 57.70650
# Shear Modulus (GPa) = 23.82039 30.03668 26.92854
#
# Velocity S-wave (km/s) = 3.62279 4.06813 3.85190
# Velocity P-wave (km/s) = 6.68216 7.64887 7.18180
#
# Compressibility (1/GPa) = 0.02029277
#
# Stress axis : x y z
#
# Youngs Moduli (GPa) = 106.51188 105.17020 50.14285
#
# Poissons Ratio (x) = 0.42876 0.12101
# Poissons Ratio (y) = 0.43423 0.13957
# Poissons Ratio (z) = 0.25704 0.29274
#
# Static dielectric constant tensor:
#      x y z
#    x 3.835920 0.000000 -0.158040 
#    y 0.000000 4.164810 0.000000 
#    z -0.158040 0.000000 3.638860 
# 
# 
# High freq. dielectric constant tensor:
#      x y z
#    x 1.721670 0.000000 -0.013220 
#    y 0.000000 1.677290 0.000000 
#    z -0.013220 0.000000 1.686880 
# 
# From -- ./inp_files/157746.got.cif
#   From: 2010.06.25/outbox.cif.g09.slc.cpg/sg12_79_cif.got.tgz:157746.got - 2010.06.28 00:19:55.
