data_PCOD8113687
_publ_section_title
;
Structure prediction by ZEFSAII (Michael W. Deem and Ramdas Pophale) SiO2 
 PCOD8113687
Probable space group: C 2/M
;
_chemical_formula_sum "Si O2"
_cell_formula_units_Z 56
_cell_length_a 18.835498
_cell_length_b 13.246109
_cell_length_c 21.202453
_cell_angle_alpha 90.000000
_cell_angle_beta 31.634154
_cell_angle_gamma 90.000000
_cell_volume 2774.544365
_symmetry_space_group_name_H-M "C 2/M"
_symmetry_group_IT_number 12
_symmetry_cell_setting 'monoclinic'
loop_
_space_group_symop_operation_xyz
x,y,z
-x,y,-z
-x,-y,-z
x,-y,z
1/2+x,1/2+y,z
1/2-x,1/2+y,-z
1/2-x,1/2-y,-z
1/2+x,1/2-y,z
loop_
_atom_site_type_symbol
_atom_site_label
_atom_site_fract_x
_atom_site_fract_y
_atom_site_fract_z
Si Si1 0.066552 0.882630 0.066536
Si Si2 0.827363 0.884246 0.689955
Si Si3 0.867322 0.296650 0.066520
Si Si4 0.131598 0.808214 0.465387
Si Si5 0.325405 0.618426 0.883659
Si Si6 0.402063 0.613484 0.381618
Si Si7 0.224611 0.888477 0.656850
O O1 0.909621 0.861731 0.201623
O O2 0.160983 0.844657 0.053845
O O3 0.091585 0.000000 0.031982
O O4 0.106303 0.819112 0.974201
O O5 0.745404 0.806778 0.795013
O O6 0.784031 0.876674 0.648849
O O7 0.977163 0.841260 0.580268
O O8 0.813335 0.000000 0.724464
O O9 0.818726 0.355011 0.039574
O O10 0.000000 0.344099 0.000000
O O11 0.177087 0.825126 0.503344
O O12 0.156596 0.692963 0.423466
O O13 0.347947 0.500000 0.870092
O O14 0.449776 0.661517 0.746955
O O15 0.423087 0.500000 0.391325
O O16 0.309236 0.613694 0.391057
O O17 0.277450 0.000000 0.636022
#
# Coordination Sequence:
#
# PCOD8113687 Si02
#       7
#     8   8   8   8   8   8   8
#     4   9  20  40  62  83 113 155 199 239 282 343
#     4  11  24  38  55  82 116 153 189 227 282 351
#     4  12  23  36  57  88 117 153 194 240 293 339
#     4  11  19  35  57  82 113 151 190 226 277 340
#     4   9  18  35  59  85 115 152 192 235 289 346
#     4   9  16  31  58  85 112 149 188 228 279 342
#     4   9  19  35  58  88 114 142 189 239 282 330
#
# _framework density 20.183495000000001
#
# number of rings (size 3 to 8) (size 9 to 14) (size 15 to 20)
#    0.000    2.000    1.429    5.571    0.000    1.429 
#    0.000    2.857    0.000    0.000    0.000    0.000 
#    0.000    0.000    0.000    0.000    0.000    0.000 
#
# Total GULP energy -346873.109442 kJ/mol
# GULP energy per Si atom -12388.325337 kJ/mol
# Density = 2.013756 g / cm^3
# Si number density = 20.183495 Si / 1000 Ang^3
#
#
#
# Elastic Constant Matrix: (Units=GPa)
#
#
# Indices 1 2 3 4 5 6 
#
# 1 64.6357 26.2631 37.9051 0.0003 12.6083 -0.0001
# 2 26.2631 97.9903 59.2644 0.0004 11.1847 -0.0001
# 3 37.9051 59.2644 84.6626 0.0010 29.1525 -0.0002
# 4 0.0003 0.0004 0.0010 34.8153 -0.0004 3.4316
# 5 12.6083 11.1847 29.1525 -0.0004 32.9650 0.0001
# 6 -0.0001 -0.0001 -0.0002 3.4316 0.0001 28.5696
#
#
#
# Elastic Compliance Matrix: (Units=1/GPa)
#
#
# Indices 1 2 3 4 5 6 
#
# 1 0.020985 0.000179 -0.009685 0.000000 0.000478 0.000000
# 2 0.000179 0.018943 -0.015965 0.000000 0.007623 0.000000
# 3 -0.009685 -0.015965 0.034771 -0.000001 -0.021628 0.000000
# 4 0.000000 0.000000 -0.000001 0.029067 0.000001 -0.003491
# 5 0.000478 0.007623 -0.021628 0.000001 0.046693 0.000000
# 6 0.000000 0.000000 0.000000 -0.003491 0.000000 0.035422
#
#
# Mechanical properties :
#
#
# Convention : Reuss Voigt Hill
#
# Bulk Modulus (GPa) = 42.09488 54.90601 48.50044
# Shear Modulus (GPa) = 20.42968 27.52704 23.97836
#
# Velocity S-wave (km/s) = 3.18496 3.69703 3.45050
# Velocity P-wave (km/s) = 5.86742 6.74437 6.32112
#
# Compressibility (1/GPa) = 0.02375586
#
# Stress axis : x y z
#
# Youngs Moduli (GPa) = 47.65246 52.79092 28.75976
#
# Poissons Ratio (x) = -0.00943 0.27854
# Poissons Ratio (y) = -0.00851 0.45915
# Poissons Ratio (z) = 0.46152 0.84280
#
# Static dielectric constant tensor:
#      x y z
#    x 4.201900 0.000000 0.457980 
#    y 0.000000 3.641150 0.000000 
#    z 0.457980 0.000000 3.725870 
# 
# 
# High freq. dielectric constant tensor:
#      x y z
#    x 1.797070 0.000000 0.021390 
#    y 0.000000 1.772640 0.000000 
#    z 0.021390 0.000000 1.767400 
# 
# From -- ./inp_files/316701.got.cif
#   From: 2010.06.25/outbox.cif.g09.slc.cpg/sg12_159_cif.got.tgz:316701.got - 2010.06.28 00:19:55.
