data_PCOD8113777
_publ_section_title
;
Structure prediction by ZEFSAII (Michael W. Deem and Ramdas Pophale) SiO2 
 PCOD8113777
Probable space group: C 2/M
;
_chemical_formula_sum "Si O2"
_cell_formula_units_Z 64
_cell_length_a 20.704698
_cell_length_b 9.244715
_cell_length_c 20.380524
_cell_angle_alpha 90.000000
_cell_angle_beta 97.826139
_cell_angle_gamma 90.000000
_cell_volume 3864.681614
_symmetry_space_group_name_H-M "C 2/M"
_symmetry_group_IT_number 12
_symmetry_cell_setting 'monoclinic'
loop_
_space_group_symop_operation_xyz
x,y,z
-x,y,-z
-x,-y,-z
x,-y,z
1/2+x,1/2+y,z
1/2-x,1/2+y,-z
1/2-x,1/2-y,-z
1/2+x,1/2-y,z
loop_
_atom_site_type_symbol
_atom_site_label
_atom_site_fract_x
_atom_site_fract_y
_atom_site_fract_z
Si Si1 0.285011 0.329533 0.665994
Si Si2 0.149259 0.337933 0.811424
Si Si3 0.819064 0.662383 0.937427
Si Si4 0.361259 0.827910 0.332083
Si Si5 0.689294 0.172113 0.457838
Si Si6 0.069003 0.328796 0.531711
Si Si7 0.803544 0.160199 0.813883
Si Si8 0.164785 0.837316 0.936228
O O1 0.289397 0.500000 0.649896
O O2 0.210323 0.274873 0.656470
O O3 0.321635 0.234257 0.616629
O O4 0.318763 0.295444 0.740862
O O5 0.123551 0.500000 0.822473
O O6 0.119590 0.274531 0.738850
O O7 0.226495 0.341712 0.813437
O O8 0.128931 0.236432 0.869213
O O9 0.846312 0.500000 0.943209
O O10 0.837569 0.730408 0.869442
O O11 0.741874 0.664810 0.936498
O O12 0.853645 0.751870 0.000178
O O13 0.412769 0.769764 0.392935
O O14 0.358678 0.000000 0.329134
O O15 0.750000 0.250000 0.500000
O O16 0.624514 0.215357 0.488209
O O17 0.700660 0.000000 0.458564
O O18 0.062900 0.500000 0.534804
O O19 0.000000 0.260094 0.500000
O O20 0.831124 0.000000 0.832046
O O21 0.138539 0.000000 0.939173
#
# Coordination Sequence:
#
# PCOD8113777 Si02
#       8
#     8   8   8   8   8   8   8   8
#     4   9  16  28  44  62  84 109 142 180 220 262
#     4   8  13  21  34  49  67  94 129 168 207 246
#     4   9  15  21  30  44  67  98 133 169 203 245
#     4   8  13  24  41  59  80 106 138 176 217 260
#     4  11  20  30  47  68  89 113 146 185 225 266
#     4   9  17  29  46  67  89 114 147 185 223 266
#     4   8  14  23  35  50  71 100 131 167 209 252
#     4   9  15  21  29  43  66  96 132 169 203 244
#
# _framework density 16.560226
#
# number of rings (size 3 to 8) (size 9 to 14) (size 15 to 20)
#    0.000    3.125    1.250    2.625    0.000    3.500 
#    0.000    1.875    0.000    1.500    0.000    0.000 
#    0.000    0.000    0.000    1.125    0.000   24.750 
#
# Total GULP energy -396565.130825 kJ/mol
# GULP energy per Si atom -12392.660338 kJ/mol
# Density = 1.652253 g / cm^3
# Si number density = 16.560226 Si / 1000 Ang^3
#
#
#
# Elastic Constant Matrix: (Units=GPa)
#
#
# Indices 1 2 3 4 5 6 
#
# 1 45.2832 21.1921 38.0130 0.0000 4.0169 0.0000
# 2 21.1921 90.3331 72.3792 0.0000 0.1500 0.0000
# 3 38.0130 72.3792 178.7856 0.0000 9.4549 0.0000
# 4 0.0000 0.0000 0.0000 32.3497 0.0000 -2.3040
# 5 4.0169 0.1500 9.4549 0.0000 10.4749 0.0000
# 6 0.0000 0.0000 0.0000 -2.3040 0.0000 7.2189
#
#
#
# Elastic Compliance Matrix: (Units=1/GPa)
#
#
# Indices 1 2 3 4 5 6 
#
# 1 0.027716 -0.003039 -0.004309 0.000000 -0.006696 0.000000
# 2 -0.003039 0.017091 -0.006638 0.000000 0.006913 0.000000
# 3 -0.004309 -0.006638 0.009561 0.000000 -0.006883 0.000000
# 4 0.000000 0.000000 0.000000 0.031631 0.000000 0.010096
# 5 -0.006696 0.006913 -0.006883 0.000000 0.104148 0.000000
# 6 0.000000 0.000000 0.000000 0.010096 0.000000 0.141747
#
#
# Mechanical properties :
#
#
# Convention : Reuss Voigt Hill
#
# Bulk Modulus (GPa) = 37.88450 64.17447 51.02949
# Shear Modulus (GPa) = 13.56250 22.19654 17.87952
#
# Velocity S-wave (km/s) = 2.86489 3.66505 3.28939
# Velocity P-wave (km/s) = 5.81979 7.53302 6.73114
#
# Compressibility (1/GPa) = 0.02639602
#
# Stress axis : x y z
#
# Youngs Moduli (GPa) = 36.07991 58.51194 104.59361
#
# Poissons Ratio (x) = 0.17781 0.45065
# Poissons Ratio (y) = 0.10964 0.69433
# Poissons Ratio (z) = 0.15545 0.38842
#
# Static dielectric constant tensor:
#      x y z
#    x 2.569500 0.000000 0.133900 
#    y 0.000000 3.037600 0.000000 
#    z 0.133900 0.000000 3.594620 
# 
# 
# High freq. dielectric constant tensor:
#      x y z
#    x 1.552460 0.000000 0.005290 
#    y 0.000000 1.620200 0.000000 
#    z 0.005290 0.000000 1.663410 
# 
# From -- ./inp_files/319185.got.cif
#   From: 2010.06.25/outbox.cif.g09.slc.cpg/sg12_160_cif.got.tgz:319185.got - 2010.06.28 00:19:55.
