data_PCOD8113975
_publ_section_title
;
Structure prediction by ZEFSAII (Michael W. Deem and Ramdas Pophale) SiO2 
 PCOD8113975
Probable space group: C 2/M
;
_chemical_formula_sum "Si O2"
_cell_formula_units_Z 56
_cell_length_a 9.095744
_cell_length_b 25.699486
_cell_length_c 18.261747
_cell_angle_alpha 90.000000
_cell_angle_beta 137.273808
_cell_angle_gamma 90.000000
_cell_volume 2896.356357
_symmetry_space_group_name_H-M "C 2/M"
_symmetry_group_IT_number 12
_symmetry_cell_setting 'monoclinic'
loop_
_space_group_symop_operation_xyz
x,y,z
-x,y,-z
-x,-y,-z
x,-y,z
1/2+x,1/2+y,z
1/2-x,1/2+y,-z
1/2-x,1/2-y,-z
1/2+x,1/2-y,z
loop_
_atom_site_type_symbol
_atom_site_label
_atom_site_fract_x
_atom_site_fract_y
_atom_site_fract_z
Si Si1 0.009489 0.375477 0.694889
Si Si2 0.525727 0.623710 0.696160
Si Si3 0.243178 0.199050 0.114904
Si Si4 0.669666 0.940257 0.627880
Si Si5 0.829033 0.195165 0.502717
Si Si6 0.839372 0.941405 0.375317
Si Si7 0.599611 0.806098 0.115241
O O1 0.887041 0.334249 0.599965
O O2 0.852196 0.399566 0.698287
O O3 0.201915 0.347081 0.808477
O O4 0.065838 0.426454 0.667862
O O5 0.354444 0.604643 0.693653
O O6 0.438651 0.668360 0.611848
O O7 0.544404 0.568813 0.659004
O O8 0.746613 0.644848 0.812049
O O9 0.413247 0.201337 0.109184
O O10 0.243639 0.253560 0.159740
O O11 0.000000 0.187447 0.000000
O O12 0.500000 0.932624 0.500000
O O13 0.752488 0.000000 0.660296
O O14 0.750000 0.250000 0.500000
O O15 0.000000 0.200197 0.500000
O O16 0.000000 0.926646 0.500000
O O17 0.756657 0.000000 0.351772
O O18 0.500000 0.818688 0.000000
#
# Coordination Sequence:
#
# PCOD8113975 Si02
#       7
#     8   8   8   8   8   8   8
#     4  12  22  40  61  91 127 160 205 253 313 369
#     4  12  22  40  61  91 127 160 205 253 313 369
#     4  11  24  42  66  94 123 164 211 254 308 373
#     4  11  24  40  63  96 129 165 210 256 310 370
#     4  12  24  38  57  90 126 162 197 246 313 378
#     4  11  20  38  65  90 121 161 206 256 304 372
#     4  11  24  42  66  94 123 164 211 254 308 373
#
# _framework density 19.334638000000002
#
# number of rings (size 3 to 8) (size 9 to 14) (size 15 to 20)
#    0.000    0.571    5.714    3.429    6.000    2.286 
#    0.000    0.000    0.000    5.143    0.000    0.000 
#    0.000    0.000    0.000    0.000    0.000    0.000 
#
# Total GULP energy -347070.927619 kJ/mol
# GULP energy per Si atom -12395.390272 kJ/mol
# Density = 1.929063 g / cm^3
# Si number density = 19.334638 Si / 1000 Ang^3
#
#
#
# Elastic Constant Matrix: (Units=GPa)
#
#
# Indices 1 2 3 4 5 6 
#
# 1 84.0578 44.5137 27.1884 0.0000 2.8101 0.0000
# 2 44.5137 118.7289 54.6886 0.0000 5.4639 0.0000
# 3 27.1884 54.6886 89.2543 0.0002 3.7053 0.0001
# 4 0.0000 0.0000 0.0002 32.3921 0.0001 4.7487
# 5 2.8101 5.4639 3.7053 0.0001 29.9974 0.0000
# 6 0.0000 0.0000 0.0001 4.7487 0.0000 39.4889
#
#
#
# Elastic Compliance Matrix: (Units=1/GPa)
#
#
# Indices 1 2 3 4 5 6 
#
# 1 0.015002 -0.004891 -0.001559 0.000000 -0.000322 0.000000
# 2 -0.004891 0.013376 -0.006658 0.000000 -0.001156 0.000000
# 3 -0.001559 -0.006658 0.015783 0.000000 -0.000591 0.000000
# 4 0.000000 0.000000 0.000000 0.031426 0.000000 -0.003779
# 5 -0.000322 -0.001156 -0.000591 0.000000 0.033650 0.000000
# 6 0.000000 0.000000 0.000000 -0.003779 0.000000 0.025778
#
#
# Mechanical properties :
#
#
# Convention : Reuss Voigt Hill
#
# Bulk Modulus (GPa) = 55.72998 60.53582 58.13290
# Shear Modulus (GPa) = 29.90173 31.41904 30.66039
#
# Velocity S-wave (km/s) = 3.93687 4.03552 3.98650
# Velocity P-wave (km/s) = 7.03930 7.28638 7.16391
#
# Compressibility (1/GPa) = 0.01794366
#
# Stress axis : x y z
#
# Youngs Moduli (GPa) = 66.65763 74.75804 63.35891
#
# Poissons Ratio (x) = 0.36568 0.09880
# Poissons Ratio (y) = 0.32605 0.42185
# Poissons Ratio (z) = 0.10395 0.49775
#
# Static dielectric constant tensor:
#      x y z
#    x 3.850960 0.000000 -0.012410 
#    y 0.000000 3.509130 0.000000 
#    z -0.012410 0.000000 3.395000 
# 
# 
# High freq. dielectric constant tensor:
#      x y z
#    x 1.772370 0.000000 0.000540 
#    y 0.000000 1.759730 0.000000 
#    z 0.000540 0.000000 1.732310 
# 
# From -- ./inp_files/259856.got.cif
#   From: 2010.06.25/outbox.cif.g09.slc.cpg/sg12_130_cif.got.tgz:259856.got - 2010.06.28 00:19:55.
