data_PCOD8113732
_publ_section_title
;
Structure prediction by ZEFSAII (Michael W. Deem and Ramdas Pophale) SiO2 
 PCOD8113732
Probable space group: C 2/M
;
_chemical_formula_sum "Si O2"
_cell_formula_units_Z 48
_cell_length_a 12.559299
_cell_length_b 22.548094
_cell_length_c 8.611983
_cell_angle_alpha 90.000000
_cell_angle_beta 112.918871
_cell_angle_gamma 90.000000
_cell_volume 2246.285734
_symmetry_space_group_name_H-M "C 2/M"
_symmetry_group_IT_number 12
_symmetry_cell_setting 'monoclinic'
loop_
_space_group_symop_operation_xyz
x,y,z
-x,y,-z
-x,-y,-z
x,-y,z
1/2+x,1/2+y,z
1/2-x,1/2+y,-z
1/2-x,1/2-y,-z
1/2+x,1/2-y,z
loop_
_atom_site_type_symbol
_atom_site_label
_atom_site_fract_x
_atom_site_fract_y
_atom_site_fract_z
Si Si1 0.410685 0.363765 0.072423
Si Si2 0.172580 0.658322 0.778862
Si Si3 0.479094 0.932676 0.670860
Si Si4 0.237820 0.640259 0.477450
Si Si5 0.044367 0.932860 0.360209
Si Si6 0.386289 0.280839 0.339559
O O1 0.455940 0.427710 0.162848
O O2 0.423537 0.330286 0.240992
O O3 0.500000 0.336351 0.000000
O O4 0.285093 0.366261 0.928409
O O5 0.075703 0.613224 0.788442
O O6 0.174949 0.666349 0.592823
O O7 0.150617 0.727636 0.800262
O O8 0.500000 0.937283 0.500000
O O9 0.355038 0.905118 0.652851
O O10 0.490010 0.000000 0.746562
O O11 0.341146 0.603558 0.612812
O O12 0.280947 0.692680 0.386334
O O13 0.000000 0.907548 0.500000
O O14 0.081559 0.000000 0.402832
O O15 0.500000 0.262062 0.500000
#
# Coordination Sequence:
#
# PCOD8113732 Si02
#       6
#     8   8   8   8   8   8
#     4  12  23  42  60  93 131 161 206 262 325 377
#     4  11  24  38  62  94 126 167 209 254 325 371
#     4   9  20  38  60  88 122 162 210 256 304 375
#     4  11  19  40  65  92 121 163 212 264 305 374
#     4  11  22  40  66  93 121 161 209 262 319 376
#     4  12  22  41  64  92 128 165 213 263 309 382
#
# _framework density 21.368607999999998
#
# number of rings (size 3 to 8) (size 9 to 14) (size 15 to 20)
#    0.000    1.000    5.000    3.000    0.000    3.000 
#    0.000    0.833    0.000    1.000    0.000    0.000 
#    0.000    0.000    0.000    0.000    0.000    0.000 
#
# Total GULP energy -297342.090557 kJ/mol
# GULP energy per Si atom -12389.253773 kJ/mol
# Density = 2.131997 g / cm^3
# Si number density = 21.368608 Si / 1000 Ang^3
#
#
#
# Elastic Constant Matrix: (Units=GPa)
#
#
# Indices 1 2 3 4 5 6 
#
# 1 94.0083 45.3887 28.4972 0.0000 27.4392 0.0000
# 2 45.3887 103.3272 27.3021 0.0000 22.2564 0.0000
# 3 28.4972 27.3021 76.2661 0.0000 18.0995 0.0000
# 4 0.0000 0.0000 0.0000 19.1545 0.0000 7.0133
# 5 27.4392 22.2564 18.0995 0.0000 38.8531 0.0000
# 6 0.0000 0.0000 0.0000 7.0133 0.0000 8.4668
#
#
#
# Elastic Compliance Matrix: (Units=1/GPa)
#
#
# Indices 1 2 3 4 5 6 
#
# 1 0.015795 -0.004710 -0.002483 0.000000 -0.007300 0.000000
# 2 -0.004710 0.012985 -0.002151 0.000000 -0.003110 0.000000
# 3 -0.002483 -0.002151 0.015854 0.000000 -0.004400 0.000000
# 4 0.000000 0.000000 0.000000 0.074934 0.000000 -0.062071
# 5 -0.007300 -0.003110 -0.004400 0.000000 0.034725 0.000000
# 6 0.000000 0.000000 0.000000 -0.062071 0.000000 0.169525
#
#
# Mechanical properties :
#
#
# Convention : Reuss Voigt Hill
#
# Bulk Modulus (GPa) = 38.54051 52.88640 45.71346
# Shear Modulus (GPa) = 14.23880 24.78909 19.51395
#
# Velocity S-wave (km/s) = 2.58416 3.40968 3.02521
# Velocity P-wave (km/s) = 5.19414 6.34858 5.80015
#
# Compressibility (1/GPa) = 0.02594672
#
# Stress axis : x y z
#
# Youngs Moduli (GPa) = 63.31211 77.01205 63.07585
#
# Poissons Ratio (x) = 0.36270 0.15664
# Poissons Ratio (y) = 0.29817 0.13565
# Poissons Ratio (z) = 0.15723 0.16561
#
# Static dielectric constant tensor:
#      x y z
#    x 3.981550 0.000000 -0.041130 
#    y 0.000000 3.982260 0.000000 
#    z -0.041130 0.000000 3.591970 
# 
# 
# High freq. dielectric constant tensor:
#      x y z
#    x 1.841410 0.000000 0.008890 
#    y 0.000000 1.846000 0.000000 
#    z 0.008890 0.000000 1.815990 
# 
# From -- ./inp_files/51428.got.cif
#   From: 2010.06.25/outbox.cif.g09.slc.cpg/sg12_26_cif.got.tgz:51428.got - 2010.06.28 00:19:55.
