data_PCOD8113502
_publ_section_title
;
Structure prediction by ZEFSAII (Michael W. Deem and Ramdas Pophale) SiO2 
 PCOD8113502
Probable space group: C 2/M
;
_chemical_formula_sum "Si O2"
_cell_formula_units_Z 56
_cell_length_a 29.481083
_cell_length_b 7.857090
_cell_length_c 20.654589
_cell_angle_alpha 90.000000
_cell_angle_beta 146.418217
_cell_angle_gamma 90.000000
_cell_volume 2646.344252
_symmetry_space_group_name_H-M "C 2/M"
_symmetry_group_IT_number 12
_symmetry_cell_setting 'monoclinic'
loop_
_space_group_symop_operation_xyz
x,y,z
-x,y,-z
-x,-y,-z
x,-y,z
1/2+x,1/2+y,z
1/2-x,1/2+y,-z
1/2-x,1/2-y,-z
1/2+x,1/2-y,z
loop_
_atom_site_type_symbol
_atom_site_label
_atom_site_fract_x
_atom_site_fract_y
_atom_site_fract_z
Si Si1 0.302424 0.692165 0.733224
Si Si2 0.301655 0.305755 0.500055
Si Si3 0.482968 0.698340 0.687267
Si Si4 0.471964 0.196623 0.895789
Si Si5 0.633597 0.000000 0.669393
Si Si6 0.754303 0.312710 0.812091
Si Si7 0.593802 0.308330 0.935941
Si Si8 0.982987 0.500000 0.586385
O O1 0.317738 0.500000 0.774292
O O2 0.222552 0.700061 0.592762
O O3 0.375870 0.762488 0.775935
O O4 0.293501 0.802277 0.787309
O O5 0.281659 0.500000 0.460997
O O6 0.250000 0.250000 0.500000
O O7 0.398314 0.275970 0.626421
O O8 0.490446 0.500000 0.673191
O O9 0.557060 0.750300 0.823193
O O10 0.484895 0.825903 0.629307
O O11 0.521764 0.304218 0.903076
O O12 0.490120 0.000000 0.903954
O O13 0.500000 0.254410 0.000000
O O14 0.686815 0.169168 0.743390
O O15 0.562952 0.000000 0.637643
O O16 0.598476 0.000000 0.554740
O O17 0.713827 0.500000 0.771582
O O18 0.827893 0.303790 0.951753
O O19 0.625666 0.500000 0.968707
#
# Coordination Sequence:
#
# PCOD8113502 Si02
#       8
#     8   8   8   8   4   8   8   4
#     4  12  23  37  58  88 130 175 227 278 333 394
#     4  11  23  39  60  92 131 176 228 275 328 386
#     4  10  25  44  68 101 137 181 227 274 334 409
#     4  11  22  34  53  89 129 180 233 274 327 391
#     4  11  26  50  72 113 128 166 225 286 335 423
#     4  12  24  42  69 101 137 174 216 279 347 399
#     4  11  22  41  66  95 138 181 231 277 329 405
#     4  11  26  48  82  98 137 174 223 273 350 406
#
# _framework density 21.161268
#
# number of rings (size 3 to 8) (size 9 to 14) (size 15 to 20)
#    0.000    0.857    2.857    4.286    4.000    4.000 
#    0.000    2.143    0.000    0.000    0.000    0.000 
#    0.000    0.000    0.000    0.000    0.000    0.000 
#
# Total GULP energy -347292.616940 kJ/mol
# GULP energy per Si atom -12403.307748 kJ/mol
# Density = 2.111310 g / cm^3
# Si number density = 21.161268 Si / 1000 Ang^3
#
#
#
# Elastic Constant Matrix: (Units=GPa)
#
#
# Indices 1 2 3 4 5 6 
#
# 1 73.2406 41.6025 34.7935 0.0000 -1.5778 0.0000
# 2 41.6025 127.4134 55.1813 0.0000 -3.5730 0.0000
# 3 34.7935 55.1813 137.7824 0.0000 -5.8717 0.0000
# 4 0.0000 0.0000 0.0000 30.4123 0.0000 -3.0721
# 5 -1.5778 -3.5730 -5.8717 0.0000 29.1260 0.0000
# 6 0.0000 0.0000 0.0000 -3.0721 0.0000 18.3290
#
#
#
# Elastic Compliance Matrix: (Units=1/GPa)
#
#
# Indices 1 2 3 4 5 6 
#
# 1 0.017487 -0.004596 -0.002581 0.000000 -0.000137 0.000000
# 2 -0.004596 0.010708 -0.003109 0.000000 0.000438 0.000000
# 3 -0.002581 -0.003109 0.009212 0.000000 0.001336 0.000000
# 4 0.000000 0.000000 0.000000 0.033448 0.000000 0.005606
# 5 -0.000137 0.000438 0.001336 0.000000 0.034649 0.000000
# 6 0.000000 0.000000 0.000000 0.005606 0.000000 0.055498
#
#
# Mechanical properties :
#
#
# Convention : Reuss Voigt Hill
#
# Bulk Modulus (GPa) = 59.40175 66.84345 63.12260
# Shear Modulus (GPa) = 26.71135 29.36408 28.03771
#
# Velocity S-wave (km/s) = 3.55671 3.72914 3.64394
# Velocity P-wave (km/s) = 6.70811 7.08507 6.89916
#
# Compressibility (1/GPa) = 0.01683452
#
# Stress axis : x y z
#
# Youngs Moduli (GPa) = 57.18379 93.38856 108.55623
#
# Poissons Ratio (x) = 0.42920 0.28021
# Poissons Ratio (y) = 0.26281 0.33753
# Poissons Ratio (z) = 0.14760 0.29037
#
# Static dielectric constant tensor:
#      x y z
#    x 3.483150 0.000000 0.026090 
#    y 0.000000 3.972710 0.000000 
#    z 0.026090 0.000000 4.015260 
# 
# 
# High freq. dielectric constant tensor:
#      x y z
#    x 1.797490 0.000000 0.000670 
#    y 0.000000 1.841560 0.000000 
#    z 0.000670 0.000000 1.844850 
# 
# From -- ./inp_files/292595.got.cif
#   From: 2010.06.25/outbox.cif.g09.slc.cpg/sg12_147_cif.got.tgz:292595.got - 2010.06.28 00:19:55.
