data_PCOD8113973
_publ_section_title
;
Structure prediction by ZEFSAII (Michael W. Deem and Ramdas Pophale) SiO2 
 PCOD8113973
Probable space group: C 2/M
;
_chemical_formula_sum "Si O2"
_cell_formula_units_Z 56
_cell_length_a 29.653603
_cell_length_b 15.017892
_cell_length_c 11.397841
_cell_angle_alpha 90.000000
_cell_angle_beta 32.973100
_cell_angle_gamma 90.000000
_cell_volume 2762.508781
_symmetry_space_group_name_H-M "C 2/M"
_symmetry_group_IT_number 12
_symmetry_cell_setting 'monoclinic'
loop_
_space_group_symop_operation_xyz
x,y,z
-x,y,-z
-x,-y,-z
x,-y,z
1/2+x,1/2+y,z
1/2-x,1/2+y,-z
1/2-x,1/2-y,-z
1/2+x,1/2-y,z
loop_
_atom_site_type_symbol
_atom_site_label
_atom_site_fract_x
_atom_site_fract_y
_atom_site_fract_z
Si Si1 0.640945 0.097765 0.505717
Si Si2 0.321138 0.400186 0.034797
Si Si3 0.668020 0.302782 0.215211
Si Si4 0.613892 0.392704 0.559639
Si Si5 0.657720 0.743403 0.649500
Si Si6 0.558584 0.290819 0.086350
Si Si7 0.972595 0.662991 0.436043
O O1 0.723071 0.115513 0.251438
O O2 0.632603 0.175616 0.618390
O O3 0.566939 0.095608 0.571821
O O4 0.643008 0.000000 0.562394
O O5 0.347572 0.500000 0.000897
O O6 0.355143 0.373627 0.833825
O O7 0.361033 0.345358 0.052282
O O8 0.673910 0.358267 0.323768
O O9 0.593182 0.235866 0.383721
O O10 0.750000 0.250000 0.000000
O O11 0.613305 0.500000 0.568371
O O12 0.652023 0.351332 0.595192
O O13 0.521120 0.354945 0.746245
O O14 0.750000 0.750000 0.500000
O O15 0.584592 0.749488 0.904620
O O16 0.547664 0.211679 0.204554
O O17 0.000000 0.616399 0.500000
#
# Coordination Sequence:
#
# PCOD8113973 Si02
#       7
#     8   8   8   8   8   8   8
#     4  11  24  44  66  93 128 173 225 275 323 382
#     4  11  21  36  63  97 128 166 212 263 328 396
#     4  11  20  38  64  92 130 174 210 257 322 395
#     4  11  25  41  64 102 136 165 210 275 337 390
#     4  12  24  43  67  92 129 179 224 264 323 395
#     4  11  23  38  66  96 129 171 212 264 334 398
#     4  11  22  39  66  96 125 166 215 268 332 387
#
# _framework density 20.271428
#
# number of rings (size 3 to 8) (size 9 to 14) (size 15 to 20)
#    0.000    0.857    7.143    1.286    0.000    2.571 
#    0.000    3.571    0.000    0.000    0.000    0.000 
#    0.000    0.000    0.000    0.000    0.000    0.000 
#
# Total GULP energy -347096.688011 kJ/mol
# GULP energy per Si atom -12396.310286 kJ/mol
# Density = 2.022529 g / cm^3
# Si number density = 20.271428 Si / 1000 Ang^3
#
#
#
# Elastic Constant Matrix: (Units=GPa)
#
#
# Indices 1 2 3 4 5 6 
#
# 1 121.2982 40.0415 29.5199 0.0000 6.7195 0.0000
# 2 40.0415 98.4159 49.2300 0.0000 9.0518 0.0000
# 3 29.5199 49.2300 94.5817 0.0000 20.6797 0.0000
# 4 0.0000 0.0000 0.0000 18.4335 0.0000 -2.4090
# 5 6.7195 9.0518 20.6797 0.0000 38.6773 0.0000
# 6 0.0000 0.0000 0.0000 -2.4090 0.0000 24.1052
#
#
#
# Elastic Compliance Matrix: (Units=1/GPa)
#
#
# Indices 1 2 3 4 5 6 
#
# 1 0.009643 -0.003275 -0.001253 0.000000 -0.000239 0.000000
# 2 -0.003275 0.014866 -0.006884 0.000000 0.000771 0.000000
# 3 -0.001253 -0.006884 0.016020 0.000000 -0.006737 0.000000
# 4 0.000000 0.000000 0.000000 0.054967 0.000000 0.005493
# 5 -0.000239 0.000771 -0.006737 0.000000 0.029318 0.000000
# 6 0.000000 0.000000 0.000000 0.005493 0.000000 0.042034
#
#
# Mechanical properties :
#
#
# Convention : Reuss Voigt Hill
#
# Bulk Modulus (GPa) = 56.47927 61.31986 58.89956
# Shear Modulus (GPa) = 25.56573 29.27684 27.42129
#
# Velocity S-wave (km/s) = 3.55515 3.80444 3.68191
# Velocity P-wave (km/s) = 6.69135 7.04368 6.86977
#
# Compressibility (1/GPa) = 0.01770561
#
# Stress axis : x y z
#
# Youngs Moduli (GPa) = 103.69856 67.26713 62.42131
#
# Poissons Ratio (x) = 0.22028 0.07822
# Poissons Ratio (y) = 0.33958 0.42972
# Poissons Ratio (z) = 0.12994 0.46308
#
# Static dielectric constant tensor:
#      x y z
#    x 3.936340 0.000000 0.129630 
#    y 0.000000 3.623120 0.000000 
#    z 0.129630 0.000000 3.928450 
# 
# 
# High freq. dielectric constant tensor:
#      x y z
#    x 1.799660 0.000000 0.006980 
#    y 0.000000 1.782190 0.000000 
#    z 0.006980 0.000000 1.797440 
# 
# From -- ./inp_files/189593.got.cif
#   From: 2010.06.25/outbox.cif.g09.slc.cpg/sg12_95_cif.got.tgz:189593.got - 2010.06.28 00:19:55.
