data_PCOD8113546
_publ_section_title
;
Structure prediction by ZEFSAII (Michael W. Deem and Ramdas Pophale) SiO2 
 PCOD8113546
Probable space group: C 2/M
;
_chemical_formula_sum "Si O2"
_cell_formula_units_Z 40
_cell_length_a 8.861062
_cell_length_b 23.068808
_cell_length_c 8.670545
_cell_angle_alpha 90.000000
_cell_angle_beta 88.536033
_cell_angle_gamma 90.000000
_cell_volume 1771.803458
_symmetry_space_group_name_H-M "C 2/M"
_symmetry_group_IT_number 12
_symmetry_cell_setting 'monoclinic'
loop_
_space_group_symop_operation_xyz
x,y,z
-x,y,-z
-x,-y,-z
x,-y,z
1/2+x,1/2+y,z
1/2-x,1/2+y,-z
1/2-x,1/2-y,-z
1/2+x,1/2-y,z
loop_
_atom_site_type_symbol
_atom_site_label
_atom_site_fract_x
_atom_site_fract_y
_atom_site_fract_z
Si Si1 0.678587 0.611272 0.261014
Si Si2 0.418037 0.685737 0.162429
Si Si3 0.269115 0.000000 0.413215
Si Si4 0.660172 0.111658 0.053879
Si Si5 0.401384 0.000000 0.738829
Si Si6 0.864701 0.714549 0.394821
O O1 0.511203 0.637954 0.256810
O O2 0.670766 0.555937 0.371591
O O3 0.794957 0.656878 0.327997
O O4 0.734335 0.591966 0.090416
O O5 0.247193 0.662422 0.144808
O O6 0.419316 0.745859 0.252672
O O7 0.500000 0.698821 0.000000
O O8 0.292845 0.000000 0.594891
O O9 0.425091 0.000000 0.315334
O O10 0.631352 0.056575 0.161035
O O11 0.500000 0.136909 0.000000
O O12 0.750000 0.750000 0.500000
O O13 0.000000 0.693975 0.500000
#
# Coordination Sequence:
#
# PCOD8113546 Si02
#       6
#     8   8   4   8   4   8
#     4  11  25  46  69 102 143 184 228 292 344 425
#     4  10  26  48  68 106 142 183 236 286 354 423
#     4  11  25  43  70 104 143 176 236 287 366 403
#     4  11  23  41  72  96 136 184 236 285 344 412
#     4  11  24  42  65 108 136 181 237 296 339 427
#     4  12  27  46  73 102 145 185 232 289 351 418
#
# _framework density 22.575866000000001
#
# number of rings (size 3 to 8) (size 9 to 14) (size 15 to 20)
#    0.000    1.000    4.000    0.900    8.400    4.800 
#    0.000    4.000    0.000    0.000    0.000    0.000 
#    0.000    0.000    0.000    0.000    0.000    0.000 
#
# Total GULP energy -248130.337954 kJ/mol
# GULP energy per Si atom -12406.516898 kJ/mol
# Density = 2.252448 g / cm^3
# Si number density = 22.575866 Si / 1000 Ang^3
#
#
#
# Elastic Constant Matrix: (Units=GPa)
#
#
# Indices 1 2 3 4 5 6 
#
# 1 122.9433 52.6165 41.5169 0.0000 35.2195 0.0000
# 2 52.6165 144.9018 69.5684 0.0000 19.8473 0.0000
# 3 41.5169 69.5684 109.7789 0.0000 25.8423 0.0000
# 4 0.0000 0.0000 0.0000 23.3979 0.0000 3.1607
# 5 35.2195 19.8473 25.8423 0.0000 42.8556 0.0000
# 6 0.0000 0.0000 0.0000 3.1607 0.0000 6.8737
#
#
#
# Elastic Compliance Matrix: (Units=1/GPa)
#
#
# Indices 1 2 3 4 5 6 
#
# 1 0.011912 -0.002834 -0.000832 0.000000 -0.007976 0.000000
# 2 -0.002834 0.010626 -0.005887 0.000000 0.000958 0.000000
# 3 -0.000832 -0.005887 0.014395 0.000000 -0.005270 0.000000
# 4 0.000000 0.000000 0.000000 0.045570 0.000000 -0.020954
# 5 -0.007976 0.000958 -0.005270 0.000000 0.032623 0.000000
# 6 0.000000 0.000000 0.000000 -0.020954 0.000000 0.155117
#
#
# Mechanical properties :
#
#
# Convention : Reuss Voigt Hill
#
# Bulk Modulus (GPa) = 56.09342 78.33640 67.21491
# Shear Modulus (GPa) = 16.93244 28.88692 22.90968
#
# Velocity S-wave (km/s) = 2.74163 3.58096 3.18903
# Velocity P-wave (km/s) = 5.90953 7.20224 6.58767
#
# Compressibility (1/GPa) = 0.01782740
#
# Stress axis : x y z
#
# Youngs Moduli (GPa) = 83.94665 94.11231 69.46669
#
# Poissons Ratio (x) = 0.26670 0.05778
# Poissons Ratio (y) = 0.23789 0.40898
# Poissons Ratio (z) = 0.06982 0.55408
#
# Static dielectric constant tensor:
#      x y z
#    x 4.278210 0.000000 0.261030 
#    y 0.000000 3.630050 0.000000 
#    z 0.261030 0.000000 4.296410 
# 
# 
# High freq. dielectric constant tensor:
#      x y z
#    x 1.893960 0.000000 0.011430 
#    y 0.000000 1.888920 0.000000 
#    z 0.011430 0.000000 1.908160 
# 
# From -- ./inp_files/39368.got.cif
#   From: 2010.06.25/outbox.cif.g09.slc.cpg/sg12_20_cif.got.tgz:39368.got - 2010.06.28 00:19:55.
