data_PCOD8113199
_publ_section_title
;
Structure prediction by ZEFSAII (Michael W. Deem and Ramdas Pophale) SiO2 
 PCOD8113199
Probable space group: C 2/M
;
_chemical_formula_sum "Si O2"
_cell_formula_units_Z 40
_cell_length_a 7.337581
_cell_length_b 15.935096
_cell_length_c 13.641409
_cell_angle_alpha 90.000000
_cell_angle_beta 98.336453
_cell_angle_gamma 90.000000
_cell_volume 1578.169120
_symmetry_space_group_name_H-M "C 2/M"
_symmetry_group_IT_number 12
_symmetry_cell_setting 'monoclinic'
loop_
_space_group_symop_operation_xyz
x,y,z
-x,y,-z
-x,-y,-z
x,-y,z
1/2+x,1/2+y,z
1/2-x,1/2+y,-z
1/2-x,1/2-y,-z
1/2+x,1/2-y,z
loop_
_atom_site_type_symbol
_atom_site_label
_atom_site_fract_x
_atom_site_fract_y
_atom_site_fract_z
Si Si1 0.085840 0.908162 0.177861
Si Si2 0.711692 0.096976 0.434856
Si Si3 0.553271 0.901285 0.895499
Si Si4 0.799426 0.349738 0.361208
Si Si5 0.766471 0.173654 0.250645
O O1 0.230142 0.879039 0.104403
O O2 0.203734 0.919873 0.286896
O O3 0.920081 0.840806 0.177718
O O4 0.002217 0.000000 0.144753
O O5 0.788533 0.148308 0.535458
O O6 0.512751 0.131932 0.389951
O O7 0.829906 0.112344 0.345686
O O8 0.705592 0.000000 0.464081
O O9 0.433462 0.848797 0.808232
O O10 0.516716 0.000000 0.875741
O O11 0.500000 0.872942 0.000000
O O12 0.758290 0.264887 0.297879
#
# Coordination Sequence:
#
# PCOD8113199 Si02
#       5
#     8   8   8   8   8
#     4  11  23  41  69 100 134 177 228 277 333 408
#     4  11  22  42  70  98 139 191 234 272 330 408
#     4  10  23  46  74 101 134 178 228 284 345 408
#     4  11  23  40  64  98 143 178 224 278 338 400
#     4  12  24  41  68 104 138 176 225 285 343 396
#
# _framework density 25.345827
#
# number of rings (size 3 to 8) (size 9 to 14) (size 15 to 20)
#    0.000    1.000    2.000    6.000    0.000    3.200 
#    0.000    6.000    0.000    0.000    0.000    0.000 
#    0.000    0.000    0.000    0.000    0.000    0.000 
#
# Total GULP energy -247865.533824 kJ/mol
# GULP energy per Si atom -12393.276691 kJ/mol
# Density = 2.528814 g / cm^3
# Si number density = 25.345827 Si / 1000 Ang^3
#
#
#
# Elastic Constant Matrix: (Units=GPa)
#
#
# Indices 1 2 3 4 5 6 
#
# 1 80.9190 35.8857 10.8697 0.0000 -29.9328 0.0000
# 2 35.8857 133.1007 40.6944 0.0000 -9.2912 0.0000
# 3 10.8697 40.6944 96.4061 0.0000 -37.5570 0.0000
# 4 0.0000 0.0000 0.0000 31.6690 0.0000 3.3864
# 5 -29.9328 -9.2912 -37.5570 0.0000 44.6455 0.0000
# 6 0.0000 0.0000 0.0000 3.3864 0.0000 22.1530
#
#
#
# Elastic Compliance Matrix: (Units=1/GPa)
#
#
# Indices 1 2 3 4 5 6 
#
# 1 0.021840 -0.007042 0.008395 0.000000 0.020239 0.000000
# 2 -0.007042 0.011005 -0.007138 0.000000 -0.008436 0.000000
# 3 0.008395 -0.007138 0.020904 0.000000 0.021728 0.000000
# 4 0.000000 0.000000 0.000000 0.032101 0.000000 -0.004907
# 5 0.020239 -0.008436 0.021728 0.000000 0.052490 0.000000
# 6 0.000000 0.000000 0.000000 -0.004907 0.000000 0.045891
#
#
# Mechanical properties :
#
#
# Convention : Reuss Voigt Hill
#
# Bulk Modulus (GPa) = 23.70871 53.92503 38.81687
# Shear Modulus (GPa) = 23.82525 34.55858 29.19192
#
# Velocity S-wave (km/s) = 3.06928 3.69654 3.39742
# Velocity P-wave (km/s) = 4.68349 6.28817 5.54419
#
# Compressibility (1/GPa) = 0.04217859
#
# Stress axis : x y z
#
# Youngs Moduli (GPa) = 45.78737 90.86600 47.83851
#
# Poissons Ratio (x) = 0.63990 -0.40159
# Poissons Ratio (y) = 0.32244 0.34146
# Poissons Ratio (z) = -0.38437 0.64858
#
# Static dielectric constant tensor:
#      x y z
#    x 4.664740 0.000000 -0.530210 
#    y 0.000000 4.350960 0.000000 
#    z -0.530210 0.000000 4.995840 
# 
# 
# High freq. dielectric constant tensor:
#      x y z
#    x 2.016070 0.000000 -0.018260 
#    y 0.000000 1.999900 0.000000 
#    z -0.018260 0.000000 2.008810 
# 
# From -- ./inp_files/194677.got.cif
#   From: 2010.06.25/outbox.cif.g09.slc.cpg/sg12_98_cif.got.tgz:194677.got - 2010.06.28 00:19:55.
