data_PCOD8113761
_publ_section_title
;
Structure prediction by ZEFSAII (Michael W. Deem and Ramdas Pophale) SiO2 
 PCOD8113761
Probable space group: C 2/M
;
_chemical_formula_sum "Si O2"
_cell_formula_units_Z 56
_cell_length_a 20.264811
_cell_length_b 9.081283
_cell_length_c 20.901410
_cell_angle_alpha 90.000000
_cell_angle_beta 48.623219
_cell_angle_gamma 90.000000
_cell_volume 2886.330278
_symmetry_space_group_name_H-M "C 2/M"
_symmetry_group_IT_number 12
_symmetry_cell_setting 'monoclinic'
loop_
_space_group_symop_operation_xyz
x,y,z
-x,y,-z
-x,-y,-z
x,-y,z
1/2+x,1/2+y,z
1/2-x,1/2+y,-z
1/2-x,1/2-y,-z
1/2+x,1/2-y,z
loop_
_atom_site_type_symbol
_atom_site_label
_atom_site_fract_x
_atom_site_fract_y
_atom_site_fract_z
Si Si1 0.308587 0.167112 0.071660
Si Si2 0.991818 0.825801 0.273643
Si Si3 0.432898 0.327304 0.907429
Si Si4 0.649169 0.325373 0.255764
Si Si5 0.242831 0.169746 0.319262
Si Si6 0.707369 0.324509 0.588195
Si Si7 0.916916 0.663332 0.127282
O O1 0.219724 0.237195 0.158918
O O2 0.385908 0.176381 0.074398
O O3 0.291234 0.000000 0.061008
O O4 0.340254 0.257556 0.989191
O O5 0.893127 0.764822 0.343767
O O6 0.039406 0.763642 0.179738
O O7 0.050862 0.778986 0.297376
O O8 0.986862 0.000000 0.271300
O O9 0.419793 0.500000 0.913979
O O10 0.510036 0.285995 0.907224
O O11 0.663817 0.500000 0.246356
O O12 0.669246 0.272120 0.315410
O O13 0.238329 0.271673 0.384622
O O14 0.336813 0.189781 0.226608
O O15 0.225505 0.000000 0.349898
O O16 0.712389 0.500000 0.579499
O O17 0.750000 0.250000 0.500000
O O18 0.956701 0.500000 0.113468
#
# Coordination Sequence:
#
# PCOD8113761 Si02
#       7
#     8   8   8   8   8   8   8
#     4   9  18  31  48  72 101 140 183 222 259 300
#     4   9  19  35  54  78 107 140 176 218 267 314
#     4  11  20  29  45  73 107 141 179 221 264 306
#     4   8  16  34  57  77 104 143 185 219 253 310
#     4   9  17  33  59  84 103 134 178 221 263 310
#     4  11  22  38  60  85 111 137 168 213 266 321
#     4   9  17  30  48  71 102 137 178 220 260 309
#
# _framework density 19.401800000000001
#
# number of rings (size 3 to 8) (size 9 to 14) (size 15 to 20)
#    0.000    2.571    1.429    3.000    0.000    2.857 
#    0.000    2.857    0.000   10.286    0.000    0.000 
#    0.000    0.000    0.000    0.000    0.000    0.000 
#
# Total GULP energy -347081.569990 kJ/mol
# GULP energy per Si atom -12395.770357 kJ/mol
# Density = 1.935764 g / cm^3
# Si number density = 19.401800 Si / 1000 Ang^3
#
#
#
# Elastic Constant Matrix: (Units=GPa)
#
#
# Indices 1 2 3 4 5 6 
#
# 1 99.3514 22.5119 52.3849 0.0000 -0.5653 0.0001
# 2 22.5119 55.1236 38.4441 -0.0002 6.7693 0.0003
# 3 52.3849 38.4441 117.4828 0.0000 21.7659 0.0000
# 4 0.0000 -0.0002 0.0000 28.5480 0.0000 5.4138
# 5 -0.5653 6.7693 21.7659 0.0000 16.4414 0.0000
# 6 0.0001 0.0003 0.0000 5.4138 0.0000 17.6673
#
#
#
# Elastic Compliance Matrix: (Units=1/GPa)
#
#
# Indices 1 2 3 4 5 6 
#
# 1 0.014951 -0.001785 -0.008366 0.000000 0.012324 0.000000
# 2 -0.001785 0.023724 -0.006819 0.000000 -0.000802 0.000000
# 3 -0.008366 -0.006819 0.018558 0.000000 -0.022049 0.000000
# 4 0.000000 0.000000 0.000000 0.037190 0.000000 -0.011396
# 5 0.012324 -0.000802 -0.022049 0.000000 0.090765 0.000000
# 6 0.000000 0.000000 0.000000 -0.011396 0.000000 0.060094
#
#
# Mechanical properties :
#
#
# Convention : Reuss Voigt Hill
#
# Bulk Modulus (GPa) = 42.92843 55.40443 49.16643
# Shear Modulus (GPa) = 17.42250 23.10578 20.26414
#
# Velocity S-wave (km/s) = 2.99989 3.45470 3.23530
# Velocity P-wave (km/s) = 5.84578 6.67320 6.27315
#
# Compressibility (1/GPa) = 0.02329459
#
# Stress axis : x y z
#
# Youngs Moduli (GPa) = 66.88636 42.15140 53.88418
#
# Poissons Ratio (x) = 0.07523 0.45077
# Poissons Ratio (y) = 0.11938 0.36743
# Poissons Ratio (z) = 0.55954 0.28742
#
# Static dielectric constant tensor:
#      x y z
#    x 3.646530 0.000000 0.060690 
#    y 0.000000 3.201900 0.000000 
#    z 0.060690 0.000000 3.513560 
# 
# 
# High freq. dielectric constant tensor:
#      x y z
#    x 1.755800 0.000000 0.006110 
#    y 0.000000 1.717010 0.000000 
#    z 0.006110 0.000000 1.746380 
# 
# From -- ./inp_files/319635.got.cif
#   From: 2010.06.25/outbox.cif.g09.slc.cpg/sg12_160_cif.got.tgz:319635.got - 2010.06.28 00:19:55.
