data_PCOD8113534
_publ_section_title
;
Structure prediction by ZEFSAII (Michael W. Deem and Ramdas Pophale) SiO2 
 PCOD8113534
Probable space group: C 2/M
;
_chemical_formula_sum "Si O2"
_cell_formula_units_Z 44
_cell_length_a 4.979060
_cell_length_b 28.133585
_cell_length_c 15.338060
_cell_angle_alpha 90.000000
_cell_angle_beta 118.301208
_cell_angle_gamma 90.000000
_cell_volume 1891.716834
_symmetry_space_group_name_H-M "C 2/M"
_symmetry_group_IT_number 12
_symmetry_cell_setting 'monoclinic'
loop_
_space_group_symop_operation_xyz
x,y,z
-x,y,-z
-x,-y,-z
x,-y,z
1/2+x,1/2+y,z
1/2-x,1/2+y,-z
1/2-x,1/2-y,-z
1/2+x,1/2-y,z
loop_
_atom_site_type_symbol
_atom_site_label
_atom_site_fract_x
_atom_site_fract_y
_atom_site_fract_z
Si Si1 0.565526 0.000000 0.212401
Si Si2 0.283934 0.407566 0.884683
Si Si3 0.272356 0.000000 0.348095
Si Si4 0.343523 0.625563 0.216740
Si Si5 0.500000 0.827906 0.500000
Si Si6 0.703996 0.719988 0.292979
Si Si7 0.104852 0.914374 0.427350
O O1 0.413377 0.955439 0.141732
O O2 0.928888 0.000000 0.255747
O O3 0.518295 0.000000 0.309260
O O4 0.488596 0.407297 0.829124
O O5 0.019947 0.366954 0.853014
O O6 0.500000 0.402637 0.000000
O O7 0.329074 0.951916 0.413491
O O8 0.515661 0.675221 0.230630
O O9 0.361405 0.601455 0.315761
O O10 0.615401 0.793002 0.591971
O O11 0.240444 0.865334 0.487492
O O12 0.468472 0.763725 0.267718
O O13 0.000000 0.940771 0.500000
#
# Coordination Sequence:
#
# PCOD8113534 Si02
#       7
#     4   8   4   8   4   8   8
#     4  12  23  44  66 100 133 179 229 285 320 391
#     4  12  24  45  73 101 134 177 224 283 340 388
#     4  12  25  41  63  90 145 185 233 267 325 382
#     4  11  25  44  69 101 138 172 226 277 339 412
#     4  10  26  37  66  94 134 174 240 267 324 398
#     4  11  24  43  69  97 133 174 217 281 343 394
#     4  11  25  40  63  95 137 195 222 275 320 394
#
# _framework density 23.259294000000001
#
# number of rings (size 3 to 8) (size 9 to 14) (size 15 to 20)
#    0.000    0.727    3.636    2.727   12.727    0.364 
#    0.000    2.727    0.000   10.909    0.000    0.000 
#    0.000    0.000    0.000    0.000    0.000    0.000 
#
# Total GULP energy -272603.464100 kJ/mol
# GULP energy per Si atom -12391.066550 kJ/mol
# Density = 2.320635 g / cm^3
# Si number density = 23.259294 Si / 1000 Ang^3
#
#
#
# Elastic Constant Matrix: (Units=GPa)
#
#
# Indices 1 2 3 4 5 6 
#
# 1 86.3006 -8.0984 42.0365 0.0000 4.9096 0.0000
# 2 -8.0984 65.9117 28.4729 0.0000 -2.9539 0.0000
# 3 42.0365 28.4729 133.1309 0.0000 14.7338 0.0000
# 4 0.0000 0.0000 0.0000 24.6474 0.0000 9.3522
# 5 4.9096 -2.9539 14.7338 0.0000 32.4848 0.0000
# 6 0.0000 0.0000 0.0000 9.3522 0.0000 29.0134
#
#
#
# Elastic Compliance Matrix: (Units=1/GPa)
#
#
# Indices 1 2 3 4 5 6 
#
# 1 0.014690 0.004270 -0.005632 0.000000 0.000722 0.000000
# 2 0.004270 0.018302 -0.005659 0.000000 0.003586 0.000000
# 3 -0.005632 -0.005659 0.011016 0.000000 -0.004660 0.000000
# 4 0.000000 0.000000 0.000000 0.046226 0.000000 -0.014901
# 5 0.000722 0.003586 -0.004660 0.000000 0.033114 0.000000
# 6 0.000000 0.000000 0.000000 -0.014901 0.000000 0.039270
#
#
# Mechanical properties :
#
#
# Convention : Reuss Voigt Hill
#
# Bulk Modulus (GPa) = 33.37127 45.57391 39.47259
# Shear Modulus (GPa) = 26.78835 32.09127 29.43981
#
# Velocity S-wave (km/s) = 3.39739 3.71849 3.56156
# Velocity P-wave (km/s) = 5.45604 6.17030 5.82413
#
# Compressibility (1/GPa) = 0.02996590
#
# Stress axis : x y z
#
# Youngs Moduli (GPa) = 68.07282 54.63896 90.77952
#
# Poissons Ratio (x) = -0.23331 0.51124
# Poissons Ratio (y) = -0.29068 0.51376
# Poissons Ratio (z) = 0.38336 0.30922
#
# Static dielectric constant tensor:
#      x y z
#    x 4.215160 0.000000 0.223270 
#    y 0.000000 4.323620 0.000000 
#    z 0.223270 0.000000 4.097950 
# 
# 
# High freq. dielectric constant tensor:
#      x y z
#    x 1.926710 0.000000 0.017740 
#    y 0.000000 1.921470 0.000000 
#    z 0.017740 0.000000 1.905390 
# 
# From -- ./inp_files/253704.got.cif
#   From: 2010.06.25/outbox.cif.g09.slc.cpg/sg12_127_cif.got.tgz:253704.got - 2010.06.28 00:19:55.
