data_PCOD8113410
_publ_section_title
;
Structure prediction by ZEFSAII (Michael W. Deem and Ramdas Pophale) SiO2 
 PCOD8113410
Probable space group: C 2/M
;
_chemical_formula_sum "Si O2"
_cell_formula_units_Z 28
_cell_length_a 9.078185
_cell_length_b 28.926114
_cell_length_c 5.058338
_cell_angle_alpha 90.000000
_cell_angle_beta 58.507790
_cell_angle_gamma 90.000000
_cell_volume 1132.658356
_symmetry_space_group_name_H-M "C 2/M"
_symmetry_group_IT_number 12
_symmetry_cell_setting 'monoclinic'
loop_
_space_group_symop_operation_xyz
x,y,z
-x,y,-z
-x,-y,-z
x,-y,z
1/2+x,1/2+y,z
1/2-x,1/2+y,-z
1/2-x,1/2-y,-z
1/2+x,1/2-y,z
loop_
_atom_site_type_symbol
_atom_site_label
_atom_site_fract_x
_atom_site_fract_y
_atom_site_fract_z
Si Si1 0.312612 0.599492 0.083672
Si Si2 0.342718 0.690445 0.800936
Si Si3 0.500000 0.767876 0.000000
Si Si4 0.686322 0.947980 0.698388
O O1 0.179508 0.579178 0.424804
O O2 0.500000 0.584915 0.000000
O O3 0.286047 0.655324 0.087637
O O4 0.302648 0.578306 0.801038
O O5 0.500000 0.664762 0.500000
O O6 0.437545 0.737129 0.812623
O O7 0.172296 0.701198 0.779194
O O8 0.753882 0.000000 0.584596
O O9 0.500000 0.948767 0.000000
#
# Coordination Sequence:
#
# PCOD8113410 Si02
#       4
#     8   8   4   8
#     4  12  25  44  74 108 149 189 238 306 366 435
#     4  11  23  45  69 109 150 192 250 305 365 439
#     4  10  24  44  74 102 144 202 246 302 374 430
#     4  11  26  49  74 107 145 190 245 300 364 444
#
# _framework density 24.720607000000001
#
# number of rings (size 3 to 8) (size 9 to 14) (size 15 to 20)
#    0.000    0.857    1.429    5.143    2.000    5.714 
#    5.143    0.000    0.000    0.000    0.000    0.000 
#    0.000    0.000    0.000    0.000    0.000    0.000 
#
# Total GULP energy -173518.330849 kJ/mol
# GULP energy per Si atom -12394.166489 kJ/mol
# Density = 2.466434 g / cm^3
# Si number density = 24.720607 Si / 1000 Ang^3
#
#
#
# Elastic Constant Matrix: (Units=GPa)
#
#
# Indices 1 2 3 4 5 6 
#
# 1 154.2613 47.6815 32.4343 0.0000 -16.1276 0.0000
# 2 47.6815 138.6600 62.9985 0.0000 -1.2411 0.0000
# 3 32.4343 62.9985 118.3996 0.0000 6.5284 0.0000
# 4 0.0000 0.0000 0.0000 46.2624 0.0000 22.6012
# 5 -16.1276 -1.2411 6.5284 0.0000 38.2245 0.0000
# 6 0.0000 0.0000 0.0000 22.6012 0.0000 61.2967
#
#
#
# Elastic Compliance Matrix: (Units=1/GPa)
#
#
# Indices 1 2 3 4 5 6 
#
# 1 0.007734 -0.002086 -0.001196 0.000000 0.003400 0.000000
# 2 -0.002086 0.010127 -0.004832 0.000000 0.000274 0.000000
# 3 -0.001196 -0.004832 0.011490 0.000000 -0.002624 0.000000
# 4 0.000000 0.000000 0.000000 0.026365 0.000000 -0.009721
# 5 0.003400 0.000274 -0.002624 0.000000 0.028053 0.000000
# 6 0.000000 0.000000 0.000000 -0.009721 0.000000 0.019898
#
#
# Mechanical properties :
#
#
# Convention : Reuss Voigt Hill
#
# Bulk Modulus (GPa) = 76.20644 77.50549 76.85596
# Shear Modulus (GPa) = 40.23516 47.03716 43.63616
#
# Velocity S-wave (km/s) = 4.03872 4.36679 4.20595
# Velocity P-wave (km/s) = 7.25551 7.53961 7.39892
#
# Compressibility (1/GPa) = 0.01312225
#
# Stress axis : x y z
#
# Youngs Moduli (GPa) = 129.29683 98.74644 87.03556
#
# Poissons Ratio (x) = 0.20594 0.10414
# Poissons Ratio (y) = 0.26965 0.42057
# Poissons Ratio (z) = 0.15470 0.47716
#
# Static dielectric constant tensor:
#      x y z
#    x 4.706950 0.000000 -0.022600 
#    y 0.000000 4.556870 0.000000 
#    z -0.022600 0.000000 4.602720 
# 
# 
# High freq. dielectric constant tensor:
#      x y z
#    x 1.994890 0.000000 -0.005790 
#    y 0.000000 1.985670 0.000000 
#    z -0.005790 0.000000 1.975770 
# 
# From -- ./inp_files/3399.got.cif
#   From: 2010.06.25/outbox.cif.g09.slc.cpg/sg12_2_cif.got.tgz:3399.got - 2010.06.28 00:19:55.
