data_PCOD8113599
_publ_section_title
;
Structure prediction by ZEFSAII (Michael W. Deem and Ramdas Pophale) SiO2 
 PCOD8113599
Probable space group: C 2/M
;
_chemical_formula_sum "Si O2"
_cell_formula_units_Z 56
_cell_length_a 17.926398
_cell_length_b 19.806560
_cell_length_c 9.335933
_cell_angle_alpha 90.000000
_cell_angle_beta 74.422234
_cell_angle_gamma 90.000000
_cell_volume 3193.055221
_symmetry_space_group_name_H-M "C 2/M"
_symmetry_group_IT_number 12
_symmetry_cell_setting 'monoclinic'
loop_
_space_group_symop_operation_xyz
x,y,z
-x,y,-z
-x,-y,-z
x,-y,z
1/2+x,1/2+y,z
1/2-x,1/2+y,-z
1/2-x,1/2-y,-z
1/2+x,1/2-y,z
loop_
_atom_site_type_symbol
_atom_site_label
_atom_site_fract_x
_atom_site_fract_y
_atom_site_fract_z
Si Si1 0.631212 0.922746 0.559914
Si Si2 0.431864 0.279337 0.138590
Si Si3 0.072987 0.195445 0.531422
Si Si4 0.481473 0.865021 0.161555
Si Si5 0.763764 0.229974 0.153030
Si Si6 0.758923 0.819031 0.585693
Si Si7 0.893864 0.671146 0.670476
O O1 0.567010 0.916200 0.716481
O O2 0.706356 0.878562 0.555568
O O3 0.596742 0.897275 0.426537
O O4 0.656410 0.000000 0.532632
O O5 0.447631 0.300856 0.291893
O O6 0.429515 0.198256 0.138682
O O7 0.347746 0.305773 0.128634
O O8 0.500000 0.307768 0.000000
O O9 0.152604 0.154858 0.469239
O O10 0.078925 0.268170 0.447950
O O11 0.000000 0.155959 0.500000
O O12 0.555606 0.836220 0.211425
O O13 0.500000 0.902225 0.000000
O O14 0.762524 0.300269 0.241395
O O15 0.695951 0.180077 0.240231
O O16 0.750000 0.250000 0.000000
O O17 0.750000 0.750000 0.500000
#
# Coordination Sequence:
#
# PCOD8113599 Si02
#       7
#     8   8   8   8   8   8   8
#     4  12  23  38  58  80 107 151 192 226 270 326
#     4  11  19  29  47  78 114 140 175 226 276 325
#     4  11  18  32  54  79 108 137 177 225 284 319
#     4  11  21  34  51  74 113 152 184 225 269 320
#     4  11  20  32  54  80 107 145 182 226 283 320
#     4  11  19  37  57  76 109 140 180 232 276 317
#     4  11  20  35  54  78 108 146 188 225 263 331
#
# _framework density 17.538062
#
# number of rings (size 3 to 8) (size 9 to 14) (size 15 to 20)
#    0.000    0.857    8.571    2.143    2.000    1.429 
#    0.000    0.000    0.000    0.429    0.000    0.000 
#    0.000    2.857    0.000    0.000    0.000    0.000 
#
# Total GULP energy -347044.740910 kJ/mol
# GULP energy per Si atom -12394.455032 kJ/mol
# Density = 1.749814 g / cm^3
# Si number density = 17.538062 Si / 1000 Ang^3
#
#
#
# Elastic Constant Matrix: (Units=GPa)
#
#
# Indices 1 2 3 4 5 6 
#
# 1 144.9865 16.5814 52.0594 0.0000 -4.0987 0.0000
# 2 16.5814 54.2566 15.3957 0.0000 3.5621 0.0000
# 3 52.0594 15.3957 147.6889 0.0000 6.4446 0.0000
# 4 0.0000 0.0000 0.0000 9.7104 0.0000 -1.4503
# 5 -4.0987 3.5621 6.4446 0.0000 35.9999 0.0000
# 6 0.0000 0.0000 0.0000 -1.4503 0.0000 15.6184
#
#
#
# Elastic Compliance Matrix: (Units=1/GPa)
#
#
# Indices 1 2 3 4 5 6 
#
# 1 0.008137 -0.001811 -0.002749 0.000000 0.001598 0.000000
# 2 -0.001811 0.019481 -0.001309 0.000000 -0.001899 0.000000
# 3 -0.002749 -0.001309 0.007947 0.000000 -0.001606 0.000000
# 4 0.000000 0.000000 0.000000 0.104431 0.000000 0.009698
# 5 0.001598 -0.001899 -0.001606 0.000000 0.028435 0.000000
# 6 0.000000 0.000000 0.000000 0.009698 0.000000 0.064928
#
#
# Mechanical properties :
#
#
# Convention : Reuss Voigt Hill
#
# Bulk Modulus (GPa) = 41.97391 57.22278 49.59834
# Shear Modulus (GPa) = 19.75985 29.79210 24.77597
#
# Velocity S-wave (km/s) = 3.36025 4.12601 3.76266
# Velocity P-wave (km/s) = 6.24820 7.44293 6.87158
#
# Compressibility (1/GPa) = 0.02382432
#
# Stress axis : x y z
#
# Youngs Moduli (GPa) = 122.90155 51.33264 125.84062
#
# Poissons Ratio (x) = 0.09299 0.34593
# Poissons Ratio (y) = 0.22263 0.16477
# Poissons Ratio (z) = 0.33785 0.06721
#
# Static dielectric constant tensor:
#      x y z
#    x 3.809270 0.000000 -0.079270 
#    y 0.000000 2.636240 0.000000 
#    z -0.079270 0.000000 3.662700 
# 
# 
# High freq. dielectric constant tensor:
#      x y z
#    x 1.704070 0.000000 0.000710 
#    y 0.000000 1.589900 0.000000 
#    z 0.000710 0.000000 1.702650 
# 
# From -- ./inp_files/76842.got.cif
#   From: 2010.06.25/outbox.cif.g09.slc.cpg/sg12_39_cif.got.tgz:76842.got - 2010.06.28 00:19:55.
