data_PCOD8113380
_publ_section_title
;
Structure prediction by ZEFSAII (Michael W. Deem and Ramdas Pophale) SiO2 
 PCOD8113380
Probable space group: C 2/M
;
_chemical_formula_sum "Si O2"
_cell_formula_units_Z 40
_cell_length_a 8.766976
_cell_length_b 19.266797
_cell_length_c 10.416710
_cell_angle_alpha 90.000000
_cell_angle_beta 85.090557
_cell_angle_gamma 90.000000
_cell_volume 1753.047345
_symmetry_space_group_name_H-M "C 2/M"
_symmetry_group_IT_number 12
_symmetry_cell_setting 'monoclinic'
loop_
_space_group_symop_operation_xyz
x,y,z
-x,y,-z
-x,-y,-z
x,-y,z
1/2+x,1/2+y,z
1/2-x,1/2+y,-z
1/2-x,1/2-y,-z
1/2+x,1/2-y,z
loop_
_atom_site_type_symbol
_atom_site_label
_atom_site_fract_x
_atom_site_fract_y
_atom_site_fract_z
Si Si1 0.422984 0.000000 0.140521
Si Si2 0.071123 0.874835 0.855661
Si Si3 0.318410 0.000000 0.482770
Si Si4 0.000000 0.258866 0.500000
Si Si5 0.771595 0.109303 0.719840
Si Si6 0.769081 0.771095 0.321897
Si Si7 0.737929 0.000000 0.230402
O O1 0.324525 0.070309 0.162332
O O2 0.554205 0.000000 0.238882
O O3 0.500000 0.000000 0.000000
O O4 0.172095 0.807645 0.810505
O O5 0.192866 0.935967 0.852383
O O6 0.946429 0.892591 0.755777
O O7 0.000000 0.860511 0.000000
O O8 0.500000 0.000000 0.500000
O O9 0.261985 0.068147 0.409619
O O10 0.221967 0.000000 0.621838
O O11 0.117683 0.210071 0.568275
O O12 0.101866 0.299632 0.383868
O O13 0.725056 0.188989 0.704828
#
# Coordination Sequence:
#
# PCOD8113380 Si02
#       7
#     4   8   4   4   8   8   4
#     4  11  24  43  70 100 138 189 239 291 354 422
#     4  12  28  49  70 104 147 198 244 290 355 428
#     4  11  25  45  74 108 140 176 238 299 370 430
#     4  10  24  44  66 104 142 174 228 292 366 418
#     4  11  25  46  68 103 146 185 235 298 359 428
#     4  11  25  43  76 103 144 186 236 293 365 421
#     4  12  26  43  76 102 136 192 238 306 355 420
#
# _framework density 22.817409000000001
#
# number of rings (size 3 to 8) (size 9 to 14) (size 15 to 20)
#    0.000    0.800    4.000    2.700    9.800    3.200 
#    0.000    0.000    0.000    0.000    0.000    0.000 
#    0.000    0.000    0.000    0.000    0.000    0.000 
#
# Total GULP energy -247820.932086 kJ/mol
# GULP energy per Si atom -12391.046604 kJ/mol
# Density = 2.276548 g / cm^3
# Si number density = 22.817409 Si / 1000 Ang^3
#
#
#
# Elastic Constant Matrix: (Units=GPa)
#
#
# Indices 1 2 3 4 5 6 
#
# 1 129.0290 43.1484 32.4510 0.0000 -16.1529 0.0000
# 2 43.1484 158.5061 47.2581 0.0000 -20.0444 0.0000
# 3 32.4510 47.2581 152.2634 0.0000 -41.6833 0.0000
# 4 0.0000 0.0000 0.0000 3.4087 0.0000 -13.7705
# 5 -16.1529 -20.0444 -41.6833 0.0000 50.6904 0.0000
# 6 0.0000 0.0000 0.0000 -13.7705 0.0000 27.6185
#
#
#
# Elastic Compliance Matrix: (Units=1/GPa)
#
#
# Indices 1 2 3 4 5 6 
#
# 1 0.008796 -0.001960 -0.000918 0.000000 0.001273 0.000000
# 2 -0.001960 0.007452 -0.001625 0.000000 0.000986 0.000000
# 3 -0.000918 -0.001625 0.009049 0.000000 0.006506 0.000000
# 4 0.000000 0.000000 0.000000 -0.289252 0.000000 -0.144220
# 5 0.001273 0.000986 0.006506 0.000000 0.025873 0.000000
# 6 0.000000 0.000000 0.000000 -0.144220 0.000000 -0.035700
#
#
# Mechanical properties :
#
#
# Convention : Reuss Voigt Hill
#
# Bulk Modulus (GPa) = 61.38619 76.16819 68.77719
# Shear Modulus (GPa) = -19.27917 37.47292 9.09688
#
# Velocity S-wave (km/s) = -2.90993 4.05692 1.99887
# Velocity P-wave (km/s) = 3.95871 7.44304 5.96114
#
# Compressibility (1/GPa) = 0.01629031
#
# Stress axis : x y z
#
# Youngs Moduli (GPa) = 113.69113 134.19958 110.51465
#
# Poissons Ratio (x) = 0.26299 0.10143
# Poissons Ratio (y) = 0.22280 0.17962
# Poissons Ratio (z) = 0.10435 0.21811
#
# Static dielectric constant tensor:
#      x y z
#    x 4.624450 0.000000 -0.014780 
#    y 0.000000 3.987140 0.000000 
#    z -0.014780 0.000000 4.177400 
# 
# 
# High freq. dielectric constant tensor:
#      x y z
#    x 1.920640 0.000000 -0.009580 
#    y 0.000000 1.884200 0.000000 
#    z -0.009580 0.000000 1.907520 
# 
# From -- ./inp_files/120224.got.cif
#   From: 2010.06.25/outbox.cif.g09.slc.cpg/sg12_61_cif.got.tgz:120224.got - 2010.06.28 00:19:55.
