data_PCOD8113849
_publ_section_title
;
Structure prediction by ZEFSAII (Michael W. Deem and Ramdas Pophale) SiO2 
 PCOD8113849
Probable space group: C 2/M
;
_chemical_formula_sum "Si O2"
_cell_formula_units_Z 40
_cell_length_a 16.700395
_cell_length_b 21.524365
_cell_length_c 8.049513
_cell_angle_alpha 90.000000
_cell_angle_beta 45.915786
_cell_angle_gamma 90.000000
_cell_volume 2078.468518
_symmetry_space_group_name_H-M "C 2/M"
_symmetry_group_IT_number 12
_symmetry_cell_setting 'monoclinic'
loop_
_space_group_symop_operation_xyz
x,y,z
-x,y,-z
-x,-y,-z
x,-y,z
1/2+x,1/2+y,z
1/2-x,1/2+y,-z
1/2-x,1/2-y,-z
1/2+x,1/2-y,z
loop_
_atom_site_type_symbol
_atom_site_label
_atom_site_fract_x
_atom_site_fract_y
_atom_site_fract_z
Si Si1 0.766818 0.832817 0.557419
Si Si2 0.771476 0.212957 0.195123
Si Si3 0.494069 0.295269 0.702981
Si Si4 0.381523 0.928665 0.083503
Si Si5 0.577554 0.166158 0.252484
O O1 0.728641 0.819529 0.424793
O O2 0.713544 0.785941 0.773973
O O3 0.900626 0.828326 0.364362
O O4 0.719448 0.901553 0.660059
O O5 0.678601 0.206146 0.186818
O O6 0.883648 0.181653 0.959433
O O7 0.500000 0.313090 0.500000
O O8 0.497780 0.220179 0.725433
O O9 0.379760 0.890392 0.917117
O O10 0.355071 0.000000 0.083546
O O11 0.500000 0.919934 0.000000
O O12 0.500000 0.132691 0.500000
#
# Coordination Sequence:
#
# PCOD8113849 Si02
#       5
#     8   8   8   8   8
#     4  11  22  36  60  88 124 156 201 248 306 360
#     4  11  21  34  58  95 122 156 192 258 315 355
#     4  11  20  33  56  92 125 152 188 251 310 358
#     4  11  25  42  61  85 123 169 206 243 290 364
#     4  11  20  36  59  91 124 156 199 249 305 357
#
# _framework density 19.244938999999999
#
# number of rings (size 3 to 8) (size 9 to 14) (size 15 to 20)
#    0.000    1.000    6.000    3.600    2.800    0.400 
#    0.000    1.000    0.000    7.800    0.000    0.000 
#    0.000    0.000    0.000    0.000    0.000    0.000 
#
# Total GULP energy -247890.172560 kJ/mol
# GULP energy per Si atom -12394.508628 kJ/mol
# Density = 1.920114 g / cm^3
# Si number density = 19.244939 Si / 1000 Ang^3
#
#
#
# Elastic Constant Matrix: (Units=GPa)
#
#
# Indices 1 2 3 4 5 6 
#
# 1 64.9920 41.5335 30.3481 0.0000 -6.2745 0.0000
# 2 41.5335 119.5555 48.9450 0.0000 2.9301 0.0000
# 3 30.3481 48.9450 109.6259 0.0000 -14.8956 0.0000
# 4 0.0000 0.0000 0.0000 27.2299 0.0000 -3.4990
# 5 -6.2745 2.9301 -14.8956 0.0000 35.7975 0.0000
# 6 0.0000 0.0000 0.0000 -3.4990 0.0000 17.5498
#
#
#
# Elastic Compliance Matrix: (Units=1/GPa)
#
#
# Indices 1 2 3 4 5 6 
#
# 1 0.020901 -0.006292 -0.002553 0.000000 0.003116 0.000000
# 2 -0.006292 0.012422 -0.004338 0.000000 -0.003924 0.000000
# 3 -0.002553 -0.004338 0.012457 0.000000 0.005091 0.000000
# 4 0.000000 0.000000 0.000000 0.037690 0.000000 0.007514
# 5 0.003116 -0.003924 0.005091 0.000000 0.030921 0.000000
# 6 0.000000 0.000000 0.000000 0.007514 0.000000 0.058479
#
#
# Mechanical properties :
#
#
# Convention : Reuss Voigt Hill
#
# Bulk Modulus (GPa) = 51.50916 59.53629 55.52273
# Shear Modulus (GPa) = 24.30654 27.67191 25.98922
#
# Velocity S-wave (km/s) = 3.55774 3.79605 3.67883
# Velocity P-wave (km/s) = 6.61058 7.08637 6.85261
#
# Compressibility (1/GPa) = 0.01941402
#
# Stress axis : x y z
#
# Youngs Moduli (GPa) = 47.84574 80.50209 80.27512
#
# Poissons Ratio (x) = 0.50651 0.20498
# Poissons Ratio (y) = 0.30104 0.34820
# Poissons Ratio (z) = 0.12217 0.34918
#
# Static dielectric constant tensor:
#      x y z
#    x 3.510700 0.000000 0.032070 
#    y 0.000000 3.105550 0.000000 
#    z 0.032070 0.000000 3.828030 
# 
# 
# High freq. dielectric constant tensor:
#      x y z
#    x 1.753530 0.000000 0.002340 
#    y 0.000000 1.686160 0.000000 
#    z 0.002340 0.000000 1.779070 
# 
# From -- ./inp_files/48490.got.cif
#   From: 2010.06.25/outbox.cif.g09.slc.cpg/sg12_25_cif.got.tgz:48490.got - 2010.06.28 00:19:55.
