data_PCOD8113905
_publ_section_title
;
Structure prediction by ZEFSAII (Michael W. Deem and Ramdas Pophale) SiO2 
 PCOD8113905
Probable space group: C 2/M
;
_chemical_formula_sum "Si O2"
_cell_formula_units_Z 40
_cell_length_a 25.067047
_cell_length_b 10.327474
_cell_length_c 21.445150
_cell_angle_alpha 90.000000
_cell_angle_beta 156.535863
_cell_angle_gamma 90.000000
_cell_volume 2210.549979
_symmetry_space_group_name_H-M "C 2/M"
_symmetry_group_IT_number 12
_symmetry_cell_setting 'monoclinic'
loop_
_space_group_symop_operation_xyz
x,y,z
-x,y,-z
-x,-y,-z
x,-y,z
1/2+x,1/2+y,z
1/2-x,1/2+y,-z
1/2-x,1/2-y,-z
1/2+x,1/2-y,z
loop_
_atom_site_type_symbol
_atom_site_label
_atom_site_fract_x
_atom_site_fract_y
_atom_site_fract_z
Si Si1 0.121350 0.000000 0.410671
Si Si2 0.731390 0.760006 0.855450
Si Si3 0.845523 0.000000 0.048901
Si Si4 0.111298 0.500000 0.381301
Si Si5 0.347590 0.144334 0.356785
Si Si6 0.832231 0.500000 0.018636
Si Si7 0.574623 0.239361 0.431838
O O1 0.116146 0.123741 0.449287
O O2 0.000858 0.000000 0.232450
O O3 0.256749 0.000000 0.517867
O O4 0.733311 0.778023 0.782857
O O5 0.583014 0.765151 0.724268
O O6 0.800272 0.624247 0.942825
O O7 0.817269 0.872912 0.978683
O O8 0.755942 0.000000 0.014159
O O9 0.109830 0.626975 0.421737
O O10 0.987627 0.500000 0.201542
O O11 0.500000 0.131601 0.500000
O O12 0.338567 0.220037 0.412357
O O13 0.286984 0.000000 0.299303
#
# Coordination Sequence:
#
# PCOD8113905 Si02
#       7
#     4   8   4   4   8   4   8
#     4  12  26  37  55  89 119 154 190 235 283 338
#     4  11  20  35  61  91 114 146 189 243 288 332
#     4  12  20  37  59  81 123 148 186 240 283 332
#     4  12  24  39  59  81 119 162 190 221 289 352
#     4   9  18  33  58  87 113 146 187 234 287 339
#     4  12  22  35  59  87 119 148 188 240 291 330
#     4  11  20  38  60  84 119 151 191 236 281 339
#
# _framework density 18.095044000000001
#
# number of rings (size 3 to 8) (size 9 to 14) (size 15 to 20)
#    0.000    1.000    6.000    2.400    0.000    0.800 
#    0.000    3.000    0.000    7.200    0.000    0.000 
#    0.000    0.000    0.000    0.000    0.000    0.000 
#
# Total GULP energy -248063.755320 kJ/mol
# GULP energy per Si atom -12403.187766 kJ/mol
# Density = 1.805386 g / cm^3
# Si number density = 18.095044 Si / 1000 Ang^3
#
#
#
# Elastic Constant Matrix: (Units=GPa)
#
#
# Indices 1 2 3 4 5 6 
#
# 1 109.5926 79.5879 85.6439 0.0000 -18.1573 0.0000
# 2 79.5879 194.7393 76.1072 0.0000 -29.5484 0.0000
# 3 85.6439 76.1072 134.9208 0.0000 -20.5634 0.0000
# 4 0.0000 0.0000 0.0000 82.7699 0.0000 -16.4111
# 5 -18.1573 -29.5484 -20.5634 0.0000 40.0577 0.0000
# 6 0.0000 0.0000 0.0000 -16.4111 0.0000 -4.5483
#
#
#
# Elastic Compliance Matrix: (Units=1/GPa)
#
#
# Indices 1 2 3 4 5 6 
#
# 1 0.020522 -0.004130 -0.010571 0.000000 0.000829 0.000000
# 2 -0.004130 0.007820 -0.001297 0.000000 0.003230 0.000000
# 3 -0.010571 -0.001297 0.015164 0.000000 0.002036 0.000000
# 4 0.000000 0.000000 0.000000 0.007043 0.000000 -0.025413
# 5 0.000829 0.003230 0.002036 0.000000 0.028768 0.000000
# 6 0.000000 0.000000 0.000000 -0.025413 0.000000 -0.128169
#
#
# Mechanical properties :
#
#
# Convention : Reuss Voigt Hill
#
# Bulk Modulus (GPa) = 86.88130 102.43674 94.65902
# Shear Modulus (GPa) = -384.05260 36.85012 -173.60124
#
# Velocity S-wave (km/s) = -14.58433 4.51763 -9.80545
# Velocity P-wave (km/s) = 15.34553 9.16216 8.70460
#
# Compressibility (1/GPa) = 0.01150996
#
# Stress axis : x y z
#
# Youngs Moduli (GPa) = 48.72744 127.87452 65.94654
#
# Poissons Ratio (x) = 0.52815 0.69711
# Poissons Ratio (y) = 0.20125 0.08554
# Poissons Ratio (z) = 0.51509 0.16587
#
# Static dielectric constant tensor:
#      x y z
#    x 3.388430 0.000000 -0.391510 
#    y 0.000000 3.554970 0.000000 
#    z -0.391510 0.000000 3.501440 
# 
# 
# High freq. dielectric constant tensor:
#      x y z
#    x 1.685240 0.000000 -0.027420 
#    y 0.000000 1.718650 0.000000 
#    z -0.027420 0.000000 1.695790 
# 
# From -- ./inp_files/83516.got.cif
#   From: 2010.06.25/outbox.cif.g09.slc.cpg/sg12_42_cif.got.tgz:83516.got - 2010.06.28 00:19:55.
