data_PCOD8113753
_publ_section_title
;
Structure prediction by ZEFSAII (Michael W. Deem and Ramdas Pophale) SiO2 
 PCOD8113753
Probable space group: C 2/M
;
_chemical_formula_sum "Si O2"
_cell_formula_units_Z 64
_cell_length_a 29.523681
_cell_length_b 14.508179
_cell_length_c 9.175326
_cell_angle_alpha 90.000000
_cell_angle_beta 108.106380
_cell_angle_gamma 90.000000
_cell_volume 3735.497180
_symmetry_space_group_name_H-M "C 2/M"
_symmetry_group_IT_number 12
_symmetry_cell_setting 'monoclinic'
loop_
_space_group_symop_operation_xyz
x,y,z
-x,y,-z
-x,-y,-z
x,-y,z
1/2+x,1/2+y,z
1/2-x,1/2+y,-z
1/2-x,1/2-y,-z
1/2+x,1/2-y,z
loop_
_atom_site_type_symbol
_atom_site_label
_atom_site_fract_x
_atom_site_fract_y
_atom_site_fract_z
Si Si1 0.715499 0.892471 0.380153
Si Si2 0.284502 0.892470 0.949148
Si Si3 0.177934 0.100658 0.505240
Si Si4 0.444958 0.895216 0.113515
Si Si5 0.177935 0.100658 0.850627
Si Si6 0.634387 0.213020 0.462074
Si Si7 0.865614 0.286979 0.193298
Si Si8 0.444957 0.895216 0.776402
O O1 0.709423 0.853817 0.209427
O O2 0.768697 0.874389 0.495193
O O3 0.679338 0.843757 0.452061
O O4 0.703642 0.000000 0.369007
O O5 0.231304 0.874385 0.957795
O O6 0.296359 0.000000 0.961718
O O7 0.320664 0.843757 0.093380
O O8 0.180936 0.094034 0.680935
O O9 0.141007 0.179958 0.419993
O O10 0.161897 0.000000 0.427058
O O11 0.414608 0.823551 0.175956
O O12 0.500001 0.871309 0.194772
O O13 0.434241 0.000000 0.152804
O O14 0.431247 0.884068 0.931249
O O15 0.141007 0.179956 0.862021
O O16 0.161900 0.000000 0.896739
O O17 0.631627 0.203180 0.631628
O O18 0.585393 0.176447 0.346739
O O19 0.434239 0.000000 0.715680
#
# Coordination Sequence:
#
# PCOD8113753 Si02
#       8
#     8   8   8   8   8   8   8   8
#     4   9  17  30  47  65  91 130 165 186 214 267
#     4   9  17  30  47  65  91 130 165 186 214 267
#     4   8  16  31  47  64  91 128 164 191 218 262
#     4   9  19  36  54  69  89 121 155 182 218 278
#     4   8  16  31  47  64  91 128 164 191 218 262
#     4  11  20  28  46  74  97 118 149 194 240 270
#     4  11  20  28  46  74  97 118 149 194 240 270
#     4   9  19  36  54  69  89 121 155 182 218 278
#
# _framework density 17.132926999999999
#
# number of rings (size 3 to 8) (size 9 to 14) (size 15 to 20)
#    0.000    2.750    0.000    4.500    0.000    4.500 
#    0.000    2.500    0.000    6.750    0.000    5.250 
#    0.000    0.000    0.000    0.000    0.000    0.000 
#
# Total GULP energy -396670.479245 kJ/mol
# GULP energy per Si atom -12395.952476 kJ/mol
# Density = 1.709393 g / cm^3
# Si number density = 17.132927 Si / 1000 Ang^3
#
#
#
# Elastic Constant Matrix: (Units=GPa)
#
#
# Indices 1 2 3 4 5 6 
#
# 1 93.0600 71.9382 39.0048 0.0000 -0.6265 0.0000
# 2 71.9382 106.5529 49.8910 0.0000 9.0851 0.0000
# 3 39.0048 49.8910 67.2224 0.0000 11.2687 0.0000
# 4 0.0000 0.0000 0.0000 21.0244 0.0000 3.4151
# 5 -0.6265 9.0851 11.2687 0.0000 22.8818 0.0000
# 6 0.0000 0.0000 0.0000 3.4151 0.0000 29.3118
#
#
#
# Elastic Compliance Matrix: (Units=1/GPa)
#
#
# Indices 1 2 3 4 5 6 
#
# 1 0.024340 -0.015142 -0.004365 0.000000 0.008828 0.000000
# 2 -0.015142 0.023808 -0.007881 0.000000 -0.005986 0.000000
# 3 -0.004365 -0.007881 0.024800 0.000000 -0.009204 0.000000
# 4 0.000000 0.000000 0.000000 0.048481 0.000000 -0.005649
# 5 0.008828 -0.005986 -0.009204 0.000000 0.050854 0.000000
# 6 0.000000 0.000000 0.000000 -0.005649 0.000000 0.034774
#
#
# Mechanical properties :
#
#
# Convention : Reuss Voigt Hill
#
# Bulk Modulus (GPa) = 55.02366 65.38926 60.20646
# Shear Modulus (GPa) = 18.66442 21.71035 20.18738
#
# Velocity S-wave (km/s) = 3.30417 3.56360 3.43633
# Velocity P-wave (km/s) = 6.83682 7.42839 7.13874
#
# Compressibility (1/GPa) = 0.01817400
#
# Stress axis : x y z
#
# Youngs Moduli (GPa) = 41.08540 42.00248 40.32216
#
# Poissons Ratio (x) = 0.63599 0.17599
# Poissons Ratio (y) = 0.62210 0.31776
# Poissons Ratio (z) = 0.17932 0.33101
#
# Static dielectric constant tensor:
#      x y z
#    x 3.085340 0.000000 0.025940 
#    y 0.000000 3.557330 0.000000 
#    z 0.025940 0.000000 3.022370 
# 
# 
# High freq. dielectric constant tensor:
#      x y z
#    x 1.646490 0.000000 0.002180 
#    y 0.000000 1.662770 0.000000 
#    z 0.002180 0.000000 1.641210 
# 
# From -- ./inp_files/104682.got.cif
#   From: 2010.06.25/outbox.cif.g09.slc.cpg/sg12_53_cif.got.tgz:104682.got - 2010.06.28 00:19:55.
