data_PCOD8113373
_publ_section_title
;
Structure prediction by ZEFSAII (Michael W. Deem and Ramdas Pophale) SiO2 
 PCOD8113373
Probable space group: C 2/M
;
_chemical_formula_sum "Si O2"
_cell_formula_units_Z 48
_cell_length_a 24.336647
_cell_length_b 8.595114
_cell_length_c 11.478996
_cell_angle_alpha 90.000000
_cell_angle_beta 69.428956
_cell_angle_gamma 90.000000
_cell_volume 2248.030479
_symmetry_space_group_name_H-M "C 2/M"
_symmetry_group_IT_number 12
_symmetry_cell_setting 'monoclinic'
loop_
_space_group_symop_operation_xyz
x,y,z
-x,y,-z
-x,-y,-z
x,-y,z
1/2+x,1/2+y,z
1/2-x,1/2+y,-z
1/2-x,1/2-y,-z
1/2+x,1/2-y,z
loop_
_atom_site_type_symbol
_atom_site_label
_atom_site_fract_x
_atom_site_fract_y
_atom_site_fract_z
Si Si1 0.760760 0.818284 0.364618
Si Si2 0.103186 0.320148 0.111238
Si Si3 0.873378 0.176856 0.138459
Si Si4 0.439352 0.821462 0.483758
Si Si5 0.523378 0.321833 0.774107
Si Si6 0.659131 0.319003 0.293208
O O1 0.750000 0.750000 0.500000
O O2 0.827509 0.784399 0.275713
O O3 0.720782 0.737249 0.297550
O O4 0.746161 0.000000 0.379987
O O5 0.086677 0.500000 0.135509
O O6 0.145318 0.273736 0.185629
O O7 0.043880 0.220750 0.155503
O O8 0.136848 0.287669 0.965071
O O9 0.939509 0.201754 0.135783
O O10 0.864273 0.000000 0.103100
O O11 0.500000 0.780096 0.500000
O O12 0.446361 0.788900 0.342745
O O13 0.390126 0.710619 0.573117
O O14 0.421105 0.000000 0.517925
O O15 0.526672 0.500000 0.728915
O O16 0.662194 0.500000 0.261522
#
# Coordination Sequence:
#
# PCOD8113373 Si02
#       6
#     8   8   8   8   8   8
#     4  11  24  45  71  98 130 166 212 265 318 380
#     4  12  25  41  63  94 129 168 214 265 321 378
#     4  10  24  44  65  92 126 169 214 258 315 381
#     4  11  22  37  61  94 129 163 208 263 317 374
#     4  11  22  39  65  95 130 170 213 261 317 385
#     4  12  25  42  66  94 129 172 215 263 321 380
#
# _framework density 21.352022999999999
#
# number of rings (size 3 to 8) (size 9 to 14) (size 15 to 20)
#    0.000    0.833    1.667    6.000    0.000    7.333 
#    0.000    0.000    0.000    0.000    0.000    0.000 
#    0.000    0.000    0.000    0.000    0.000    0.000 
#
# Total GULP energy -297763.060347 kJ/mol
# GULP energy per Si atom -12406.794181 kJ/mol
# Density = 2.130342 g / cm^3
# Si number density = 21.352023 Si / 1000 Ang^3
#
#
#
# Elastic Constant Matrix: (Units=GPa)
#
#
# Indices 1 2 3 4 5 6 
#
# 1 107.4053 31.6851 26.9966 0.0000 12.0292 0.0000
# 2 31.6851 79.8274 21.6229 0.0000 1.3168 0.0000
# 3 26.9966 21.6229 112.9058 0.0000 13.6096 0.0000
# 4 0.0000 0.0000 0.0000 38.2337 0.0000 2.0053
# 5 12.0292 1.3168 13.6096 0.0000 26.0793 0.0000
# 6 0.0000 0.0000 0.0000 2.0053 0.0000 22.7491
#
#
#
# Elastic Compliance Matrix: (Units=1/GPa)
#
#
# Indices 1 2 3 4 5 6 
#
# 1 0.011341 -0.004046 -0.001420 0.000000 -0.004286 0.000000
# 2 -0.004046 0.014668 -0.002110 0.000000 0.002227 0.000000
# 3 -0.001420 -0.002110 0.010147 0.000000 -0.004534 0.000000
# 4 0.000000 0.000000 0.000000 0.026276 0.000000 -0.002316
# 5 -0.004286 0.002227 -0.004534 0.000000 0.042575 0.000000
# 6 0.000000 0.000000 0.000000 -0.002316 0.000000 0.044162
#
#
# Mechanical properties :
#
#
# Convention : Reuss Voigt Hill
#
# Bulk Modulus (GPa) = 47.61173 51.19419 49.40296
# Shear Modulus (GPa) = 29.18460 32.06802 30.62631
#
# Velocity S-wave (km/s) = 3.70108 3.87960 3.79139
# Velocity P-wave (km/s) = 6.37266 6.64054 6.50798
#
# Compressibility (1/GPa) = 0.02100323
#
# Stress axis : x y z
#
# Youngs Moduli (GPa) = 88.17468 68.17643 98.55013
#
# Poissons Ratio (x) = 0.27585 0.13997
# Poissons Ratio (y) = 0.35677 0.20794
# Poissons Ratio (z) = 0.12523 0.14385
#
# Static dielectric constant tensor:
#      x y z
#    x 3.955860 0.000000 -0.025560 
#    y 0.000000 3.867680 0.000000 
#    z -0.025560 0.000000 3.599740 
# 
# 
# High freq. dielectric constant tensor:
#      x y z
#    x 1.841460 0.000000 0.005440 
#    y 0.000000 1.843740 0.000000 
#    z 0.005440 0.000000 1.843710 
# 
# From -- ./inp_files/172890.got.cif
#   From: 2010.06.25/outbox.cif.g09.slc.cpg/sg12_87_cif.got.tgz:172890.got - 2010.06.28 00:19:55.
