data_PCOD8113845
_publ_section_title
;
Structure prediction by ZEFSAII (Michael W. Deem and Ramdas Pophale) SiO2 
 PCOD8113845
Probable space group: C 2/M
;
_chemical_formula_sum "Si O2"
_cell_formula_units_Z 48
_cell_length_a 20.019123
_cell_length_b 10.013016
_cell_length_c 13.900504
_cell_angle_alpha 90.000000
_cell_angle_beta 104.018663
_cell_angle_gamma 90.000000
_cell_volume 2703.393893
_symmetry_space_group_name_H-M "C 2/M"
_symmetry_group_IT_number 12
_symmetry_cell_setting 'monoclinic'
loop_
_space_group_symop_operation_xyz
x,y,z
-x,y,-z
-x,-y,-z
x,-y,z
1/2+x,1/2+y,z
1/2-x,1/2+y,-z
1/2-x,1/2-y,-z
1/2+x,1/2-y,z
loop_
_atom_site_type_symbol
_atom_site_label
_atom_site_fract_x
_atom_site_fract_y
_atom_site_fract_z
Si Si1 0.324919 0.500000 0.602562
Si Si2 0.365776 0.242748 0.322190
Si Si3 0.308508 0.000000 0.565577
Si Si4 0.203940 0.743432 0.298705
Si Si5 0.800630 0.653544 0.903324
Si Si6 0.420604 0.000000 0.457650
Si Si7 0.327857 0.844922 0.117215
Si Si8 0.580705 0.500000 0.553146
O O1 0.246746 0.500000 0.539087
O O2 0.336079 0.371493 0.674063
O O3 0.377943 0.500000 0.532527
O O4 0.283988 0.230066 0.306398
O O5 0.381481 0.218622 0.213206
O O6 0.398016 0.378366 0.371647
O O7 0.402217 0.130409 0.394174
O O8 0.298651 0.131210 0.622802
O O9 0.384468 0.000000 0.548546
O O10 0.165299 0.694367 0.187264
O O11 0.772819 0.500000 0.886342
O O12 0.740972 0.759138 0.900437
O O13 0.852987 0.663783 0.013615
O O14 0.500000 0.000000 0.500000
O O15 0.313048 0.000000 0.139431
O O16 0.500000 0.500000 0.500000
#
# Coordination Sequence:
#
# PCOD8113845 Si02
#       8
#     4   8   4   8   8   4   8   4
#     4  12  22  36  55  79 109 147 184 224 272 324
#     4  11  20  36  55  80 108 148 181 221 275 324
#     4  12  20  36  53  77 103 145 186 218 272 324
#     4  11  20  33  56  82 107 145 180 222 273 323
#     4   9  18  31  48  81 115 141 173 225 275 327
#     4  12  24  36  53  79 109 141 184 228 266 319
#     4   9  18  31  51  78 113 144 176 220 279 327
#     4  12  26  40  55  79 113 149 188 228 268 323
#
# _framework density 17.755458999999998
#
# number of rings (size 3 to 8) (size 9 to 14) (size 15 to 20)
#    0.000    1.333    5.000    2.000    7.000    0.000 
#    0.000    0.000    0.000    0.000    0.000    7.000 
#    0.000    0.000    0.000    0.000    0.000    0.000 
#
# Total GULP energy -297338.964773 kJ/mol
# GULP energy per Si atom -12389.123532 kJ/mol
# Density = 1.771505 g / cm^3
# Si number density = 17.755459 Si / 1000 Ang^3
#
#
#
# Elastic Constant Matrix: (Units=GPa)
#
#
# Indices 1 2 3 4 5 6 
#
# 1 59.9467 18.6303 37.0846 0.0000 -0.2277 0.0000
# 2 18.6303 148.2271 72.4422 0.0000 -2.3189 0.0000
# 3 37.0846 72.4422 160.1983 0.0000 -16.3489 0.0000
# 4 0.0000 0.0000 0.0000 37.8508 0.0000 -3.7032
# 5 -0.2277 -2.3189 -16.3489 0.0000 11.4058 0.0000
# 6 0.0000 0.0000 0.0000 -3.7032 0.0000 13.9404
#
#
#
# Elastic Compliance Matrix: (Units=1/GPa)
#
#
# Indices 1 2 3 4 5 6 
#
# 1 0.019975 -0.000001 -0.005368 0.000000 -0.007296 0.000000
# 2 -0.000001 0.008863 -0.004479 0.000000 -0.004618 0.000000
# 3 -0.005368 -0.004479 0.011018 0.000000 0.014776 0.000000
# 4 0.000000 0.000000 0.000000 0.027124 0.000000 0.007205
# 5 -0.007296 -0.004618 0.014776 0.000000 0.107770 0.000000
# 6 0.000000 0.000000 0.000000 0.007205 0.000000 0.073648
#
#
# Mechanical properties :
#
#
# Convention : Reuss Voigt Hill
#
# Bulk Modulus (GPa) = 49.60347 69.40957 59.50652
# Shear Modulus (GPa) = 18.19404 28.65374 23.42389
#
# Velocity S-wave (km/s) = 3.20457 4.02157 3.63609
# Velocity P-wave (km/s) = 6.45678 7.79364 7.15650
#
# Compressibility (1/GPa) = 0.02015988
#
# Stress axis : x y z
#
# Youngs Moduli (GPa) = 50.06264 112.82441 90.75834
#
# Poissons Ratio (x) = 0.00014 0.48720
# Poissons Ratio (y) = 0.00006 0.40651
# Poissons Ratio (z) = 0.26874 0.50535
#
# Static dielectric constant tensor:
#      x y z
#    x 2.706400 0.000000 -0.383440 
#    y 0.000000 3.480800 0.000000 
#    z -0.383440 0.000000 4.328970 
# 
# 
# High freq. dielectric constant tensor:
#      x y z
#    x 1.614170 0.000000 -0.020980 
#    y 0.000000 1.715130 0.000000 
#    z -0.020980 0.000000 1.715360 
# 
# From -- ./inp_files/230506.got.cif
#   From: 2010.06.25/outbox.cif.g09.slc.cpg/sg12_116_cif.got.tgz:230506.got - 2010.06.28 00:19:55.
