data_PCOD8113315
_publ_section_title
;
Structure prediction by ZEFSAII (Michael W. Deem and Ramdas Pophale) SiO2 
 PCOD8113315
Probable space group: C 2/M
;
_chemical_formula_sum "Si O2"
_cell_formula_units_Z 36
_cell_length_a 8.824706
_cell_length_b 26.455114
_cell_length_c 10.882472
_cell_angle_alpha 90.000000
_cell_angle_beta 137.882455
_cell_angle_gamma 90.000000
_cell_volume 1703.867531
_symmetry_space_group_name_H-M "C 2/M"
_symmetry_group_IT_number 12
_symmetry_cell_setting 'monoclinic'
loop_
_space_group_symop_operation_xyz
x,y,z
-x,y,-z
-x,-y,-z
x,-y,z
1/2+x,1/2+y,z
1/2-x,1/2+y,-z
1/2-x,1/2-y,-z
1/2+x,1/2-y,z
loop_
_atom_site_type_symbol
_atom_site_label
_atom_site_fract_x
_atom_site_fract_y
_atom_site_fract_z
Si Si1 0.475772 0.500000 0.663556
Si Si2 0.500000 0.249395 0.500000
Si Si3 0.617213 0.395717 0.262524
Si Si4 0.342232 0.099308 0.142571
Si Si5 0.657902 0.822150 0.406321
Si Si6 0.602866 0.000000 0.232434
O O1 0.406399 0.450650 0.694964
O O2 0.315139 0.500000 0.449926
O O3 0.751673 0.500000 0.807531
O O4 0.526241 0.212290 0.633046
O O5 0.287772 0.285324 0.392267
O O6 0.802003 0.402206 0.265761
O O7 0.684005 0.352863 0.401666
O O8 0.376351 0.381045 0.060288
O O9 0.538168 0.140076 0.240367
O O10 0.435204 0.046950 0.146309
#
# Coordination Sequence:
#
# PCOD8113315 Si02
#       6
#     4   4   8   8   8   4
#     4  11  24  39  62  95 129 164 203 246 303 365
#     4  10  24  42  70  88 120 162 208 258 320 352
#     4  11  23  40  64  93 126 165 204 245 303 371
#     4  11  23  40  64  93 126 165 204 245 303 371
#     4  11  22  45  64  92 123 161 203 262 306 363
#     4  11  24  39  62  95 129 164 203 246 303 365
#
# _framework density 21.128402999999999
#
# number of rings (size 3 to 8) (size 9 to 14) (size 15 to 20)
#    0.000    1.111    4.444    1.333    3.111    4.444 
#    0.000    6.667    0.000    0.000    0.000    0.000 
#    0.000    0.000    0.000    0.000    0.000    0.000 
#
# Total GULP energy -223097.292558 kJ/mol
# GULP energy per Si atom -12394.294031 kJ/mol
# Density = 2.108031 g / cm^3
# Si number density = 21.128403 Si / 1000 Ang^3
#
#
#
# Elastic Constant Matrix: (Units=GPa)
#
#
# Indices 1 2 3 4 5 6 
#
# 1 84.0622 50.0460 18.8137 0.0000 9.8633 0.0000
# 2 50.0460 155.8385 42.6095 0.0000 3.4217 0.0000
# 3 18.8137 42.6095 70.2743 0.0000 6.9818 0.0000
# 4 0.0000 0.0000 0.0000 -2.0351 0.0000 36.0760
# 5 9.8633 3.4217 6.9818 0.0000 22.8084 0.0000
# 6 0.0000 0.0000 0.0000 36.0760 0.0000 -180.9886
#
#
#
# Elastic Compliance Matrix: (Units=1/GPa)
#
#
# Indices 1 2 3 4 5 6 
#
# 1 0.015510 -0.004646 -0.000761 0.000000 -0.005777 0.000000
# 2 -0.004646 0.009086 -0.004465 0.000000 0.002013 0.000000
# 3 -0.000761 -0.004465 0.017576 0.000000 -0.004381 0.000000
# 4 0.000000 0.000000 0.000000 0.193956 0.000000 0.038661
# 5 -0.005777 0.002013 -0.004381 0.000000 0.047381 0.000000
# 6 0.000000 0.000000 0.000000 0.038661 0.000000 0.002181
#
#
# Mechanical properties :
#
#
# Convention : Reuss Voigt Hill
#
# Bulk Modulus (GPa) = 44.58851 59.23484 51.91168
# Shear Modulus (GPa) = 15.97903 -18.79601 -1.40849
#
# Velocity S-wave (km/s) = 2.75304 -2.98587 -0.81736
# Velocity P-wave (km/s) = 5.59062 4.02608 4.87157
#
# Compressibility (1/GPa) = 0.02242730
#
# Stress axis : x y z
#
# Youngs Moduli (GPa) = 64.47399 110.06529 56.89460
#
# Poissons Ratio (x) = 0.51135 0.04332
# Poissons Ratio (y) = 0.29954 0.25404
# Poissons Ratio (z) = 0.04909 0.49144
#
# Static dielectric constant tensor:
#      x y z
#    x 4.147530 0.000000 0.060510 
#    y 0.000000 3.969710 0.000000 
#    z 0.060510 0.000000 3.785950 
# 
# 
# High freq. dielectric constant tensor:
#      x y z
#    x 1.838660 0.000000 0.009080 
#    y 0.000000 1.841800 0.000000 
#    z 0.009080 0.000000 1.817740 
# 
# From -- ./inp_files/101305.got.cif
#   From: 2010.06.25/outbox.cif.g09.slc.cpg/sg12_51_cif.got.tgz:101305.got - 2010.06.28 00:19:55.
