data_PCOD8113682
_publ_section_title
;
Structure prediction by ZEFSAII (Michael W. Deem and Ramdas Pophale) SiO2 
 PCOD8113682
Probable space group: C 2/M
;
_chemical_formula_sum "Si O2"
_cell_formula_units_Z 64
_cell_length_a 25.333835
_cell_length_b 17.217650
_cell_length_c 21.903137
_cell_angle_alpha 90.000000
_cell_angle_beta 23.193012
_cell_angle_gamma 90.000000
_cell_volume 3762.614403
_symmetry_space_group_name_H-M "C 2/M"
_symmetry_group_IT_number 12
_symmetry_cell_setting 'monoclinic'
loop_
_space_group_symop_operation_xyz
x,y,z
-x,y,-z
-x,-y,-z
x,-y,z
1/2+x,1/2+y,z
1/2-x,1/2+y,-z
1/2-x,1/2-y,-z
1/2+x,1/2-y,z
loop_
_atom_site_type_symbol
_atom_site_label
_atom_site_fract_x
_atom_site_fract_y
_atom_site_fract_z
Si Si1 0.346018 0.584655 0.145263
Si Si2 0.714351 0.410361 0.657219
Si Si3 0.660218 0.771446 0.537849
Si Si4 0.561687 0.090649 0.083228
Si Si5 0.961749 0.182621 0.926976
Si Si6 0.882957 0.272202 0.893527
Si Si7 0.338800 0.183291 0.261435
Si Si8 0.153281 0.584325 0.856097
O O1 0.297841 0.500000 0.171705
O O2 0.261165 0.606141 0.296186
O O3 0.500000 0.578074 0.000000
O O4 0.340135 0.651225 0.099382
O O5 0.737626 0.500000 0.616226
O O6 0.817308 0.360300 0.507379
O O7 0.561610 0.387389 0.802282
O O8 0.750000 0.750000 0.500000
O O9 0.505207 0.759243 0.717095
O O10 0.705331 0.714199 0.435739
O O11 0.618035 0.138979 0.080939
O O12 0.410047 0.117807 0.227983
O O13 0.559639 0.000000 0.102464
O O14 0.658850 0.107678 0.921604
O O15 0.893820 0.214913 0.938956
O O16 0.051721 0.248245 0.865428
O O17 0.750000 0.250000 0.000000
O O18 0.284449 0.149399 0.254653
O O19 0.223580 0.500000 0.771922
O O20 0.000000 0.576320 0.000000
#
# Coordination Sequence:
#
# PCOD8113682 Si02
#       8
#     8   8   8   8   8   8   8   8
#     4   8  14  25  44  75 104 123 151 199 256 305
#     4   9  17  29  51  79 104 126 156 206 260 298
#     4  11  19  35  48  74 101 134 170 208 240 294
#     4   9  17  31  52  75 100 130 165 203 249 299
#     4   9  16  28  48  71 101 131 165 200 249 288
#     4  11  23  37  50  67 101 140 176 206 237 288
#     4   9  16  26  49  74 105 122 156 206 259 288
#     4   8  14  25  44  76 104 120 151 201 254 303
#
# _framework density 17.009450999999999
#
# number of rings (size 3 to 8) (size 9 to 14) (size 15 to 20)
#    0.000    2.750    3.750    2.250    0.000   12.000 
#    0.000    1.250    0.000    3.000    0.000    3.500 
#    0.000    0.000    0.000    0.000    0.000    0.000 
#
# Total GULP energy -396486.193484 kJ/mol
# GULP energy per Si atom -12390.193546 kJ/mol
# Density = 1.697074 g / cm^3
# Si number density = 17.009451 Si / 1000 Ang^3
#
#
#
# Elastic Constant Matrix: (Units=GPa)
#
#
# Indices 1 2 3 4 5 6 
#
# 1 68.6526 59.5807 45.5799 0.0063 12.8150 -0.0003
# 2 59.5807 122.7423 53.0011 0.0070 19.3540 -0.0004
# 3 45.5799 53.0011 75.1258 0.0073 10.3697 -0.0011
# 4 0.0063 0.0070 0.0073 12.4990 -0.0051 8.4504
# 5 12.8150 19.3540 10.3697 -0.0051 22.1522 0.0006
# 6 -0.0003 -0.0004 -0.0011 8.4504 0.0006 22.5925
#
#
#
# Elastic Compliance Matrix: (Units=1/GPa)
#
#
# Indices 1 2 3 4 5 6 
#
# 1 0.031431 -0.009480 -0.011776 -0.000007 -0.004388 0.000002
# 2 -0.009480 0.015622 -0.004429 -0.000005 -0.006091 0.000002
# 3 -0.011776 -0.004429 0.023632 -0.000008 -0.000381 0.000004
# 4 -0.000007 -0.000005 -0.000008 0.107087 0.000038 -0.040054
# 5 -0.004388 -0.006091 -0.000381 0.000038 0.053181 -0.000016
# 6 0.000002 0.000002 0.000004 -0.040054 -0.000016 0.059244
#
#
# Mechanical properties :
#
#
# Convention : Reuss Voigt Hill
#
# Bulk Modulus (GPa) = 51.77022 64.76044 58.26533
# Shear Modulus (GPa) = 14.36767 18.67267 16.52017
#
# Velocity S-wave (km/s) = 2.90950 3.31687 3.11985
# Velocity P-wave (km/s) = 6.46445 7.26806 6.87801
#
# Compressibility (1/GPa) = 0.01931612
#
# Stress axis : x y z
#
# Youngs Moduli (GPa) = 31.81612 64.01364 42.31491
#
# Poissons Ratio (x) = 0.60686 0.49828
# Poissons Ratio (y) = 0.30162 0.18739
# Poissons Ratio (z) = 0.37465 0.28349
#
# Static dielectric constant tensor:
#      x y z
#    x 3.236620 0.000000 0.714590 
#    y 0.000000 3.556630 0.000020 
#    z 0.714590 0.000020 3.281420 
# 
# 
# High freq. dielectric constant tensor:
#      x y z
#    x 1.627460 0.000000 0.047990 
#    y 0.000000 1.671890 0.000000 
#    z 0.047990 0.000000 1.606560 
# 
# From -- ./inp_files/352275.got.cif
#   From: 2010.06.25/outbox.cif.g09.slc.cpg/sg12_177_cif.got.tgz:352275.got - 2010.06.28 00:19:55.
