data_PCOD8113814
_publ_section_title
;
Structure prediction by ZEFSAII (Michael W. Deem and Ramdas Pophale) SiO2 
 PCOD8113814
Probable space group: C 2/M
;
_chemical_formula_sum "Si O2"
_cell_formula_units_Z 56
_cell_length_a 4.999974
_cell_length_b 23.328889
_cell_length_c 25.619480
_cell_angle_alpha 90.000000
_cell_angle_beta 87.964620
_cell_angle_gamma 90.000000
_cell_volume 2986.469092
_symmetry_space_group_name_H-M "C 2/M"
_symmetry_group_IT_number 12
_symmetry_cell_setting 'monoclinic'
loop_
_space_group_symop_operation_xyz
x,y,z
-x,y,-z
-x,-y,-z
x,-y,z
1/2+x,1/2+y,z
1/2-x,1/2+y,-z
1/2-x,1/2-y,-z
1/2+x,1/2-y,z
loop_
_atom_site_type_symbol
_atom_site_label
_atom_site_fract_x
_atom_site_fract_y
_atom_site_fract_z
Si Si1 0.981185 0.431859 0.878657
Si Si2 0.817955 0.712388 0.648337
Si Si3 0.873450 0.897466 0.296955
Si Si4 0.565985 0.434609 0.407432
Si Si5 0.120848 0.434227 0.763534
Si Si6 0.081477 0.369694 0.442288
Si Si7 0.472216 0.568313 0.941895
O O1 0.978902 0.500000 0.875945
O O2 0.702601 0.407838 0.902287
O O3 0.035472 0.408386 0.820202
O O4 0.198886 0.409844 0.918491
O O5 0.620667 0.766447 0.654239
O O6 0.733383 0.666782 0.692804
O O7 0.802478 0.683820 0.591089
O O8 0.629926 0.932583 0.273677
O O9 0.961570 0.928580 0.349288
O O10 0.129751 0.896127 0.257358
O O11 0.639795 0.500000 0.419315
O O12 0.323481 0.415260 0.447093
O O13 0.831198 0.396811 0.413301
O O14 0.218660 0.500000 0.767290
O O15 0.000000 0.348109 0.500000
O O16 0.485563 0.500000 0.944569
O O17 0.500000 0.593772 0.000000
#
# Coordination Sequence:
#
# PCOD8113814 Si02
#       7
#     8   8   8   8   8   8   8
#     4   9  17  26  38  61  90 125 169 210 246 281
#     4  11  23  41  60  77  99 127 164 211 254 301
#     4  11  22  36  54  77  99 130 172 204 249 306
#     4  11  22  37  56  79 110 140 166 199 239 295
#     4  11  20  32  51  75 106 136 167 210 252 295
#     4  11  24  39  57  83 106 130 167 203 245 301
#     4   9  15  24  37  54  83 126 176 219 243 268
#
# _framework density 18.751239000000002
#
# number of rings (size 3 to 8) (size 9 to 14) (size 15 to 20)
#    0.000    1.571    0.000    7.714    0.000    6.286 
#    0.000    0.000    0.000    0.000    0.000    0.000 
#    0.000    0.000    0.000    0.000    0.000  180.000 
#
# Total GULP energy -347247.362019 kJ/mol
# GULP energy per Si atom -12401.691501 kJ/mol
# Density = 1.870856 g / cm^3
# Si number density = 18.751239 Si / 1000 Ang^3
#
#
#
# Elastic Constant Matrix: (Units=GPa)
#
#
# Indices 1 2 3 4 5 6 
#
# 1 98.4140 16.0240 16.0105 0.0000 -10.7024 0.0000
# 2 16.0240 47.1403 19.5573 0.0000 -5.7552 0.0000
# 3 16.0105 19.5573 90.3151 0.0000 -16.8928 0.0000
# 4 0.0000 0.0000 0.0000 9.6516 0.0000 -4.2349
# 5 -10.7024 -5.7552 -16.8928 0.0000 38.4072 0.0000
# 6 0.0000 0.0000 0.0000 -4.2349 0.0000 31.5472
#
#
#
# Elastic Compliance Matrix: (Units=1/GPa)
#
#
# Indices 1 2 3 4 5 6 
#
# 1 0.011054 -0.003126 -0.000865 0.000000 0.002231 0.000000
# 2 -0.003126 0.024259 -0.004557 0.000000 0.000760 0.000000
# 3 -0.000865 -0.004557 0.013119 0.000000 0.004846 0.000000
# 4 0.000000 0.000000 0.000000 0.110095 0.000000 0.014779
# 5 0.002231 0.000760 0.004846 0.000000 0.028904 0.000000
# 6 0.000000 0.000000 0.000000 0.014779 0.000000 0.033683
#
#
# Mechanical properties :
#
#
# Convention : Reuss Voigt Hill
#
# Bulk Modulus (GPa) = 31.91287 37.67255 34.79271
# Shear Modulus (GPa) = 20.10821 28.20635 24.15728
#
# Velocity S-wave (km/s) = 3.27825 3.88266 3.59319
# Velocity P-wave (km/s) = 5.60226 6.34306 5.98413
#
# Compressibility (1/GPa) = 0.03133532
#
# Stress axis : x y z
#
# Youngs Moduli (GPa) = 90.46876 41.22148 76.22554
#
# Poissons Ratio (x) = 0.12886 0.06596
# Poissons Ratio (y) = 0.28280 0.34736
# Poissons Ratio (z) = 0.07828 0.18784
#
# Static dielectric constant tensor:
#      x y z
#    x 3.682650 0.000000 -0.137100 
#    y 0.000000 2.998690 0.000000 
#    z -0.137100 0.000000 3.556050 
# 
# 
# High freq. dielectric constant tensor:
#      x y z
#    x 1.754390 0.000000 -0.006790 
#    y 0.000000 1.666270 0.000000 
#    z -0.006790 0.000000 1.730170 
# 
# From -- ./inp_files/331187.got.cif
#   From: 2010.06.25/outbox.cif.g09.slc.cpg/sg12_166_cif.got.tgz:331187.got - 2010.06.28 00:19:55.
