data_PCOD8113012
_publ_section_title
;
Structure prediction by ZEFSAII (Michael W. Deem and Ramdas Pophale) SiO2 
 PCOD8113012
Probable space group: C 2/M
;
_chemical_formula_sum "Si O2"
_cell_formula_units_Z 64
_cell_length_a 32.708754
_cell_length_b 16.850813
_cell_length_c 12.749370
_cell_angle_alpha 90.000000
_cell_angle_beta 26.005524
_cell_angle_gamma 90.000000
_cell_volume 3081.068716
_symmetry_space_group_name_H-M "C 2/M"
_symmetry_group_IT_number 12
_symmetry_cell_setting 'monoclinic'
loop_
_space_group_symop_operation_xyz
x,y,z
-x,y,-z
-x,-y,-z
x,-y,z
1/2+x,1/2+y,z
1/2-x,1/2+y,-z
1/2-x,1/2-y,-z
1/2+x,1/2-y,z
loop_
_atom_site_type_symbol
_atom_site_label
_atom_site_fract_x
_atom_site_fract_y
_atom_site_fract_z
Si Si1 0.232274 0.910652 0.140018
Si Si2 0.108324 0.857865 0.243391
Si Si3 0.352335 0.673589 0.069972
Si Si4 0.810071 0.198820 0.565407
Si Si5 0.404553 0.181164 0.667043
Si Si6 0.717856 0.408412 0.567567
Si Si7 0.932264 0.589726 0.059909
Si Si8 0.476066 0.220361 0.282512
O O1 0.157186 0.908901 0.220139
O O2 0.202281 0.854806 0.303895
O O3 0.240227 0.000000 0.164591
O O4 0.330485 0.885650 0.865081
O O5 0.129703 0.764813 0.208542
O O6 0.000000 0.878343 0.500000
O O7 0.151074 0.877442 0.029867
O O8 0.276229 0.742693 0.249646
O O9 0.338160 0.613981 0.198817
O O10 0.456165 0.710049 0.834829
O O11 0.819851 0.144294 0.440733
O O12 0.906245 0.247977 0.353747
O O13 0.500000 0.153743 0.500000
O O14 0.413458 0.188320 0.521765
O O15 0.698900 0.500000 0.584266
O O16 0.826887 0.392030 0.337557
O O17 0.941611 0.500000 0.996044
O O18 0.000000 0.604991 0.000000
O O19 0.960279 0.648102 0.902599
#
# Coordination Sequence:
#
# PCOD8113012 Si02
#       8
#     8   8   8   8   8   8   8   8
#     4  12  25  40  65  99 136 175 208 259 333 393
#     4  11  21  43  68  95 126 169 220 267 310 373
#     4  12  23  41  70  97 124 172 230 263 317 386
#     4  12  23  42  66  97 132 173 218 263 319 394
#     4  11  21  42  64  95 130 164 216 268 323 373
#     4  11  26  45  64  95 137 170 210 273 334 382
#     4  10  23  43  65  95 133 168 212 274 333 380
#     4  12  23  38  70  98 125 172 222 268 317 392
#
# _framework density 20.772012
#
# number of rings (size 3 to 8) (size 9 to 14) (size 15 to 20)
#    0.000    0.625    6.250    2.625    1.750    1.500 
#    0.000    4.375    0.000    0.000    0.000    0.000 
#    0.000    0.000    0.000    0.000    0.000    0.000 
#
# Total GULP energy -396991.983400 kJ/mol
# GULP energy per Si atom -12405.999481 kJ/mol
# Density = 2.072473 g / cm^3
# Si number density = 20.772012 Si / 1000 Ang^3
#
#
#
# Elastic Constant Matrix: (Units=GPa)
#
#
# Indices 1 2 3 4 5 6 
#
# 1 99.3549 20.4552 22.2362 0.0000 13.6438 0.0000
# 2 20.4552 65.3530 27.9168 0.0000 0.6494 0.0000
# 3 22.2362 27.9168 74.2992 0.0000 17.2695 0.0000
# 4 0.0000 0.0000 0.0000 13.0890 0.0000 -5.9832
# 5 13.6438 0.6494 17.2695 0.0000 44.8580 0.0000
# 6 0.0000 0.0000 0.0000 -5.9832 0.0000 14.8452
#
#
#
# Elastic Compliance Matrix: (Units=1/GPa)
#
#
# Indices 1 2 3 4 5 6 
#
# 1 0.011408 -0.002811 -0.001714 0.000000 -0.002769 0.000000
# 2 -0.002811 0.019201 -0.007147 0.000000 0.003328 0.000000
# 3 -0.001714 -0.007147 0.018135 0.000000 -0.006357 0.000000
# 4 0.000000 0.000000 0.000000 0.093654 0.000000 0.037746
# 5 -0.002769 0.003328 -0.006357 0.000000 0.025534 0.000000
# 6 0.000000 0.000000 0.000000 0.037746 0.000000 0.082575
#
#
# Mechanical properties :
#
#
# Convention : Reuss Voigt Hill
#
# Bulk Modulus (GPa) = 39.37057 42.24706 40.80882
# Shear Modulus (GPa) = 17.71054 25.78502 21.74778
#
# Velocity S-wave (km/s) = 2.92313 3.52708 3.23921
# Velocity P-wave (km/s) = 5.51250 6.08027 5.80333
#
# Compressibility (1/GPa) = 0.02539968
#
# Stress axis : x y z
#
# Youngs Moduli (GPa) = 87.66146 52.08022 55.14186
#
# Poissons Ratio (x) = 0.14638 0.09453
# Poissons Ratio (y) = 0.24639 0.39410
# Poissons Ratio (z) = 0.15028 0.37222
#
# Static dielectric constant tensor:
#      x y z
#    x 3.848420 0.000000 0.037690 
#    y 0.000000 3.642590 0.000000 
#    z 0.037690 0.000000 3.714710 
# 
# 
# High freq. dielectric constant tensor:
#      x y z
#    x 1.826250 0.000000 -0.000710 
#    y 0.000000 1.800040 0.000000 
#    z -0.000710 0.000000 1.819640 
# 
# From -- ./inp_files/190019.got.cif
#   From: 2010.06.25/outbox.cif.g09.slc.cpg/sg12_96_cif.got.tgz:190019.got - 2010.06.28 00:19:55.
