data_PCOD8113803
_publ_section_title
;
Structure prediction by ZEFSAII (Michael W. Deem and Ramdas Pophale) SiO2 
 PCOD8113803
Probable space group: C 2/M
;
_chemical_formula_sum "Si O2"
_cell_formula_units_Z 56
_cell_length_a 20.306079
_cell_length_b 8.885332
_cell_length_c 29.860232
_cell_angle_alpha 90.000000
_cell_angle_beta 30.183815
_cell_angle_gamma 90.000000
_cell_volume 2708.739629
_symmetry_space_group_name_H-M "C 2/M"
_symmetry_group_IT_number 12
_symmetry_cell_setting 'monoclinic'
loop_
_space_group_symop_operation_xyz
x,y,z
-x,y,-z
-x,-y,-z
x,-y,z
1/2+x,1/2+y,z
1/2-x,1/2+y,-z
1/2-x,1/2-y,-z
1/2+x,1/2-y,z
loop_
_atom_site_type_symbol
_atom_site_label
_atom_site_fract_x
_atom_site_fract_y
_atom_site_fract_z
Si Si1 0.355577 0.667793 0.835064
Si Si2 0.069250 0.830440 0.632404
Si Si3 0.233346 0.322956 0.412843
Si Si4 0.967778 0.324746 0.606751
Si Si5 0.648242 0.675513 0.902542
Si Si6 0.297576 0.822727 0.223226
Si Si7 0.071493 0.821790 0.775819
O O1 0.299157 0.500000 0.875936
O O2 0.456051 0.665539 0.735522
O O3 0.235245 0.778129 0.894417
O O4 0.432919 0.722216 0.834324
O O5 0.200304 0.766560 0.579631
O O6 0.030020 0.711417 0.618070
O O7 0.086625 0.000000 0.602312
O O8 0.258952 0.500000 0.397339
O O9 0.307474 0.258305 0.325708
O O10 0.078416 0.284727 0.504181
O O11 0.930071 0.500000 0.626752
O O12 0.838413 0.228225 0.673727
O O13 0.664078 0.500000 0.883956
O O14 0.697191 0.762543 0.830120
O O15 0.500000 0.720887 0.000000
O O16 0.417421 0.758387 0.182457
O O17 0.305162 0.000000 0.217108
O O18 0.081001 0.000000 0.777114
#
# Coordination Sequence:
#
# PCOD8113803 Si02
#       7
#     8   8   8   8   8   8   8
#     4   9  18  35  62  90 118 153 189 232 289 347
#     4   9  16  30  51  79 114 150 191 238 288 342
#     4   8  17  32  52  79 113 155 199 240 287 339
#     4  11  20  31  51  80 114 155 200 244 290 338
#     4  11  24  42  66  94 119 144 183 235 288 350
#     4  12  25  40  58  84 118 156 196 241 291 343
#     4   9  19  39  62  84 117 159 199 238 285 340
#
# _framework density 20.673822000000001
#
# number of rings (size 3 to 8) (size 9 to 14) (size 15 to 20)
#    0.000    2.143    1.429    4.286    0.000    2.286 
#    0.000    7.857    0.000    0.000    0.000    0.000 
#    0.000    0.000    0.000    0.000    0.000    0.000 
#
# Total GULP energy -347117.212214 kJ/mol
# GULP energy per Si atom -12397.043293 kJ/mol
# Density = 2.062677 g / cm^3
# Si number density = 20.673822 Si / 1000 Ang^3
#
#
#
# Elastic Constant Matrix: (Units=GPa)
#
#
# Indices 1 2 3 4 5 6 
#
# 1 119.5828 40.0450 31.5888 0.0011 -19.3289 -0.0023
# 2 40.0450 77.3085 30.6148 -0.0028 -15.6924 -0.0289
# 3 31.5888 30.6148 55.5636 0.0015 -27.9370 -0.0015
# 4 0.0011 -0.0028 0.0015 13.4976 0.0031 -4.9783
# 5 -19.3289 -15.6924 -27.9370 0.0031 23.9299 -0.0020
# 6 -0.0023 -0.0289 -0.0015 -4.9783 -0.0020 34.4387
#
#
#
# Elastic Compliance Matrix: (Units=1/GPa)
#
#
# Indices 1 2 3 4 5 6 
#
# 1 0.010867 -0.004053 -0.002102 -0.000003 0.003667 -0.000003
# 2 -0.004053 0.018059 -0.008082 0.000011 -0.000866 0.000016
# 3 -0.002102 -0.008082 0.048732 -0.000020 0.049895 -0.000005
# 4 -0.000003 0.000011 -0.000020 0.078260 -0.000028 0.011313
# 5 0.003667 -0.000866 0.049895 -0.000028 0.102433 0.000004
# 6 -0.000003 0.000016 -0.000005 0.011313 0.000004 0.030672
#
#
# Mechanical properties :
#
#
# Convention : Reuss Voigt Hill
#
# Bulk Modulus (GPa) = 20.33086 50.77247 35.55167
# Shear Modulus (GPa) = 14.97493 24.38698 19.68095
#
# Velocity S-wave (km/s) = 2.69428 3.43827 3.08876
# Velocity P-wave (km/s) = 4.41977 6.35408 5.47306
#
# Compressibility (1/GPa) = 0.04918630
#
# Stress axis : x y z
#
# Youngs Moduli (GPa) = 92.01856 55.37384 20.52034
#
# Poissons Ratio (x) = 0.22441 0.04313
# Poissons Ratio (y) = 0.37291 0.16584
# Poissons Ratio (z) = 0.19341 0.44751
#
# Static dielectric constant tensor:
#      x y z
#    x 3.962620 -0.000010 -0.199520 
#    y -0.000010 3.543410 0.000010 
#    z -0.199520 0.000010 3.651100 
# 
# 
# High freq. dielectric constant tensor:
#      x y z
#    x 1.816680 0.000000 -0.013950 
#    y 0.000000 1.785670 0.000000 
#    z -0.013950 0.000000 1.788870 
# 
# From -- ./inp_files/380589.got.cif
#   From: 2010.06.25/outbox.cif.g09.slc.cpg/sg12_191_cif.got.tgz:380589.got - 2010.06.28 00:19:55.
