data_PCOD8113405
_publ_section_title
;
Structure prediction by ZEFSAII (Michael W. Deem and Ramdas Pophale) SiO2 
 PCOD8113405
Probable space group: C 2/M
;
_chemical_formula_sum "Si O2"
_cell_formula_units_Z 36
_cell_length_a 8.535247
_cell_length_b 13.189576
_cell_length_c 22.523906
_cell_angle_alpha 90.000000
_cell_angle_beta 42.162286
_cell_angle_gamma 90.000000
_cell_volume 1702.016706
_symmetry_space_group_name_H-M "C 2/M"
_symmetry_group_IT_number 12
_symmetry_cell_setting 'monoclinic'
loop_
_space_group_symop_operation_xyz
x,y,z
-x,y,-z
-x,-y,-z
x,-y,z
1/2+x,1/2+y,z
1/2-x,1/2+y,-z
1/2-x,1/2-y,-z
1/2+x,1/2-y,z
loop_
_atom_site_type_symbol
_atom_site_label
_atom_site_fract_x
_atom_site_fract_y
_atom_site_fract_z
Si Si1 0.133010 0.672215 0.301017
Si Si2 0.313243 0.000000 0.365190
Si Si3 0.674418 0.500000 0.539852
Si Si4 0.960486 0.875544 0.897136
Si Si5 0.220681 0.316709 0.410780
Si Si6 0.000000 0.747800 0.000000
O O1 0.382110 0.671487 0.199520
O O2 0.173809 0.642963 0.357871
O O3 0.972464 0.596504 0.308583
O O4 0.982983 0.774473 0.340051
O O5 0.229748 0.000000 0.455678
O O6 0.106959 0.000000 0.375083
O O7 0.787863 0.405159 0.539266
O O8 0.705994 0.830763 0.956274
O O9 0.961031 0.000000 0.898815
O O10 0.056720 0.825619 0.930615
O O11 0.000000 0.248114 0.500000
#
# Coordination Sequence:
#
# PCOD8113405 Si02
#       6
#     8   4   4   8   8   4
#     4  12  24  40  64  91 128 165 216 265 318 375
#     4  11  23  40  59  88 122 169 218 267 309 378
#     4  11  24  39  60  85 123 175 225 258 320 371
#     4  11  23  45  71  99 133 170 212 271 332 396
#     4  12  24  40  60  90 128 175 216 265 312 378
#     4  10  24  44  72 102 130 166 214 264 338 410
#
# _framework density 21.151378999999999
#
# number of rings (size 3 to 8) (size 9 to 14) (size 15 to 20)
#    0.000    0.667    3.333    5.000    3.111    0.000 
#    0.000    0.000    2.444    0.000    0.000    0.000 
#    0.000    0.000    0.000    0.000    0.000    0.000 
#
# Total GULP energy -223003.572556 kJ/mol
# GULP energy per Si atom -12389.087364 kJ/mol
# Density = 2.110324 g / cm^3
# Si number density = 21.151379 Si / 1000 Ang^3
#
#
#
# Elastic Constant Matrix: (Units=GPa)
#
#
# Indices 1 2 3 4 5 6 
#
# 1 92.7383 17.1227 20.8203 0.0008 7.4166 -0.0018
# 2 17.1227 97.6794 28.4004 0.0008 -1.4046 -0.0010
# 3 20.8203 28.4004 119.0341 0.0019 8.9616 -0.0027
# 4 0.0008 0.0008 0.0019 24.1800 -0.0011 -1.4997
# 5 7.4166 -1.4046 8.9616 -0.0011 32.0581 0.0018
# 6 -0.0018 -0.0010 -0.0027 -1.4997 0.0018 33.4259
#
#
#
# Elastic Compliance Matrix: (Units=1/GPa)
#
#
# Indices 1 2 3 4 5 6 
#
# 1 0.011602 -0.001643 -0.001461 0.000000 -0.002348 0.000001
# 2 -0.001643 0.011282 -0.002523 0.000000 0.001580 0.000000
# 3 -0.001461 -0.002523 0.009440 -0.000001 -0.002412 0.000001
# 4 0.000000 0.000000 -0.000001 0.041472 0.000002 0.001861
# 5 -0.002348 0.001580 -0.002412 0.000002 0.032480 -0.000002
# 6 0.000001 0.000000 0.000001 0.001861 -0.000002 0.030000
#
#
# Mechanical properties :
#
#
# Convention : Reuss Voigt Hill
#
# Bulk Modulus (GPa) = 47.45993 49.12649 48.29321
# Shear Modulus (GPa) = 32.35132 34.14004 33.24568
#
# Velocity S-wave (km/s) = 3.91514 4.02192 3.96889
# Velocity P-wave (km/s) = 6.55170 6.69659 6.62454
#
# Compressibility (1/GPa) = 0.02107041
#
# Stress axis : x y z
#
# Youngs Moduli (GPa) = 86.19177 88.63725 105.93190
#
# Poissons Ratio (x) = 0.14562 0.15472
# Poissons Ratio (y) = 0.14160 0.26730
# Poissons Ratio (z) = 0.12589 0.22366
#
# Static dielectric constant tensor:
#      x y z
#    x 4.205240 0.000000 -0.211610 
#    y 0.000000 3.366500 0.000000 
#    z -0.211610 0.000000 3.927560 
# 
# 
# High freq. dielectric constant tensor:
#      x y z
#    x 1.851870 0.000000 -0.010540 
#    y 0.000000 1.823580 0.000000 
#    z -0.010540 0.000000 1.828690 
# 
# From -- ./inp_files/194143.got.cif
#   From: 2010.06.25/outbox.cif.g09.slc.cpg/sg12_98_cif.got.tgz:194143.got - 2010.06.28 00:19:55.
