data_PCOD8113179
_publ_section_title
;
Structure prediction by ZEFSAII (Michael W. Deem and Ramdas Pophale) SiO2 
 PCOD8113179
Probable space group: C 2/M
;
_chemical_formula_sum "Si O2"
_cell_formula_units_Z 56
_cell_length_a 14.136049
_cell_length_b 24.254979
_cell_length_c 8.675991
_cell_angle_alpha 90.000000
_cell_angle_beta 64.129283
_cell_angle_gamma 90.000000
_cell_volume 2676.608234
_symmetry_space_group_name_H-M "C 2/M"
_symmetry_group_IT_number 12
_symmetry_cell_setting 'monoclinic'
loop_
_space_group_symop_operation_xyz
x,y,z
-x,y,-z
-x,-y,-z
x,-y,z
1/2+x,1/2+y,z
1/2-x,1/2+y,-z
1/2-x,1/2-y,-z
1/2+x,1/2-y,z
loop_
_atom_site_type_symbol
_atom_site_label
_atom_site_fract_x
_atom_site_fract_y
_atom_site_fract_z
Si Si1 0.537605 0.750353 0.311383
Si Si2 0.377726 0.563389 0.600749
Si Si3 0.704480 0.906309 0.511630
Si Si4 0.993947 0.439436 0.180768
Si Si5 0.205446 0.835072 0.148978
Si Si6 0.151810 0.362410 0.232554
Si Si7 0.175698 0.287485 0.656335
O O1 0.500000 0.724198 0.500000
O O2 0.605155 0.702721 0.181329
O O3 0.605831 0.803406 0.316385
O O4 0.442760 0.763431 0.260348
O O5 0.500000 0.577527 0.500000
O O6 0.362301 0.500000 0.667673
O O7 0.321238 0.573042 0.475062
O O8 0.323418 0.606266 0.755119
O O9 0.622322 0.944696 0.662724
O O10 0.695882 0.903578 0.333029
O O11 0.674772 0.845444 0.577854
O O12 0.046220 0.500000 0.154181
O O13 0.055028 0.394439 0.231321
O O14 0.000000 0.419292 0.000000
O O15 0.282894 0.796921 0.198614
O O16 0.256152 0.850892 0.952191
O O17 0.250000 0.250000 0.500000
#
# Coordination Sequence:
#
# PCOD8113179 Si02
#       7
#     8   8   8   8   8   8   8
#     4  12  21  40  65  92 132 173 220 271 325 393
#     4  10  23  45  71  93 120 169 228 280 330 393
#     4  11  22  40  64  92 131 166 214 268 331 395
#     4  11  23  40  65  97 129 170 221 272 329 393
#     4  11  25  40  65  97 135 174 222 270 335 397
#     4  12  24  40  60  97 138 174 209 269 333 404
#     4  11  21  37  65  92 123 174 222 273 328 383
#
# _framework density 20.921999
#
# number of rings (size 3 to 8) (size 9 to 14) (size 15 to 20)
#    0.000    0.857    4.286    3.429    2.000    3.429 
#    0.000    0.714    0.000    1.714    0.000    0.000 
#    0.000    0.000    0.000    0.000    0.000    0.000 
#
# Total GULP energy -347087.760659 kJ/mol
# GULP energy per Si atom -12395.991452 kJ/mol
# Density = 2.087438 g / cm^3
# Si number density = 20.921999 Si / 1000 Ang^3
#
#
#
# Elastic Constant Matrix: (Units=GPa)
#
#
# Indices 1 2 3 4 5 6 
#
# 1 132.9163 47.9821 58.7695 0.0000 -12.6934 0.0000
# 2 47.9821 86.0809 19.0569 0.0000 -1.2689 0.0000
# 3 58.7695 19.0569 124.9795 0.0000 1.8113 0.0000
# 4 0.0000 0.0000 0.0000 132.3035 0.0000 -11.3729
# 5 -12.6934 -1.2689 1.8113 0.0000 25.4772 0.0000
# 6 0.0000 0.0000 0.0000 -11.3729 0.0000 29.6917
#
#
#
# Elastic Compliance Matrix: (Units=1/GPa)
#
#
# Indices 1 2 3 4 5 6 
#
# 1 0.012421 -0.005711 -0.005061 0.000000 0.006264 0.000000
# 2 -0.005711 0.014662 0.000481 0.000000 -0.002149 0.000000
# 3 -0.005061 0.000481 0.010355 0.000000 -0.003234 0.000000
# 4 0.000000 0.000000 0.000000 0.007816 0.000000 0.002994
# 5 0.006264 -0.002149 -0.003234 0.000000 0.042494 0.000000
# 6 0.000000 0.000000 0.000000 0.002994 0.000000 0.034826
#
#
# Mechanical properties :
#
#
# Convention : Reuss Voigt Hill
#
# Bulk Modulus (GPa) = 59.32509 66.17706 62.75108
# Shear Modulus (GPa) = 33.60802 52.03902 42.82352
#
# Velocity S-wave (km/s) = 4.01228 4.99268 4.52909
# Velocity P-wave (km/s) = 7.06268 8.05822 7.57682
#
# Compressibility (1/GPa) = 0.01685628
#
# Stress axis : x y z
#
# Youngs Moduli (GPa) = 80.50933 68.20310 96.57570
#
# Poissons Ratio (x) = 0.38950 0.48874
# Poissons Ratio (y) = 0.45977 -0.04644
# Poissons Ratio (z) = 0.40744 -0.03280
#
# Static dielectric constant tensor:
#      x y z
#    x 4.040670 0.000000 -0.008390 
#    y 0.000000 3.885540 0.000000 
#    z -0.008390 0.000000 3.676820 
# 
# 
# High freq. dielectric constant tensor:
#      x y z
#    x 1.822400 0.000000 -0.003600 
#    y 0.000000 1.832410 0.000000 
#    z -0.003600 0.000000 1.803740 
# 
# From -- ./inp_files/65750.got.cif
#   From: 2010.06.25/outbox.cif.g09.slc.cpg/sg12_33_cif.got.tgz:65750.got - 2010.06.28 00:19:55.
