data_PCOD8113094
_publ_section_title
;
Structure prediction by ZEFSAII (Michael W. Deem and Ramdas Pophale) SiO2 
 PCOD8113094
Probable space group: C 2/M
;
_chemical_formula_sum "Si O2"
_cell_formula_units_Z 48
_cell_length_a 23.828422
_cell_length_b 10.855496
_cell_length_c 9.317456
_cell_angle_alpha 90.000000
_cell_angle_beta 111.719092
_cell_angle_gamma 90.000000
_cell_volume 2239.042685
_symmetry_space_group_name_H-M "C 2/M"
_symmetry_group_IT_number 12
_symmetry_cell_setting 'monoclinic'
loop_
_space_group_symop_operation_xyz
x,y,z
-x,y,-z
-x,-y,-z
x,-y,z
1/2+x,1/2+y,z
1/2-x,1/2+y,-z
1/2-x,1/2-y,-z
1/2+x,1/2-y,z
loop_
_atom_site_type_symbol
_atom_site_label
_atom_site_fract_x
_atom_site_fract_y
_atom_site_fract_z
Si Si1 0.561819 0.000000 0.852804
Si Si2 0.424426 0.239579 0.660409
Si Si3 0.575745 0.000000 0.182254
Si Si4 0.948757 0.142629 0.147966
Si Si5 0.109090 0.709713 0.692779
Si Si6 0.360426 0.360018 0.825812
Si Si7 0.742363 0.146374 0.871327
O O1 0.494757 0.000000 0.848375
O O2 0.574555 0.883361 0.765651
O O3 0.598891 0.000000 0.038127
O O4 0.491216 0.277985 0.771165
O O5 0.423268 0.217927 0.490537
O O6 0.375936 0.340545 0.672308
O O7 0.398112 0.120420 0.716871
O O8 0.901857 0.159290 0.237844
O O9 0.967223 0.000000 0.151483
O O10 0.914485 0.198330 0.975124
O O11 0.177922 0.669469 0.736171
O O12 0.363254 0.500000 0.872774
O O13 0.293041 0.316736 0.802575
O O14 0.746136 0.000000 0.924201
O O15 0.750000 0.250000 0.000000
#
# Coordination Sequence:
#
# PCOD8113094 Si02
#       7
#     4   8   4   8   8   8   8
#     4  11  23  43  63  95 128 173 215 275 321 407
#     4  12  25  39  64  99 134 174 212 281 347 403
#     4  11  25  37  65  95 133 168 225 263 331 411
#     4  11  23  41  66  97 133 177 225 272 337 412
#     4  12  24  41  68  95 136 171 218 278 342 399
#     4  10  23  44  66  92 132 178 231 280 337 406
#     4  11  24  44  72  98 132 185 237 284 334 403
#
# _framework density 21.437732
#
# number of rings (size 3 to 8) (size 9 to 14) (size 15 to 20)
#    0.000    0.833    4.167    3.000    2.333    4.667 
#    0.000    0.000    0.000    0.000    0.000    0.000 
#    0.000    0.000    0.000    0.000    0.000    0.000 
#
# Total GULP energy -297330.577238 kJ/mol
# GULP energy per Si atom -12388.774052 kJ/mol
# Density = 2.138894 g / cm^3
# Si number density = 21.437732 Si / 1000 Ang^3
#
#
#
# Elastic Constant Matrix: (Units=GPa)
#
#
# Indices 1 2 3 4 5 6 
#
# 1 139.2662 30.9879 46.0395 0.0000 -7.9929 0.0000
# 2 30.9879 70.0573 30.9332 0.0000 -0.8524 0.0000
# 3 46.0395 30.9332 104.1996 0.0000 -31.6220 0.0000
# 4 0.0000 0.0000 0.0000 21.3293 0.0000 -11.4734
# 5 -7.9929 -0.8524 -31.6220 0.0000 34.0111 0.0000
# 6 0.0000 0.0000 0.0000 -11.4734 0.0000 33.0112
#
#
#
# Elastic Compliance Matrix: (Units=1/GPa)
#
#
# Indices 1 2 3 4 5 6 
#
# 1 0.008814 -0.002319 -0.003615 0.000000 -0.001348 0.000000
# 2 -0.002319 0.017884 -0.006010 0.000000 -0.005684 0.000000
# 3 -0.003615 -0.006010 0.017657 0.000000 0.015416 0.000000
# 4 0.000000 0.000000 0.000000 0.057665 0.000000 0.020042
# 5 -0.001348 -0.005684 0.015416 0.000000 0.043276 0.000000
# 6 0.000000 0.000000 0.000000 0.020042 0.000000 0.037258
#
#
# Mechanical properties :
#
#
# Convention : Reuss Voigt Hill
#
# Bulk Modulus (GPa) = 48.85714 58.82715 53.84215
# Shear Modulus (GPa) = 23.44507 31.37449 27.40978
#
# Velocity S-wave (km/s) = 3.31060 3.82974 3.57960
# Velocity P-wave (km/s) = 6.11990 6.85977 6.50037
#
# Compressibility (1/GPa) = 0.02046784
#
# Stress axis : x y z
#
# Youngs Moduli (GPa) = 113.45302 55.91572 56.63553
#
# Poissons Ratio (x) = 0.12966 0.20474
# Poissons Ratio (y) = 0.26309 0.34036
# Poissons Ratio (z) = 0.41015 0.33603
#
# Static dielectric constant tensor:
#      x y z
#    x 4.126340 0.000000 -0.044780 
#    y 0.000000 4.288480 0.000000 
#    z -0.044780 0.000000 3.687360 
# 
# 
# High freq. dielectric constant tensor:
#      x y z
#    x 1.849440 0.000000 -0.014530 
#    y 0.000000 1.852450 0.000000 
#    z -0.014530 0.000000 1.818240 
# 
# From -- ./inp_files/94999.got.cif
#   From: 2010.06.25/outbox.cif.g09.slc.cpg/sg12_48_cif.got.tgz:94999.got - 2010.06.28 00:19:55.
