data_PCOD8113182
_publ_section_title
;
Structure prediction by ZEFSAII (Michael W. Deem and Ramdas Pophale) SiO2 
 PCOD8113182
Probable space group: C 2/M
;
_chemical_formula_sum "Si O2"
_cell_formula_units_Z 56
_cell_length_a 12.526619
_cell_length_b 14.468262
_cell_length_c 15.176601
_cell_angle_alpha 90.000000
_cell_angle_beta 82.529155
_cell_angle_gamma 90.000000
_cell_volume 2727.233686
_symmetry_space_group_name_H-M "C 2/M"
_symmetry_group_IT_number 12
_symmetry_cell_setting 'monoclinic'
loop_
_space_group_symop_operation_xyz
x,y,z
-x,y,-z
-x,-y,-z
x,-y,z
1/2+x,1/2+y,z
1/2-x,1/2+y,-z
1/2-x,1/2-y,-z
1/2+x,1/2-y,z
loop_
_atom_site_type_symbol
_atom_site_label
_atom_site_fract_x
_atom_site_fract_y
_atom_site_fract_z
Si Si1 0.172780 0.755961 0.283548
Si Si2 0.959533 0.106168 0.601540
Si Si3 0.696778 0.897530 0.837459
Si Si4 0.785235 0.603310 0.963789
Si Si5 0.854226 0.897364 0.279069
Si Si6 0.976863 0.671650 0.834217
Si Si7 0.572506 0.344005 0.915899
O O1 0.137733 0.821563 0.368752
O O2 0.219273 0.822097 0.203260
O O3 0.260369 0.678742 0.300692
O O4 0.066511 0.709477 0.254093
O O5 0.000000 0.127935 0.500000
O O6 0.055945 0.125181 0.658702
O O7 0.918137 0.000000 0.613607
O O8 0.582291 0.888562 0.799993
O O9 0.743720 0.000000 0.815284
O O10 0.675714 0.878360 0.942136
O O11 0.737206 0.500000 0.959045
O O12 0.886184 0.609731 0.888483
O O13 0.691167 0.673917 0.944451
O O14 0.911233 0.899265 0.177038
O O15 0.805511 0.000000 0.300417
O O16 0.012120 0.749763 0.899575
O O17 0.500000 0.394382 0.000000
#
# Coordination Sequence:
#
# PCOD8113182 Si02
#       7
#     8   8   8   8   8   8   8
#     4  12  22  41  64  92 122 159 200 253 310 367
#     4  10  23  45  71  97 124 155 194 248 313 376
#     4  11  23  37  56  86 121 164 214 259 298 352
#     4  11  24  38  54  81 120 170 216 254 302 354
#     4  11  24  42  63  92 125 163 207 252 304 363
#     4  12  22  37  57  83 121 166 209 252 299 357
#     4  12  23  37  58  85 122 166 212 254 294 352
#
# _framework density 20.533626999999999
#
# number of rings (size 3 to 8) (size 9 to 14) (size 15 to 20)
#    0.000    0.714    4.286    3.429    0.000    5.143 
#    0.000    0.000    0.000    0.429    0.000    0.000 
#    0.000    0.000    0.000    0.000    0.000    0.000 
#
# Total GULP energy -347135.086557 kJ/mol
# GULP energy per Si atom -12397.681663 kJ/mol
# Density = 2.048689 g / cm^3
# Si number density = 20.533627 Si / 1000 Ang^3
#
#
#
# Elastic Constant Matrix: (Units=GPa)
#
#
# Indices 1 2 3 4 5 6 
#
# 1 78.4759 31.6898 39.9223 0.0000 5.8285 0.0000
# 2 31.6898 108.2122 35.5555 0.0000 -8.9258 0.0000
# 3 39.9223 35.5555 100.0380 0.0000 -9.7006 0.0000
# 4 0.0000 0.0000 0.0000 7.6860 0.0000 0.5935
# 5 5.8285 -8.9258 -9.7006 0.0000 23.8279 0.0000
# 6 0.0000 0.0000 0.0000 0.5935 0.0000 24.1777
#
#
#
# Elastic Compliance Matrix: (Units=1/GPa)
#
#
# Indices 1 2 3 4 5 6 
#
# 1 0.018428 -0.003875 -0.006824 0.000000 -0.008737 0.000000
# 2 -0.003875 0.011423 -0.002089 0.000000 0.004376 0.000000
# 3 -0.006824 -0.002089 0.014105 0.000000 0.006629 0.000000
# 4 0.000000 0.000000 0.000000 0.130353 0.000000 -0.003200
# 5 -0.008737 0.004376 0.006629 0.000000 0.048443 0.000000
# 6 0.000000 0.000000 0.000000 -0.003200 0.000000 0.041439
#
#
# Mechanical properties :
#
#
# Convention : Reuss Voigt Hill
#
# Bulk Modulus (GPa) = 54.40881 55.67348 55.04115
# Shear Modulus (GPa) = 16.89787 23.10888 20.00337
#
# Velocity S-wave (km/s) = 2.87180 3.35836 3.12457
# Velocity P-wave (km/s) = 6.12791 6.49695 6.31512
#
# Compressibility (1/GPa) = 0.01837937
#
# Stress axis : x y z
#
# Youngs Moduli (GPa) = 54.26493 87.53968 70.89757
#
# Poissons Ratio (x) = 0.33923 0.48381
# Poissons Ratio (y) = 0.21028 0.14812
# Poissons Ratio (z) = 0.37031 0.18289
#
# Static dielectric constant tensor:
#      x y z
#    x 3.774150 0.000000 0.064070 
#    y 0.000000 3.857490 0.000000 
#    z 0.064070 0.000000 3.526040 
# 
# 
# High freq. dielectric constant tensor:
#      x y z
#    x 1.806570 0.000000 0.008660 
#    y 0.000000 1.813340 0.000000 
#    z 0.008660 0.000000 1.771870 
# 
# From -- ./inp_files/205006.got.cif
#   From: 2010.06.25/outbox.cif.g09.slc.cpg/sg12_103_cif.got.tgz:205006.got - 2010.06.28 00:19:55.
