data_PCOD8113946
_publ_section_title
;
Structure prediction by ZEFSAII (Michael W. Deem and Ramdas Pophale) SiO2 
 PCOD8113946
Probable space group: C 2/M
;
_chemical_formula_sum "Si O2"
_cell_formula_units_Z 48
_cell_length_a 19.064285
_cell_length_b 14.568156
_cell_length_c 9.609898
_cell_angle_alpha 90.000000
_cell_angle_beta 104.571106
_cell_angle_gamma 90.000000
_cell_volume 2583.126825
_symmetry_space_group_name_H-M "C 2/M"
_symmetry_group_IT_number 12
_symmetry_cell_setting 'monoclinic'
loop_
_space_group_symop_operation_xyz
x,y,z
-x,y,-z
-x,-y,-z
x,-y,z
1/2+x,1/2+y,z
1/2-x,1/2+y,-z
1/2-x,1/2-y,-z
1/2+x,1/2-y,z
loop_
_atom_site_type_symbol
_atom_site_label
_atom_site_fract_x
_atom_site_fract_y
_atom_site_fract_z
Si Si1 0.720024 0.000000 0.405315
Si Si2 0.393383 0.500000 0.500570
Si Si3 0.687429 0.197719 0.390399
Si Si4 0.556453 0.322474 0.912293
Si Si5 0.289731 0.000000 0.907131
Si Si6 0.455004 0.693513 0.611989
Si Si7 0.187946 0.300017 0.058608
Si Si8 0.879528 0.000000 0.180240
O O1 0.689966 0.094337 0.454926
O O2 0.682242 0.000000 0.235465
O O3 0.806981 0.000000 0.462727
O O4 0.425810 0.588976 0.593442
O O5 0.580959 0.500000 0.648718
O O6 0.750000 0.250000 0.500000
O O7 0.611131 0.238586 0.396395
O O8 0.704225 0.203739 0.232616
O O9 0.511730 0.286677 0.760575
O O10 0.602311 0.411192 0.898674
O O11 0.500000 0.352300 0.000000
O O12 0.609854 0.243220 0.991393
O O13 0.315677 0.093579 0.995664
O O14 0.204709 0.000000 0.842173
O O15 0.500000 0.721422 0.500000
O O16 0.250000 0.250000 0.000000
#
# Coordination Sequence:
#
# PCOD8113946 Si02
#       8
#     4   4   8   8   4   8   8   4
#     4   9  20  38  65  89 121 155 211 251 300 362
#     4  11  20  38  62  96 122 165 206 253 307 386
#     4  11  23  42  65  92 122 165 210 254 300 373
#     4  12  24  40  58  94 132 162 200 262 318 364
#     4   9  20  38  64  91 114 165 208 246 298 370
#     4  12  24  39  63  91 130 165 206 252 316 374
#     4  11  23  42  65  90 126 163 210 252 305 373
#     4  11  20  37  63  92 129 160 203 257 314 374
#
# _framework density 18.582131
#
# number of rings (size 3 to 8) (size 9 to 14) (size 15 to 20)
#    0.000    1.000    6.667    1.000    2.333    0.000 
#    0.000    4.167    0.000    0.000    0.000    0.000 
#    0.000    0.000    0.000    0.000    0.000    0.000 
#
# Total GULP energy -297491.372088 kJ/mol
# GULP energy per Si atom -12395.473837 kJ/mol
# Density = 1.853984 g / cm^3
# Si number density = 18.582131 Si / 1000 Ang^3
#
#
#
# Elastic Constant Matrix: (Units=GPa)
#
#
# Indices 1 2 3 4 5 6 
#
# 1 74.3749 50.6906 24.5373 0.0000 -6.2835 0.0000
# 2 50.6906 170.7620 41.8710 0.0000 8.2338 0.0000
# 3 24.5373 41.8710 96.2077 0.0000 5.8790 0.0000
# 4 0.0000 0.0000 0.0000 27.0789 0.0000 2.1162
# 5 -6.2835 8.2338 5.8790 0.0000 32.5575 0.0000
# 6 0.0000 0.0000 0.0000 2.1162 0.0000 32.8461
#
#
#
# Elastic Compliance Matrix: (Units=1/GPa)
#
#
# Indices 1 2 3 4 5 6 
#
# 1 0.018204 -0.004971 -0.002802 0.000000 0.005276 0.000000
# 2 -0.004971 0.007957 -0.002036 0.000000 -0.002604 0.000000
# 3 -0.002802 -0.002036 0.012130 0.000000 -0.002216 0.000000
# 4 0.000000 0.000000 0.000000 0.037116 0.000000 -0.002391
# 5 0.005276 -0.002604 -0.002216 0.000000 0.032792 0.000000
# 6 0.000000 0.000000 0.000000 -0.002391 0.000000 0.030599
#
#
# Mechanical properties :
#
#
# Convention : Reuss Voigt Hill
#
# Bulk Modulus (GPa) = 53.55306 63.94916 58.75111
# Shear Modulus (GPa) = 30.36951 33.44622 31.90787
#
# Velocity S-wave (km/s) = 4.04708 4.24714 4.14832
# Velocity P-wave (km/s) = 7.12185 7.65114 7.39123
#
# Compressibility (1/GPa) = 0.01867307
#
# Stress axis : x y z
#
# Youngs Moduli (GPa) = 54.93418 125.68285 82.43918
#
# Poissons Ratio (x) = 0.62479 0.23096
# Poissons Ratio (y) = 0.27309 0.16783
# Poissons Ratio (z) = 0.15391 0.25587
#
# Static dielectric constant tensor:
#      x y z
#    x 3.507760 0.000000 0.068700 
#    y 0.000000 3.712770 0.000000 
#    z 0.068700 0.000000 3.465740 
# 
# 
# High freq. dielectric constant tensor:
#      x y z
#    x 1.725870 0.000000 0.005780 
#    y 0.000000 1.728640 0.000000 
#    z 0.005780 0.000000 1.716350 
# 
# From -- ./inp_files/154365.got.cif
#   From: 2010.06.25/outbox.cif.g09.slc.cpg/sg12_78_cif.got.tgz:154365.got - 2010.06.28 00:19:55.
