data_PCOD8113413
_publ_section_title
;
Structure prediction by ZEFSAII (Michael W. Deem and Ramdas Pophale) SiO2 
 PCOD8113413
Probable space group: C 2/M
;
_chemical_formula_sum "Si O2"
_cell_formula_units_Z 64
_cell_length_a 29.978029
_cell_length_b 8.580684
_cell_length_c 16.128018
_cell_angle_alpha 90.000000
_cell_angle_beta 133.232247
_cell_angle_gamma 90.000000
_cell_volume 3022.631185
_symmetry_space_group_name_H-M "C 2/M"
_symmetry_group_IT_number 12
_symmetry_cell_setting 'monoclinic'
loop_
_space_group_symop_operation_xyz
x,y,z
-x,y,-z
-x,-y,-z
x,-y,z
1/2+x,1/2+y,z
1/2-x,1/2+y,-z
1/2-x,1/2-y,-z
1/2+x,1/2-y,z
loop_
_atom_site_type_symbol
_atom_site_label
_atom_site_fract_x
_atom_site_fract_y
_atom_site_fract_z
Si Si1 0.795630 0.315918 0.125833
Si Si2 0.758684 0.681791 0.261605
Si Si3 0.048001 0.683046 0.918372
Si Si4 0.518258 0.819530 0.430580
Si Si5 0.874229 0.819216 0.842900
Si Si6 0.412998 0.318253 0.196847
Si Si7 0.134396 0.181206 0.505890
Si Si8 0.407564 0.181878 0.715900
O O1 0.794917 0.500000 0.119617
O O2 0.775004 0.258651 0.190248
O O3 0.863686 0.254627 0.196110
O O4 0.750000 0.250000 0.000000
O O5 0.773543 0.500000 0.290657
O O6 0.687715 0.718039 0.186533
O O7 0.797261 0.776347 0.378768
O O8 0.054791 0.500000 0.940085
O O9 0.091499 0.738953 0.898883
O O10 0.978427 0.732558 0.811263
O O11 0.068527 0.767523 0.028405
O O12 0.500000 0.777101 0.500000
O O13 0.479764 0.713018 0.319237
O O14 0.589051 0.780255 0.506821
O O15 0.505433 0.000000 0.393708
O O16 0.873497 0.721232 0.757630
O O17 0.880598 0.000000 0.828731
O O18 0.400609 0.500000 0.170119
O O19 0.125764 0.223524 0.398942
O O20 0.121771 0.000000 0.503111
O O21 0.401778 0.000000 0.688660
#
# Coordination Sequence:
#
# PCOD8113413 Si02
#       8
#     8   8   8   8   8   8   8   8
#     4  11  23  41  65  93 129 173 220 266 321 386
#     4  10  24  45  65  90 128 174 216 262 323 389
#     4  11  23  41  66  95 130 171 215 264 325 391
#     4  11  23  40  62  89 124 166 208 254 314 382
#     4  11  24  42  67  97 129 166 216 273 327 383
#     4  12  24  38  61  93 128 165 211 263 318 377
#     4  12  25  41  66  96 127 166 214 271 323 376
#     4  11  24  43  67  94 130 172 215 263 325 394
#
# _framework density 21.173605999999999
#
# number of rings (size 3 to 8) (size 9 to 14) (size 15 to 20)
#    0.000    0.875    1.250    6.000    0.000   10.500 
#    0.000    0.000    0.000    0.000    0.000    0.000 
#    0.000    0.000    0.000    0.000    0.000    0.000 
#
# Total GULP energy -397092.271180 kJ/mol
# GULP energy per Si atom -12409.133474 kJ/mol
# Density = 2.112541 g / cm^3
# Si number density = 21.173606 Si / 1000 Ang^3
#
#
#
# Elastic Constant Matrix: (Units=GPa)
#
#
# Indices 1 2 3 4 5 6 
#
# 1 98.9530 26.9292 29.2147 0.0000 -16.5519 0.0000
# 2 26.9292 51.4874 32.9633 0.0000 2.9373 0.0000
# 3 29.2147 32.9633 121.8474 0.0000 -7.2505 0.0000
# 4 0.0000 0.0000 0.0000 37.9090 0.0000 -0.1174
# 5 -16.5519 2.9373 -7.2505 0.0000 34.5934 0.0000
# 6 0.0000 0.0000 0.0000 -0.1174 0.0000 34.3918
#
#
#
# Elastic Compliance Matrix: (Units=1/GPa)
#
#
# Indices 1 2 3 4 5 6 
#
# 1 0.013362 -0.006750 -0.000975 0.000000 0.006762 0.000000
# 2 -0.006750 0.027295 -0.006173 0.000000 -0.006841 0.000000
# 3 -0.000975 -0.006173 0.010242 0.000000 0.002204 0.000000
# 4 0.000000 0.000000 0.000000 0.026379 0.000000 0.000090
# 5 0.006762 -0.006841 0.002204 0.000000 0.033185 0.000000
# 6 0.000000 0.000000 0.000000 0.000090 0.000000 0.029077
#
#
# Mechanical properties :
#
#
# Convention : Reuss Voigt Hill
#
# Bulk Modulus (GPa) = 43.28515 50.05581 46.67048
# Shear Modulus (GPa) = 28.56545 33.59088 31.07817
#
# Velocity S-wave (km/s) = 3.67700 3.98735 3.83532
# Velocity P-wave (km/s) = 6.20600 6.70004 6.45775
#
# Compressibility (1/GPa) = 0.02310261
#
# Stress axis : x y z
#
# Youngs Moduli (GPa) = 74.84069 36.63708 97.63834
#
# Poissons Ratio (x) = 0.24730 0.09522
# Poissons Ratio (y) = 0.50517 0.60269
# Poissons Ratio (z) = 0.07299 0.22615
#
# Static dielectric constant tensor:
#      x y z
#    x 3.936320 0.000000 -0.052280 
#    y 0.000000 3.775370 0.000000 
#    z -0.052280 0.000000 3.822710 
# 
# 
# High freq. dielectric constant tensor:
#      x y z
#    x 1.837760 0.000000 -0.005790 
#    y 0.000000 1.834590 0.000000 
#    z -0.005790 0.000000 1.838600 
# 
# From -- ./inp_files/250057.got.cif
#   From: 2010.06.25/outbox.cif.g09.slc.cpg/sg12_126_cif.got.tgz:250057.got - 2010.06.28 00:19:55.
