data_PCOD8113535
_publ_section_title
;
Structure prediction by ZEFSAII (Michael W. Deem and Ramdas Pophale) SiO2 
 PCOD8113535
Probable space group: C 2/M
;
_chemical_formula_sum "Si O2"
_cell_formula_units_Z 56
_cell_length_a 17.201396
_cell_length_b 27.337508
_cell_length_c 8.732578
_cell_angle_alpha 90.000000
_cell_angle_beta 39.886324
_cell_angle_gamma 90.000000
_cell_volume 2633.320026
_symmetry_space_group_name_H-M "C 2/M"
_symmetry_group_IT_number 12
_symmetry_cell_setting 'monoclinic'
loop_
_space_group_symop_operation_xyz
x,y,z
-x,y,-z
-x,-y,-z
x,-y,z
1/2+x,1/2+y,z
1/2-x,1/2+y,-z
1/2-x,1/2-y,-z
1/2+x,1/2-y,z
loop_
_atom_site_type_symbol
_atom_site_label
_atom_site_fract_x
_atom_site_fract_y
_atom_site_fract_z
Si Si1 0.383392 0.075612 0.751475
Si Si2 0.978535 0.815222 0.857791
Si Si3 0.324380 0.500000 0.898265
Si Si4 0.825774 0.105580 0.451395
Si Si5 0.598087 0.133660 0.983865
Si Si6 0.906123 0.000000 0.426370
Si Si7 0.772046 0.350355 0.700313
Si Si8 0.017061 0.714268 0.654174
O O1 0.500000 0.047852 0.500000
O O2 0.422074 0.089962 0.864543
O O3 0.360655 0.123651 0.685443
O O4 0.258232 0.046305 0.938022
O O5 0.051389 0.864299 0.705927
O O6 0.019514 0.771331 0.687904
O O7 0.000000 0.799213 0.000000
O O8 0.837508 0.825794 0.040964
O O9 0.364114 0.500000 0.663688
O O10 0.447291 0.500000 0.812999
O O11 0.778429 0.112480 0.350632
O O12 0.851238 0.048043 0.429935
O O13 0.732097 0.127589 0.714906
O O14 0.584859 0.186044 0.090171
O O15 0.500000 0.126473 0.000000
O O16 0.852504 0.308605 0.496031
O O17 0.000000 0.707840 0.500000
#
# Coordination Sequence:
#
# PCOD8113535 Si02
#       8
#     8   8   4   8   8   4   8   8
#     4  12  22  44  66  98 135 173 224 281 343 398
#     4  10  26  42  65  99 133 178 227 274 334 406
#     4  11  25  41  69  97 136 176 224 282 336 397
#     4  11  24  45  70  99 135 176 227 280 334 401
#     4  12  22  41  69  96 132 178 218 278 337 399
#     4  11  24  47  69 103 133 180 229 276 338 397
#     4  11  23  44  67  96 138 173 222 281 337 404
#     4  12  24  42  65  97 134 181 222 278 339 396
#
# _framework density 21.265930000000001
#
# number of rings (size 3 to 8) (size 9 to 14) (size 15 to 20)
#    0.000    0.714    5.714    1.500    2.000    3.429 
#    2.571    6.786    0.000    0.000    0.000    0.000 
#    0.000    0.000    0.000    0.000    0.000    0.000 
#
# Total GULP energy -347230.036118 kJ/mol
# GULP energy per Si atom -12401.072718 kJ/mol
# Density = 2.121753 g / cm^3
# Si number density = 21.265930 Si / 1000 Ang^3
#
#
#
# Elastic Constant Matrix: (Units=GPa)
#
#
# Indices 1 2 3 4 5 6 
#
# 1 92.8502 46.2255 44.8709 0.0000 -1.3221 0.0000
# 2 46.2255 143.4038 56.6340 0.0000 -6.3675 0.0000
# 3 44.8709 56.6340 136.6372 0.0000 -15.3697 0.0000
# 4 0.0000 0.0000 0.0000 37.9456 0.0000 -8.2381
# 5 -1.3221 -6.3675 -15.3697 0.0000 34.4437 0.0000
# 6 0.0000 0.0000 0.0000 -8.2381 0.0000 28.7420
#
#
#
# Elastic Compliance Matrix: (Units=1/GPa)
#
#
# Indices 1 2 3 4 5 6 
#
# 1 0.014020 -0.003230 -0.003445 0.000000 -0.001596 0.000000
# 2 -0.003230 0.009082 -0.002663 0.000000 0.000367 0.000000
# 3 -0.003445 -0.002663 0.009984 0.000000 0.003831 0.000000
# 4 0.000000 0.000000 0.000000 0.028102 0.000000 0.008055
# 5 -0.001596 0.000367 0.003831 0.000000 0.030749 0.000000
# 6 0.000000 0.000000 0.000000 0.008055 0.000000 0.037101
#
#
# Mechanical properties :
#
#
# Convention : Reuss Voigt Hill
#
# Bulk Modulus (GPa) = 69.38525 74.26133 71.82329
# Shear Modulus (GPa) = 32.78319 35.23699 34.01009
#
# Velocity S-wave (km/s) = 3.93056 4.07500 4.00343
# Velocity P-wave (km/s) = 7.30050 7.55890 7.43083
#
# Compressibility (1/GPa) = 0.01441229
#
# Stress axis : x y z
#
# Youngs Moduli (GPa) = 71.32662 110.10570 100.15545
#
# Poissons Ratio (x) = 0.35560 0.34504
# Poissons Ratio (y) = 0.23036 0.26667
# Poissons Ratio (z) = 0.24572 0.29316
#
# Static dielectric constant tensor:
#      x y z
#    x 3.801490 0.000000 -0.108920 
#    y 0.000000 3.685370 0.000000 
#    z -0.108920 0.000000 4.204580 
# 
# 
# High freq. dielectric constant tensor:
#      x y z
#    x 1.831690 0.000000 -0.004830 
#    y 0.000000 1.826560 0.000000 
#    z -0.004830 0.000000 1.855630 
# 
# From -- ./inp_files/80044.got.cif
#   From: 2010.06.25/outbox.cif.g09.slc.cpg/sg12_41_cif.got.tgz:80044.got - 2010.06.28 00:19:55.
