data_PCOD8113846
_publ_section_title
;
Structure prediction by ZEFSAII (Michael W. Deem and Ramdas Pophale) SiO2 
 PCOD8113846
Probable space group: C 2/M
;
_chemical_formula_sum "Si O2"
_cell_formula_units_Z 56
_cell_length_a 24.709353
_cell_length_b 8.709216
_cell_length_c 15.047089
_cell_angle_alpha 90.000000
_cell_angle_beta 105.362864
_cell_angle_gamma 90.000000
_cell_volume 3122.413198
_symmetry_space_group_name_H-M "C 2/M"
_symmetry_group_IT_number 12
_symmetry_cell_setting 'monoclinic'
loop_
_space_group_symop_operation_xyz
x,y,z
-x,y,-z
-x,-y,-z
x,-y,z
1/2+x,1/2+y,z
1/2-x,1/2+y,-z
1/2-x,1/2-y,-z
1/2+x,1/2-y,z
loop_
_atom_site_type_symbol
_atom_site_label
_atom_site_fract_x
_atom_site_fract_y
_atom_site_fract_z
Si Si1 0.239076 0.179883 0.590862
Si Si2 0.071480 0.679324 0.388317
Si Si3 0.613058 0.320317 0.579543
Si Si4 0.575356 0.681236 0.100576
Si Si5 0.445506 0.179227 0.282637
Si Si6 0.655143 0.318622 0.286566
Si Si7 0.453395 0.318210 0.102998
O O1 0.250000 0.250000 0.500000
O O2 0.177916 0.226800 0.598532
O O3 0.283793 0.243296 0.681213
O O4 0.246381 0.000000 0.585656
O O5 0.083712 0.500000 0.381709
O O6 0.075698 0.725799 0.493182
O O7 0.117723 0.774692 0.354976
O O8 0.010087 0.724246 0.327149
O O9 0.603831 0.500000 0.559003
O O10 0.593833 0.274989 0.669197
O O11 0.572176 0.500000 0.106400
O O12 0.626239 0.744070 0.183234
O O13 0.516590 0.742938 0.113871
O O14 0.583097 0.727084 0.000444
O O15 0.428100 0.228092 0.175623
O O16 0.434817 0.000000 0.292840
O O17 0.662251 0.500000 0.288721
O O18 0.451594 0.500000 0.120173
#
# Coordination Sequence:
#
# PCOD8113846 Si02
#       7
#     8   8   8   8   8   8   8
#     4  11  23  38  56  79 106 140 182 227 272 314
#     4  11  22  35  52  78 113 146 175 216 269 321
#     4  11  24  39  56  76 102 144 190 223 261 321
#     4   8  16  30  53  82 108 139 179 219 263 315
#     4  11  23  36  52  80 114 145 176 219 274 322
#     4  11  20  33  56  83 110 142 180 220 265 319
#     4   9  16  32  55  78 108 143 178 218 261 318
#
# _framework density 17.934846
#
# number of rings (size 3 to 8) (size 9 to 14) (size 15 to 20)
#    0.000    1.714    2.857    3.429    0.000    5.143 
#    0.000    2.857    0.000    0.857    0.000    0.000 
#    0.000    0.000    0.000    0.000    0.000    0.000 
#
# Total GULP energy -347259.194954 kJ/mol
# GULP energy per Si atom -12402.114105 kJ/mol
# Density = 1.789403 g / cm^3
# Si number density = 17.934846 Si / 1000 Ang^3
#
#
#
# Elastic Constant Matrix: (Units=GPa)
#
#
# Indices 1 2 3 4 5 6 
#
# 1 68.7216 29.8653 40.4032 0.0000 -2.3253 0.0000
# 2 29.8653 50.9680 22.4451 0.0000 3.5109 0.0000
# 3 40.4032 22.4451 135.7882 0.0000 0.6765 0.0000
# 4 0.0000 0.0000 0.0000 26.3018 0.0000 2.1170
# 5 -2.3253 3.5109 0.6765 0.0000 26.7288 0.0000
# 6 0.0000 0.0000 0.0000 2.1170 0.0000 23.6240
#
#
#
# Elastic Compliance Matrix: (Units=1/GPa)
#
#
# Indices 1 2 3 4 5 6 
#
# 1 0.022392 -0.011242 -0.004822 0.000000 0.003547 0.000000
# 2 -0.011242 0.027000 -0.001096 0.000000 -0.004497 0.000000
# 3 -0.004822 -0.001096 0.008983 0.000000 -0.000503 0.000000
# 4 0.000000 0.000000 0.000000 0.038296 0.000000 -0.003432
# 5 0.003547 -0.004497 -0.000503 0.000000 0.038325 0.000000
# 6 0.000000 0.000000 0.000000 -0.003432 0.000000 0.042637
#
#
# Mechanical properties :
#
#
# Convention : Reuss Voigt Hill
#
# Bulk Modulus (GPa) = 41.57026 48.98944 45.27985
# Shear Modulus (GPa) = 22.73038 26.18187 24.45612
#
# Velocity S-wave (km/s) = 3.56390 3.82492 3.69671
# Velocity P-wave (km/s) = 6.33751 6.84699 6.59717
#
# Compressibility (1/GPa) = 0.02405566
#
# Stress axis : x y z
#
# Youngs Moduli (GPa) = 44.65892 37.03772 111.32372
#
# Poissons Ratio (x) = 0.41636 0.53682
# Poissons Ratio (y) = 0.50204 0.12196
# Poissons Ratio (z) = 0.21535 0.04058
#
# Static dielectric constant tensor:
#      x y z
#    x 3.275580 0.000000 0.186150 
#    y 0.000000 3.209560 0.000000 
#    z 0.186150 0.000000 3.621420 
# 
# 
# High freq. dielectric constant tensor:
#      x y z
#    x 1.671080 0.000000 0.002780 
#    y 0.000000 1.691400 0.000000 
#    z 0.002780 0.000000 1.702120 
# 
# From -- ./inp_files/237870.got.cif
#   From: 2010.06.25/outbox.cif.g09.slc.cpg/sg12_119_cif.got.tgz:237870.got - 2010.06.28 00:19:55.
