data_PCOD8113903
_publ_section_title
;
Structure prediction by ZEFSAII (Michael W. Deem and Ramdas Pophale) SiO2 
 PCOD8113903
Probable space group: C 2/M
;
_chemical_formula_sum "Si O2"
_cell_formula_units_Z 28
_cell_length_a 20.222330
_cell_length_b 12.814624
_cell_length_c 4.992943
_cell_angle_alpha 90.000000
_cell_angle_beta 113.894568
_cell_angle_gamma 90.000000
_cell_volume 1182.983699
_symmetry_space_group_name_H-M "C 2/M"
_symmetry_group_IT_number 12
_symmetry_cell_setting 'monoclinic'
loop_
_space_group_symop_operation_xyz
x,y,z
-x,y,-z
-x,-y,-z
x,-y,z
1/2+x,1/2+y,z
1/2-x,1/2+y,-z
1/2-x,1/2-y,-z
1/2+x,1/2-y,z
loop_
_atom_site_type_symbol
_atom_site_label
_atom_site_fract_x
_atom_site_fract_y
_atom_site_fract_z
Si Si1 0.048051 0.500000 0.829351
Si Si2 0.084928 0.780020 0.189729
Si Si3 0.761963 0.000000 0.016115
Si Si4 0.355050 0.824266 0.185027
Si Si5 0.141468 0.000000 0.325425
O O1 0.094497 0.397254 0.910421
O O2 0.000000 0.500000 0.500000
O O3 0.000000 0.500000 0.000000
O O4 0.114463 0.705514 0.475352
O O5 0.091408 0.899446 0.296698
O O6 0.139567 0.771788 0.018390
O O7 0.000000 0.754764 0.000000
O O8 0.789809 0.000000 0.364626
O O9 0.718795 0.109995 0.900023
O O10 0.828818 0.000000 0.926467
#
# Coordination Sequence:
#
# PCOD8113903 Si02
#       5
#     4   8   4   8   4
#     4  11  20  35  60  94 130 166 205 260 327 389
#     4  12  25  44  68  99 131 175 223 271 330 382
#     4  11  26  46  66 102 131 172 222 264 340 393
#     4  11  24  41  67  97 134 169 215 275 328 397
#     4  12  27  45  68  92 136 180 224 274 308 392
#
# _framework density 23.668965
#
# number of rings (size 3 to 8) (size 9 to 14) (size 15 to 20)
#    0.000    0.571    0.000    9.000    0.000   11.429 
#    0.000    6.429    0.000    0.000    0.000    0.000 
#    0.000    0.000    0.000    0.000    0.000    0.000 
#
# Total GULP energy -173478.340395 kJ/mol
# GULP energy per Si atom -12391.310028 kJ/mol
# Density = 2.361509 g / cm^3
# Si number density = 23.668965 Si / 1000 Ang^3
#
#
#
# Elastic Constant Matrix: (Units=GPa)
#
#
# Indices 1 2 3 4 5 6 
#
# 1 82.7316 13.1345 25.3912 0.0000 -9.4139 0.0000
# 2 13.1345 100.5237 27.7562 0.0000 10.1667 0.0000
# 3 25.3912 27.7562 142.9416 0.0000 -8.2962 0.0000
# 4 0.0000 0.0000 0.0000 32.4816 0.0000 5.9699
# 5 -9.4139 10.1667 -8.2962 0.0000 37.9594 0.0000
# 6 0.0000 0.0000 0.0000 5.9699 0.0000 50.5005
#
#
#
# Elastic Compliance Matrix: (Units=1/GPa)
#
#
# Indices 1 2 3 4 5 6 
#
# 1 0.013283 -0.001554 -0.001866 0.000000 0.003303 0.000000
# 2 -0.001554 0.011119 -0.002105 0.000000 -0.003823 0.000000
# 3 -0.001866 -0.002105 0.007841 0.000000 0.001815 0.000000
# 4 0.000000 0.000000 0.000000 0.031470 0.000000 -0.003720
# 5 0.003303 -0.003823 0.001815 0.000000 0.028584 0.000000
# 6 0.000000 0.000000 0.000000 -0.003720 0.000000 0.020242
#
#
# Mechanical properties :
#
#
# Convention : Reuss Voigt Hill
#
# Bulk Modulus (GPa) = 47.18636 50.97341 49.07988
# Shear Modulus (GPa) = 38.26937 41.51595 39.89266
#
# Velocity S-wave (km/s) = 4.02538 4.19265 4.10987
# Velocity P-wave (km/s) = 6.44858 6.70973 6.58045
#
# Compressibility (1/GPa) = 0.02119257
#
# Stress axis : x y z
#
# Youngs Moduli (GPa) = 75.28698 89.93724 127.52884
#
# Poissons Ratio (x) = 0.13979 0.23796
# Poissons Ratio (y) = 0.11702 0.26843
# Poissons Ratio (z) = 0.14048 0.18931
#
# Static dielectric constant tensor:
#      x y z
#    x 4.085290 0.000000 0.066760 
#    y 0.000000 4.777280 0.000000 
#    z 0.066760 0.000000 4.152580 
# 
# 
# High freq. dielectric constant tensor:
#      x y z
#    x 1.933370 0.000000 -0.011340 
#    y 0.000000 1.966040 0.000000 
#    z -0.011340 0.000000 1.946070 
# 
# From -- ./inp_files/14438.got.cif
#   From: 2010.06.25/outbox.cif.g09.slc.cpg/sg12_8_cif.got.tgz:14438.got - 2010.06.28 00:19:55.
