data_PCOD8113297
_publ_section_title
;
Structure prediction by ZEFSAII (Michael W. Deem and Ramdas Pophale) SiO2 
 PCOD8113297
Probable space group: C 2/M
;
_chemical_formula_sum "Si O2"
_cell_formula_units_Z 48
_cell_length_a 15.238330
_cell_length_b 14.202481
_cell_length_c 11.250778
_cell_angle_alpha 90.000000
_cell_angle_beta 68.689603
_cell_angle_gamma 90.000000
_cell_volume 2268.430191
_symmetry_space_group_name_H-M "C 2/M"
_symmetry_group_IT_number 12
_symmetry_cell_setting 'monoclinic'
loop_
_space_group_symop_operation_xyz
x,y,z
-x,y,-z
-x,-y,-z
x,-y,z
1/2+x,1/2+y,z
1/2-x,1/2+y,-z
1/2-x,1/2-y,-z
1/2+x,1/2-y,z
loop_
_atom_site_type_symbol
_atom_site_label
_atom_site_fract_x
_atom_site_fract_y
_atom_site_fract_z
Si Si1 0.674286 0.751235 0.434058
Si Si2 0.258458 0.640249 0.979338
Si Si3 0.544578 0.777682 0.700080
Si Si4 0.638588 0.895590 0.257721
Si Si5 0.290173 0.892964 0.256296
Si Si6 0.023987 0.105999 0.120958
O O1 0.750000 0.750000 0.500000
O O2 0.573256 0.755875 0.549054
O O3 0.686566 0.843168 0.345473
O O4 0.692243 0.658053 0.345012
O O5 0.201709 0.608692 0.890065
O O6 0.365060 0.608112 0.911805
O O7 0.250000 0.750000 0.000000
O O8 0.213912 0.590931 0.115826
O O9 0.448569 0.835712 0.748080
O O10 0.621514 0.837899 0.732831
O O11 0.531003 0.676566 0.766422
O O12 0.606258 0.000000 0.314330
O O13 0.290299 0.000000 0.303148
O O14 0.987044 0.000000 0.163665
O O15 0.000000 0.138202 0.000000
#
# Coordination Sequence:
#
# PCOD8113297 Si02
#       6
#     8   8   8   8   8   8
#     4  10  24  42  62  92 128 172 215 261 319 382
#     4  12  22  43  68  94 132 173 214 273 332 387
#     4  11  24  42  66  99 135 171 219 270 326 389
#     4  12  25  42  69  98 130 173 219 271 329 392
#     4  11  23  42  67  96 132 171 216 272 329 389
#     4  11  24  41  65  95 131 173 220 272 324 385
#
# _framework density 21.160008000000001
#
# number of rings (size 3 to 8) (size 9 to 14) (size 15 to 20)
#    0.000    0.833    3.333    3.500    2.333    4.667 
#    0.000    1.667    0.000    4.000    0.000    0.000 
#    0.000    0.000    0.000    0.000    0.000    0.000 
#
# Total GULP energy -297626.699158 kJ/mol
# GULP energy per Si atom -12401.112465 kJ/mol
# Density = 2.111185 g / cm^3
# Si number density = 21.160008 Si / 1000 Ang^3
#
#
#
# Elastic Constant Matrix: (Units=GPa)
#
#
# Indices 1 2 3 4 5 6 
#
# 1 71.8093 31.3611 29.1582 0.0000 17.0680 0.0000
# 2 31.3611 177.1348 61.8157 0.0000 0.1000 0.0000
# 3 29.1582 61.8157 142.9981 0.0000 6.6035 0.0000
# 4 0.0000 0.0000 0.0000 5.4309 0.0000 -2.6823
# 5 17.0680 0.1000 6.6035 0.0000 34.0634 0.0000
# 6 0.0000 0.0000 0.0000 -2.6823 0.0000 22.1631
#
#
#
# Elastic Compliance Matrix: (Units=1/GPa)
#
#
# Indices 1 2 3 4 5 6 
#
# 1 0.017899 -0.002388 -0.002223 0.000000 -0.008531 0.000000
# 2 -0.002388 0.006977 -0.002607 0.000000 0.001682 0.000000
# 3 -0.002223 -0.002607 0.008598 0.000000 -0.000545 0.000000
# 4 0.000000 0.000000 0.000000 0.195837 0.000000 0.023701
# 5 -0.008531 0.001682 -0.000545 0.000000 0.033732 0.000000
# 6 0.000000 0.000000 0.000000 0.023701 0.000000 0.047988
#
#
# Mechanical properties :
#
#
# Convention : Reuss Voigt Hill
#
# Bulk Modulus (GPa) = 52.52679 70.73470 61.63075
# Shear Modulus (GPa) = 15.06865 30.30530 22.68697
#
# Velocity S-wave (km/s) = 2.67147 3.78854 3.27794
# Velocity P-wave (km/s) = 5.86457 7.25524 6.59665
#
# Compressibility (1/GPa) = 0.01903790
#
# Stress axis : x y z
#
# Youngs Moduli (GPa) = 55.86840 143.32859 116.29964
#
# Poissons Ratio (x) = 0.34231 0.25858
# Poissons Ratio (y) = 0.13343 0.30316
# Poissons Ratio (z) = 0.12422 0.37361
#
# Static dielectric constant tensor:
#      x y z
#    x 3.877150 0.000000 -0.133290 
#    y 0.000000 4.040170 0.000000 
#    z -0.133290 0.000000 4.384920 
# 
# 
# High freq. dielectric constant tensor:
#      x y z
#    x 1.829370 0.000000 0.008160 
#    y 0.000000 1.842160 0.000000 
#    z 0.008160 0.000000 1.838020 
# 
# From -- ./inp_files/142690.got.cif
#   From: 2010.06.25/outbox.cif.g09.slc.cpg/sg12_72_cif.got.tgz:142690.got - 2010.06.28 00:19:55.
