data_PCOD8113462
_publ_section_title
;
Structure prediction by ZEFSAII (Michael W. Deem and Ramdas Pophale) SiO2 
 PCOD8113462
Probable space group: C 2/M
;
_chemical_formula_sum "Si O2"
_cell_formula_units_Z 40
_cell_length_a 12.873078
_cell_length_b 17.656640
_cell_length_c 8.747908
_cell_angle_alpha 90.000000
_cell_angle_beta 78.336617
_cell_angle_gamma 90.000000
_cell_volume 1947.303200
_symmetry_space_group_name_H-M "C 2/M"
_symmetry_group_IT_number 12
_symmetry_cell_setting 'monoclinic'
loop_
_space_group_symop_operation_xyz
x,y,z
-x,y,-z
-x,-y,-z
x,-y,z
1/2+x,1/2+y,z
1/2-x,1/2+y,-z
1/2-x,1/2-y,-z
1/2+x,1/2-y,z
loop_
_atom_site_type_symbol
_atom_site_label
_atom_site_fract_x
_atom_site_fract_y
_atom_site_fract_z
Si Si1 0.004904 0.796630 0.179254
Si Si2 0.849780 0.916051 0.695446
Si Si3 0.791555 0.174439 0.414128
Si Si4 0.039732 0.500000 0.211776
Si Si5 0.675308 0.000000 0.898567
Si Si6 0.928251 0.343588 0.658727
O O1 0.072892 0.864075 0.230724
O O2 0.058633 0.716344 0.207211
O O3 0.886003 0.804745 0.273468
O O4 0.000000 0.804132 0.000000
O O5 0.828532 0.883358 0.533795
O O6 0.901146 0.000000 0.659927
O O7 0.739629 0.924954 0.824260
O O8 0.750000 0.250000 0.500000
O O9 0.694349 0.141651 0.345423
O O10 0.026289 0.425469 0.316385
O O11 0.940834 0.500000 0.131450
O O12 0.153344 0.500000 0.087817
O O13 0.000000 0.309822 0.500000
#
# Coordination Sequence:
#
# PCOD8113462 Si02
#       6
#     8   8   8   4   4   8
#     4  12  28  44  70 105 137 184 229 289 344 407
#     4  10  24  47  72  96 139 182 229 278 342 406
#     4  12  24  44  71 100 136 178 230 280 340 411
#     4  11  25  40  69 106 137 181 225 287 356 400
#     4   9  24  44  69  99 142 177 229 284 346 408
#     4  12  25  44  70 100 142 177 236 280 344 417
#
# _framework density 20.541229000000001
#
# number of rings (size 3 to 8) (size 9 to 14) (size 15 to 20)
#    0.600    0.200    4.000    2.100    7.000    2.800 
#    0.000    0.000    0.000    0.000    0.000    0.000 
#    0.000    0.000    0.000    0.000    0.000    0.000 
#
# Total GULP energy -247962.822838 kJ/mol
# GULP energy per Si atom -12398.141142 kJ/mol
# Density = 2.049448 g / cm^3
# Si number density = 20.541229 Si / 1000 Ang^3
#
#
#
# Elastic Constant Matrix: (Units=GPa)
#
#
# Indices 1 2 3 4 5 6 
#
# 1 130.9171 48.6299 72.2492 0.0000 6.0376 0.0000
# 2 48.6299 148.9630 35.3132 0.0000 14.6319 0.0000
# 3 72.2492 35.3132 112.3104 0.0000 -8.0598 0.0000
# 4 0.0000 0.0000 0.0000 34.3092 0.0000 -11.4931
# 5 6.0376 14.6319 -8.0598 0.0000 41.7001 0.0000
# 6 0.0000 0.0000 0.0000 -11.4931 0.0000 26.8345
#
#
#
# Elastic Compliance Matrix: (Units=1/GPa)
#
#
# Indices 1 2 3 4 5 6 
#
# 1 0.012832 -0.002084 -0.007789 0.000000 -0.002632 0.000000
# 2 -0.002084 0.007990 -0.001370 0.000000 -0.002767 0.000000
# 3 -0.007789 -0.001370 0.014664 0.000000 0.004443 0.000000
# 4 0.000000 0.000000 0.000000 0.034029 0.000000 0.014574
# 5 -0.002632 -0.002767 0.004443 0.000000 0.026191 0.000000
# 6 0.000000 0.000000 0.000000 0.014574 0.000000 0.043508
#
#
# Mechanical properties :
#
#
# Convention : Reuss Voigt Hill
#
# Bulk Modulus (GPa) = 76.91995 78.28613 77.60304
# Shear Modulus (GPa) = 30.11449 36.30197 33.20823
#
# Velocity S-wave (km/s) = 3.83306 4.20846 4.02514
# Velocity P-wave (km/s) = 7.55762 7.86189 7.71126
#
# Compressibility (1/GPa) = 0.01300053
#
# Stress axis : x y z
#
# Youngs Moduli (GPa) = 77.92852 125.15605 68.19510
#
# Poissons Ratio (x) = 0.26086 0.53114
# Poissons Ratio (y) = 0.16243 0.09343
# Poissons Ratio (z) = 0.60695 0.17146
#
# Static dielectric constant tensor:
#      x y z
#    x 3.059100 0.000000 -0.345090 
#    y 0.000000 3.702670 0.000000 
#    z -0.345090 0.000000 3.424510 
# 
# 
# High freq. dielectric constant tensor:
#      x y z
#    x 1.814380 0.000000 -0.002340 
#    y 0.000000 1.808500 0.000000 
#    z -0.002340 0.000000 1.805460 
# 
# From -- ./inp_files/46980.got.cif
#   From: 2010.06.25/outbox.cif.g09.slc.cpg/sg12_24_cif.got.tgz:46980.got - 2010.06.28 00:19:55.
