data_PCOD8113291
_publ_section_title
;
Structure prediction by ZEFSAII (Michael W. Deem and Ramdas Pophale) SiO2 
 PCOD8113291
Probable space group: C 2/M
;
_chemical_formula_sum "Si O2"
_cell_formula_units_Z 40
_cell_length_a 24.604615
_cell_length_b 8.815594
_cell_length_c 18.669826
_cell_angle_alpha 90.000000
_cell_angle_beta 150.325675
_cell_angle_gamma 90.000000
_cell_volume 2004.815841
_symmetry_space_group_name_H-M "C 2/M"
_symmetry_group_IT_number 12
_symmetry_cell_setting 'monoclinic'
loop_
_space_group_symop_operation_xyz
x,y,z
-x,y,-z
-x,-y,-z
x,-y,z
1/2+x,1/2+y,z
1/2-x,1/2+y,-z
1/2-x,1/2-y,-z
1/2+x,1/2-y,z
loop_
_atom_site_type_symbol
_atom_site_label
_atom_site_fract_x
_atom_site_fract_y
_atom_site_fract_z
Si Si1 0.976549 0.322501 0.329251
Si Si2 0.471916 0.322289 0.170690
Si Si3 0.757151 0.676707 0.160891
Si Si4 0.183493 0.177207 0.627014
Si Si5 0.318945 0.177795 0.642436
O O1 0.986108 0.500000 0.324437
O O2 0.992835 0.232271 0.274898
O O3 0.860171 0.279363 0.229917
O O4 0.070794 0.271276 0.492139
O O5 0.493188 0.500000 0.192460
O O6 0.557902 0.242943 0.215898
O O7 0.350146 0.278344 0.006781
O O8 0.758665 0.500000 0.183439
O O9 0.756297 0.776024 0.231329
O O10 0.264490 0.220681 0.655354
O O11 0.155343 0.000000 0.595371
O O12 0.250000 0.250000 0.500000
O O13 0.322980 0.000000 0.634295
#
# Coordination Sequence:
#
# PCOD8113291 Si02
#       5
#     8   8   8   8   8
#     4  11  22  39  64  90 121 162 205 248 299 361
#     4  11  23  40  63  91 123 159 203 251 301 359
#     4  10  24  42  60  89 126 162 200 247 305 362
#     4  11  24  40  62  91 122 158 202 252 303 358
#     4  11  23  40  63  90 120 157 202 252 302 357
#
# _framework density 19.951958999999999
#
# number of rings (size 3 to 8) (size 9 to 14) (size 15 to 20)
#    0.000    1.200    2.000    3.600    0.000    8.800 
#    0.000    4.000    0.000    0.000    0.000    0.000 
#    0.000    0.000    0.000    0.000    0.000    0.000 
#
# Total GULP energy -248163.508902 kJ/mol
# GULP energy per Si atom -12408.175445 kJ/mol
# Density = 1.990655 g / cm^3
# Si number density = 19.951959 Si / 1000 Ang^3
#
#
#
# Elastic Constant Matrix: (Units=GPa)
#
#
# Indices 1 2 3 4 5 6 
#
# 1 87.8941 40.7316 29.9273 0.0000 16.3301 0.0000
# 2 40.7316 70.1680 22.3699 0.0000 8.0437 0.0000
# 3 29.9273 22.3699 69.7931 0.0000 6.0120 0.0000
# 4 0.0000 0.0000 0.0000 34.9957 0.0000 -0.5720
# 5 16.3301 8.0437 6.0120 0.0000 36.5082 0.0000
# 6 0.0000 0.0000 0.0000 -0.5720 0.0000 35.7132
#
#
#
# Elastic Compliance Matrix: (Units=1/GPa)
#
#
# Indices 1 2 3 4 5 6 
#
# 1 0.017725 -0.008240 -0.004497 0.000000 -0.005372 0.000000
# 2 -0.008240 0.019970 -0.002846 0.000000 -0.000246 0.000000
# 3 -0.004497 -0.002846 0.017185 0.000000 -0.000191 0.000000
# 4 0.000000 0.000000 0.000000 0.028582 0.000000 0.000458
# 5 -0.005372 -0.000246 -0.000191 0.000000 0.029880 0.000000
# 6 0.000000 0.000000 0.000000 0.000458 0.000000 0.028008
#
#
# Mechanical properties :
#
#
# Convention : Reuss Voigt Hill
#
# Bulk Modulus (GPa) = 42.16825 45.99029 44.07927
# Shear Modulus (GPa) = 27.71293 30.43185 29.07239
#
# Velocity S-wave (km/s) = 3.73095 3.90969 3.82136
# Velocity P-wave (km/s) = 6.30403 6.59405 6.45067
#
# Compressibility (1/GPa) = 0.02371453
#
# Stress axis : x y z
#
# Youngs Moduli (GPa) = 56.41752 50.07473 58.18996
#
# Poissons Ratio (x) = 0.41260 0.26166
# Poissons Ratio (y) = 0.46486 0.16564
# Poissons Ratio (z) = 0.25369 0.14254
#
# Static dielectric constant tensor:
#      x y z
#    x 3.790980 0.000000 0.011080 
#    y 0.000000 3.671470 0.000000 
#    z 0.011080 0.000000 3.222270 
# 
# 
# High freq. dielectric constant tensor:
#      x y z
#    x 1.789150 0.000000 0.007900 
#    y 0.000000 1.787730 0.000000 
#    z 0.007900 0.000000 1.785300 
# 
# From -- ./inp_files/151697.got.cif
#   From: 2010.06.25/outbox.cif.g09.slc.cpg/sg12_76_cif.got.tgz:151697.got - 2010.06.28 00:19:55.
