data_PCOD8113032
_publ_section_title
;
Structure prediction by ZEFSAII (Michael W. Deem and Ramdas Pophale) SiO2 
 PCOD8113032
Probable space group: C 2/M
;
_chemical_formula_sum "Si O2"
_cell_formula_units_Z 44
_cell_length_a 21.723388
_cell_length_b 17.233379
_cell_length_c 18.457576
_cell_angle_alpha 90.000000
_cell_angle_beta 161.297680
_cell_angle_gamma 90.000000
_cell_volume 2215.673324
_symmetry_space_group_name_H-M "C 2/M"
_symmetry_group_IT_number 12
_symmetry_cell_setting 'monoclinic'
loop_
_space_group_symop_operation_xyz
x,y,z
-x,y,-z
-x,-y,-z
x,-y,z
1/2+x,1/2+y,z
1/2-x,1/2+y,-z
1/2-x,1/2-y,-z
1/2+x,1/2-y,z
loop_
_atom_site_type_symbol
_atom_site_label
_atom_site_fract_x
_atom_site_fract_y
_atom_site_fract_z
Si Si1 0.880068 0.089210 0.144519
Si Si2 0.483409 0.091506 0.635503
Si Si3 0.668338 0.587776 0.744796
Si Si4 0.348313 0.681788 0.652496
Si Si5 0.375392 0.765381 0.931578
Si Si6 0.500000 0.166013 0.500000
O O1 0.914731 0.103956 0.268025
O O2 0.058186 0.126672 0.302654
O O3 0.883859 0.000000 0.127426
O O4 0.672593 0.122187 0.888547
O O5 0.301060 0.135031 0.465106
O O6 0.507551 0.110640 0.577947
O O7 0.451787 0.000000 0.610076
O O8 0.500000 0.600925 0.500000
O O9 0.751201 0.500000 0.832129
O O10 0.839157 0.647907 0.920922
O O11 0.250000 0.750000 0.500000
O O12 0.516265 0.714575 0.889037
O O13 0.180349 0.722264 0.694695
O O14 0.500000 0.775460 0.000000
#
# Coordination Sequence:
#
# PCOD8113032 Si02
#       6
#     8   8   8   8   8   4
#     4  10  23  44  66  92 130 173 214 266 323 382
#     4  11  24  44  67  96 133 174 217 263 321 389
#     4  10  23  43  67  92 124 170 218 267 326 383
#     4  12  26  40  66 101 129 170 217 266 324 385
#     4  12  25  42  66  98 132 169 214 270 325 383
#     4  12  23  44  67  98 132 172 220 262 319 388
#
# _framework density 19.858523000000002
#
# number of rings (size 3 to 8) (size 9 to 14) (size 15 to 20)
#    0.000    0.909    4.545    1.909    5.091    1.818 
#    0.000    1.818    0.000    0.000    0.000    0.000 
#    0.000    0.000    0.000    0.000    0.000    0.000 
#
# Total GULP energy -272901.361478 kJ/mol
# GULP energy per Si atom -12404.607340 kJ/mol
# Density = 1.981332 g / cm^3
# Si number density = 19.858523 Si / 1000 Ang^3
#
#
#
# Elastic Constant Matrix: (Units=GPa)
#
#
# Indices 1 2 3 4 5 6 
#
# 1 147.0514 56.4362 58.4072 0.0175 0.0165 0.0014
# 2 56.4362 87.4015 38.7729 0.0321 10.9650 0.0104
# 3 58.4072 38.7729 98.8044 0.0792 5.5176 -0.0081
# 4 0.0175 0.0321 0.0792 58.3198 0.0185 -6.1300
# 5 0.0165 10.9650 5.5176 0.0185 37.7190 -0.0067
# 6 0.0014 0.0104 -0.0081 -6.1300 -0.0067 50.1857
#
#
#
# Elastic Compliance Matrix: (Units=1/GPa)
#
#
# Indices 1 2 3 4 5 6 
#
# 1 0.010473 -0.005120 -0.004300 0.000005 0.002113 0.000001
# 2 -0.005120 0.016765 -0.003307 -0.000002 -0.004388 -0.000005
# 3 -0.004300 -0.003307 0.014021 -0.000015 -0.001088 0.000001
# 4 0.000005 -0.000002 -0.000015 0.017370 -0.000005 0.002122
# 5 0.002113 -0.004388 -0.001088 -0.000005 0.027946 0.000004
# 6 0.000001 -0.000005 0.000001 0.002122 0.000004 0.020185
#
#
# Mechanical properties :
#
#
# Convention : Reuss Voigt Hill
#
# Bulk Modulus (GPa) = 63.27019 71.16554 67.21787
# Shear Modulus (GPa) = 36.36821 41.22098 38.79459
#
# Velocity S-wave (km/s) = 4.28409 4.56096 4.42469
# Velocity P-wave (km/s) = 7.51005 7.97813 7.74763
#
# Compressibility (1/GPa) = 0.01580523
#
# Stress axis : x y z
#
# Youngs Moduli (GPa) = 95.48420 59.64729 71.31991
#
# Poissons Ratio (x) = 0.30540 0.30665
# Poissons Ratio (y) = 0.48889 0.23588
# Poissons Ratio (z) = 0.41055 0.19727
#
# Static dielectric constant tensor:
#      x y z
#    x 3.700520 -0.000050 -0.071990 
#    y -0.000050 3.765440 -0.000150 
#    z -0.071990 -0.000150 3.789560 
# 
# 
# High freq. dielectric constant tensor:
#      x y z
#    x 1.790900 0.000000 -0.006890 
#    y 0.000000 1.787110 -0.000010 
#    z -0.006890 -0.000010 1.780820 
# 
# From -- ./inp_files/61202.got.cif
#   From: 2010.06.25/outbox.cif.g09.slc.cpg/sg12_31_cif.got.tgz:61202.got - 2010.06.28 00:19:55.
