data_PCOD8113838
_publ_section_title
;
Structure prediction by ZEFSAII (Michael W. Deem and Ramdas Pophale) SiO2 
 PCOD8113838
Probable space group: C 2/M
;
_chemical_formula_sum "Si O2"
_cell_formula_units_Z 64
_cell_length_a 13.921548
_cell_length_b 30.353521
_cell_length_c 9.547388
_cell_angle_alpha 90.000000
_cell_angle_beta 60.136578
_cell_angle_gamma 90.000000
_cell_volume 3498.709336
_symmetry_space_group_name_H-M "C 2/M"
_symmetry_group_IT_number 12
_symmetry_cell_setting 'monoclinic'
loop_
_space_group_symop_operation_xyz
x,y,z
-x,y,-z
-x,-y,-z
x,-y,z
1/2+x,1/2+y,z
1/2-x,1/2+y,-z
1/2-x,1/2-y,-z
1/2+x,1/2-y,z
loop_
_atom_site_type_symbol
_atom_site_label
_atom_site_fract_x
_atom_site_fract_y
_atom_site_fract_z
Si Si1 0.329447 0.048241 0.703233
Si Si2 0.647773 0.863130 0.674468
Si Si3 0.075808 0.317648 0.234888
Si Si4 0.947696 0.548312 0.320225
Si Si5 0.465116 0.278423 0.673851
Si Si6 0.609204 0.717685 0.830324
Si Si7 0.725344 0.196020 0.855734
Si Si8 0.761507 0.637460 0.694811
O O1 0.394732 0.050517 0.511036
O O2 0.419564 0.055365 0.761771
O O3 0.236610 0.087187 0.765648
O O4 0.272266 0.000000 0.762501
O O5 0.542063 0.832180 0.735887
O O6 0.607276 0.913285 0.733785
O O7 0.713896 0.845616 0.760585
O O8 0.726326 0.859767 0.481386
O O9 0.064237 0.272383 0.325622
O O10 0.121253 0.351768 0.316410
O O11 0.155736 0.311563 0.044788
O O12 0.924470 0.500000 0.269272
O O13 0.500000 0.298958 0.500000
O O14 0.570464 0.283582 0.698160
O O15 0.353796 0.302353 0.809860
O O16 0.690587 0.758511 0.802737
O O17 0.669605 0.671354 0.817713
O O18 0.500000 0.723193 0.000000
#
# Coordination Sequence:
#
# PCOD8113838 Si02
#       8
#     8   8   8   8   8   8   8   8
#     4   8  14  27  47  77 108 129 156 208 266 302
#     4  11  20  33  53  80 105 135 175 210 246 305
#     4  12  21  34  51  75 108 138 169 206 254 308
#     4   8  14  26  48  77 108 132 158 204 257 305
#     4  12  24  37  53  73 100 136 178 222 249 286
#     4  12  23  38  52  72 104 138 177 214 256 305
#     4  12  24  38  51  71 106 147 171 205 262 307
#     4  11  21  32  55  81 100 133 178 214 249 301
#
# _framework density 18.292459000000001
#
# number of rings (size 3 to 8) (size 9 to 14) (size 15 to 20)
#    0.000    1.250    5.000    4.125    0.000    1.000 
#    0.000    0.000    0.000    2.625    0.000    0.875 
#    0.000    5.000    0.000    0.000    0.000    0.000 
#
# Total GULP energy -396661.525597 kJ/mol
# GULP energy per Si atom -12395.672675 kJ/mol
# Density = 1.825082 g / cm^3
# Si number density = 18.292459 Si / 1000 Ang^3
#
#
#
# Elastic Constant Matrix: (Units=GPa)
#
#
# Indices 1 2 3 4 5 6 
#
# 1 44.3618 22.6194 0.1099 0.0000 3.1089 0.0000
# 2 22.6194 128.0997 10.1394 0.0000 1.3245 0.0000
# 3 0.1099 10.1394 35.1797 0.0000 3.3067 0.0000
# 4 0.0000 0.0000 0.0000 0.1252 0.0000 -11.9507
# 5 3.1089 1.3245 3.3067 0.0000 21.2235 0.0000
# 6 0.0000 0.0000 0.0000 -11.9507 0.0000 20.3721
#
#
#
# Elastic Compliance Matrix: (Units=1/GPa)
#
#
# Indices 1 2 3 4 5 6 
#
# 1 0.025097 -0.004518 0.001566 0.000000 -0.003638 0.000000
# 2 -0.004518 0.008802 -0.002571 0.000000 0.000513 0.000000
# 3 0.001566 -0.002571 0.029602 0.000000 -0.004681 0.000000
# 4 0.000000 0.000000 0.000000 -0.145236 0.000000 -0.085198
# 5 -0.003638 0.000513 -0.004681 0.000000 0.048348 0.000000
# 6 0.000000 0.000000 0.000000 -0.085198 0.000000 -0.000892
#
#
# Mechanical properties :
#
#
# Convention : Reuss Voigt Hill
#
# Bulk Modulus (GPa) = 19.06430 30.37541 24.71985
# Shear Modulus (GPa) = -869.76097 19.99565 -424.88266
#
# Velocity S-wave (km/s) = -21.82905 3.30981 -15.25701
# Velocity P-wave (km/s) = 24.99797 5.58998 17.22862
#
# Compressibility (1/GPa) = 0.05245406
#
# Stress axis : x y z
#
# Youngs Moduli (GPa) = 39.84618 113.60597 33.78193
#
# Poissons Ratio (x) = 0.51324 -0.05289
# Poissons Ratio (y) = 0.18002 0.08686
# Poissons Ratio (z) = -0.06238 0.29209
#
# Static dielectric constant tensor:
#      x y z
#    x 3.388230 0.000000 0.115550 
#    y 0.000000 3.715660 0.000000 
#    z 0.115550 0.000000 3.134890 
# 
# 
# High freq. dielectric constant tensor:
#      x y z
#    x 1.688250 0.000000 0.011250 
#    y 0.000000 1.707600 0.000000 
#    z 0.011250 0.000000 1.687150 
# 
# From -- ./inp_files/68227.got.cif
#   From: 2010.06.25/outbox.cif.g09.slc.cpg/sg12_35_cif.got.tgz:68227.got - 2010.06.28 00:19:55.
