data_PCOD8113083
_publ_section_title
;
Structure prediction by ZEFSAII (Michael W. Deem and Ramdas Pophale) SiO2 
 PCOD8113083
Probable space group: C 2/M
;
_chemical_formula_sum "Si O2"
_cell_formula_units_Z 40
_cell_length_a 17.983574
_cell_length_b 21.100362
_cell_length_c 5.427254
_cell_angle_alpha 90.000000
_cell_angle_beta 128.101499
_cell_angle_gamma 90.000000
_cell_volume 1620.600708
_symmetry_space_group_name_H-M "C 2/M"
_symmetry_group_IT_number 12
_symmetry_cell_setting 'monoclinic'
loop_
_space_group_symop_operation_xyz
x,y,z
-x,y,-z
-x,-y,-z
x,-y,z
1/2+x,1/2+y,z
1/2-x,1/2+y,-z
1/2-x,1/2-y,-z
1/2+x,1/2-y,z
loop_
_atom_site_type_symbol
_atom_site_label
_atom_site_fract_x
_atom_site_fract_y
_atom_site_fract_z
Si Si1 0.598803 0.756155 0.627781
Si Si2 0.753270 0.428983 0.398907
Si Si3 0.455081 0.426166 0.159981
Si Si4 0.444381 0.885065 0.639351
Si Si5 0.762638 0.694247 0.719480
O O1 0.500000 0.723275 0.500000
O O2 0.580823 0.809970 0.382096
O O3 0.671702 0.700858 0.711621
O O4 0.638791 0.796122 0.940532
O O5 0.746225 0.500000 0.497263
O O6 0.845586 0.423622 0.414751
O O7 0.764176 0.377583 0.635105
O O8 0.657306 0.413321 0.054817
O O9 0.500000 0.395968 0.500000
O O10 0.479952 0.500000 0.205372
O O11 0.500000 0.395473 0.000000
O O12 0.500000 0.899327 0.500000
O O13 0.500000 0.907005 0.000000
O O14 0.750000 0.750000 0.500000
#
# Coordination Sequence:
#
# PCOD8113083 Si02
#       5
#     8   8   8   8   8
#     4  10  23  43  74 103 142 187 240 308 365 432
#     4  11  24  45  73 105 149 193 237 307 370 430
#     4   9  20  41  65  93 136 189 239 287 346 421
#     4  11  24  44  74 108 145 189 243 295 367 449
#     4  11  23  45  71 103 143 186 251 298 360 448
#
# _framework density 24.682203000000001
#
# number of rings (size 3 to 8) (size 9 to 14) (size 15 to 20)
#    0.000    1.600    2.000    2.400    0.000    4.000 
#    3.600    7.000    0.000    1.200    0.000    0.000 
#    0.000    0.000    0.000    0.000    0.000    0.000 
#
# Total GULP energy -247911.958350 kJ/mol
# GULP energy per Si atom -12395.597917 kJ/mol
# Density = 2.462603 g / cm^3
# Si number density = 24.682203 Si / 1000 Ang^3
#
#
#
# Elastic Constant Matrix: (Units=GPa)
#
#
# Indices 1 2 3 4 5 6 
#
# 1 152.4459 46.6257 103.9971 0.0000 21.9511 0.0000
# 2 46.6257 102.6104 25.5819 0.0000 0.4489 0.0000
# 3 103.9971 25.5819 166.2555 0.0000 8.2196 0.0000
# 4 0.0000 0.0000 0.0000 20.5554 0.0000 9.8978
# 5 21.9511 0.4489 8.2196 0.0000 51.5465 0.0000
# 6 0.0000 0.0000 0.0000 9.8978 0.0000 15.5779
#
#
#
# Elastic Compliance Matrix: (Units=1/GPa)
#
#
# Indices 1 2 3 4 5 6 
#
# 1 0.013851 -0.004337 -0.007769 0.000000 -0.004622 0.000000
# 2 -0.004337 0.011494 0.000865 0.000000 0.001609 0.000000
# 3 -0.007769 0.000865 0.010662 0.000000 0.001601 0.000000
# 4 0.000000 0.000000 0.000000 0.070094 0.000000 -0.044536
# 5 -0.004622 0.001609 0.001601 0.000000 0.021099 0.000000
# 6 0.000000 0.000000 0.000000 -0.044536 0.000000 0.092491
#
#
# Mechanical properties :
#
#
# Convention : Reuss Voigt Hill
#
# Bulk Modulus (GPa) = 73.93353 85.96901 79.95127
# Shear Modulus (GPa) = 20.26912 33.87642 27.07277
#
# Velocity S-wave (km/s) = 2.86877 3.70875 3.31547
# Velocity P-wave (km/s) = 6.40253 7.29697 6.86433
#
# Compressibility (1/GPa) = 0.01352566
#
# Stress axis : x y z
#
# Youngs Moduli (GPa) = 72.19530 87.00448 93.79061
#
# Poissons Ratio (x) = 0.37734 0.72861
# Poissons Ratio (y) = 0.31311 -0.08111
# Poissons Ratio (z) = 0.56085 -0.07524
#
# Static dielectric constant tensor:
#      x y z
#    x 4.833580 0.000000 0.296190 
#    y 0.000000 4.183170 0.000000 
#    z 0.296190 0.000000 4.590150 
# 
# 
# High freq. dielectric constant tensor:
#      x y z
#    x 1.992050 0.000000 0.022100 
#    y 0.000000 1.960950 0.000000 
#    z 0.022100 0.000000 1.985800 
# 
# From -- ./inp_files/22027.got.cif
#   From: 2010.06.25/outbox.cif.g09.slc.cpg/sg12_12_cif.got.tgz:22027.got - 2010.06.28 00:19:55.
