data_PCOD8113779
_publ_section_title
;
Structure prediction by ZEFSAII (Michael W. Deem and Ramdas Pophale) SiO2 
 PCOD8113779
Probable space group: C 2/M
;
_chemical_formula_sum "Si O2"
_cell_formula_units_Z 48
_cell_length_a 20.680344
_cell_length_b 9.349594
_cell_length_c 15.259995
_cell_angle_alpha 90.000000
_cell_angle_beta 79.873267
_cell_angle_gamma 90.000000
_cell_volume 2904.596986
_symmetry_space_group_name_H-M "C 2/M"
_symmetry_group_IT_number 12
_symmetry_cell_setting 'monoclinic'
loop_
_space_group_symop_operation_xyz
x,y,z
-x,y,-z
-x,-y,-z
x,-y,z
1/2+x,1/2+y,z
1/2-x,1/2+y,-z
1/2-x,1/2-y,-z
1/2+x,1/2-y,z
loop_
_atom_site_type_symbol
_atom_site_label
_atom_site_fract_x
_atom_site_fract_y
_atom_site_fract_z
Si Si1 0.162881 0.659039 0.582073
Si Si2 0.429800 0.169020 0.043104
Si Si3 0.688058 0.829486 0.056487
Si Si4 0.354151 0.170219 0.225644
Si Si5 0.792748 0.830677 0.777741
Si Si6 0.817449 0.157858 0.579376
O O1 0.135543 0.500000 0.573849
O O2 0.132088 0.728391 0.678686
O O3 0.143200 0.745710 0.499683
O O4 0.240676 0.656700 0.576639
O O5 0.408437 0.228079 0.144246
O O6 0.436370 0.000000 0.048556
O O7 0.500000 0.237387 0.000000
O O8 0.375736 0.210319 0.984618
O O9 0.673308 0.765344 0.155947
O O10 0.700427 0.000000 0.056580
O O11 0.750000 0.750000 0.000000
O O12 0.283171 0.217607 0.206979
O O13 0.353488 0.000000 0.232466
O O14 0.827665 0.790660 0.677138
O O15 0.799220 0.000000 0.796453
O O16 0.846723 0.000000 0.561763
#
# Coordination Sequence:
#
# PCOD8113779 Si02
#       6
#     8   8   8   8   8   8
#     4   8  13  21  36  56  82 113 141 173 215 262
#     4   9  17  29  46  67  90 118 153 188 221 264
#     4  11  20  30  47  69  91 118 152 188 225 266
#     4   8  13  24  41  61  86 116 147 180 221 265
#     4   9  16  28  44  63  89 119 148 181 223 269
#     4   8  14  23  36  56  85 115 140 173 218 264
#
# _framework density 16.525528000000001
#
# number of rings (size 3 to 8) (size 9 to 14) (size 15 to 20)
#    0.000    3.167    1.667    2.500    0.000    0.667 
#    0.000    2.500    0.000    2.000    0.000    1.167 
#    0.000    9.333    0.000    0.000    0.000    0.000 
#
# Total GULP energy -297355.535226 kJ/mol
# GULP energy per Si atom -12389.813968 kJ/mol
# Density = 1.648792 g / cm^3
# Si number density = 16.525528 Si / 1000 Ang^3
#
#
#
# Elastic Constant Matrix: (Units=GPa)
#
#
# Indices 1 2 3 4 5 6 
#
# 1 64.7351 23.8555 52.8391 0.0000 -7.1466 0.0000
# 2 23.8555 52.5890 56.5816 0.0000 1.5833 0.0000
# 3 52.8391 56.5816 184.7389 0.0000 -11.1041 0.0000
# 4 0.0000 0.0000 0.0000 31.3457 0.0000 2.5210
# 5 -7.1466 1.5833 -11.1041 0.0000 15.7103 0.0000
# 6 0.0000 0.0000 0.0000 2.5210 0.0000 9.7724
#
#
#
# Elastic Compliance Matrix: (Units=1/GPa)
#
#
# Indices 1 2 3 4 5 6 
#
# 1 0.021659 -0.005792 -0.003962 0.000000 0.007636 0.000000
# 2 -0.005792 0.031304 -0.008646 0.000000 -0.011901 0.000000
# 3 -0.003962 -0.008646 0.009544 0.000000 0.005815 0.000000
# 4 0.000000 0.000000 0.000000 0.032578 0.000000 -0.008404
# 5 0.007636 -0.011901 0.005815 0.000000 0.072436 0.000000
# 6 0.000000 0.000000 0.000000 -0.008404 0.000000 0.104497
#
#
# Mechanical properties :
#
#
# Convention : Reuss Voigt Hill
#
# Bulk Modulus (GPa) = 38.90155 63.17948 51.04051
# Shear Modulus (GPa) = 15.75364 22.61814 19.18589
#
# Velocity S-wave (km/s) = 3.09089 3.70358 3.41102
# Velocity P-wave (km/s) = 6.02740 7.52350 6.81662
#
# Compressibility (1/GPa) = 0.02570592
#
# Stress axis : x y z
#
# Youngs Moduli (GPa) = 46.17043 31.94477 104.77842
#
# Poissons Ratio (x) = 0.18503 0.41512
# Poissons Ratio (y) = 0.26743 0.90596
# Poissons Ratio (z) = 0.18292 0.27621
#
# Static dielectric constant tensor:
#      x y z
#    x 2.769660 0.000000 -0.167940 
#    y 0.000000 2.952470 0.000000 
#    z -0.167940 0.000000 3.634920 
# 
# 
# High freq. dielectric constant tensor:
#      x y z
#    x 1.572840 0.000000 -0.006180 
#    y 0.000000 1.604540 0.000000 
#    z -0.006180 0.000000 1.662940 
# 
# From -- ./inp_files/229258.got.cif
#   From: 2010.06.25/outbox.cif.g09.slc.cpg/sg12_115_cif.got.tgz:229258.got - 2010.06.28 00:19:55.
