data_PCOD8113658
_publ_section_title
;
Structure prediction by ZEFSAII (Michael W. Deem and Ramdas Pophale) SiO2 
 PCOD8113658
Probable space group: C 2/M
;
_chemical_formula_sum "Si O2"
_cell_formula_units_Z 36
_cell_length_a 10.163140
_cell_length_b 20.087309
_cell_length_c 15.562529
_cell_angle_alpha 90.000000
_cell_angle_beta 36.999010
_cell_angle_gamma 90.000000
_cell_volume 1911.978078
_symmetry_space_group_name_H-M "C 2/M"
_symmetry_group_IT_number 12
_symmetry_cell_setting 'monoclinic'
loop_
_space_group_symop_operation_xyz
x,y,z
-x,y,-z
-x,-y,-z
x,-y,z
1/2+x,1/2+y,z
1/2-x,1/2+y,-z
1/2-x,1/2-y,-z
1/2+x,1/2-y,z
loop_
_atom_site_type_symbol
_atom_site_label
_atom_site_fract_x
_atom_site_fract_y
_atom_site_fract_z
Si Si1 0.754045 0.236496 0.599266
Si Si2 0.717390 0.500000 0.948550
Si Si3 0.350265 0.500000 0.494510
Si Si4 0.002985 0.608088 0.716968
Si Si5 0.222898 0.631974 0.333505
Si Si6 0.977999 0.000000 0.242097
O O1 0.750000 0.250000 0.500000
O O2 0.612168 0.172862 0.702671
O O3 0.652154 0.300800 0.701743
O O4 0.000000 0.222249 0.500000
O O5 0.866336 0.564958 0.855996
O O6 0.500000 0.500000 0.000000
O O7 0.680788 0.500000 0.070635
O O8 0.500000 0.500000 0.500000
O O9 0.515624 0.500000 0.325704
O O10 0.194941 0.564701 0.572153
O O11 0.826570 0.634677 0.741187
O O12 0.349666 0.565775 0.286600
O O13 0.000000 0.630159 0.500000
#
# Coordination Sequence:
#
# PCOD8113658 Si02
#       6
#     8   4   4   8   8   4
#     4  11  20  34  57  92 125 155 198 258 316 360
#     4  11  23  37  66  88 122 165 202 260 297 369
#     4  11  22  36  62  90 119 157 197 262 309 360
#     4  11  21  38  57  93 125 151 208 253 310 363
#     4  11  19  32  61  91 117 153 197 263 304 352
#     4  12  20  38  62  91 117 156 214 243 300 363
#
# _framework density 18.828666999999999
#
# number of rings (size 3 to 8) (size 9 to 14) (size 15 to 20)
#    0.000    0.889    8.889    1.667    0.000    0.000 
#    0.000    3.333    0.000    0.000    0.000    0.000 
#    0.000    0.000    0.000    0.000    0.000    0.000 
#
# Total GULP energy -223066.972756 kJ/mol
# GULP energy per Si atom -12392.609598 kJ/mol
# Density = 1.878581 g / cm^3
# Si number density = 18.828667 Si / 1000 Ang^3
#
#
#
# Elastic Constant Matrix: (Units=GPa)
#
#
# Indices 1 2 3 4 5 6 
#
# 1 119.0409 52.7559 26.5243 0.0071 14.6597 -0.0017
# 2 52.7559 195.6960 52.8334 -0.0198 -1.6129 0.0013
# 3 26.5243 52.8334 73.0773 -0.0299 32.2483 0.0095
# 4 0.0071 -0.0198 -0.0299 33.7965 0.0126 -7.2895
# 5 14.6597 -1.6129 32.2483 0.0126 22.9310 -0.0014
# 6 -0.0017 0.0013 0.0095 -7.2895 -0.0014 38.1148
#
#
#
# Elastic Compliance Matrix: (Units=1/GPa)
#
#
# Indices 1 2 3 4 5 6 
#
# 1 0.011380 -0.005559 0.008623 0.000009 -0.019793 0.000000
# 2 -0.005559 0.014333 -0.027301 -0.000030 0.042956 0.000002
# 3 0.008623 -0.027301 0.088487 0.000109 -0.131874 -0.000005
# 4 0.000009 -0.000030 0.000109 0.030862 -0.000177 0.005902
# 5 -0.019793 0.042956 -0.131874 -0.000177 0.244741 0.000006
# 6 0.000000 0.000002 -0.000005 0.005902 0.000006 0.027365
#
#
# Mechanical properties :
#
#
# Convention : Reuss Voigt Hill
#
# Bulk Modulus (GPa) = 15.21462 72.44906 43.83184
# Shear Modulus (GPa) = 10.25531 36.01515 23.13523
#
# Velocity S-wave (km/s) = 2.33634 4.37828 3.50912
# Velocity P-wave (km/s) = 3.92123 8.00754 6.30463
#
# Compressibility (1/GPa) = 0.06572626
#
# Stress axis : x y z
#
# Youngs Moduli (GPa) = 87.87182 69.76801 11.30109
#
# Poissons Ratio (x) = 0.38784 -0.09745
# Poissons Ratio (y) = 0.48848 0.30853
# Poissons Ratio (z) = -0.75770 1.90473
#
# Static dielectric constant tensor:
#      x y z
#    x 4.128730 0.000540 -0.012510 
#    y 0.000540 3.717310 -0.000040 
#    z -0.012510 -0.000040 3.337440 
# 
# 
# High freq. dielectric constant tensor:
#      x y z
#    x 1.726040 0.000000 0.007240 
#    y 0.000000 1.755230 0.000000 
#    z 0.007240 0.000000 1.695670 
# 
# From -- ./inp_files/47942.got.cif
#   From: 2010.06.25/outbox.cif.g09.slc.cpg/sg12_24_cif.got.tgz:47942.got - 2010.06.28 00:19:55.
