data_PCOD8113862
_publ_section_title
;
Structure prediction by ZEFSAII (Michael W. Deem and Ramdas Pophale) SiO2 
 PCOD8113862
Probable space group: C 2/M
;
_chemical_formula_sum "Si O2"
_cell_formula_units_Z 56
_cell_length_a 12.931631
_cell_length_b 29.320312
_cell_length_c 8.440668
_cell_angle_alpha 90.000000
_cell_angle_beta 71.946689
_cell_angle_gamma 90.000000
_cell_volume 3042.800858
_symmetry_space_group_name_H-M "C 2/M"
_symmetry_group_IT_number 12
_symmetry_cell_setting 'monoclinic'
loop_
_space_group_symop_operation_xyz
x,y,z
-x,y,-z
-x,-y,-z
x,-y,z
1/2+x,1/2+y,z
1/2-x,1/2+y,-z
1/2-x,1/2-y,-z
1/2+x,1/2-y,z
loop_
_atom_site_type_symbol
_atom_site_label
_atom_site_fract_x
_atom_site_fract_y
_atom_site_fract_z
Si Si1 0.647336 0.299549 0.590953
Si Si2 0.001717 0.270578 0.817955
Si Si3 0.169500 0.869322 0.066158
Si Si4 0.237827 0.714795 0.149556
Si Si5 0.378215 0.449665 0.120334
Si Si6 0.282600 0.190567 0.229766
Si Si7 0.543391 0.606122 0.648037
O O1 0.537924 0.270532 0.682656
O O2 0.740502 0.288941 0.673338
O O3 0.698019 0.288899 0.395586
O O4 0.623793 0.352587 0.583193
O O5 0.094252 0.310447 0.765039
O O6 0.890579 0.294263 0.815260
O O7 0.000000 0.251887 0.000000
O O8 0.253375 0.859433 0.172641
O O9 0.049751 0.875043 0.191843
O O10 0.179008 0.823701 0.956796
O O11 0.195308 0.914692 0.950292
O O12 0.273108 0.769175 0.093611
O O13 0.324035 0.500000 0.139125
O O14 0.387137 0.433407 0.298645
O O15 0.500000 0.452184 0.000000
O O16 0.500000 0.587248 0.500000
#
# Coordination Sequence:
#
# PCOD8113862 Si02
#       7
#     8   8   8   8   8   8   8
#     4  11  24  35  51  75 112 146 188 223 265 318
#     4  11  23  33  52  75 106 150 193 231 258 302
#     4  11  20  34  55  76 110 139 180 223 264 325
#     4  11  22  35  53  74 105 149 189 221 263 307
#     4   9  20  37  57  82 106 136 178 223 276 334
#     4  11  23  37  49  78 112 147 188 228 263 317
#     4  11  21  33  55  80 109 145 176 219 275 326
#
# _framework density 18.404098000000001
#
# number of rings (size 3 to 8) (size 9 to 14) (size 15 to 20)
#    0.000    1.286    4.286    3.000    6.000    2.000 
#    0.000    0.000    0.000    0.000    0.000    2.000 
#    0.000    1.143    0.000    0.000    0.000    0.000 
#
# Total GULP energy -346894.051762 kJ/mol
# GULP energy per Si atom -12389.073277 kJ/mol
# Density = 1.836221 g / cm^3
# Si number density = 18.404098 Si / 1000 Ang^3
#
#
#
# Elastic Constant Matrix: (Units=GPa)
#
#
# Indices 1 2 3 4 5 6 
#
# 1 75.1173 29.4157 24.8489 0.0000 3.9211 0.0000
# 2 29.4157 99.1433 49.5108 0.0000 14.9368 0.0000
# 3 24.8489 49.5108 92.4611 0.0000 3.0462 0.0000
# 4 0.0000 0.0000 0.0000 9.0371 0.0000 4.6027
# 5 3.9211 14.9368 3.0462 0.0000 25.4702 0.0000
# 6 0.0000 0.0000 0.0000 4.6027 0.0000 23.9686
#
#
#
# Elastic Compliance Matrix: (Units=1/GPa)
#
#
# Indices 1 2 3 4 5 6 
#
# 1 0.015417 -0.003401 -0.002319 0.000000 -0.000102 0.000000
# 2 -0.003401 0.015982 -0.007381 0.000000 -0.007966 0.000000
# 3 -0.002319 -0.007381 0.015297 0.000000 0.002856 0.000000
# 4 0.000000 0.000000 0.000000 0.122651 0.000000 -0.023553
# 5 -0.000102 -0.007966 0.002856 0.000000 0.043607 0.000000
# 6 0.000000 0.000000 0.000000 -0.023553 0.000000 0.046244
#
#
# Mechanical properties :
#
#
# Convention : Reuss Voigt Hill
#
# Bulk Modulus (GPa) = 48.79645 52.69694 50.74670
# Shear Modulus (GPa) = 17.10976 22.55826 19.83401
#
# Velocity S-wave (km/s) = 3.05236 3.50483 3.28639
# Velocity P-wave (km/s) = 6.24452 6.71370 6.48336
#
# Compressibility (1/GPa) = 0.02049329
#
# Stress axis : x y z
#
# Youngs Moduli (GPa) = 64.86508 62.57131 65.37212
#
# Poissons Ratio (x) = 0.21279 0.15159
# Poissons Ratio (y) = 0.22059 0.48254
# Poissons Ratio (z) = 0.15041 0.46187
#
# Static dielectric constant tensor:
#      x y z
#    x 3.399430 0.000000 0.241090 
#    y 0.000000 3.444650 0.000000 
#    z 0.241090 0.000000 3.849350 
# 
# 
# High freq. dielectric constant tensor:
#      x y z
#    x 1.695270 0.000000 0.018690 
#    y 0.000000 1.673570 0.000000 
#    z 0.018690 0.000000 1.740640 
# 
# From -- ./inp_files/66505.got.cif
#   From: 2010.06.25/outbox.cif.g09.slc.cpg/sg12_34_cif.got.tgz:66505.got - 2010.06.28 00:19:55.
