data_PCOD8113141
_publ_section_title
;
Structure prediction by ZEFSAII (Michael W. Deem and Ramdas Pophale) SiO2 
 PCOD8113141
Probable space group: C 2/M
;
_chemical_formula_sum "Si O2"
_cell_formula_units_Z 32
_cell_length_a 11.067489
_cell_length_b 21.570711
_cell_length_c 7.764093
_cell_angle_alpha 90.000000
_cell_angle_beta 50.741639
_cell_angle_gamma 90.000000
_cell_volume 1435.204276
_symmetry_space_group_name_H-M "C 2/M"
_symmetry_group_IT_number 12
_symmetry_cell_setting 'monoclinic'
loop_
_space_group_symop_operation_xyz
x,y,z
-x,y,-z
-x,-y,-z
x,-y,z
1/2+x,1/2+y,z
1/2-x,1/2+y,-z
1/2-x,1/2-y,-z
1/2+x,1/2-y,z
loop_
_atom_site_type_symbol
_atom_site_label
_atom_site_fract_x
_atom_site_fract_y
_atom_site_fract_z
Si Si1 0.748463 0.500000 0.709793
Si Si2 0.663246 0.129549 0.300391
Si Si3 0.664761 0.684880 0.554927
Si Si4 0.456866 0.500000 0.773584
Si Si5 0.837724 0.132904 0.797220
O O1 0.861663 0.557900 0.631177
O O2 0.645989 0.500000 0.625098
O O3 0.620259 0.500000 0.973136
O O4 0.500000 0.163487 0.500000
O O5 0.804255 0.149904 0.294786
O O6 0.705910 0.140942 0.062408
O O7 0.750000 0.750000 0.500000
O O8 0.476410 0.683007 0.708412
O O9 0.737381 0.650994 0.319721
O O10 0.403876 0.562651 0.722279
#
# Coordination Sequence:
#
# PCOD8113141 Si02
#       5
#     4   8   8   4   8
#     4   9  17  35  65 100 131 163 206 266 335 397
#     4  11  23  41  65  97 134 171 208 266 335 388
#     4  11  25  42  63  93 125 173 227 264 320 376
#     4   9  16  36  72 100 123 163 214 273 332 380
#     4  10  23  44  69  98 128 168 221 273 321 395
#
# _framework density 22.296478
#
# number of rings (size 3 to 8) (size 9 to 14) (size 15 to 20)
#    0.000    1.750    2.500    1.125    3.500    5.000 
#    4.500    0.000    0.000    6.000    0.000    0.000 
#    0.000    0.000    0.000    0.000    0.000    0.000 
#
# Total GULP energy -198214.786514 kJ/mol
# GULP energy per Si atom -12388.424157 kJ/mol
# Density = 2.224573 g / cm^3
# Si number density = 22.296478 Si / 1000 Ang^3
#
#
#
# Elastic Constant Matrix: (Units=GPa)
#
#
# Indices 1 2 3 4 5 6 
#
# 1 64.9972 24.4909 34.6532 0.0000 15.7171 0.0000
# 2 24.4909 115.2652 24.7867 0.0000 6.5704 0.0000
# 3 34.6532 24.7867 132.8419 0.0000 10.0891 0.0000
# 4 0.0000 0.0000 0.0000 30.9995 0.0000 -7.2945
# 5 15.7171 6.5704 10.0891 0.0000 42.9846 0.0000
# 6 0.0000 0.0000 0.0000 -7.2945 0.0000 60.1844
#
#
#
# Elastic Compliance Matrix: (Units=1/GPa)
#
#
# Indices 1 2 3 4 5 6 
#
# 1 0.020240 -0.003046 -0.004261 0.000000 -0.005935 0.000000
# 2 -0.003046 0.009539 -0.000977 0.000000 -0.000115 0.000000
# 3 -0.004261 -0.000977 0.008850 0.000000 -0.000370 0.000000
# 4 0.000000 0.000000 0.000000 0.033206 0.000000 0.004025
# 5 -0.005935 -0.000115 -0.000370 0.000000 0.025539 0.000000
# 6 0.000000 0.000000 0.000000 0.004025 0.000000 0.017103
#
#
# Mechanical properties :
#
#
# Convention : Reuss Voigt Hill
#
# Bulk Modulus (GPa) = 45.32637 53.44066 49.38351
# Shear Modulus (GPa) = 36.12804 42.11194 39.11999
#
# Velocity S-wave (km/s) = 4.02972 4.35066 4.19326
# Velocity P-wave (km/s) = 6.48264 7.01840 6.75583
#
# Compressibility (1/GPa) = 0.02206221
#
# Stress axis : x y z
#
# Youngs Moduli (GPa) = 49.40788 104.82838 113.00059
#
# Poissons Ratio (x) = 0.31930 0.48146
# Poissons Ratio (y) = 0.15049 0.11036
# Poissons Ratio (z) = 0.21051 0.10238
#
# Static dielectric constant tensor:
#      x y z
#    x 3.974570 0.000000 0.273540 
#    y 0.000000 6.331030 0.000000 
#    z 0.273540 0.000000 3.888210 
# 
# 
# High freq. dielectric constant tensor:
#      x y z
#    x 1.871280 0.000000 0.015420 
#    y 0.000000 1.872990 0.000000 
#    z 0.015420 0.000000 1.875040 
# 
# From -- ./inp_files/48319.got.cif
#   From: 2010.06.25/outbox.cif.g09.slc.cpg/sg12_25_cif.got.tgz:48319.got - 2010.06.28 00:19:55.
