data_PCOD8113148
_publ_section_title
;
Structure prediction by ZEFSAII (Michael W. Deem and Ramdas Pophale) SiO2 
 PCOD8113148
Probable space group: C 2/M
;
_chemical_formula_sum "Si O2"
_cell_formula_units_Z 64
_cell_length_a 25.115924
_cell_length_b 14.532822
_cell_length_c 12.371240
_cell_angle_alpha 90.000000
_cell_angle_beta 139.260127
_cell_angle_gamma 90.000000
_cell_volume 2946.976102
_symmetry_space_group_name_H-M "C 2/M"
_symmetry_group_IT_number 12
_symmetry_cell_setting 'monoclinic'
loop_
_space_group_symop_operation_xyz
x,y,z
-x,y,-z
-x,-y,-z
x,-y,z
1/2+x,1/2+y,z
1/2-x,1/2+y,-z
1/2-x,1/2-y,-z
1/2+x,1/2-y,z
loop_
_atom_site_type_symbol
_atom_site_label
_atom_site_fract_x
_atom_site_fract_y
_atom_site_fract_z
Si Si1 0.401817 0.401066 0.643427
Si Si2 0.256276 0.857624 0.705409
Si Si3 0.877101 0.899557 0.852821
Si Si4 0.294281 0.154565 0.378347
Si Si5 0.610619 0.898290 0.263469
Si Si6 0.906979 0.394234 0.361825
Si Si7 0.512750 0.752487 0.865515
Si Si8 0.869178 0.394943 0.062594
O O1 0.448290 0.500000 0.708807
O O2 0.327250 0.411128 0.445038
O O3 0.365518 0.384110 0.707260
O O4 0.459799 0.314179 0.704639
O O5 0.239521 0.754174 0.644945
O O6 0.331008 0.894667 0.749839
O O7 0.283023 0.872529 0.871537
O O8 0.788165 0.902607 0.772527
O O9 0.917745 0.000000 0.938391
O O10 0.934059 0.817056 0.980812
O O11 0.341013 0.112423 0.551004
O O12 0.354449 0.160543 0.368911
O O13 0.544006 0.817670 0.147313
O O14 0.569730 0.000000 0.201599
O O15 0.909815 0.500000 0.403598
O O16 0.859786 0.381947 0.176229
O O17 0.000000 0.356192 0.500000
O O18 0.564264 0.821200 0.872095
O O19 0.897566 0.500000 0.081667
#
# Coordination Sequence:
#
# PCOD8113148 Si02
#       8
#     8   8   8   8   8   8   8   8
#     4  11  23  41  63  90 132 181 220 267 323 386
#     4  12  24  42  62  96 136 172 216 262 327 405
#     4  11  23  40  62  94 132 172 224 274 320 380
#     4  12  22  42  72  95 125 171 225 276 319 380
#     4  12  24  40  66  99 137 178 216 264 326 392
#     4  10  23  44  70  99 127 164 219 278 331 379
#     4  12  24  38  60  94 133 174 219 268 320 389
#     4  11  25  44  64  93 133 172 212 268 330 390
#
# _framework density 21.717175999999998
#
# number of rings (size 3 to 8) (size 9 to 14) (size 15 to 20)
#    0.000    0.625    3.750    5.250    1.750    2.500 
#    0.000    1.250    0.000    0.000    0.000    0.875 
#    0.000    0.000    0.000    0.000    0.000    0.000 
#
# Total GULP energy -396701.953766 kJ/mol
# GULP energy per Si atom -12396.936055 kJ/mol
# Density = 2.166775 g / cm^3
# Si number density = 21.717176 Si / 1000 Ang^3
#
#
#
# Elastic Constant Matrix: (Units=GPa)
#
#
# Indices 1 2 3 4 5 6 
#
# 1 66.0257 33.7650 51.3462 0.0000 8.0170 0.0000
# 2 33.7650 155.9700 25.3573 0.0000 11.2607 0.0000
# 3 51.3462 25.3573 124.6700 0.0000 8.0647 0.0000
# 4 0.0000 0.0000 0.0000 54.6812 0.0000 22.2140
# 5 8.0170 11.2607 8.0647 0.0000 32.5735 0.0000
# 6 0.0000 0.0000 0.0000 22.2140 0.0000 31.0145
#
#
#
# Elastic Compliance Matrix: (Units=1/GPa)
#
#
# Indices 1 2 3 4 5 6 
#
# 1 0.024423 -0.003618 -0.009162 0.000000 -0.002492 0.000000
# 2 -0.003618 0.007296 0.000113 0.000000 -0.001660 0.000000
# 3 -0.009162 0.000113 0.011817 0.000000 -0.000710 0.000000
# 4 0.000000 0.000000 0.000000 0.025793 0.000000 -0.018474
# 5 -0.002492 -0.001660 -0.000710 0.000000 0.032063 0.000000
# 6 0.000000 0.000000 0.000000 -0.018474 0.000000 0.045475
#
#
# Mechanical properties :
#
#
# Convention : Reuss Voigt Hill
#
# Bulk Modulus (GPa) = 54.93219 63.06696 58.99957
# Shear Modulus (GPa) = 28.04770 39.40031 33.72401
#
# Velocity S-wave (km/s) = 3.59764 4.26402 3.94493
# Velocity P-wave (km/s) = 6.52738 7.30381 6.92648
#
# Compressibility (1/GPa) = 0.01820426
#
# Stress axis : x y z
#
# Youngs Moduli (GPa) = 40.94474 137.05967 84.62099
#
# Poissons Ratio (x) = 0.49585 0.77528
# Poissons Ratio (y) = 0.14813 -0.00960
# Poissons Ratio (z) = 0.37513 -0.01554
#
# Static dielectric constant tensor:
#      x y z
#    x 3.630270 0.000000 0.204580 
#    y 0.000000 4.262620 0.000000 
#    z 0.204580 0.000000 4.200260 
# 
# 
# High freq. dielectric constant tensor:
#      x y z
#    x 1.807830 0.000000 0.013750 
#    y 0.000000 1.877350 0.000000 
#    z 0.013750 0.000000 1.864910 
# 
# From -- ./inp_files/183824.got.cif
#   From: 2010.06.25/outbox.cif.g09.slc.cpg/sg12_92_cif.got.tgz:183824.got - 2010.06.28 00:19:55.
