data_PCOD8113729
_publ_section_title
;
Structure prediction by ZEFSAII (Michael W. Deem and Ramdas Pophale) SiO2 
 PCOD8113729
Probable space group: C 2/M
;
_chemical_formula_sum "Si O2"
_cell_formula_units_Z 32
_cell_length_a 9.971770
_cell_length_b 20.658147
_cell_length_c 7.320235
_cell_angle_alpha 90.000000
_cell_angle_beta 87.583692
_cell_angle_gamma 90.000000
_cell_volume 1506.615128
_symmetry_space_group_name_H-M "C 2/M"
_symmetry_group_IT_number 12
_symmetry_cell_setting 'monoclinic'
loop_
_space_group_symop_operation_xyz
x,y,z
-x,y,-z
-x,-y,-z
x,-y,z
1/2+x,1/2+y,z
1/2-x,1/2+y,-z
1/2-x,1/2-y,-z
1/2+x,1/2-y,z
loop_
_atom_site_type_symbol
_atom_site_label
_atom_site_fract_x
_atom_site_fract_y
_atom_site_fract_z
Si Si1 0.575003 0.000000 0.266022
Si Si2 0.852939 0.871509 0.584007
Si Si3 0.614423 0.134958 0.340109
Si Si4 0.707919 0.000000 0.656178
Si Si5 0.881627 0.238549 0.877074
O O1 0.631818 0.928868 0.205795
O O2 0.623209 0.000000 0.475447
O O3 0.419871 0.000000 0.200350
O O4 0.756951 0.849147 0.424391
O O5 0.851835 0.815600 0.731324
O O6 0.000000 0.884716 0.500000
O O7 0.800222 0.937407 0.678982
O O8 0.500000 0.121165 0.500000
O O9 0.569629 0.195578 0.222252
O O10 0.750000 0.250000 0.000000
O O11 0.000000 0.213563 0.000000
#
# Coordination Sequence:
#
# PCOD8113729 Si02
#       5
#     4   8   8   4   8
#     4   9  16  34  64  95 108 137 202 256 286 330
#     4  11  21  38  62  90 115 153 199 240 294 350
#     4  11  19  39  66  87 114 152 201 246 286 343
#     4   9  17  34  62  92 114 140 194 255 290 333
#     4  12  26  40  55  86 127 162 193 237 291 349
#
# _framework density 21.239664999999999
#
# number of rings (size 3 to 8) (size 9 to 14) (size 15 to 20)
#    0.000    1.250    5.000    4.875    0.000    0.000 
#    0.000    2.500    0.000    0.000    0.000    0.000 
#    0.000    0.000    0.000    0.000    0.000    0.000 
#
# Total GULP energy -198230.373025 kJ/mol
# GULP energy per Si atom -12389.398314 kJ/mol
# Density = 2.119132 g / cm^3
# Si number density = 21.239665 Si / 1000 Ang^3
#
#
#
# Elastic Constant Matrix: (Units=GPa)
#
#
# Indices 1 2 3 4 5 6 
#
# 1 149.5336 35.0846 29.5237 0.0000 9.2994 0.0000
# 2 35.0846 195.4706 45.5172 0.0000 5.0161 0.0000
# 3 29.5237 45.5172 36.7181 0.0000 4.9095 0.0000
# 4 0.0000 0.0000 0.0000 -11.2182 0.0000 -0.1903
# 5 9.2994 5.0161 4.9095 0.0000 23.4133 0.0000
# 6 0.0000 0.0000 0.0000 -0.1903 0.0000 34.0475
#
#
#
# Elastic Compliance Matrix: (Units=1/GPa)
#
#
# Indices 1 2 3 4 5 6 
#
# 1 0.008031 0.000073 -0.006295 0.000000 -0.001885 0.000000
# 2 0.000073 0.007195 -0.009021 0.000000 0.000321 0.000000
# 3 -0.006295 -0.009021 0.044124 0.000000 -0.004819 0.000000
# 4 0.000000 0.000000 0.000000 -0.089132 0.000000 -0.000498
# 5 -0.001885 0.000321 -0.004819 0.000000 0.044401 0.000000
# 6 0.000000 0.000000 0.000000 -0.000498 0.000000 0.029368
#
#
# Mechanical properties :
#
#
# Convention : Reuss Voigt Hill
#
# Bulk Modulus (GPa) = 34.64725 66.88593 50.76659
# Shear Modulus (GPa) = 59.45735 27.35498 43.40616
#
# Velocity S-wave (km/s) = 5.29663 3.59265 4.52556
# Velocity P-wave (km/s) = 7.33169 6.98348 7.15970
#
# Compressibility (1/GPa) = 0.02886232
#
# Stress axis : x y z
#
# Youngs Moduli (GPa) = 124.52456 138.98264 22.66363
#
# Poissons Ratio (x) = -0.01014 0.14268
# Poissons Ratio (y) = -0.00908 0.20445
# Poissons Ratio (z) = 0.78394 1.25376
#
# Static dielectric constant tensor:
#      x y z
#    x 4.241100 0.000000 -0.053760 
#    y 0.000000 6.298330 0.000000 
#    z -0.053760 0.000000 3.578740 
# 
# 
# High freq. dielectric constant tensor:
#      x y z
#    x 1.843090 0.000000 0.015670 
#    y 0.000000 1.861910 0.000000 
#    z 0.015670 0.000000 1.792940 
# 
# From -- ./inp_files/37692.got.cif
#   From: 2010.06.25/outbox.cif.g09.slc.cpg/sg12_19_cif.got.tgz:37692.got - 2010.06.28 00:19:55.
