data_PCOD8113382
_publ_section_title
;
Structure prediction by ZEFSAII (Michael W. Deem and Ramdas Pophale) SiO2 
 PCOD8113382
Probable space group: C 2/M
;
_chemical_formula_sum "Si O2"
_cell_formula_units_Z 56
_cell_length_a 13.737510
_cell_length_b 19.796851
_cell_length_c 14.651968
_cell_angle_alpha 90.000000
_cell_angle_beta 138.675958
_cell_angle_gamma 90.000000
_cell_volume 2631.191617
_symmetry_space_group_name_H-M "C 2/M"
_symmetry_group_IT_number 12
_symmetry_cell_setting 'monoclinic'
loop_
_space_group_symop_operation_xyz
x,y,z
-x,y,-z
-x,-y,-z
x,-y,z
1/2+x,1/2+y,z
1/2-x,1/2+y,-z
1/2-x,1/2-y,-z
1/2+x,1/2-y,z
loop_
_atom_site_type_symbol
_atom_site_label
_atom_site_fract_x
_atom_site_fract_y
_atom_site_fract_z
Si Si1 0.139760 0.261897 0.004152
Si Si2 0.206072 0.423177 0.370902
Si Si3 0.420538 0.388929 0.033519
Si Si4 0.675296 0.804059 0.222433
Si Si5 0.660317 0.422924 0.346896
Si Si6 0.156766 0.327809 0.633550
Si Si7 0.113856 0.575879 0.770648
O O1 0.213606 0.302170 0.141178
O O2 0.250000 0.250000 0.000000
O O3 0.086270 0.189175 0.998976
O O4 0.998637 0.306405 0.876936
O O5 0.214673 0.500000 0.339312
O O6 0.246385 0.370510 0.318793
O O7 0.331183 0.413030 0.537492
O O8 0.039656 0.408045 0.287866
O O9 0.512188 0.397086 0.192494
O O10 0.500000 0.423235 0.000000
O O11 0.258345 0.421039 0.938741
O O12 0.733048 0.733861 0.303394
O O13 0.682207 0.500000 0.335914
O O14 0.803960 0.384635 0.412090
O O15 0.154882 0.364532 0.729568
O O16 0.000000 0.296624 0.500000
O O17 0.103771 0.500000 0.721116
#
# Coordination Sequence:
#
# PCOD8113382 Si02
#       7
#     8   8   8   8   8   8   8
#     4  11  21  39  69  96 129 165 214 276 334 387
#     4  10  24  44  66  90 129 180 224 270 325 392
#     4  12  20  37  56  96 137 169 213 272 339 399
#     4  11  23  44  63  98 132 167 220 275 328 395
#     4  11  22  37  60  93 133 177 219 269 333 399
#     4  12  22  36  58  97 133 170 221 273 337 395
#     4  11  21  35  60  95 132 172 217 270 333 400
#
# _framework density 21.283131999999998
#
# number of rings (size 3 to 8) (size 9 to 14) (size 15 to 20)
#    0.000    0.857    7.143    1.714    0.000    1.714 
#    2.571    1.429    0.000    2.143    0.000    0.000 
#    0.000    0.000    0.000    0.000    0.000    0.000 
#
# Total GULP energy -346926.692408 kJ/mol
# GULP energy per Si atom -12390.239015 kJ/mol
# Density = 2.123469 g / cm^3
# Si number density = 21.283132 Si / 1000 Ang^3
#
#
#
# Elastic Constant Matrix: (Units=GPa)
#
#
# Indices 1 2 3 4 5 6 
#
# 1 86.0374 32.6603 43.0710 -0.0002 -15.8811 -0.0001
# 2 32.6603 132.6146 47.9224 -0.0001 -28.4133 0.0000
# 3 43.0710 47.9224 134.8037 -0.0002 -8.8245 -0.0001
# 4 -0.0002 -0.0001 -0.0002 30.8097 -0.0002 -10.5957
# 5 -15.8811 -28.4133 -8.8245 -0.0002 25.9798 -0.0001
# 6 -0.0001 0.0000 -0.0001 -10.5957 -0.0001 23.9798
#
#
#
# Elastic Compliance Matrix: (Units=1/GPa)
#
#
# Indices 1 2 3 4 5 6 
#
# 1 0.015302 -0.000736 -0.004160 0.000000 0.007135 0.000000
# 2 -0.000736 0.011094 -0.003011 0.000000 0.010660 0.000000
# 3 -0.004160 -0.003011 0.009650 0.000000 -0.002558 0.000000
# 4 0.000000 0.000000 0.000000 0.038273 0.000001 0.016911
# 5 0.007135 0.010660 -0.002558 0.000001 0.053643 0.000000
# 6 0.000000 0.000000 0.000000 0.016911 0.000000 0.049174
#
#
# Mechanical properties :
#
#
# Convention : Reuss Voigt Hill
#
# Bulk Modulus (GPa) = 49.42767 66.75146 58.08956
# Shear Modulus (GPa) = 25.03805 31.47399 28.25602
#
# Velocity S-wave (km/s) = 3.43363 3.84972 3.64761
# Velocity P-wave (km/s) = 6.24452 7.15486 6.71514
#
# Compressibility (1/GPa) = 0.02023158
#
# Stress axis : x y z
#
# Youngs Moduli (GPa) = 65.35025 90.13845 103.62355
#
# Poissons Ratio (x) = 0.06638 0.43110
# Poissons Ratio (y) = 0.04812 0.31199
# Poissons Ratio (z) = 0.27188 0.27139
#
# Static dielectric constant tensor:
#      x y z
#    x 3.539860 0.000000 0.123530 
#    y 0.000000 3.841450 0.000000 
#    z 0.123530 0.000000 4.202730 
# 
# 
# High freq. dielectric constant tensor:
#      x y z
#    x 1.796460 0.000000 0.011440 
#    y 0.000000 1.833840 0.000000 
#    z 0.011440 0.000000 1.847000 
# 
# From -- ./inp_files/217741.got.cif
#   From: 2010.06.25/outbox.cif.g09.slc.cpg/sg12_109_cif.got.tgz:217741.got - 2010.06.28 00:19:55.
