data_PCOD8113607
_publ_section_title
;
Structure prediction by ZEFSAII (Michael W. Deem and Ramdas Pophale) SiO2 
 PCOD8113607
Probable space group: C 2/M
;
_chemical_formula_sum "Si O2"
_cell_formula_units_Z 40
_cell_length_a 9.921608
_cell_length_b 22.295946
_cell_length_c 10.264219
_cell_angle_alpha 90.000000
_cell_angle_beta 74.625401
_cell_angle_gamma 90.000000
_cell_volume 2189.308069
_symmetry_space_group_name_H-M "C 2/M"
_symmetry_group_IT_number 12
_symmetry_cell_setting 'monoclinic'
loop_
_space_group_symop_operation_xyz
x,y,z
-x,y,-z
-x,-y,-z
x,-y,z
1/2+x,1/2+y,z
1/2-x,1/2+y,-z
1/2-x,1/2-y,-z
1/2+x,1/2-y,z
loop_
_atom_site_type_symbol
_atom_site_label
_atom_site_fract_x
_atom_site_fract_y
_atom_site_fract_z
Si Si1 0.161425 0.615262 0.815444
Si Si2 0.559046 0.569251 0.345250
Si Si3 0.352150 0.758663 0.094010
Si Si4 0.636529 0.929374 0.112815
Si Si5 0.402354 0.372246 0.149749
O O1 0.274955 0.581591 0.697702
O O2 0.195978 0.686540 0.801505
O O3 0.007228 0.600746 0.800004
O O4 0.176239 0.592698 0.959361
O O5 0.500000 0.587898 0.500000
O O6 0.528891 0.500000 0.321777
O O7 0.484693 0.609797 0.256939
O O8 0.362738 0.697713 0.173563
O O9 0.500000 0.779478 0.000000
O O10 0.250000 0.750000 0.000000
O O11 0.761374 0.911170 0.177212
O O12 0.615529 0.000000 0.117719
O O13 0.500000 0.383607 0.000000
#
# Coordination Sequence:
#
# PCOD8113607 Si02
#       5
#     8   8   8   8   8
#     4  11  19  35  55  82 114 147 183 229 287 334
#     4  11  24  41  58  80 116 156 191 232 285 340
#     4  11  18  33  54  85 116 142 180 234 285 327
#     4  11  20  31  54  86 114 139 183 236 280 328
#     4  11  21  35  59  88 113 147 191 236 279 333
#
# _framework density 18.270613000000001
#
# number of rings (size 3 to 8) (size 9 to 14) (size 15 to 20)
#    0.000    1.000    6.000    4.200    0.000    0.800 
#    0.000    2.000    0.000    3.600    0.000    0.000 
#    0.000    0.000    0.000    0.000    0.000    0.000 
#
# Total GULP energy -248068.900040 kJ/mol
# GULP energy per Si atom -12403.445002 kJ/mol
# Density = 1.822903 g / cm^3
# Si number density = 18.270613 Si / 1000 Ang^3
#
#
#
# Elastic Constant Matrix: (Units=GPa)
#
#
# Indices 1 2 3 4 5 6 
#
# 1 126.8123 36.3291 43.5384 0.0000 -4.8486 0.0000
# 2 36.3291 134.9388 43.5871 0.0000 5.3394 0.0000
# 3 43.5384 43.5871 81.8629 0.0000 -8.2902 0.0000
# 4 0.0000 0.0000 0.0000 12.3195 0.0000 1.2090
# 5 -4.8486 5.3394 -8.2902 0.0000 23.9127 0.0000
# 6 0.0000 0.0000 0.0000 1.2090 0.0000 33.9191
#
#
#
# Elastic Compliance Matrix: (Units=1/GPa)
#
#
# Indices 1 2 3 4 5 6 
#
# 1 0.009804 -0.001215 -0.004497 0.000000 0.000700 0.000000
# 2 -0.001215 0.009443 -0.004789 0.000000 -0.004015 0.000000
# 3 -0.004497 -0.004789 0.017798 0.000000 0.006328 0.000000
# 4 0.000000 0.000000 0.000000 0.081457 0.000000 -0.002904
# 5 0.000700 -0.004015 0.006328 0.000000 0.045051 0.000000
# 6 0.000000 0.000000 0.000000 -0.002904 0.000000 0.029585
#
#
# Mechanical properties :
#
#
# Convention : Reuss Voigt Hill
#
# Bulk Modulus (GPa) = 62.32401 65.61369 63.96885
# Shear Modulus (GPa) = 22.78037 28.70756 25.74396
#
# Velocity S-wave (km/s) = 3.53488 3.96819 3.75779
# Velocity P-wave (km/s) = 7.13065 7.54887 7.34274
#
# Compressibility (1/GPa) = 0.01604518
#
# Stress axis : x y z
#
# Youngs Moduli (GPa) = 101.99624 105.89307 56.18765
#
# Poissons Ratio (x) = 0.12864 0.25265
# Poissons Ratio (y) = 0.12391 0.26906
# Poissons Ratio (z) = 0.45864 0.50708
#
# Static dielectric constant tensor:
#      x y z
#    x 3.665600 0.000000 -0.055360 
#    y 0.000000 3.636470 0.000000 
#    z -0.055360 0.000000 2.933900 
# 
# 
# High freq. dielectric constant tensor:
#      x y z
#    x 1.732140 0.000000 0.003650 
#    y 0.000000 1.730360 0.000000 
#    z 0.003650 0.000000 1.645370 
# 
# From -- ./inp_files/39354.got.cif
#   From: 2010.06.25/outbox.cif.g09.slc.cpg/sg12_20_cif.got.tgz:39354.got - 2010.06.28 00:19:55.
