data_PCOD8113715
_publ_section_title
;
Structure prediction by ZEFSAII (Michael W. Deem and Ramdas Pophale) SiO2 
 PCOD8113715
Probable space group: C 2/M
;
_chemical_formula_sum "Si O2"
_cell_formula_units_Z 40
_cell_length_a 23.977937
_cell_length_b 16.083738
_cell_length_c 9.320002
_cell_angle_alpha 90.000000
_cell_angle_beta 146.998298
_cell_angle_gamma 90.000000
_cell_volume 1957.687825
_symmetry_space_group_name_H-M "C 2/M"
_symmetry_group_IT_number 12
_symmetry_cell_setting 'monoclinic'
loop_
_space_group_symop_operation_xyz
x,y,z
-x,y,-z
-x,-y,-z
x,-y,z
1/2+x,1/2+y,z
1/2-x,1/2+y,-z
1/2-x,1/2-y,-z
1/2+x,1/2-y,z
loop_
_atom_site_type_symbol
_atom_site_label
_atom_site_fract_x
_atom_site_fract_y
_atom_site_fract_z
Si Si1 0.151473 0.206476 0.088304
Si Si2 0.620336 0.408466 0.270897
Si Si3 0.950055 0.722808 0.541135
Si Si4 0.284733 0.345975 0.249536
Si Si5 0.286927 0.904454 0.195656
O O1 0.171819 0.164650 0.287277
O O2 0.214628 0.290310 0.202201
O O3 0.185358 0.136991 0.045116
O O4 0.032380 0.234491 0.823389
O O5 0.652498 0.500000 0.282661
O O6 0.653655 0.404763 0.509160
O O7 0.500000 0.397652 0.000000
O O8 0.861033 0.789569 0.319704
O O9 0.891496 0.641082 0.477552
O O10 0.000000 0.696904 0.500000
O O11 0.219351 0.397427 0.992022
O O12 0.293350 0.000000 0.255480
#
# Coordination Sequence:
#
# PCOD8113715 Si02
#       5
#     8   8   8   8   8
#     4  11  21  40  61  81 117 161 191 232 289 355
#     4  11  23  37  56  85 117 147 193 246 289 332
#     4  11  19  38  61  86 116 151 197 235 283 349
#     4  11  21  38  61  84 115 155 196 233 286 354
#     4  11  23  37  60  91 120 149 191 244 293 337
#
# _framework density 20.432267
#
# number of rings (size 3 to 8) (size 9 to 14) (size 15 to 20)
#    0.000    1.000    6.000    3.000    0.000    0.400 
#    0.000    1.000    0.000    0.000    0.000    7.000 
#    0.000    0.000    0.000    0.000    0.000    0.000 
#
# Total GULP energy -247880.299831 kJ/mol
# GULP energy per Si atom -12394.014992 kJ/mol
# Density = 2.038576 g / cm^3
# Si number density = 20.432267 Si / 1000 Ang^3
#
#
#
# Elastic Constant Matrix: (Units=GPa)
#
#
# Indices 1 2 3 4 5 6 
#
# 1 52.3837 23.8094 29.0918 0.0000 2.1149 0.0000
# 2 23.8094 110.2891 40.5983 0.0000 7.4093 0.0000
# 3 29.0918 40.5983 77.9480 0.0000 8.4300 0.0000
# 4 0.0000 0.0000 0.0000 9.5427 0.0000 0.3634
# 5 2.1149 7.4093 8.4300 0.0000 34.0070 0.0000
# 6 0.0000 0.0000 0.0000 0.3634 0.0000 29.3790
#
#
#
# Elastic Compliance Matrix: (Units=1/GPa)
#
#
# Indices 1 2 3 4 5 6 
#
# 1 0.024611 -0.002424 -0.008030 0.000000 0.000988 0.000000
# 2 -0.002424 0.011491 -0.004959 0.000000 -0.001124 0.000000
# 3 -0.008030 -0.004959 0.018740 0.000000 -0.003066 0.000000
# 4 0.000000 0.000000 0.000000 0.104842 0.000000 -0.001297
# 5 0.000988 -0.001124 -0.003066 0.000000 0.030349 0.000000
# 6 0.000000 0.000000 0.000000 -0.001297 0.000000 0.034054
#
#
# Mechanical properties :
#
#
# Convention : Reuss Voigt Hill
#
# Bulk Modulus (GPa) = 41.63601 47.51331 44.57466
# Shear Modulus (GPa) = 19.01732 24.39383 21.70558
#
# Velocity S-wave (km/s) = 3.05413 3.45902 3.26286
# Velocity P-wave (km/s) = 5.73226 6.26559 6.00485
#
# Compressibility (1/GPa) = 0.02401767
#
# Stress axis : x y z
#
# Youngs Moduli (GPa) = 40.63207 87.02290 53.36066
#
# Poissons Ratio (x) = 0.21091 0.42848
# Poissons Ratio (y) = 0.09848 0.26462
# Poissons Ratio (z) = 0.32627 0.43155
#
# Static dielectric constant tensor:
#      x y z
#    x 3.602170 0.000000 0.165920 
#    y 0.000000 3.652170 0.000000 
#    z 0.165920 0.000000 3.802230 
# 
# 
# High freq. dielectric constant tensor:
#      x y z
#    x 1.792800 0.000000 0.006590 
#    y 0.000000 1.792620 0.000000 
#    z 0.006590 0.000000 1.786920 
# 
# From -- ./inp_files/46902.got.cif
#   From: 2010.06.25/outbox.cif.g09.slc.cpg/sg12_24_cif.got.tgz:46902.got - 2010.06.28 00:19:55.
