data_PCOD8113053
_publ_section_title
;
Structure prediction by ZEFSAII (Michael W. Deem and Ramdas Pophale) SiO2 
 PCOD8113053
Probable space group: C 2/M
;
_chemical_formula_sum "Si O2"
_cell_formula_units_Z 40
_cell_length_a 11.616918
_cell_length_b 17.039133
_cell_length_c 17.546516
_cell_angle_alpha 90.000000
_cell_angle_beta 148.447711
_cell_angle_gamma 90.000000
_cell_volume 1817.441864
_symmetry_space_group_name_H-M "C 2/M"
_symmetry_group_IT_number 12
_symmetry_cell_setting 'monoclinic'
loop_
_space_group_symop_operation_xyz
x,y,z
-x,y,-z
-x,-y,-z
x,-y,z
1/2+x,1/2+y,z
1/2-x,1/2+y,-z
1/2-x,1/2-y,-z
1/2+x,1/2-y,z
loop_
_atom_site_type_symbol
_atom_site_label
_atom_site_fract_x
_atom_site_fract_y
_atom_site_fract_z
Si Si1 0.531875 0.908672 0.321126
Si Si2 0.496921 0.409626 0.351094
Si Si3 0.384217 0.827047 0.787950
Si Si4 0.596203 0.659966 0.135423
Si Si5 0.216149 0.089751 0.925318
O O1 0.537356 0.851733 0.251577
O O2 0.325742 0.885516 0.256847
O O3 0.745986 0.892892 0.493195
O O4 0.516704 0.000000 0.287127
O O5 0.440876 0.500000 0.334324
O O6 0.358506 0.360612 0.334408
O O7 0.431162 0.382896 0.229203
O O8 0.377446 0.733643 0.793191
O O9 0.559305 0.860725 0.947492
O O10 0.423224 0.600866 0.076209
O O11 0.500000 0.686886 0.000000
O O12 0.287006 0.000000 0.958208
#
# Coordination Sequence:
#
# PCOD8113053 Si02
#       5
#     8   8   8   8   8
#     4  11  25  46  70  96 132 177 220 266 325 393
#     4  10  23  43  67  98 133 168 218 274 325 386
#     4  12  24  41  69  98 131 173 218 272 326 387
#     4  12  26  42  67  97 138 171 219 275 330 382
#     4  11  23  42  70  97 128 175 225 267 322 393
#
# _framework density 22.008956000000001
#
# number of rings (size 3 to 8) (size 9 to 14) (size 15 to 20)
#    0.000    0.800    2.000    5.400    2.800    5.600 
#    3.600    3.000    0.000    0.000    0.000    0.000 
#    0.000    0.000    0.000    0.000    0.000    0.000 
#
# Total GULP energy -248142.727177 kJ/mol
# GULP energy per Si atom -12407.136359 kJ/mol
# Density = 2.195886 g / cm^3
# Si number density = 22.008956 Si / 1000 Ang^3
#
#
#
# Elastic Constant Matrix: (Units=GPa)
#
#
# Indices 1 2 3 4 5 6 
#
# 1 71.7809 17.9261 13.7259 0.0022 13.7131 0.0009
# 2 17.9261 76.1062 31.7161 0.0056 2.1174 0.0023
# 3 13.7259 31.7161 112.2786 0.0180 12.0710 0.0058
# 4 0.0022 0.0056 0.0180 12.2344 0.0035 -0.8589
# 5 13.7131 2.1174 12.0710 0.0035 44.4981 -0.0003
# 6 0.0009 0.0023 0.0058 -0.8589 -0.0003 33.5871
#
#
#
# Elastic Compliance Matrix: (Units=1/GPa)
#
#
# Indices 1 2 3 4 5 6 
#
# 1 0.015738 -0.003381 -0.000479 0.000001 -0.004559 0.000000
# 2 -0.003381 0.015627 -0.004154 -0.000001 0.001425 0.000000
# 3 -0.000479 -0.004154 0.010405 -0.000013 -0.002477 -0.000002
# 4 0.000001 -0.000001 -0.000013 0.081884 -0.000003 0.002094
# 5 -0.004559 0.001425 -0.002477 -0.000003 0.024482 0.000001
# 6 0.000000 0.000000 -0.000002 0.002094 0.000001 0.029827
#
#
# Mechanical properties :
#
#
# Convention : Reuss Voigt Hill
#
# Bulk Modulus (GPa) = 38.84584 42.98912 40.91748
# Shear Modulus (GPa) = 24.68266 31.18376 27.93321
#
# Velocity S-wave (km/s) = 3.35249 3.76821 3.56641
# Velocity P-wave (km/s) = 5.71611 6.20544 5.96580
#
# Compressibility (1/GPa) = 0.02574278
#
# Stress axis : x y z
#
# Youngs Moduli (GPa) = 63.54012 63.99021 96.10954
#
# Poissons Ratio (x) = 0.21632 0.04602
# Poissons Ratio (y) = 0.21480 0.39927
# Poissons Ratio (z) = 0.03043 0.26584
#
# Static dielectric constant tensor:
#      x y z
#    x 3.888720 0.000000 0.056250 
#    y 0.000000 3.809050 0.000000 
#    z 0.056250 0.000000 4.140300 
# 
# 
# High freq. dielectric constant tensor:
#      x y z
#    x 1.868030 0.000000 0.008230 
#    y 0.000000 1.862620 0.000000 
#    z 0.008230 0.000000 1.875510 
# 
# From -- ./inp_files/46924.got.cif
#   From: 2010.06.25/outbox.cif.g09.slc.cpg/sg12_24_cif.got.tgz:46924.got - 2010.06.28 00:19:55.
