data_PCOD8113430
_publ_section_title
;
Structure prediction by ZEFSAII (Michael W. Deem and Ramdas Pophale) SiO2 
 PCOD8113430
Probable space group: C 2/M
;
_chemical_formula_sum "Si O2"
_cell_formula_units_Z 36
_cell_length_a 11.319019
_cell_length_b 24.790476
_cell_length_c 6.212161
_cell_angle_alpha 90.000000
_cell_angle_beta 111.236781
_cell_angle_gamma 90.000000
_cell_volume 1624.781211
_symmetry_space_group_name_H-M "C 2/M"
_symmetry_group_IT_number 12
_symmetry_cell_setting 'monoclinic'
loop_
_space_group_symop_operation_xyz
x,y,z
-x,y,-z
-x,-y,-z
x,-y,z
1/2+x,1/2+y,z
1/2-x,1/2+y,-z
1/2-x,1/2-y,-z
1/2+x,1/2-y,z
loop_
_atom_site_type_symbol
_atom_site_label
_atom_site_fract_x
_atom_site_fract_y
_atom_site_fract_z
Si Si1 0.364853 0.438411 0.008984
Si Si2 0.093480 0.695541 0.876888
Si Si3 0.720403 0.647193 0.710165
Si Si4 0.363930 0.100611 0.416585
Si Si5 0.000000 0.783382 0.500000
O O1 0.369580 0.500000 0.091669
O O2 0.341928 0.401364 0.198952
O O3 0.500000 0.421288 0.000000
O O4 0.251055 0.433313 0.760232
O O5 0.104454 0.654171 0.692065
O O6 0.044206 0.751133 0.741094
O O7 0.227538 0.694067 0.092758
O O8 0.000000 0.675177 0.000000
O O9 0.827095 0.620249 0.630889
O O10 0.615270 0.678127 0.498138
O O11 0.500000 0.068038 0.500000
#
# Coordination Sequence:
#
# PCOD8113430 Si02
#       5
#     8   8   8   8   4
#     4  10  24  45  69  97 128 164 211 268 326 384
#     4  11  22  40  62  91 132 173 213 267 313 374
#     4  11  24  41  66  93 133 169 213 266 320 378
#     4  11  22  43  67  94 130 172 214 262 320 383
#     4  12  24  38  61  98 125 176 220 260 314 382
#
# _framework density 22.156828999999998
#
# number of rings (size 3 to 8) (size 9 to 14) (size 15 to 20)
#    0.000    1.111    3.333    2.000    0.000    9.333 
#    0.000    3.889    0.000    0.000    0.000    0.000 
#    0.000    0.000    0.000    0.000    0.000    0.000 
#
# Total GULP energy -223026.923914 kJ/mol
# GULP energy per Si atom -12390.384662 kJ/mol
# Density = 2.210640 g / cm^3
# Si number density = 22.156829 Si / 1000 Ang^3
#
#
#
# Elastic Constant Matrix: (Units=GPa)
#
#
# Indices 1 2 3 4 5 6 
#
# 1 181.0928 58.4479 69.5699 0.0000 1.9892 0.0000
# 2 58.4479 90.4131 56.0008 0.0000 -0.1940 0.0000
# 3 69.5699 56.0008 98.1115 0.0000 -5.1606 0.0000
# 4 0.0000 0.0000 0.0000 -4.7173 0.0000 18.8819
# 5 1.9892 -0.1940 -5.1606 0.0000 46.6751 0.0000
# 6 0.0000 0.0000 0.0000 18.8819 0.0000 11.8784
#
#
#
# Elastic Compliance Matrix: (Units=1/GPa)
#
#
# Indices 1 2 3 4 5 6 
#
# 1 0.007983 -0.002521 -0.004265 0.000000 -0.000822 0.000000
# 2 -0.002521 0.017953 -0.008500 0.000000 -0.000758 0.000000
# 3 -0.004265 -0.008500 0.018182 0.000000 0.002157 0.000000
# 4 0.000000 0.000000 0.000000 -0.028792 0.000000 0.045768
# 5 -0.000822 -0.000758 0.002157 0.000000 0.021695 0.000000
# 6 0.000000 0.000000 0.000000 0.045768 0.000000 0.011434
#
#
# Mechanical properties :
#
#
# Convention : Reuss Voigt Hill
#
# Bulk Modulus (GPa) = 73.81923 81.96162 77.89043
# Shear Modulus (GPa) = 59.85001 23.14051 41.49526
#
# Velocity S-wave (km/s) = 5.20294 3.23522 4.33228
# Velocity P-wave (km/s) = 8.33566 7.14335 7.76243
#
# Compressibility (1/GPa) = 0.01354660
#
# Stress axis : x y z
#
# Youngs Moduli (GPa) = 125.26315 55.70145 54.99956
#
# Poissons Ratio (x) = 0.14040 0.23459
# Poissons Ratio (y) = 0.31575 0.46748
# Poissons Ratio (z) = 0.53428 0.47345
#
# Static dielectric constant tensor:
#      x y z
#    x 4.584630 0.000000 0.461960 
#    y 0.000000 3.642800 0.000000 
#    z 0.461960 0.000000 4.126360 
# 
# 
# High freq. dielectric constant tensor:
#      x y z
#    x 1.895870 0.000000 0.016050 
#    y 0.000000 1.847080 0.000000 
#    z 0.016050 0.000000 1.878930 
# 
# From -- ./inp_files/6949.got.cif
#   From: 2010.06.25/outbox.cif.g09.slc.cpg/sg12_4_cif.got.tgz:6949.got - 2010.06.28 00:19:55.
