data_PCOD8113799
_publ_section_title
;
Structure prediction by ZEFSAII (Michael W. Deem and Ramdas Pophale) SiO2 
 PCOD8113799
Probable space group: C 2/M
;
_chemical_formula_sum "Si O2"
_cell_formula_units_Z 56
_cell_length_a 22.095213
_cell_length_b 14.120908
_cell_length_c 18.102635
_cell_angle_alpha 90.000000
_cell_angle_beta 145.014890
_cell_angle_gamma 90.000000
_cell_volume 3238.416331
_symmetry_space_group_name_H-M "C 2/M"
_symmetry_group_IT_number 12
_symmetry_cell_setting 'monoclinic'
loop_
_space_group_symop_operation_xyz
x,y,z
-x,y,-z
-x,-y,-z
x,-y,z
1/2+x,1/2+y,z
1/2-x,1/2+y,-z
1/2-x,1/2-y,-z
1/2+x,1/2-y,z
loop_
_atom_site_type_symbol
_atom_site_label
_atom_site_fract_x
_atom_site_fract_y
_atom_site_fract_z
Si Si1 0.802562 0.272731 0.716774
Si Si2 0.500000 0.105754 0.087688
Si Si3 0.621141 0.391122 0.471989
Si Si4 0.878858 0.891122 0.229706
Si Si5 0.877776 0.107967 0.697744
Si Si6 0.877776 0.107967 0.057809
Si Si7 0.802562 0.272731 0.888349
O O1 0.691574 0.324237 0.593472
O O2 0.804618 0.174412 0.674540
O O3 0.817489 0.249368 0.817489
O O4 0.896106 0.340016 0.780145
O O5 0.500000 0.000000 0.121717
O O6 0.500000 0.099854 0.000000
O O7 0.396106 0.159984 0.012066
O O8 0.647678 0.500000 0.516740
O O9 0.500000 0.369273 0.370038
O O10 0.644127 0.369193 0.409530
O O11 0.855873 0.869193 0.121275
O O12 0.808426 0.824237 0.210324
O O13 0.852322 0.000000 0.221385
O O14 1.000000 0.125614 0.839452
O O15 0.846842 0.000000 0.684508
O O16 0.846842 0.000000 0.009177
O O17 0.804618 0.174412 0.934696
#
# Coordination Sequence:
#
# PCOD8113799 Si02
#       7
#     8   8   8   8   8   8   8
#     4  11  20  31  50  76 106 136 164 206 258 304
#     4   9  18  30  43  67 103 135 159 192 248 306
#     4   9  19  35  54  75  99 133 174 211 249 296
#     4   9  19  35  54  75  99 133 174 211 249 296
#     4   9  18  34  54  75 101 133 172 214 251 295
#     4   9  18  34  54  75 101 133 172 214 251 295
#     4  11  20  31  50  76 106 136 164 206 258 304
#
# _framework density 17.292403
#
# number of rings (size 3 to 8) (size 9 to 14) (size 15 to 20)
#    0.000    2.429    1.429    3.429    0.000    2.857 
#    0.000    2.857    0.000    0.857    0.000    2.000 
#    0.000    0.000    0.000    0.000    0.000    0.000 
#
# Total GULP energy -347268.311099 kJ/mol
# GULP energy per Si atom -12402.439682 kJ/mol
# Density = 1.725304 g / cm^3
# Si number density = 17.292403 Si / 1000 Ang^3
#
#
#
# Elastic Constant Matrix: (Units=GPa)
#
#
# Indices 1 2 3 4 5 6 
#
# 1 48.8929 24.2678 12.8321 0.0000 11.3512 0.0000
# 2 24.2678 79.4526 30.6399 0.0000 5.7301 0.0000
# 3 12.8321 30.6399 68.6421 0.0000 6.4083 0.0000
# 4 0.0000 0.0000 0.0000 28.5550 0.0000 2.2140
# 5 11.3512 5.7301 6.4083 0.0000 19.8969 0.0000
# 6 0.0000 0.0000 0.0000 2.2140 0.0000 26.0931
#
#
#
# Elastic Compliance Matrix: (Units=1/GPa)
#
#
# Indices 1 2 3 4 5 6 
#
# 1 0.027237 -0.007098 -0.000684 0.000000 -0.013275 0.000000
# 2 -0.007098 0.017152 -0.006440 0.000000 0.001184 0.000000
# 3 -0.000684 -0.006440 0.017899 0.000000 -0.003520 0.000000
# 4 0.000000 0.000000 0.000000 0.035252 0.000000 -0.002991
# 5 -0.013275 0.001184 -0.003520 0.000000 0.058625 0.000000
# 6 0.000000 0.000000 0.000000 -0.002991 0.000000 0.038578
#
#
# Mechanical properties :
#
#
# Convention : Reuss Voigt Hill
#
# Bulk Modulus (GPa) = 29.54662 36.94078 33.24370
# Shear Modulus (GPa) = 21.32468 23.52552 22.42510
#
# Velocity S-wave (km/s) = 3.51548 3.69243 3.60504
# Velocity P-wave (km/s) = 5.79670 6.29187 6.04935
#
# Compressibility (1/GPa) = 0.03384482
#
# Stress axis : x y z
#
# Youngs Moduli (GPa) = 36.71415 58.30150 55.86780
#
# Poissons Ratio (x) = 0.41383 0.03822
# Poissons Ratio (y) = 0.26060 0.35978
# Poissons Ratio (z) = 0.02512 0.37545
#
# Static dielectric constant tensor:
#      x y z
#    x 3.001770 0.000000 0.047720 
#    y 0.000000 3.214380 0.000000 
#    z 0.047720 0.000000 3.054830 
# 
# 
# High freq. dielectric constant tensor:
#      x y z
#    x 1.652820 0.000000 0.002780 
#    y 0.000000 1.669030 0.000000 
#    z 0.002780 0.000000 1.655910 
# 
# From -- ./inp_files/156725.got.cif
#   From: 2010.06.25/outbox.cif.g09.slc.cpg/sg12_79_cif.got.tgz:156725.got - 2010.06.28 00:19:55.
