data_PCOD8113448
_publ_section_title
;
Structure prediction by ZEFSAII (Michael W. Deem and Ramdas Pophale) SiO2 
 PCOD8113448
Probable space group: C 2/M
;
_chemical_formula_sum "Si O2"
_cell_formula_units_Z 48
_cell_length_a 19.188167
_cell_length_b 17.276258
_cell_length_c 14.983181
_cell_angle_alpha 90.000000
_cell_angle_beta 151.845211
_cell_angle_gamma 90.000000
_cell_volume 2343.667191
_symmetry_space_group_name_H-M "C 2/M"
_symmetry_group_IT_number 12
_symmetry_cell_setting 'monoclinic'
loop_
_space_group_symop_operation_xyz
x,y,z
-x,y,-z
-x,-y,-z
x,-y,z
1/2+x,1/2+y,z
1/2-x,1/2+y,-z
1/2-x,1/2-y,-z
1/2+x,1/2-y,z
loop_
_atom_site_type_symbol
_atom_site_label
_atom_site_fract_x
_atom_site_fract_y
_atom_site_fract_z
Si Si1 0.651443 0.676054 0.419925
Si Si2 0.319585 0.708007 0.993643
Si Si3 0.087565 0.588110 0.334332
Si Si4 0.898055 0.661316 0.965650
Si Si5 0.868007 0.088912 0.418820
Si Si6 0.422120 0.090669 0.322913
O O1 0.750000 0.750000 0.500000
O O2 0.488547 0.684220 0.198655
O O3 0.737045 0.603469 0.472689
O O4 0.637062 0.654493 0.509261
O O5 0.250000 0.750000 0.000000
O O6 0.304789 0.764799 0.892605
O O7 0.233923 0.630407 0.871523
O O8 0.052165 0.500000 0.274811
O O9 0.033574 0.613797 0.370285
O O10 0.001264 0.636380 0.163296
O O11 0.785715 0.593907 0.809185
O O12 0.000000 0.687926 0.000000
O O13 0.000000 0.108617 0.500000
O O14 0.883029 0.000000 0.471739
O O15 0.500000 0.121533 0.500000
O O16 0.389542 0.000000 0.291553
#
# Coordination Sequence:
#
# PCOD8113448 Si02
#       6
#     8   8   8   8   8   8
#     4  12  23  42  63  94 139 177 222 268 333 408
#     4  12  24  42  68  98 132 177 224 275 341 393
#     4  11  23  42  68  95 134 179 218 274 334 401
#     4  12  23  41  65  99 135 175 213 272 336 413
#     4  11  25  41  64 100 137 173 219 276 340 406
#     4  10  24  46  70  95 131 181 235 280 332 394
#
# _framework density 20.480723000000001
#
# number of rings (size 3 to 8) (size 9 to 14) (size 15 to 20)
#    0.000    0.667    5.000    2.000    0.000    6.667 
#    0.000    0.000    0.000    3.500    0.000    0.000 
#    0.000    0.000    0.000    0.000    0.000    0.000 
#
# Total GULP energy -297539.956871 kJ/mol
# GULP energy per Si atom -12397.498203 kJ/mol
# Density = 2.043411 g / cm^3
# Si number density = 20.480723 Si / 1000 Ang^3
#
#
#
# Elastic Constant Matrix: (Units=GPa)
#
#
# Indices 1 2 3 4 5 6 
#
# 1 167.2441 64.8451 53.8339 0.0000 3.9505 0.0000
# 2 64.8451 69.7517 42.7118 0.0000 -3.3540 0.0000
# 3 53.8339 42.7118 133.9272 0.0000 10.3925 0.0000
# 4 0.0000 0.0000 0.0000 30.5527 0.0000 16.9944
# 5 3.9505 -3.3540 10.3925 0.0000 37.4841 0.0000
# 6 0.0000 0.0000 0.0000 16.9944 0.0000 12.9808
#
#
#
# Elastic Compliance Matrix: (Units=1/GPa)
#
#
# Indices 1 2 3 4 5 6 
#
# 1 0.009589 -0.008318 -0.001089 0.000000 -0.001453 0.000000
# 2 -0.008318 0.025424 -0.005119 0.000000 0.004571 0.000000
# 3 -0.001089 -0.005119 0.009774 0.000000 -0.003053 0.000000
# 4 0.000000 0.000000 0.000000 0.120427 0.000000 -0.157663
# 5 -0.001453 0.004571 -0.003053 0.000000 0.028087 0.000000
# 6 0.000000 0.000000 0.000000 -0.157663 0.000000 0.283447
#
#
# Mechanical properties :
#
#
# Convention : Reuss Voigt Hill
#
# Bulk Modulus (GPa) = 63.55355 77.07827 70.31591
# Shear Modulus (GPa) = 9.78387 30.17233 19.97810
#
# Velocity S-wave (km/s) = 2.18803 3.84240 3.12662
# Velocity P-wave (km/s) = 6.12222 7.57639 6.88779
#
# Compressibility (1/GPa) = 0.01573476
#
# Stress axis : x y z
#
# Youngs Moduli (GPa) = 104.28499 39.33355 102.31098
#
# Poissons Ratio (x) = 0.32716 0.11143
# Poissons Ratio (y) = 0.86739 0.52377
# Poissons Ratio (z) = 0.11358 0.20136
#
# Static dielectric constant tensor:
#      x y z
#    x 4.139070 0.000000 0.094140 
#    y 0.000000 3.851190 0.000000 
#    z 0.094140 0.000000 3.877500 
# 
# 
# High freq. dielectric constant tensor:
#      x y z
#    x 1.820000 0.000000 0.011110 
#    y 0.000000 1.802640 0.000000 
#    z 0.011110 0.000000 1.799840 
# 
# From -- ./inp_files/226750.got.cif
#   From: 2010.06.25/outbox.cif.g09.slc.cpg/sg12_114_cif.got.tgz:226750.got - 2010.06.28 00:19:55.
