data_PCOD8113163
_publ_section_title
;
Structure prediction by ZEFSAII (Michael W. Deem and Ramdas Pophale) SiO2 
 PCOD8113163
Probable space group: C 2/M
;
_chemical_formula_sum "Si O2"
_cell_formula_units_Z 48
_cell_length_a 21.366094
_cell_length_b 25.506160
_cell_length_c 9.810453
_cell_angle_alpha 90.000000
_cell_angle_beta 153.548328
_cell_angle_gamma 90.000000
_cell_volume 2381.503436
_symmetry_space_group_name_H-M "C 2/M"
_symmetry_group_IT_number 12
_symmetry_cell_setting 'monoclinic'
loop_
_space_group_symop_operation_xyz
x,y,z
-x,y,-z
-x,-y,-z
x,-y,z
1/2+x,1/2+y,z
1/2-x,1/2+y,-z
1/2-x,1/2-y,-z
1/2+x,1/2-y,z
loop_
_atom_site_type_symbol
_atom_site_label
_atom_site_fract_x
_atom_site_fract_y
_atom_site_fract_z
Si Si1 0.319515 0.211021 0.738098
Si Si2 0.418990 0.636489 0.210359
Si Si3 0.399184 0.847557 0.422760
Si Si4 0.054852 0.760917 0.375012
Si Si5 0.380676 0.109204 0.680074
Si Si6 0.594187 0.559543 0.054211
O O1 0.250000 0.250000 0.500000
O O2 0.335585 0.156544 0.691551
O O3 0.200236 0.208459 0.623398
O O4 0.469765 0.233471 0.083534
O O5 0.500000 0.615779 0.500000
O O6 0.453543 0.696623 0.245167
O O7 0.254182 0.632903 0.917591
O O8 0.460921 0.598654 0.168570
O O9 0.500000 0.869111 0.500000
O O10 0.407102 0.784472 0.443313
O O11 0.441804 0.870251 0.654519
O O12 0.254632 0.069772 0.407765
O O13 0.500000 0.078662 0.000000
O O14 0.579796 0.500000 0.974405
O O15 0.500000 0.571037 0.000000
#
# Coordination Sequence:
#
# PCOD8113163 Si02
#       6
#     8   8   8   8   8   8
#     4  12  20  34  57  87 122 164 207 247 290 357
#     4  11  25  41  61  90 121 167 208 247 301 363
#     4  11  24  38  54  84 129 169 199 247 291 357
#     4  12  22  36  57  87 126 167 205 247 288 356
#     4  11  21  39  63  92 120 162 203 251 304 363
#     4  10  23  45  68  93 120 150 201 268 318 359
#
# _framework density 20.155335000000001
#
# number of rings (size 3 to 8) (size 9 to 14) (size 15 to 20)
#    0.000    0.833    5.000    3.000    2.333    3.333 
#    0.000    0.000    0.000    8.000    0.000    0.000 
#    0.000    0.000    0.000    0.000    0.000    0.000 
#
# Total GULP energy -297551.294798 kJ/mol
# GULP energy per Si atom -12397.970617 kJ/mol
# Density = 2.010946 g / cm^3
# Si number density = 20.155335 Si / 1000 Ang^3
#
#
#
# Elastic Constant Matrix: (Units=GPa)
#
#
# Indices 1 2 3 4 5 6 
#
# 1 121.4722 34.8085 38.6793 0.0000 2.5999 0.0000
# 2 34.8085 66.3891 28.2311 0.0000 -7.3973 0.0000
# 3 38.6793 28.2311 113.5576 0.0000 -21.4034 0.0000
# 4 0.0000 0.0000 0.0000 15.0730 0.0000 -0.8896
# 5 2.5999 -7.3973 -21.4034 0.0000 26.5357 0.0000
# 6 0.0000 0.0000 0.0000 -0.8896 0.0000 0.2013
#
#
#
# Elastic Compliance Matrix: (Units=1/GPa)
#
#
# Indices 1 2 3 4 5 6 
#
# 1 0.010818 -0.004772 -0.003478 0.000000 -0.005195 0.000000
# 2 -0.004772 0.019003 -0.002373 0.000000 0.003851 0.000000
# 3 -0.003478 -0.002373 0.012406 0.000000 0.009686 0.000000
# 4 0.000000 0.000000 0.000000 0.089753 0.000000 0.396638
# 5 -0.005195 0.003851 0.009686 0.000000 0.047080 0.000000
# 6 0.000000 0.000000 0.000000 0.396638 0.000000 6.720641
#
#
# Mechanical properties :
#
#
# Convention : Reuss Voigt Hill
#
# Bulk Modulus (GPa) = 47.66026 56.09518 51.87772
# Shear Modulus (GPa) = 0.72172 21.67534 11.19853
#
# Velocity S-wave (km/s) = 0.59904 3.28291 2.35970
# Velocity P-wave (km/s) = 4.91694 6.50091 5.76360
#
# Compressibility (1/GPa) = 0.02098184
#
# Stress axis : x y z
#
# Youngs Moduli (GPa) = 92.43482 52.62323 80.60489
#
# Poissons Ratio (x) = 0.25113 0.28032
# Poissons Ratio (y) = 0.44112 0.19127
# Poissons Ratio (z) = 0.32146 0.12487
#
# Static dielectric constant tensor:
#      x y z
#    x 4.214350 0.000000 0.078020 
#    y 0.000000 3.368290 0.000000 
#    z 0.078020 0.000000 3.785380 
# 
# 
# High freq. dielectric constant tensor:
#      x y z
#    x 1.795400 0.000000 0.004800 
#    y 0.000000 1.751000 0.000000 
#    z 0.004800 0.000000 1.801460 
# 
# From -- ./inp_files/91261.got.cif
#   From: 2010.06.25/outbox.cif.g09.slc.cpg/sg12_46_cif.got.tgz:91261.got - 2010.06.28 00:19:55.
