data_PCOD8113471
_publ_section_title
;
Structure prediction by ZEFSAII (Michael W. Deem and Ramdas Pophale) SiO2 
 PCOD8113471
Probable space group: C 2/M
;
_chemical_formula_sum "Si O2"
_cell_formula_units_Z 44
_cell_length_a 8.939481
_cell_length_b 17.390771
_cell_length_c 16.733393
_cell_angle_alpha 90.000000
_cell_angle_beta 51.168579
_cell_angle_gamma 90.000000
_cell_volume 2026.512969
_symmetry_space_group_name_H-M "C 2/M"
_symmetry_group_IT_number 12
_symmetry_cell_setting 'monoclinic'
loop_
_space_group_symop_operation_xyz
x,y,z
-x,y,-z
-x,-y,-z
x,-y,z
1/2+x,1/2+y,z
1/2-x,1/2+y,-z
1/2-x,1/2-y,-z
1/2+x,1/2-y,z
loop_
_atom_site_type_symbol
_atom_site_label
_atom_site_fract_x
_atom_site_fract_y
_atom_site_fract_z
Si Si1 0.618944 0.842627 0.258342
Si Si2 0.748274 0.500000 0.006974
Si Si3 0.528097 0.410590 0.398556
Si Si4 0.159550 0.331235 0.512616
Si Si5 0.000000 0.372953 0.000000
Si Si6 0.794533 0.000000 0.157487
Si Si7 0.151110 0.693409 0.788834
O O1 0.433767 0.860401 0.374184
O O2 0.758709 0.778252 0.249332
O O3 0.543957 0.812832 0.197507
O O4 0.731394 0.922342 0.221375
O O5 0.829307 0.424379 0.021877
O O6 0.521453 0.500000 0.084354
O O7 0.808000 0.500000 0.894477
O O8 0.500000 0.383920 0.500000
O O9 0.574533 0.500000 0.375600
O O10 0.323338 0.390035 0.426621
O O11 0.696736 0.368025 0.295200
O O12 0.250000 0.250000 0.500000
O O13 0.000000 0.322834 0.500000
O O14 0.905505 0.320660 0.100175
#
# Coordination Sequence:
#
# PCOD8113471 Si02
#       7
#     8   4   8   8   4   4   8
#     4  12  27  46  73 106 143 191 234 296 359 423
#     4  10  24  48  72 105 138 192 233 299 355 410
#     4  11  25  44  72 103 141 190 239 291 354 427
#     4  12  24  44  68 100 142 184 235 290 353 421
#     4  11  26  46  76 105 144 186 246 291 352 430
#     4  11  26  48  75 100 148 184 239 293 362 422
#     4  12  27  46  72 106 146 187 241 294 356 427
#
# _framework density 21.712173
#
# number of rings (size 3 to 8) (size 9 to 14) (size 15 to 20)
#    0.000    0.545    5.455    1.636    7.636    2.545 
#    0.000    0.000    0.000    0.000    0.000    0.000 
#    0.000    0.000    0.000    0.000    0.000    0.000 
#
# Total GULP energy -272867.977357 kJ/mol
# GULP energy per Si atom -12403.089880 kJ/mol
# Density = 2.166276 g / cm^3
# Si number density = 21.712173 Si / 1000 Ang^3
#
#
#
# Elastic Constant Matrix: (Units=GPa)
#
#
# Indices 1 2 3 4 5 6 
#
# 1 104.3031 23.9684 12.5828 -0.0001 -1.9328 0.0001
# 2 23.9684 130.3588 38.8408 0.0000 -5.8960 0.0000
# 3 12.5828 38.8408 115.6783 0.0000 6.8320 0.0000
# 4 -0.0001 0.0000 0.0000 30.5055 0.0000 6.4769
# 5 -1.9328 -5.8960 6.8320 0.0000 27.8684 -0.0001
# 6 0.0001 0.0000 0.0000 6.4769 -0.0001 22.7273
#
#
#
# Elastic Compliance Matrix: (Units=1/GPa)
#
#
# Indices 1 2 3 4 5 6 
#
# 1 0.010045 -0.001657 -0.000565 0.000000 0.000485 0.000000
# 2 -0.001657 0.008978 -0.002983 0.000000 0.002516 0.000000
# 3 -0.000565 -0.002983 0.009891 0.000000 -0.003095 0.000000
# 4 0.000000 0.000000 0.000000 0.034892 0.000000 -0.009944
# 5 0.000485 0.002516 -0.003095 0.000000 0.037208 0.000000
# 6 0.000000 0.000000 0.000000 -0.009944 0.000000 0.046834
#
#
# Mechanical properties :
#
#
# Convention : Reuss Voigt Hill
#
# Bulk Modulus (GPa) = 54.04041 55.68045 54.86043
# Shear Modulus (GPa) = 30.40895 34.55013 32.47954
#
# Velocity S-wave (km/s) = 3.74645 3.99341 3.87190
# Velocity P-wave (km/s) = 6.60742 6.85300 6.73133
#
# Compressibility (1/GPa) = 0.01850467
#
# Stress axis : x y z
#
# Youngs Moduli (GPa) = 99.54910 111.37938 101.10710
#
# Poissons Ratio (x) = 0.18452 0.05713
# Poissons Ratio (y) = 0.16492 0.30160
# Poissons Ratio (z) = 0.05625 0.33224
#
# Static dielectric constant tensor:
#      x y z
#    x 4.534340 0.000000 -0.204990 
#    y 0.000000 3.852240 0.000000 
#    z -0.204990 0.000000 4.231940 
# 
# 
# High freq. dielectric constant tensor:
#      x y z
#    x 1.866120 0.000000 -0.004880 
#    y 0.000000 1.853840 0.000000 
#    z -0.004880 0.000000 1.859700 
# 
# From -- ./inp_files/256897.got.cif
#   From: 2010.06.25/outbox.cif.g09.slc.cpg/sg12_129_cif.got.tgz:256897.got - 2010.06.28 00:19:55.
