data_PCOD8113214
_publ_section_title
;
Structure prediction by ZEFSAII (Michael W. Deem and Ramdas Pophale) SiO2 
 PCOD8113214
Probable space group: C 2/M
;
_chemical_formula_sum "Si O2"
_cell_formula_units_Z 40
_cell_length_a 21.250278
_cell_length_b 11.071426
_cell_length_c 9.186412
_cell_angle_alpha 90.000000
_cell_angle_beta 105.671702
_cell_angle_gamma 90.000000
_cell_volume 2080.949686
_symmetry_space_group_name_H-M "C 2/M"
_symmetry_group_IT_number 12
_symmetry_cell_setting 'monoclinic'
loop_
_space_group_symop_operation_xyz
x,y,z
-x,y,-z
-x,-y,-z
x,-y,z
1/2+x,1/2+y,z
1/2-x,1/2+y,-z
1/2-x,1/2-y,-z
1/2+x,1/2-y,z
loop_
_atom_site_type_symbol
_atom_site_label
_atom_site_fract_x
_atom_site_fract_y
_atom_site_fract_z
Si Si1 0.361321 0.500000 0.284884
Si Si2 0.500000 0.296405 0.000000
Si Si3 0.311307 0.752759 0.140508
Si Si4 0.358625 0.500000 0.618727
Si Si5 0.123128 0.640564 0.079190
Si Si6 0.777897 0.782520 0.672483
Si Si7 0.991138 0.000000 0.221156
O O1 0.334397 0.617233 0.186923
O O2 0.337306 0.500000 0.436877
O O3 0.440258 0.500000 0.323429
O O4 0.440554 0.213106 0.908656
O O5 0.522875 0.380541 0.881607
O O6 0.286686 0.818595 0.273373
O O7 0.250000 0.750000 0.000000
O O8 0.365486 0.828678 0.085520
O O9 0.330403 0.387814 0.689711
O O10 0.436233 0.500000 0.671800
O O11 0.109149 0.500000 0.087884
O O12 0.184571 0.673441 0.221869
O O13 0.750000 0.750000 0.500000
#
# Coordination Sequence:
#
# PCOD8113214 Si02
#       7
#     4   4   8   4   8   8   4
#     4  12  22  43  64  91 129 163 206 263 317 373
#     4  11  21  40  64  90 119 161 214 260 310 367
#     4  10  24  36  60  91 123 160 202 255 305 367
#     4  12  24  41  68  91 125 171 206 257 320 374
#     4  11  24  41  62  87 124 168 206 254 312 369
#     4  11  24  40  61  93 127 162 207 252 309 380
#     4  11  23  40  64  96 125 157 214 267 308 371
#
# _framework density 19.221990999999999
#
# number of rings (size 3 to 8) (size 9 to 14) (size 15 to 20)
#    0.000    1.000    6.000    0.600    8.400    2.400 
#    0.000    0.000    0.000    0.000    0.000    5.600 
#    0.000    0.000    0.000    0.000    0.000    0.000 
#
# Total GULP energy -247927.294852 kJ/mol
# GULP energy per Si atom -12396.364743 kJ/mol
# Density = 1.917824 g / cm^3
# Si number density = 19.221991 Si / 1000 Ang^3
#
#
#
# Elastic Constant Matrix: (Units=GPa)
#
#
# Indices 1 2 3 4 5 6 
#
# 1 102.5785 44.1581 31.1117 0.0000 -8.8786 0.0000
# 2 44.1581 127.5812 37.1813 0.0000 -1.8193 0.0000
# 3 31.1117 37.1813 101.3741 0.0000 -9.5781 0.0000
# 4 0.0000 0.0000 0.0000 29.5821 0.0000 3.3917
# 5 -8.8786 -1.8193 -9.5781 0.0000 37.5878 0.0000
# 6 0.0000 0.0000 0.0000 3.3917 0.0000 29.3094
#
#
#
# Elastic Compliance Matrix: (Units=1/GPa)
#
#
# Indices 1 2 3 4 5 6 
#
# 1 0.012122 -0.003516 -0.002230 0.000000 0.002125 0.000000
# 2 -0.003516 0.009802 -0.002613 0.000000 -0.001022 0.000000
# 3 -0.002230 -0.002613 0.011728 0.000000 0.002335 0.000000
# 4 0.000000 0.000000 0.000000 0.034259 0.000000 -0.003964
# 5 0.002125 -0.001022 0.002335 0.000000 0.027652 0.000000
# 6 0.000000 0.000000 0.000000 -0.003964 0.000000 0.034577
#
#
# Mechanical properties :
#
#
# Convention : Reuss Voigt Hill
#
# Bulk Modulus (GPa) = 59.04858 61.82622 60.43740
# Shear Modulus (GPa) = 32.78652 33.90139 33.34395
#
# Velocity S-wave (km/s) = 4.13447 4.20417 4.16946
# Velocity P-wave (km/s) = 7.31968 7.47000 7.39522
#
# Compressibility (1/GPa) = 0.01693521
#
# Stress axis : x y z
#
# Youngs Moduli (GPa) = 82.49253 102.02246 85.26768
#
# Poissons Ratio (x) = 0.35866 0.19016
# Poissons Ratio (y) = 0.29000 0.22277
# Poissons Ratio (z) = 0.18397 0.26655
#
# Static dielectric constant tensor:
#      x y z
#    x 3.741730 0.000000 -0.357600 
#    y 0.000000 3.505460 0.000000 
#    z -0.357600 0.000000 3.659350 
# 
# 
# High freq. dielectric constant tensor:
#      x y z
#    x 1.761250 0.000000 -0.011330 
#    y 0.000000 1.739590 0.000000 
#    z -0.011330 0.000000 1.744550 
# 
# From -- ./inp_files/83708.got.cif
#   From: 2010.06.25/outbox.cif.g09.slc.cpg/sg12_42_cif.got.tgz:83708.got - 2010.06.28 00:19:55.
