data_PCOD8113367
_publ_section_title
;
Structure prediction by ZEFSAII (Michael W. Deem and Ramdas Pophale) SiO2 
 PCOD8113367
Probable space group: C 2/M
;
_chemical_formula_sum "Si O2"
_cell_formula_units_Z 56
_cell_length_a 12.263343
_cell_length_b 19.599388
_cell_length_c 11.463573
_cell_angle_alpha 90.000000
_cell_angle_beta 114.033909
_cell_angle_gamma 90.000000
_cell_volume 2516.442568
_symmetry_space_group_name_H-M "C 2/M"
_symmetry_group_IT_number 12
_symmetry_cell_setting 'monoclinic'
loop_
_space_group_symop_operation_xyz
x,y,z
-x,y,-z
-x,-y,-z
x,-y,z
1/2+x,1/2+y,z
1/2-x,1/2+y,-z
1/2-x,1/2-y,-z
1/2+x,1/2-y,z
loop_
_atom_site_type_symbol
_atom_site_label
_atom_site_fract_x
_atom_site_fract_y
_atom_site_fract_z
Si Si1 0.425263 0.424967 0.808736
Si Si2 0.499273 0.833505 0.864458
Si Si3 0.279600 0.859999 0.151455
Si Si4 0.728521 0.334250 0.681205
Si Si5 0.278232 0.577818 0.522550
Si Si6 0.384921 0.312179 0.116274
Si Si7 0.140183 0.302336 0.576474
O O1 0.478690 0.500000 0.853417
O O2 0.307230 0.418843 0.839431
O O3 0.389711 0.415093 0.658281
O O4 0.524046 0.370676 0.886480
O O5 0.594724 0.887017 0.848382
O O6 0.369874 0.843115 0.755330
O O7 0.542855 0.757512 0.852694
O O8 0.500000 0.848493 0.000000
O O9 0.316670 0.810729 0.272090
O O10 0.218991 0.811591 0.026470
O O11 0.682263 0.401867 0.591763
O O12 0.664404 0.330300 0.777611
O O13 0.701199 0.271411 0.579534
O O14 0.228374 0.500000 0.504291
O O15 0.177290 0.632998 0.514651
O O16 0.000000 0.293762 0.500000
#
# Coordination Sequence:
#
# PCOD8113367 Si02
#       7
#     8   8   8   8   8   8   8
#     4  10  24  45  69  96 132 177 228 276 322 397
#     4  12  22  40  64  96 140 170 214 273 338 401
#     4  11  22  42  65 100 133 173 218 272 338 393
#     4  12  25  40  67 102 138 174 223 280 335 402
#     4  10  24  44  64  92 134 182 225 271 335 399
#     4  12  24  38  67 102 135 173 214 275 345 399
#     4  11  23  41  68 101 131 174 228 282 329 392
#
# _framework density 22.253637999999999
#
# number of rings (size 3 to 8) (size 9 to 14) (size 15 to 20)
#    0.000    0.857    2.857    5.571    2.000    2.000 
#    0.000    5.000    0.000    0.857    0.000    0.000 
#    0.000    0.000    0.000    0.000    0.000    0.000 
#
# Total GULP energy -347045.092526 kJ/mol
# GULP energy per Si atom -12394.467590 kJ/mol
# Density = 2.220299 g / cm^3
# Si number density = 22.253638 Si / 1000 Ang^3
#
#
#
# Elastic Constant Matrix: (Units=GPa)
#
#
# Indices 1 2 3 4 5 6 
#
# 1 91.3329 19.2750 24.7221 0.0000 -2.9527 0.0000
# 2 19.2750 80.5697 38.7114 0.0000 -0.0103 0.0000
# 3 24.7221 38.7114 115.7953 0.0000 -6.3380 0.0000
# 4 0.0000 0.0000 0.0000 7.2507 0.0000 -2.8310
# 5 -2.9527 -0.0103 -6.3380 0.0000 39.5655 0.0000
# 6 0.0000 0.0000 0.0000 -2.8310 0.0000 20.0474
#
#
#
# Elastic Compliance Matrix: (Units=1/GPa)
#
#
# Indices 1 2 3 4 5 6 
#
# 1 0.011881 -0.001953 -0.001852 0.000000 0.000590 0.000000
# 2 -0.001953 0.015133 -0.004691 0.000000 -0.000893 0.000000
# 3 -0.001852 -0.004691 0.010686 0.000000 0.001572 0.000000
# 4 0.000000 0.000000 0.000000 0.145965 0.000000 0.020613
# 5 0.000590 -0.000893 0.001572 0.000000 0.025570 0.000000
# 6 0.000000 0.000000 0.000000 0.020613 0.000000 0.052793
#
#
# Mechanical properties :
#
#
# Convention : Reuss Voigt Hill
#
# Bulk Modulus (GPa) = 48.28834 50.34610 49.31722
# Shear Modulus (GPa) = 17.48735 27.03869 22.26302
#
# Velocity S-wave (km/s) = 2.80629 3.48950 3.16638
# Velocity P-wave (km/s) = 5.67860 6.23766 5.96468
#
# Compressibility (1/GPa) = 0.02070893
#
# Stress axis : x y z
#
# Youngs Moduli (GPa) = 84.16590 66.08285 93.58462
#
# Poissons Ratio (x) = 0.12904 0.17328
# Poissons Ratio (y) = 0.16435 0.43900
# Poissons Ratio (z) = 0.15584 0.30999
#
# Static dielectric constant tensor:
#      x y z
#    x 4.362770 0.000000 -0.139310 
#    y 0.000000 3.775010 0.000000 
#    z -0.139310 0.000000 4.352180 
# 
# 
# High freq. dielectric constant tensor:
#      x y z
#    x 1.877120 0.000000 -0.004080 
#    y 0.000000 1.848490 0.000000 
#    z -0.004080 0.000000 1.904730 
# 
# From -- ./inp_files/133970.got.cif
#   From: 2010.06.25/outbox.cif.g09.slc.cpg/sg12_67_cif.got.tgz:133970.got - 2010.06.28 00:19:55.
