data_PCOD8113391
_publ_section_title
;
Structure prediction by ZEFSAII (Michael W. Deem and Ramdas Pophale) SiO2 
 PCOD8113391
Probable space group: C 2/M
;
_chemical_formula_sum "Si O2"
_cell_formula_units_Z 28
_cell_length_a 18.251432
_cell_length_b 14.860358
_cell_length_c 8.140539
_cell_angle_alpha 90.000000
_cell_angle_beta 33.336454
_cell_angle_gamma 90.000000
_cell_volume 1213.361283
_symmetry_space_group_name_H-M "C 2/M"
_symmetry_group_IT_number 12
_symmetry_cell_setting 'monoclinic'
loop_
_space_group_symop_operation_xyz
x,y,z
-x,y,-z
-x,-y,-z
x,-y,z
1/2+x,1/2+y,z
1/2-x,1/2+y,-z
1/2-x,1/2-y,-z
1/2+x,1/2-y,z
loop_
_atom_site_type_symbol
_atom_site_label
_atom_site_fract_x
_atom_site_fract_y
_atom_site_fract_z
Si Si1 0.861188 0.830615 0.666645
Si Si2 0.987728 0.500000 0.220351
Si Si3 0.279900 0.500000 0.653748
Si Si4 0.289200 0.858746 0.733130
Si Si5 0.136172 0.000000 0.841042
O O1 0.873887 0.915272 0.522027
O O2 0.816208 0.745775 0.637120
O O3 0.000000 0.810281 0.500000
O O4 0.740094 0.855949 0.017178
O O5 0.918197 0.413111 0.431505
O O6 0.000000 0.500000 0.000000
O O7 0.138006 0.500000 0.010024
O O8 0.250057 0.500000 0.513791
O O9 0.157996 0.907657 0.902404
O O10 0.000000 0.000000 0.000000
#
# Coordination Sequence:
#
# PCOD8113391 Si02
#       5
#     8   4   4   8   4
#     4  11  25  44  68 103 139 181 234 288 344 406
#     4  11  23  47  68 100 144 180 232 282 347 419
#     4  12  24  41  72 102 138 186 229 285 348 407
#     4  10  24  44  68 101 139 184 232 281 346 409
#     4  11  22  45  69 101 137 180 228 284 345 412
#
# _framework density 23.076391000000001
#
# number of rings (size 3 to 8) (size 9 to 14) (size 15 to 20)
#    0.000    1.143    2.857    3.857    8.000    2.286 
#    0.000    0.000    0.000    0.000    0.000    0.000 
#    0.000    0.000    0.000    0.000    0.000    0.000 
#
# Total GULP energy -173435.159423 kJ/mol
# GULP energy per Si atom -12388.225673 kJ/mol
# Density = 2.302387 g / cm^3
# Si number density = 23.076391 Si / 1000 Ang^3
#
#
#
# Elastic Constant Matrix: (Units=GPa)
#
#
# Indices 1 2 3 4 5 6 
#
# 1 83.8160 84.5355 23.5948 0.0000 -12.9909 0.0000
# 2 84.5355 238.2175 36.4013 0.0000 4.4158 0.0000
# 3 23.5948 36.4013 107.0296 0.0000 -6.1521 0.0000
# 4 0.0000 0.0000 0.0000 24.9419 0.0000 1.2621
# 5 -12.9909 4.4158 -6.1521 0.0000 46.4380 0.0000
# 6 0.0000 0.0000 0.0000 1.2621 0.0000 24.3174
#
#
#
# Elastic Compliance Matrix: (Units=1/GPa)
#
#
# Indices 1 2 3 4 5 6 
#
# 1 0.020610 -0.007161 -0.001751 0.000000 0.006215 0.000000
# 2 -0.007161 0.006935 -0.000940 0.000000 -0.002787 0.000000
# 3 -0.001751 -0.000940 0.010103 0.000000 0.000938 0.000000
# 4 0.000000 0.000000 0.000000 0.040199 0.000000 -0.002086
# 5 0.006215 -0.002787 0.000938 0.000000 0.023662 0.000000
# 6 0.000000 0.000000 0.000000 -0.002086 0.000000 0.041231
#
#
# Mechanical properties :
#
#
# Convention : Reuss Voigt Hill
#
# Bulk Modulus (GPa) = 55.73167 79.79182 67.76174
# Shear Modulus (GPa) = 29.68698 38.10821 33.89760
#
# Velocity S-wave (km/s) = 3.59062 4.06814 3.83682
# Velocity P-wave (km/s) = 6.43378 7.53118 7.00401
#
# Compressibility (1/GPa) = 0.01794312
#
# Stress axis : x y z
#
# Youngs Moduli (GPa) = 48.52047 144.20645 98.98318
#
# Poissons Ratio (x) = 1.03273 0.17328
# Poissons Ratio (y) = 0.34748 0.09304
# Poissons Ratio (z) = 0.08494 0.13554
#
# Static dielectric constant tensor:
#      x y z
#    x 3.887390 0.000000 0.213380 
#    y 0.000000 4.410490 0.000000 
#    z 0.213380 0.000000 4.762600 
# 
# 
# High freq. dielectric constant tensor:
#      x y z
#    x 1.894210 0.000000 -0.005050 
#    y 0.000000 1.915450 0.000000 
#    z -0.005050 0.000000 1.935350 
# 
# From -- ./inp_files/72730.got.cif
#   From: 2010.06.25/outbox.cif.g09.slc.cpg/sg12_37_cif.got.tgz:72730.got - 2010.06.28 00:19:55.
