data_PCOD8113887
_publ_section_title
;
Structure prediction by ZEFSAII (Michael W. Deem and Ramdas Pophale) SiO2 
 PCOD8113887
Probable space group: C 2/M
;
_chemical_formula_sum "Si O2"
_cell_formula_units_Z 40
_cell_length_a 22.384156
_cell_length_b 7.293750
_cell_length_c 18.965799
_cell_angle_alpha 90.000000
_cell_angle_beta 120.328720
_cell_angle_gamma 90.000000
_cell_volume 2672.669539
_symmetry_space_group_name_H-M "C 2/M"
_symmetry_group_IT_number 12
_symmetry_cell_setting 'monoclinic'
loop_
_space_group_symop_operation_xyz
x,y,z
-x,y,-z
-x,-y,-z
x,-y,z
1/2+x,1/2+y,z
1/2-x,1/2+y,-z
1/2-x,1/2-y,-z
1/2+x,1/2-y,z
loop_
_atom_site_type_symbol
_atom_site_label
_atom_site_fract_x
_atom_site_fract_y
_atom_site_fract_z
Si Si1 0.184061 0.289544 0.008207
Si Si2 0.538732 0.213959 0.856417
Si Si3 0.665660 0.000000 0.740978
Si Si4 0.963839 0.000000 0.903020
Si Si5 0.684777 0.500000 0.128563
Si Si6 0.935033 0.210175 0.282715
Si Si7 0.463307 0.000000 0.403827
O O1 0.180466 0.500000 0.027831
O O2 0.187326 0.179627 0.082457
O O3 0.250000 0.250000 0.000000
O O4 0.116248 0.229441 0.924744
O O5 0.484569 0.317561 0.873675
O O6 0.526358 0.278798 0.769103
O O7 0.524461 0.000000 0.856974
O O8 0.638918 0.181616 0.768073
O O9 0.622139 0.000000 0.640365
O O10 0.747635 0.000000 0.780439
O O11 0.881238 0.000000 0.860652
O O12 0.000000 0.000000 0.000000
O O13 0.982362 0.316692 0.369690
O O14 0.923703 0.000000 0.299080
O O15 0.500000 0.000000 0.500000
#
# Coordination Sequence:
#
# PCOD8113887 Si02
#       7
#     8   8   4   4   4   8   4
#     4  11  22  30  50  70  96 134 174 217 262 293
#     4  11  20  35  50  69 102 136 182 218 251 294
#     4   8  20  32  52  76 109 123 165 205 262 300
#     4  12  24  36  50  66  99 150 181 223 246 288
#     4  12  22  38  44  74 100 136 181 211 257 292
#     4   9  17  31  56  80 104 131 164 205 253 312
#     4   8  18  34  54  86 111 124 151 205 272 313
#
# _framework density 14.96631
#
# number of rings (size 3 to 8) (size 9 to 14) (size 15 to 20)
#    1.200    0.400    6.000    1.200    0.000    4.000 
#    0.000    0.000    0.000    0.000    0.000    1.400 
#    0.000    0.000    0.000    0.000    0.000    0.000 
#
# Total GULP energy -247805.068433 kJ/mol
# GULP energy per Si atom -12390.253422 kJ/mol
# Density = 1.493225 g / cm^3
# Si number density = 14.966310 Si / 1000 Ang^3
#
#
#
# Elastic Constant Matrix: (Units=GPa)
#
#
# Indices 1 2 3 4 5 6 
#
# 1 107.5137 38.0565 50.5575 0.0000 -6.5829 0.0000
# 2 38.0565 122.8523 37.6313 0.0000 -1.8036 0.0000
# 3 50.5575 37.6313 107.3802 0.0000 7.5162 0.0000
# 4 0.0000 0.0000 0.0000 17.6943 0.0000 -6.6858
# 5 -6.5829 -1.8036 7.5162 0.0000 14.1530 0.0000
# 6 0.0000 0.0000 0.0000 -6.6858 0.0000 21.1606
#
#
#
# Elastic Compliance Matrix: (Units=1/GPa)
#
#
# Indices 1 2 3 4 5 6 
#
# 1 0.013604 -0.002142 -0.006313 0.000000 0.009407 0.000000
# 2 -0.002142 0.009578 -0.002455 0.000000 0.001528 0.000000
# 3 -0.006313 -0.002455 0.013889 0.000000 -0.010625 0.000000
# 4 0.000000 0.000000 0.000000 0.064177 0.000000 0.020277
# 5 0.009407 0.001528 -0.010625 0.000000 0.080869 0.000000
# 6 0.000000 0.000000 0.000000 0.020277 0.000000 0.053664
#
#
# Mechanical properties :
#
#
# Convention : Reuss Voigt Hill
#
# Bulk Modulus (GPa) = 65.57012 65.58190 65.57601
# Shear Modulus (GPa) = 19.03424 24.70165 21.86794
#
# Velocity S-wave (km/s) = 3.57011 4.06702 3.82664
# Velocity P-wave (km/s) = 7.80392 8.12213 7.96461
#
# Compressibility (1/GPa) = 0.01525085
#
# Stress axis : x y z
#
# Youngs Moduli (GPa) = 73.50787 104.40722 71.99975
#
# Poissons Ratio (x) = 0.22368 0.45452
# Poissons Ratio (y) = 0.15748 0.17675
# Poissons Ratio (z) = 0.46404 0.25630
#
# Static dielectric constant tensor:
#      x y z
#    x 2.753260 0.000000 -0.027810 
#    y 0.000000 2.696430 0.000000 
#    z -0.027810 0.000000 2.598230 
# 
# 
# High freq. dielectric constant tensor:
#      x y z
#    x 1.546680 0.000000 -0.004120 
#    y 0.000000 1.593860 0.000000 
#    z -0.004120 0.000000 1.542670 
# 
# From -- ./inp_files/228935.got.cif
#   From: 2010.06.25/outbox.cif.g09.slc.cpg/sg12_115_cif.got.tgz:228935.got - 2010.06.28 00:19:55.
