data_PCOD8113217
_publ_section_title
;
Structure prediction by ZEFSAII (Michael W. Deem and Ramdas Pophale) SiO2 
 PCOD8113217
Probable space group: C 2/M
;
_chemical_formula_sum "Si O2"
_cell_formula_units_Z 48
_cell_length_a 8.697079
_cell_length_b 17.644608
_cell_length_c 12.666768
_cell_angle_alpha 90.000000
_cell_angle_beta 90.006453
_cell_angle_gamma 90.000000
_cell_volume 1943.798501
_symmetry_space_group_name_H-M "C 2/M"
_symmetry_group_IT_number 12
_symmetry_cell_setting 'monoclinic'
loop_
_space_group_symop_operation_xyz
x,y,z
-x,y,-z
-x,-y,-z
x,-y,z
1/2+x,1/2+y,z
1/2-x,1/2+y,-z
1/2-x,1/2-y,-z
1/2+x,1/2-y,z
loop_
_atom_site_type_symbol
_atom_site_label
_atom_site_fract_x
_atom_site_fract_y
_atom_site_fract_z
Si Si1 0.081846 0.844500 0.777011
Si Si2 0.645884 0.238726 0.333027
Si Si3 0.962815 0.000000 0.334952
Si Si4 0.761269 0.587806 0.948871
Si Si5 0.086360 0.586870 0.839178
Si Si6 0.742563 0.000000 0.518032
Si Si7 0.623182 0.852425 0.609784
O O1 0.233604 0.818974 0.715635
O O2 0.951179 0.781018 0.760040
O O3 0.126911 0.858764 0.900041
O O4 0.024499 0.925124 0.734453
O O5 0.538076 0.190718 0.413687
O O6 0.727979 0.299955 0.409339
O O7 0.799867 0.000000 0.397354
O O8 0.108465 0.000000 0.409996
O O9 0.710196 0.500000 0.944951
O O10 0.913253 0.597988 0.878217
O O11 0.794813 0.612912 0.069020
O O12 0.117282 0.500000 0.809740
O O13 0.119609 0.635764 0.736604
O O14 0.635527 0.072401 0.540333
#
# Coordination Sequence:
#
# PCOD8113217 Si02
#       7
#     8   8   4   8   8   4   8
#     4  11  20  42  61  91 126 165 199 256 298 368
#     4  10  24  36  62  90 130 168 196 238 326 360
#     4  11  24  43  70  95 116 152 207 261 308 361
#     4   9  17  31  58  92 123 162 209 255 300 347
#     4   9  17  31  58  92 123 162 209 255 300 347
#     4  11  24  43  70  95 116 152 207 261 308 361
#     4  11  20  42  61  91 126 165 199 256 298 368
#
# _framework density 24.693916999999999
#
# number of rings (size 3 to 8) (size 9 to 14) (size 15 to 20)
#    0.000    1.833    5.000    1.000    0.000    0.667 
#    0.000   12.500    0.000    3.000    0.000    0.000 
#    0.000    0.000    0.000    0.000    0.000    0.000 
#
# Total GULP energy -297606.170421 kJ/mol
# GULP energy per Si atom -12400.257101 kJ/mol
# Density = 2.463771 g / cm^3
# Si number density = 24.693917 Si / 1000 Ang^3
#
#
#
# Elastic Constant Matrix: (Units=GPa)
#
#
# Indices 1 2 3 4 5 6 
#
# 1 84.5364 25.5170 -10.4640 0.0000 9.1255 0.0000
# 2 25.5170 103.7998 -5.7166 0.0000 0.6797 0.0000
# 3 -10.4640 -5.7166 32.3214 0.0000 -6.8096 0.0000
# 4 0.0000 0.0000 0.0000 25.9255 0.0000 2.4753
# 5 9.1255 0.6797 -6.8096 0.0000 28.0863 0.0000
# 6 0.0000 0.0000 0.0000 2.4753 0.0000 38.5982
#
#
#
# Elastic Compliance Matrix: (Units=1/GPa)
#
#
# Indices 1 2 3 4 5 6 
#
# 1 0.013543 -0.003136 0.003076 0.000000 -0.003579 0.000000
# 2 -0.003136 0.010456 0.001049 0.000000 0.001020 0.000000
# 3 0.003076 0.001049 0.033622 0.000000 0.007127 0.000000
# 4 0.000000 0.000000 0.000000 0.038810 0.000000 -0.002489
# 5 -0.003579 0.001020 0.007127 0.000000 0.038471 0.000000
# 6 0.000000 0.000000 0.000000 -0.002489 0.000000 0.026068
#
#
# Mechanical properties :
#
#
# Convention : Reuss Voigt Hill
#
# Bulk Modulus (GPa) = 16.77916 26.59227 21.68571
# Shear Modulus (GPa) = 27.95510 32.61007 30.28258
#
# Velocity S-wave (km/s) = 3.36827 3.63791 3.50568
# Velocity P-wave (km/s) = 4.68365 5.33273 5.01869
#
# Compressibility (1/GPa) = 0.05959773
#
# Stress axis : x y z
#
# Youngs Moduli (GPa) = 73.83897 95.63848 29.74232
#
# Poissons Ratio (x) = 0.29996 -0.09148
# Poissons Ratio (y) = 0.23159 -0.03120
# Poissons Ratio (z) = -0.22712 -0.10031
#
# Static dielectric constant tensor:
#      x y z
#    x 4.607770 0.000000 0.216460 
#    y 0.000000 4.497810 0.000000 
#    z 0.216460 0.000000 4.347670 
# 
# 
# High freq. dielectric constant tensor:
#      x y z
#    x 1.988790 0.000000 0.018190 
#    y 0.000000 1.985180 0.000000 
#    z 0.018190 0.000000 1.975200 
# 
# From -- ./inp_files/196011.got.cif
#   From: 2010.06.25/outbox.cif.g09.slc.cpg/sg12_99_cif.got.tgz:196011.got - 2010.06.28 00:19:55.
