data_PCOD8113192
_publ_section_title
;
Structure prediction by ZEFSAII (Michael W. Deem and Ramdas Pophale) SiO2 
 PCOD8113192
Probable space group: C 2/M
;
_chemical_formula_sum "Si O2"
_cell_formula_units_Z 64
_cell_length_a 24.279074
_cell_length_b 21.258184
_cell_length_c 18.287608
_cell_angle_alpha 90.000000
_cell_angle_beta 159.466984
_cell_angle_gamma 90.000000
_cell_volume 3310.619244
_symmetry_space_group_name_H-M "C 2/M"
_symmetry_group_IT_number 12
_symmetry_cell_setting 'monoclinic'
loop_
_space_group_symop_operation_xyz
x,y,z
-x,y,-z
-x,-y,-z
x,-y,z
1/2+x,1/2+y,z
1/2-x,1/2+y,-z
1/2-x,1/2-y,-z
1/2+x,1/2-y,z
loop_
_atom_site_type_symbol
_atom_site_label
_atom_site_fract_x
_atom_site_fract_y
_atom_site_fract_z
Si Si1 0.230342 0.572488 0.487613
Si Si2 0.426394 0.231857 0.204198
Si Si3 0.158228 0.292140 0.164401
Si Si4 0.906856 0.367560 0.058408
Si Si5 0.683363 0.573259 0.240886
Si Si6 0.577007 0.425705 0.670483
Si Si7 0.614323 0.355001 0.446262
Si Si8 0.110884 0.320634 0.568254
O O1 0.269197 0.500000 0.525435
O O2 0.268982 0.593507 0.618100
O O3 0.345851 0.609649 0.578390
O O4 0.050269 0.584119 0.242083
O O5 0.444437 0.192775 0.153326
O O6 0.514871 0.295752 0.298295
O O7 0.498153 0.192039 0.359779
O O8 0.250000 0.250000 0.000000
O O9 0.230191 0.331191 0.320608
O O10 0.273502 0.238771 0.276131
O O11 0.119300 0.344286 0.055929
O O12 0.000000 0.260263 0.000000
O O13 0.754965 0.403475 0.899192
O O14 0.722947 0.500000 0.274755
O O15 0.787338 0.616034 0.315795
O O16 0.500000 0.586694 0.000000
O O17 0.500000 0.398821 0.500000
O O18 0.569028 0.500000 0.661384
O O19 0.482651 0.400466 0.621900
O O20 0.000000 0.329420 0.500000
#
# Coordination Sequence:
#
# PCOD8113192 Si02
#       8
#     8   8   8   8   8   8   8   8
#     4  11  24  43  66  94 128 167 216 266 313 378
#     4  11  23  38  62  91 127 163 204 264 319 372
#     4  11  23  39  61  92 131 171 204 257 312 381
#     4  12  22  41  64  91 129 170 209 259 319 376
#     4  10  23  46  69  91 127 170 213 268 329 387
#     4  11  23  39  62  90 128 175 213 252 309 380
#     4  11  23  40  63  92 128 167 215 259 311 372
#     4  11  24  40  66  95 122 165 213 264 325 381
#
# _framework density 19.331731000000001
#
# number of rings (size 3 to 8) (size 9 to 14) (size 15 to 20)
#    0.000    1.000    5.000    1.875    1.750    3.750 
#    0.000    0.625    0.000    0.000    0.000    0.000 
#    0.000    0.000    0.000    0.000    0.000    0.000 
#
# Total GULP energy -396940.742508 kJ/mol
# GULP energy per Si atom -12404.398203 kJ/mol
# Density = 1.928773 g / cm^3
# Si number density = 19.331731 Si / 1000 Ang^3
#
#
#
# Elastic Constant Matrix: (Units=GPa)
#
#
# Indices 1 2 3 4 5 6 
#
# 1 99.0231 48.0227 39.5384 0.0000 20.4622 0.0000
# 2 48.0227 91.2437 38.5739 0.0000 3.5839 0.0000
# 3 39.5384 38.5739 121.6230 -0.0001 10.6349 0.0001
# 4 0.0000 0.0000 -0.0001 33.6031 0.0000 -4.5479
# 5 20.4622 3.5839 10.6349 0.0000 32.0218 0.0001
# 6 0.0000 0.0000 0.0001 -4.5479 0.0001 42.4899
#
#
#
# Elastic Compliance Matrix: (Units=1/GPa)
#
#
# Indices 1 2 3 4 5 6 
#
# 1 0.016383 -0.007334 -0.002221 0.000000 -0.008911 0.000000
# 2 -0.007334 0.015940 -0.003013 0.000000 0.003903 0.000000
# 3 -0.002221 -0.003013 0.010038 0.000000 -0.001577 0.000000
# 4 0.000000 0.000000 0.000000 0.030197 0.000000 0.003232
# 5 -0.008911 0.003903 -0.001577 0.000000 0.037010 0.000000
# 6 0.000000 0.000000 0.000000 0.003232 0.000000 0.023881
#
#
# Mechanical properties :
#
#
# Convention : Reuss Voigt Hill
#
# Bulk Modulus (GPa) = 58.05165 62.68442 60.36803
# Shear Modulus (GPa) = 30.42748 34.00660 32.21704
#
# Velocity S-wave (km/s) = 3.97163 4.19872 4.08675
# Velocity P-wave (km/s) = 7.15026 7.48343 7.31874
#
# Compressibility (1/GPa) = 0.01722604
#
# Stress axis : x y z
#
# Youngs Moduli (GPa) = 61.03716 62.73566 99.62624
#
# Poissons Ratio (x) = 0.46010 0.22126
# Poissons Ratio (y) = 0.44764 0.30013
# Poissons Ratio (z) = 0.13556 0.18900
#
# Static dielectric constant tensor:
#      x y z
#    x 3.476980 0.000000 -0.056650 
#    y 0.000000 3.518150 0.000000 
#    z -0.056650 0.000000 3.783640 
# 
# 
# High freq. dielectric constant tensor:
#      x y z
#    x 1.754710 0.000000 0.001650 
#    y 0.000000 1.757880 0.000000 
#    z 0.001650 0.000000 1.770470 
# 
# From -- ./inp_files/290932.got.cif
#   From: 2010.06.25/outbox.cif.g09.slc.cpg/sg12_146_cif.got.tgz:290932.got - 2010.06.28 00:19:55.
