data_PCOD8113242
_publ_section_title
;
Structure prediction by ZEFSAII (Michael W. Deem and Ramdas Pophale) SiO2 
 PCOD8113242
Probable space group: C 2/M
;
_chemical_formula_sum "Si O2"
_cell_formula_units_Z 40
_cell_length_a 8.638545
_cell_length_b 17.239033
_cell_length_c 10.288381
_cell_angle_alpha 90.000000
_cell_angle_beta 96.618084
_cell_angle_gamma 90.000000
_cell_volume 1521.937811
_symmetry_space_group_name_H-M "C 2/M"
_symmetry_group_IT_number 12
_symmetry_cell_setting 'monoclinic'
loop_
_space_group_symop_operation_xyz
x,y,z
-x,y,-z
-x,-y,-z
x,-y,z
1/2+x,1/2+y,z
1/2-x,1/2+y,-z
1/2-x,1/2-y,-z
1/2+x,1/2-y,z
loop_
_atom_site_type_symbol
_atom_site_label
_atom_site_fract_x
_atom_site_fract_y
_atom_site_fract_z
Si Si1 0.637030 0.641869 0.138591
Si Si2 0.627786 0.844327 0.351225
Si Si3 0.051669 0.500000 0.210740
Si Si4 0.845961 0.910464 0.565678
Si Si5 0.255183 0.500000 0.991100
Si Si6 0.116707 0.762604 0.784165
O O1 0.631030 0.604278 0.281130
O O2 0.641211 0.575673 0.029360
O O3 0.790058 0.694452 0.134927
O O4 0.479310 0.693226 0.111365
O O5 0.547240 0.923652 0.297865
O O6 0.698928 0.857921 0.502274
O O7 0.771056 0.824266 0.271259
O O8 0.504821 0.773564 0.333905
O O9 0.896468 0.500000 0.112498
O O10 0.207256 0.500000 0.137075
O O11 0.000000 0.887562 0.500000
O O12 0.804633 0.000000 0.535577
#
# Coordination Sequence:
#
# PCOD8113242 Si02
#       6
#     8   8   4   8   4   8
#     4  11  22  43  64  99 131 172 215 262 324 379
#     4  11  22  43  64  99 131 172 215 262 324 379
#     4  11  24  46  71  94 124 169 224 275 320 385
#     4  11  22  36  66  99 138 170 213 268 312 384
#     4  11  24  46  71  94 124 169 224 275 320 385
#     4  10  24  39  65  96 140 166 211 267 320 390
#
# _framework density 26.282283
#
# number of rings (size 3 to 8) (size 9 to 14) (size 15 to 20)
#    0.000    1.200    6.000    0.000    0.000    6.400 
#    0.000   10.000    0.000    0.000    0.000    0.000 
#    0.000    0.000    0.000    0.000    0.000    0.000 
#
# Total GULP energy -248090.912324 kJ/mol
# GULP energy per Si atom -12404.545616 kJ/mol
# Density = 2.622246 g / cm^3
# Si number density = 26.282283 Si / 1000 Ang^3
#
#
#
# Elastic Constant Matrix: (Units=GPa)
#
#
# Indices 1 2 3 4 5 6 
#
# 1 97.9977 31.0127 -11.0635 0.0000 1.3599 0.0000
# 2 31.0127 110.9046 -10.5004 0.0000 -5.5054 0.0000
# 3 -11.0635 -10.5004 41.0558 0.0000 -12.3143 0.0000
# 4 0.0000 0.0000 0.0000 26.5539 0.0000 -4.9308
# 5 1.3599 -5.5054 -12.3143 0.0000 34.6643 0.0000
# 6 0.0000 0.0000 0.0000 -4.9308 0.0000 46.4586
#
#
#
# Elastic Compliance Matrix: (Units=1/GPa)
#
#
# Indices 1 2 3 4 5 6 
#
# 1 0.011406 -0.002979 0.002278 0.000000 -0.000111 0.000000
# 2 -0.002979 0.010230 0.002615 0.000000 0.002670 0.000000
# 3 0.002278 0.002615 0.028807 0.000000 0.010559 0.000000
# 4 0.000000 0.000000 0.000000 0.038416 0.000000 0.004077
# 5 -0.000111 0.002670 0.010559 0.000000 0.033028 0.000000
# 6 0.000000 0.000000 0.000000 0.004077 0.000000 0.021957
#
#
# Mechanical properties :
#
#
# Convention : Reuss Voigt Hill
#
# Bulk Modulus (GPa) = 18.42649 29.87284 24.14966
# Shear Modulus (GPa) = 31.62415 37.56932 34.59673
#
# Velocity S-wave (km/s) = 3.47255 3.78491 3.63209
# Velocity P-wave (km/s) = 4.80670 5.52192 5.17668
#
# Compressibility (1/GPa) = 0.05426971
#
# Stress axis : x y z
#
# Youngs Moduli (GPa) = 87.67379 97.75195 34.71393
#
# Poissons Ratio (x) = 0.29123 -0.07909
# Poissons Ratio (y) = 0.26121 -0.09076
# Poissons Ratio (z) = -0.19974 -0.25558
#
# Static dielectric constant tensor:
#      x y z
#    x 5.106770 0.000000 0.002340 
#    y 0.000000 4.935480 0.000000 
#    z 0.002340 0.000000 4.407850 
# 
# 
# High freq. dielectric constant tensor:
#      x y z
#    x 2.073390 0.000000 0.003740 
#    y 0.000000 2.068340 0.000000 
#    z 0.003740 0.000000 2.038910 
# 
# From -- ./inp_files/118963.got.cif
#   From: 2010.06.25/outbox.cif.g09.slc.cpg/sg12_60_cif.got.tgz:118963.got - 2010.06.28 00:19:55.
