data_PCOD8113362
_publ_section_title
;
Structure prediction by ZEFSAII (Michael W. Deem and Ramdas Pophale) SiO2 
 PCOD8113362
Probable space group: C 2/M
;
_chemical_formula_sum "Si O2"
_cell_formula_units_Z 52
_cell_length_a 14.300522
_cell_length_b 14.172564
_cell_length_c 20.570003
_cell_angle_alpha 90.000000
_cell_angle_beta 41.011961
_cell_angle_gamma 90.000000
_cell_volume 2735.784362
_symmetry_space_group_name_H-M "C 2/M"
_symmetry_group_IT_number 12
_symmetry_cell_setting 'monoclinic'
loop_
_space_group_symop_operation_xyz
x,y,z
-x,y,-z
-x,-y,-z
x,-y,z
1/2+x,1/2+y,z
1/2-x,1/2+y,-z
1/2-x,1/2-y,-z
1/2+x,1/2-y,z
loop_
_atom_site_type_symbol
_atom_site_label
_atom_site_fract_x
_atom_site_fract_y
_atom_site_fract_z
Si Si1 0.503027 0.299552 0.186785
Si Si2 0.131723 0.000000 0.098548
Si Si3 0.334912 0.817797 0.797437
Si Si4 0.908448 0.303368 0.114234
Si Si5 0.344815 0.000000 0.108899
Si Si6 0.989373 0.394172 0.401741
Si Si7 0.234043 0.608296 0.378178
Si Si8 0.830396 0.000000 0.067736
O O1 0.538607 0.405534 0.146698
O O2 0.626127 0.253966 0.165673
O O3 0.501701 0.225483 0.127557
O O4 0.355990 0.313270 0.303361
O O5 0.237089 0.000000 0.104710
O O6 0.204651 0.000000 0.990301
O O7 0.221618 0.767375 0.811527
O O8 0.478726 0.836960 0.680918
O O9 0.253104 0.910721 0.862003
O O10 0.835316 0.406820 0.158455
O O11 0.000000 0.292247 0.000000
O O12 0.500000 0.000000 0.000000
O O13 0.954533 0.500000 0.398955
O O14 0.130169 0.391890 0.371508
O O15 0.852449 0.355563 0.512777
O O16 0.291415 0.500000 0.358098
O O17 0.000000 0.000000 0.000000
#
# Coordination Sequence:
#
# PCOD8113362 Si02
#       8
#     8   4   8   8   4   8   8   4
#     4  12  24  37  64  92 118 159 212 249 301 367
#     4  12  24  42  61  88 122 167 212 244 295 369
#     4  12  23  38  61  91 118 158 205 249 308 368
#     4  11  24  41  60  85 122 163 201 249 300 361
#     4  10  24  44  62  79 119 168 203 248 298 358
#     4   9  18  36  60  86 118 150 194 248 311 367
#     4   9  18  35  62  87 114 153 192 250 309 363
#     4  12  28  40  59  89 131 161 197 267 314 342
#
# _framework density 19.007345999999998
#
# number of rings (size 3 to 8) (size 9 to 14) (size 15 to 20)
#    0.000    1.231    4.615    3.231    4.308    1.846 
#    0.000    0.000    0.000    0.000    0.000    1.077 
#    0.000    0.000    0.000    0.000    0.000    0.000 
#
# Total GULP energy -322165.640197 kJ/mol
# GULP energy per Si atom -12390.986161 kJ/mol
# Density = 1.896408 g / cm^3
# Si number density = 19.007346 Si / 1000 Ang^3
#
#
#
# Elastic Constant Matrix: (Units=GPa)
#
#
# Indices 1 2 3 4 5 6 
#
# 1 56.1407 22.6353 10.6856 -0.0001 5.7899 0.0000
# 2 22.6353 117.8446 41.3911 0.0000 5.1861 -0.0001
# 3 10.6856 41.3911 101.9976 -0.0002 2.8867 0.0000
# 4 -0.0001 0.0000 -0.0002 -48.5806 0.0002 88.7716
# 5 5.7899 5.1861 2.8867 0.0002 25.6155 -0.0001
# 6 0.0000 -0.0001 0.0000 88.7716 -0.0001 -135.2816
#
#
#
# Elastic Compliance Matrix: (Units=1/GPa)
#
#
# Indices 1 2 3 4 5 6 
#
# 1 0.019680 -0.003417 -0.000571 0.000000 -0.003692 0.000000
# 2 -0.003417 0.010552 -0.003898 0.000000 -0.000925 0.000000
# 3 -0.000571 -0.003898 0.011456 0.000000 -0.000373 0.000000
# 4 0.000000 0.000000 0.000000 0.103401 -0.000001 0.067851
# 5 -0.003692 -0.000925 -0.000373 -0.000001 0.040103 0.000000
# 6 0.000000 0.000000 0.000000 0.067851 0.000000 0.037132
#
#
# Mechanical properties :
#
#
# Convention : Reuss Voigt Hill
#
# Bulk Modulus (GPa) = 38.58524 47.26742 42.92633
# Shear Modulus (GPa) = 20.26484 -18.23130 1.01677
#
# Velocity S-wave (km/s) = 3.26875 -3.10041 0.73219
# Velocity P-wave (km/s) = 5.88137 3.47926 4.83197
#
# Compressibility (1/GPa) = 0.02591665
#
# Stress axis : x y z
#
# Youngs Moduli (GPa) = 50.81426 94.77006 87.28870
#
# Poissons Ratio (x) = 0.32384 0.04980
# Poissons Ratio (y) = 0.17364 0.34024
# Poissons Ratio (z) = 0.02899 0.36940
#
# Static dielectric constant tensor:
#      x y z
#    x 3.257220 0.000000 0.013440 
#    y 0.000000 2.957930 0.000000 
#    z 0.013440 0.000000 3.575410 
# 
# 
# High freq. dielectric constant tensor:
#      x y z
#    x 1.725070 0.000000 -0.002220 
#    y 0.000000 1.743570 0.000000 
#    z -0.002220 0.000000 1.737030 
# 
# From -- ./inp_files/270615.got.cif
#   From: 2010.06.25/outbox.cif.g09.slc.cpg/sg12_136_cif.got.tgz:270615.got - 2010.06.28 00:19:55.
