data_PCOD8113656
_publ_section_title
;
Structure prediction by ZEFSAII (Michael W. Deem and Ramdas Pophale) SiO2 
 PCOD8113656
Probable space group: C 2/M
;
_chemical_formula_sum "Si O2"
_cell_formula_units_Z 48
_cell_length_a 27.590287
_cell_length_b 10.381334
_cell_length_c 9.837649
_cell_angle_alpha 90.000000
_cell_angle_beta 104.364193
_cell_angle_gamma 90.000000
_cell_volume 2729.651581
_symmetry_space_group_name_H-M "C 2/M"
_symmetry_group_IT_number 12
_symmetry_cell_setting 'monoclinic'
loop_
_space_group_symop_operation_xyz
x,y,z
-x,y,-z
-x,-y,-z
x,-y,z
1/2+x,1/2+y,z
1/2-x,1/2+y,-z
1/2-x,1/2-y,-z
1/2+x,1/2-y,z
loop_
_atom_site_type_symbol
_atom_site_label
_atom_site_fract_x
_atom_site_fract_y
_atom_site_fract_z
Si Si1 0.728175 0.000000 0.832583
Si Si2 0.559885 0.144641 0.687848
Si Si3 0.951696 0.355737 0.640863
Si Si4 0.847891 0.258273 0.596116
Si Si5 0.795255 0.000000 0.616078
Si Si6 0.211939 0.500000 0.339635
Si Si7 0.836545 0.256623 0.266431
Si Si8 0.219288 0.000000 0.852533
O O1 0.757400 0.000000 0.712766
O O2 0.694508 0.126767 0.819051
O O3 0.768281 0.000000 0.980509
O O4 0.553959 0.138169 0.523386
O O5 0.507533 0.197971 0.716255
O O6 0.606968 0.235772 0.755046
O O7 0.570143 0.000000 0.749359
O O8 0.945782 0.500000 0.695974
O O9 0.907312 0.267376 0.669647
O O10 0.830303 0.124555 0.646877
O O11 0.819541 0.373174 0.651672
O O12 0.835951 0.268967 0.428633
O O13 0.764087 0.000000 0.456122
O O14 0.228405 0.500000 0.193544
O O15 0.813851 0.123140 0.204633
#
# Coordination Sequence:
#
# PCOD8113656 Si02
#       8
#     4   8   8   8   4   4   8   4
#     4  12  24  38  53  73 103 147 182 210 248 313
#     4   8  14  26  49  75 104 134 166 203 258 311
#     4   8  14  26  46  79 107 128 162 212 255 307
#     4  11  19  32  55  81 105 136 172 213 265 305
#     4  12  22  34  53  77 105 139 176 214 258 312
#     4  12  20  36  53  75 101 145 176 210 256 308
#     4  11  19  35  54  77 105 140 175 213 259 308
#     4  12  26  36  49  77 111 137 178 220 254 297
#
# _framework density 17.584662000000002
#
# number of rings (size 3 to 8) (size 9 to 14) (size 15 to 20)
#    0.000    1.667    5.000    3.000    0.000    0.000 
#    0.000    0.833    0.000    4.000    0.000    7.000 
#    0.000    0.000    0.000    0.000    0.000    0.000 
#
# Total GULP energy -297492.433317 kJ/mol
# GULP energy per Si atom -12395.518055 kJ/mol
# Density = 1.754464 g / cm^3
# Si number density = 17.584662 Si / 1000 Ang^3
#
#
#
# Elastic Constant Matrix: (Units=GPa)
#
#
# Indices 1 2 3 4 5 6 
#
# 1 147.3356 71.0416 7.8621 0.0000 4.4052 0.0000
# 2 71.0416 131.9220 6.5345 0.0000 2.5505 0.0000
# 3 7.8621 6.5345 21.3369 0.0000 7.6134 0.0000
# 4 0.0000 0.0000 0.0000 5.7881 0.0000 -8.0784
# 5 4.4052 2.5505 7.6134 0.0000 8.2905 0.0000
# 6 0.0000 0.0000 0.0000 -8.0784 0.0000 3.5754
#
#
#
# Elastic Compliance Matrix: (Units=1/GPa)
#
#
# Indices 1 2 3 4 5 6 
#
# 1 0.009278 -0.004897 -0.001037 0.000000 -0.002471 0.000000
# 2 -0.004897 0.010282 -0.001702 0.000000 0.001002 0.000000
# 3 -0.001037 -0.001702 0.070483 0.000000 -0.063652 0.000000
# 4 0.000000 0.000000 0.000000 -0.080228 0.000000 -0.181269
# 5 -0.002471 0.001002 -0.063652 0.000000 0.180079 0.000000
# 6 0.000000 0.000000 0.000000 -0.181269 0.000000 -0.129878
#
#
# Mechanical properties :
#
#
# Convention : Reuss Voigt Hill
#
# Bulk Modulus (GPa) = 13.37432 52.38563 32.87997
# Shear Modulus (GPa) = 49.89414 17.87455 33.88435
#
# Velocity S-wave (km/s) = 5.33247 3.19170 4.39444
# Velocity P-wave (km/s) = 6.74803 6.59073 6.66984
#
# Compressibility (1/GPa) = 0.07477016
#
# Stress axis : x y z
#
# Youngs Moduli (GPa) = 107.78588 97.25495 14.18786
#
# Poissons Ratio (x) = 0.47626 0.01472
# Poissons Ratio (y) = 0.52783 0.02415
# Poissons Ratio (z) = 0.11180 0.16553
#
# Static dielectric constant tensor:
#      x y z
#    x 3.868120 0.000000 -0.015370 
#    y 0.000000 3.233720 0.000000 
#    z -0.015370 0.000000 2.847890 
# 
# 
# High freq. dielectric constant tensor:
#      x y z
#    x 1.700580 0.000000 -0.004950 
#    y 0.000000 1.672070 0.000000 
#    z -0.004950 0.000000 1.626260 
# 
# From -- ./inp_files/108875.got.cif
#   From: 2010.06.25/outbox.cif.g09.slc.cpg/sg12_55_cif.got.tgz:108875.got - 2010.06.28 00:19:55.
