data_PCOD8113211
_publ_section_title
;
Structure prediction by ZEFSAII (Michael W. Deem and Ramdas Pophale) SiO2 
 PCOD8113211
Probable space group: C 2/M
;
_chemical_formula_sum "Si O2"
_cell_formula_units_Z 52
_cell_length_a 9.408816
_cell_length_b 14.947820
_cell_length_c 30.646811
_cell_angle_alpha 90.000000
_cell_angle_beta 37.885206
_cell_angle_gamma 90.000000
_cell_volume 2646.818082
_symmetry_space_group_name_H-M "C 2/M"
_symmetry_group_IT_number 12
_symmetry_cell_setting 'monoclinic'
loop_
_space_group_symop_operation_xyz
x,y,z
-x,y,-z
-x,-y,-z
x,-y,z
1/2+x,1/2+y,z
1/2-x,1/2+y,-z
1/2-x,1/2-y,-z
1/2+x,1/2-y,z
loop_
_atom_site_type_symbol
_atom_site_label
_atom_site_fract_x
_atom_site_fract_y
_atom_site_fract_z
Si Si1 0.345990 0.599748 0.637883
Si Si2 0.012819 0.260295 0.447442
Si Si3 0.388367 0.396349 0.338599
Si Si4 0.653996 0.896331 0.822575
Si Si5 0.389591 0.098789 0.798510
Si Si6 0.500000 0.752176 0.000000
Si Si7 0.006763 0.222465 0.095412
O O1 0.418997 0.500000 0.605911
O O2 0.372313 0.664539 0.590265
O O3 0.500217 0.630673 0.641827
O O4 0.077512 0.602224 0.715078
O O5 0.158919 0.336512 0.386067
O O6 0.000000 0.288303 0.500000
O O7 0.750000 0.250000 0.500000
O O8 0.314932 0.500000 0.356534
O O9 0.575756 0.379320 0.254699
O O10 0.503694 0.873815 0.816513
O O11 0.559404 0.827984 0.882427
O O12 0.619852 0.000000 0.845746
O O13 0.184873 0.164471 0.833662
O O14 0.283464 0.000000 0.828032
O O15 0.499087 0.696192 0.954802
O O16 0.744119 0.805764 0.944214
#
# Coordination Sequence:
#
# PCOD8113211 Si02
#       7
#     8   8   8   8   8   4   8
#     4   9  19  37  58  83 111 142 186 237 278 323
#     4  12  23  36  55  83 114 151 187 218 276 340
#     4   9  19  37  59  83 109 143 190 234 273 325
#     4   9  18  35  62  86 105 142 192 233 273 325
#     4   9  18  35  62  85 105 144 191 230 278 327
#     4  10  24  34  56  80 122 156 180 210 284 332
#     4  11  19  40  55  84 115 151 181 231 267 332
#
# _framework density 19.646231
#
# number of rings (size 3 to 8) (size 9 to 14) (size 15 to 20)
#    0.000    2.154    3.077    2.769    0.000    1.231 
#    0.000    5.385    0.000    3.692    0.000    0.000 
#    0.000    0.000    0.000    0.000    0.000    0.000 
#
# Total GULP energy -322134.104865 kJ/mol
# GULP energy per Si atom -12389.773264 kJ/mol
# Density = 1.960151 g / cm^3
# Si number density = 19.646231 Si / 1000 Ang^3
#
#
#
# Elastic Constant Matrix: (Units=GPa)
#
#
# Indices 1 2 3 4 5 6 
#
# 1 72.9551 25.3717 37.6371 -0.0018 -25.5996 -0.0011
# 2 25.3717 106.9000 58.0222 0.0020 -17.4490 -0.0017
# 3 37.6371 58.0222 96.8250 -0.0216 -24.0449 -0.0094
# 4 -0.0018 0.0020 -0.0216 12.6617 -0.0044 -0.9981
# 5 -25.5996 -17.4490 -24.0449 -0.0044 39.5109 0.0025
# 6 -0.0011 -0.0017 -0.0094 -0.9981 0.0025 22.7614
#
#
#
# Elastic Compliance Matrix: (Units=1/GPa)
#
#
# Indices 1 2 3 4 5 6 
#
# 1 0.019832 -0.000371 -0.005108 -0.000003 0.009577 -0.000002
# 2 -0.000371 0.013924 -0.007931 -0.000016 0.001082 -0.000003
# 3 -0.005108 -0.007931 0.018112 0.000033 0.004210 0.000008
# 4 -0.000003 -0.000016 0.000033 0.079252 0.000020 0.003475
# 5 0.009577 0.001082 0.004210 0.000020 0.034554 -0.000001
# 6 -0.000002 -0.000003 0.000008 0.003475 -0.000001 0.044086
#
#
# Mechanical properties :
#
#
# Convention : Reuss Voigt Hill
#
# Bulk Modulus (GPa) = 39.92516 57.63801 48.78158
# Shear Modulus (GPa) = 20.41400 25.36341 22.88870
#
# Velocity S-wave (km/s) = 3.22697 3.59696 3.41698
# Velocity P-wave (km/s) = 5.85240 6.83026 6.36015
#
# Compressibility (1/GPa) = 0.02504687
#
# Stress axis : x y z
#
# Youngs Moduli (GPa) = 50.42382 71.81893 55.21326
#
# Poissons Ratio (x) = 0.02665 0.28205
# Poissons Ratio (y) = 0.01871 0.43789
# Poissons Ratio (z) = 0.25758 0.56959
#
# Static dielectric constant tensor:
#      x y z
#    x 3.289870 -0.000030 -0.192180 
#    y -0.000030 4.227420 -0.000110 
#    z -0.192180 -0.000110 3.876710 
# 
# 
# High freq. dielectric constant tensor:
#      x y z
#    x 1.737880 0.000000 -0.016330 
#    y 0.000000 1.750240 0.000000 
#    z -0.016330 0.000000 1.779460 
# 
# From -- ./inp_files/372490.got.cif
#   From: 2010.06.25/outbox.cif.g09.slc.cpg/sg12_187_cif.got.tgz:372490.got - 2010.06.28 00:19:55.
