data_PCOD8113953
_publ_section_title
;
Structure prediction by ZEFSAII (Michael W. Deem and Ramdas Pophale) SiO2 
 PCOD8113953
Probable space group: C 2/M
;
_chemical_formula_sum "Si O2"
_cell_formula_units_Z 64
_cell_length_a 14.157655
_cell_length_b 18.052503
_cell_length_c 15.442634
_cell_angle_alpha 90.000000
_cell_angle_beta 62.292928
_cell_angle_gamma 90.000000
_cell_volume 3494.285395
_symmetry_space_group_name_H-M "C 2/M"
_symmetry_group_IT_number 12
_symmetry_cell_setting 'monoclinic'
loop_
_space_group_symop_operation_xyz
x,y,z
-x,y,-z
-x,-y,-z
x,-y,z
1/2+x,1/2+y,z
1/2-x,1/2+y,-z
1/2-x,1/2-y,-z
1/2+x,1/2-y,z
loop_
_atom_site_type_symbol
_atom_site_label
_atom_site_fract_x
_atom_site_fract_y
_atom_site_fract_z
Si Si1 0.332901 0.412275 0.107377
Si Si2 0.733450 0.323870 0.329473
Si Si3 0.824681 0.586343 0.547010
Si Si4 0.413894 0.587779 0.714750
Si Si5 0.076755 0.315909 0.638081
Si Si6 0.045323 0.912629 0.111127
Si Si7 0.336622 0.169344 0.715782
Si Si8 0.878133 0.155542 0.443432
O O1 0.309869 0.500000 0.121011
O O2 0.426507 0.389315 0.134050
O O3 0.229087 0.366312 0.177621
O O4 0.367402 0.386066 0.996428
O O5 0.700305 0.383152 0.270338
O O6 0.856055 0.340490 0.305293
O O7 0.720443 0.241764 0.297387
O O8 0.653903 0.337333 0.443353
O O9 0.846801 0.500000 0.527943
O O10 0.905049 0.628235 0.448863
O O11 0.848889 0.609471 0.634736
O O12 0.702364 0.603584 0.575480
O O13 0.415896 0.500000 0.711255
O O14 0.429807 0.620018 0.804921
O O15 0.505331 0.620003 0.613471
O O16 0.126725 0.237078 0.593732
O O17 0.951083 0.310515 0.708895
O O18 0.050829 0.000000 0.111477
#
# Coordination Sequence:
#
# PCOD8113953 Si02
#       8
#     8   8   8   8   8   8   8   8
#     4   9  18  34  59  88 118 145 181 237 289 334
#     4  11  23  37  54  78 116 156 186 227 279 338
#     4  11  22  35  55  82 113 148 194 242 274 322
#     4  11  22  35  60  87 108 143 195 241 281 334
#     4  11  23  38  54  76 116 159 188 222 285 337
#     4   8  17  36  59  88 117 140 177 241 302 326
#     4  12  21  34  58  83 110 151 191 225 279 346
#     4  11  20  38  58  80 112 152 194 230 285 329
#
# _framework density 18.315619000000002
#
# number of rings (size 3 to 8) (size 9 to 14) (size 15 to 20)
#    0.000    1.500    3.750    3.750    0.000    5.500 
#    0.000    0.625    0.000    0.750    0.000    2.625 
#    0.000    0.000    0.000    0.000    0.000    0.000 
#
# Total GULP energy -396818.822730 kJ/mol
# GULP energy per Si atom -12400.588210 kJ/mol
# Density = 1.827393 g / cm^3
# Si number density = 18.315619 Si / 1000 Ang^3
#
#
#
# Elastic Constant Matrix: (Units=GPa)
#
#
# Indices 1 2 3 4 5 6 
#
# 1 85.3502 6.8943 41.5436 0.0000 -3.7664 0.0000
# 2 6.8943 74.9777 24.8130 0.0000 -1.1117 0.0000
# 3 41.5436 24.8130 74.6135 0.0000 -2.9597 0.0000
# 4 0.0000 0.0000 0.0000 20.7769 0.0000 -2.3352
# 5 -3.7664 -1.1117 -2.9597 0.0000 21.6545 0.0000
# 6 0.0000 0.0000 0.0000 -2.3352 0.0000 29.2429
#
#
#
# Elastic Compliance Matrix: (Units=1/GPa)
#
#
# Indices 1 2 3 4 5 6 
#
# 1 0.016316 0.001695 -0.009584 0.000000 0.001615 0.000000
# 2 0.001695 0.015163 -0.005976 0.000000 0.000257 0.000000
# 3 -0.009584 -0.005976 0.020760 0.000000 0.000864 0.000000
# 4 0.000000 0.000000 0.000000 0.048566 0.000000 0.003878
# 5 0.001615 0.000257 0.000864 0.000000 0.046592 0.000000
# 6 0.000000 0.000000 0.000000 0.003878 0.000000 0.034506
#
#
# Mechanical properties :
#
#
# Convention : Reuss Voigt Hill
#
# Bulk Modulus (GPa) = 40.80113 42.38259 41.59186
# Shear Modulus (GPa) = 22.95652 25.11423 24.03537
#
# Velocity S-wave (km/s) = 3.54416 3.70698 3.62648
# Velocity P-wave (km/s) = 6.25085 6.44303 6.34767
#
# Compressibility (1/GPa) = 0.02450913
#
# Stress axis : x y z
#
# Youngs Moduli (GPa) = 61.29042 65.95001 48.16863
#
# Poissons Ratio (x) = -0.11181 0.46165
# Poissons Ratio (y) = -0.10391 0.28787
# Poissons Ratio (z) = 0.58742 0.39414
#
# Static dielectric constant tensor:
#      x y z
#    x 3.564190 0.000000 0.189060 
#    y 0.000000 3.256150 0.000000 
#    z 0.189060 0.000000 3.424900 
# 
# 
# High freq. dielectric constant tensor:
#      x y z
#    x 1.713980 0.000000 0.006640 
#    y 0.000000 1.702070 0.000000 
#    z 0.006640 0.000000 1.687740 
# 
# From -- ./inp_files/216358.got.cif
#   From: 2010.06.25/outbox.cif.g09.slc.cpg/sg12_109_cif.got.tgz:216358.got - 2010.06.28 00:19:55.
