data_PCOD8113571
_publ_section_title
;
Structure prediction by ZEFSAII (Michael W. Deem and Ramdas Pophale) SiO2 
 PCOD8113571
Probable space group: C 2/M
;
_chemical_formula_sum "Si O2"
_cell_formula_units_Z 40
_cell_length_a 21.168336
_cell_length_b 10.479665
_cell_length_c 19.314787
_cell_angle_alpha 90.000000
_cell_angle_beta 152.395946
_cell_angle_gamma 90.000000
_cell_volume 1985.369751
_symmetry_space_group_name_H-M "C 2/M"
_symmetry_group_IT_number 12
_symmetry_cell_setting 'monoclinic'
loop_
_space_group_symop_operation_xyz
x,y,z
-x,y,-z
-x,-y,-z
x,-y,z
1/2+x,1/2+y,z
1/2-x,1/2+y,-z
1/2-x,1/2-y,-z
1/2+x,1/2-y,z
loop_
_atom_site_type_symbol
_atom_site_label
_atom_site_fract_x
_atom_site_fract_y
_atom_site_fract_z
Si Si1 0.471165 0.742743 0.729044
Si Si2 0.649613 0.208071 0.621448
Si Si3 0.728072 0.351981 0.577467
Si Si4 0.978462 0.000000 0.147755
Si Si5 0.755850 0.500000 0.182351
Si Si6 0.454153 0.000000 0.245465
Si Si7 0.701455 0.000000 0.566338
O O1 0.408026 0.696832 0.594585
O O2 0.354155 0.770417 0.671590
O O3 0.561055 0.626014 0.846879
O O4 0.572168 0.866366 0.820207
O O5 0.500000 0.247051 0.500000
O O6 0.719554 0.332378 0.653851
O O7 0.731099 0.129811 0.759545
O O8 0.640575 0.121002 0.545330
O O9 0.750463 0.500000 0.584459
O O10 0.138184 0.000000 0.286613
O O11 0.895173 0.000000 0.995470
O O12 0.870105 0.500000 0.234621
O O13 0.620915 0.000000 0.415436
#
# Coordination Sequence:
#
# PCOD8113571 Si02
#       7
#     8   8   8   4   4   4   4
#     4  11  21  36  61  93 123 159 203 255 313 360
#     4  11  20  37  61  89 117 159 212 252 298 356
#     4  11  20  34  61  94 124 153 203 268 309 348
#     4  12  24  39  60  98 127 158 205 259 308 362
#     4  11  25  40  63  90 124 169 208 244 305 376
#     4  12  20  41  68  88 124 165 204 259 305 367
#     4  11  17  34  61  86 112 152 199 252 287 349
#
# _framework density 20.147380999999999
#
# number of rings (size 3 to 8) (size 9 to 14) (size 15 to 20)
#    0.000    0.800    8.000    1.800    0.000    2.800 
#    0.000    0.000    2.200    1.200    0.000    0.000 
#    0.000    0.000    0.000    0.000    0.000    0.000 
#
# Total GULP energy -247770.477747 kJ/mol
# GULP energy per Si atom -12388.523887 kJ/mol
# Density = 2.010152 g / cm^3
# Si number density = 20.147381 Si / 1000 Ang^3
#
#
#
# Elastic Constant Matrix: (Units=GPa)
#
#
# Indices 1 2 3 4 5 6 
#
# 1 101.9806 34.6256 33.4009 0.0001 -11.9666 0.0001
# 2 34.6256 136.9665 27.0015 0.0001 -16.5847 0.0001
# 3 33.4009 27.0015 50.2837 0.0001 -8.0826 0.0001
# 4 0.0001 0.0001 0.0001 19.1953 0.0001 -13.5485
# 5 -11.9666 -16.5847 -8.0826 0.0001 22.0606 0.0001
# 6 0.0001 0.0001 0.0001 -13.5485 0.0001 41.7440
#
#
#
# Elastic Compliance Matrix: (Units=1/GPa)
#
#
# Indices 1 2 3 4 5 6 
#
# 1 0.013110 -0.001456 -0.007395 0.000000 0.003308 0.000000
# 2 -0.001456 0.008839 -0.003016 0.000000 0.004750 0.000000
# 3 -0.007395 -0.003016 0.026999 0.000000 0.003614 0.000000
# 4 0.000000 0.000000 0.000000 0.067577 -0.000001 0.021933
# 5 0.003308 0.004750 0.003614 -0.000001 0.052019 0.000000
# 6 0.000000 0.000000 0.000000 0.021933 0.000000 0.031074
#
#
# Mechanical properties :
#
#
# Convention : Reuss Voigt Hill
#
# Bulk Modulus (GPa) = 39.65831 53.25408 46.45620
# Shear Modulus (GPa) = 21.57432 29.54683 25.56058
#
# Velocity S-wave (km/s) = 3.27590 3.83369 3.56572
# Velocity P-wave (km/s) = 5.83400 6.78866 6.32935
#
# Compressibility (1/GPa) = 0.02521539
#
# Stress axis : x y z
#
# Youngs Moduli (GPa) = 76.27608 113.13751 37.03777
#
# Poissons Ratio (x) = 0.16473 0.27389
# Poissons Ratio (y) = 0.11106 0.11169
# Poissons Ratio (z) = 0.56406 0.34118
#
# Static dielectric constant tensor:
#      x y z
#    x 3.808800 0.000000 -0.168210 
#    y 0.000000 3.300700 0.000000 
#    z -0.168210 0.000000 3.222520 
# 
# 
# High freq. dielectric constant tensor:
#      x y z
#    x 1.793030 0.000000 -0.005250 
#    y 0.000000 1.801070 0.000000 
#    z -0.005250 0.000000 1.733860 
# 
# From -- ./inp_files/283438.got.cif
#   From: 2010.06.25/outbox.cif.g09.slc.cpg/sg12_142_cif.got.tgz:283438.got - 2010.06.28 00:19:55.
