data_PCOD8113668
_publ_section_title
;
Structure prediction by ZEFSAII (Michael W. Deem and Ramdas Pophale) SiO2 
 PCOD8113668
Probable space group: C 2/M
;
_chemical_formula_sum "Si O2"
_cell_formula_units_Z 56
_cell_length_a 21.007870
_cell_length_b 19.193650
_cell_length_c 13.983175
_cell_angle_alpha 90.000000
_cell_angle_beta 150.292540
_cell_angle_gamma 90.000000
_cell_volume 2794.164282
_symmetry_space_group_name_H-M "C 2/M"
_symmetry_group_IT_number 12
_symmetry_cell_setting 'monoclinic'
loop_
_space_group_symop_operation_xyz
x,y,z
-x,y,-z
-x,-y,-z
x,-y,z
1/2+x,1/2+y,z
1/2-x,1/2+y,-z
1/2-x,1/2-y,-z
1/2+x,1/2-y,z
loop_
_atom_site_type_symbol
_atom_site_label
_atom_site_fract_x
_atom_site_fract_y
_atom_site_fract_z
Si Si1 0.779582 0.792729 0.320093
Si Si2 0.917971 0.576979 0.298460
Si Si3 0.112163 0.382754 0.390983
Si Si4 0.540594 0.271611 0.281131
Si Si5 0.253275 0.288039 0.905945
Si Si6 0.866269 0.828546 0.781764
Si Si7 0.359042 0.922036 0.784404
O O1 0.914043 0.783513 0.551199
O O2 0.809675 0.765987 0.252194
O O3 0.662992 0.744634 0.205569
O O4 0.737570 0.872391 0.282005
O O5 0.852666 0.500000 0.211623
O O6 0.812803 0.637360 0.168414
O O7 0.000000 0.585948 0.500000
O O8 0.005005 0.580715 0.316471
O O9 0.052056 0.310179 0.276526
O O10 0.240554 0.377883 0.626731
O O11 0.149166 0.422540 0.342103
O O12 0.631491 0.314510 0.328727
O O13 0.401159 0.301559 0.074317
O O14 0.250000 0.250000 0.000000
O O15 0.000000 0.859610 0.000000
O O16 0.325077 0.000000 0.774433
O O17 0.500000 0.899861 0.000000
#
# Coordination Sequence:
#
# PCOD8113668 Si02
#       7
#     8   8   8   8   8   8   8
#     4  11  21  38  59  89 130 157 209 265 312 372
#     4  11  25  44  63  89 128 173 214 260 320 380
#     4  11  20  39  62  93 128 160 209 260 316 373
#     4  11  20  36  62  93 122 159 208 263 316 362
#     4  12  25  39  64  93 122 165 217 265 307 369
#     4  11  19  33  62  94 122 156 200 265 320 367
#     4  11  22  35  58  91 125 165 204 252 320 379
#
# _framework density 20.041771000000001
#
# number of rings (size 3 to 8) (size 9 to 14) (size 15 to 20)
#    0.000    0.857    5.714    4.286    0.000    0.000 
#    0.000    0.714    0.000    1.714    0.000    2.000 
#    0.000    0.000    0.000    0.000    0.000    0.000 
#
# Total GULP energy -346983.136294 kJ/mol
# GULP energy per Si atom -12392.254868 kJ/mol
# Density = 1.999615 g / cm^3
# Si number density = 20.041771 Si / 1000 Ang^3
#
#
#
# Elastic Constant Matrix: (Units=GPa)
#
#
# Indices 1 2 3 4 5 6 
#
# 1 92.1683 32.1447 18.8807 0.0000 -20.4773 0.0000
# 2 32.1447 110.9609 40.4343 0.0000 -1.9016 0.0000
# 3 18.8807 40.4343 99.2531 0.0000 -8.4118 0.0000
# 4 0.0000 0.0000 0.0000 18.3527 0.0000 0.9649
# 5 -20.4773 -1.9016 -8.4118 0.0000 32.1967 0.0000
# 6 0.0000 0.0000 0.0000 0.9649 0.0000 20.6998
#
#
#
# Elastic Compliance Matrix: (Units=1/GPa)
#
#
# Indices 1 2 3 4 5 6 
#
# 1 0.014196 -0.003814 -0.000410 0.000000 0.008696 0.000000
# 2 -0.003814 0.011616 -0.004248 0.000000 -0.002850 0.000000
# 3 -0.000410 -0.004248 0.012109 0.000000 0.002652 0.000000
# 4 0.000000 0.000000 0.000000 0.054622 0.000000 -0.002546
# 5 0.008696 -0.002850 0.002652 0.000000 0.037115 0.000000
# 6 0.000000 0.000000 0.000000 -0.002546 0.000000 0.048428
#
#
# Mechanical properties :
#
#
# Convention : Reuss Voigt Hill
#
# Bulk Modulus (GPa) = 47.67165 53.92243 50.79704
# Shear Modulus (GPa) = 24.74975 28.31134 26.53054
#
# Velocity S-wave (km/s) = 3.51794 3.76256 3.64230
# Velocity P-wave (km/s) = 6.35130 6.77047 6.56423
#
# Compressibility (1/GPa) = 0.02097683
#
# Stress axis : x y z
#
# Youngs Moduli (GPa) = 70.44243 86.08528 82.58563
#
# Poissons Ratio (x) = 0.32835 0.03383
# Poissons Ratio (y) = 0.26868 0.35085
# Poissons Ratio (z) = 0.02885 0.36572
#
# Static dielectric constant tensor:
#      x y z
#    x 3.720290 0.000000 -0.146410 
#    y 0.000000 3.544470 0.000000 
#    z -0.146410 0.000000 3.704280 
# 
# 
# High freq. dielectric constant tensor:
#      x y z
#    x 1.785600 0.000000 -0.015330 
#    y 0.000000 1.758500 0.000000 
#    z -0.015330 0.000000 1.784580 
# 
# From -- ./inp_files/234736.got.cif
#   From: 2010.06.25/outbox.cif.g09.slc.cpg/sg12_118_cif.got.tgz:234736.got - 2010.06.28 00:19:55.
