data_PCOD8113976
_publ_section_title
;
Structure prediction by ZEFSAII (Michael W. Deem and Ramdas Pophale) SiO2 
 PCOD8113976
Probable space group: C 2/M
;
_chemical_formula_sum "Si O2"
_cell_formula_units_Z 56
_cell_length_a 22.612783
_cell_length_b 14.911828
_cell_length_c 14.746107
_cell_angle_alpha 90.000000
_cell_angle_beta 33.391862
_cell_angle_gamma 90.000000
_cell_volume 2736.596995
_symmetry_space_group_name_H-M "C 2/M"
_symmetry_group_IT_number 12
_symmetry_cell_setting 'monoclinic'
loop_
_space_group_symop_operation_xyz
x,y,z
-x,y,-z
-x,-y,-z
x,-y,z
1/2+x,1/2+y,z
1/2-x,1/2+y,-z
1/2-x,1/2-y,-z
1/2+x,1/2-y,z
loop_
_atom_site_type_symbol
_atom_site_label
_atom_site_fract_x
_atom_site_fract_y
_atom_site_fract_z
Si Si1 0.991920 0.832851 0.909799
Si Si2 0.149409 0.312488 0.653416
Si Si3 0.807387 0.282038 0.087498
Si Si4 0.744240 0.596986 0.328824
Si Si5 0.507757 0.597817 0.699333
Si Si6 0.573582 0.750106 0.319360
Si Si7 0.026707 0.608140 0.243378
O O1 0.065043 0.744322 0.820438
O O2 0.031076 0.896418 0.777729
O O3 0.871460 0.806875 0.034440
O O4 0.000000 0.878538 0.000000
O O5 0.250000 0.250000 0.500000
O O6 0.190216 0.394124 0.661895
O O7 0.088733 0.356495 0.645304
O O8 0.777222 0.326522 0.219698
O O9 0.699670 0.249151 0.177077
O O10 0.875135 0.353224 0.941845
O O11 0.771536 0.500000 0.252265
O O12 0.618987 0.606194 0.505697
O O13 0.455314 0.500000 0.746586
O O14 0.435853 0.677828 0.751011
O O15 0.500000 0.723981 0.500000
O O16 0.538538 0.848488 0.328466
O O17 0.030730 0.500000 0.242897
#
# Coordination Sequence:
#
# PCOD8113976 Si02
#       7
#     8   8   8   8   8   8   8
#     4  11  22  39  65  94 124 165 208 259 325 389
#     4  11  20  38  65  90 125 171 210 257 325 391
#     4  11  23  39  65  94 126 174 213 264 327 385
#     4  11  21  36  62  97 125 157 212 269 325 385
#     4  11  24  42  64  93 127 167 216 271 320 377
#     4  12  24  44  68  91 128 177 225 267 319 387
#     4  11  25  42  64  98 134 170 215 272 332 387
#
# _framework density 20.463370000000001
#
# number of rings (size 3 to 8) (size 9 to 14) (size 15 to 20)
#    0.000    0.857    7.143    1.286    0.000    2.000 
#    0.000    2.143    0.000    0.000    0.000    0.000 
#    0.000    0.000    0.000    0.000    0.000    0.000 
#
# Total GULP energy -347066.018996 kJ/mol
# GULP energy per Si atom -12395.214964 kJ/mol
# Density = 2.041679 g / cm^3
# Si number density = 20.463370 Si / 1000 Ang^3
#
#
#
# Elastic Constant Matrix: (Units=GPa)
#
#
# Indices 1 2 3 4 5 6 
#
# 1 117.9783 37.3452 28.0672 0.0000 -8.9481 0.0000
# 2 37.3452 96.0199 22.8931 0.0000 -6.7258 0.0000
# 3 28.0672 22.8931 59.9280 0.0000 1.1943 0.0000
# 4 0.0000 0.0000 0.0000 -16.8067 0.0000 -30.6833
# 5 -8.9481 -6.7258 1.1943 0.0000 44.7232 0.0000
# 6 0.0000 0.0000 0.0000 -30.6833 0.0000 -2.6801
#
#
#
# Elastic Compliance Matrix: (Units=1/GPa)
#
#
# Indices 1 2 3 4 5 6 
#
# 1 0.010471 -0.003051 -0.003773 0.000000 0.001737 0.000000
# 2 -0.003051 0.012501 -0.003373 0.000000 0.001360 0.000000
# 3 -0.003773 -0.003373 0.019778 0.000000 -0.001790 0.000000
# 4 0.000000 0.000000 0.000000 0.002990 0.000000 -0.034229
# 5 0.001737 0.001360 -0.001790 0.000000 0.022960 0.000000
# 6 0.000000 0.000000 0.000000 -0.034229 0.000000 0.018749
#
#
# Mechanical properties :
#
#
# Convention : Reuss Voigt Hill
#
# Bulk Modulus (GPa) = 44.73393 50.05969 47.39681
# Shear Modulus (GPa) = 43.36664 17.42200 30.39432
#
# Velocity S-wave (km/s) = 4.60851 2.92100 3.85814
# Velocity P-wave (km/s) = 7.08701 5.99103 6.56194
#
# Compressibility (1/GPa) = 0.02235439
#
# Stress axis : x y z
#
# Youngs Moduli (GPa) = 95.49795 79.99480 50.56067
#
# Poissons Ratio (x) = 0.24410 0.19078
# Poissons Ratio (y) = 0.29140 0.17056
# Poissons Ratio (z) = 0.36033 0.26986
#
# Static dielectric constant tensor:
#      x y z
#    x 4.134670 0.000000 -0.289660 
#    y 0.000000 3.751030 0.000000 
#    z -0.289660 0.000000 4.044730 
# 
# 
# High freq. dielectric constant tensor:
#      x y z
#    x 1.810080 0.000000 -0.002400 
#    y 0.000000 1.784020 0.000000 
#    z -0.002400 0.000000 1.802880 
# 
# From -- ./inp_files/240875.got.cif
#   From: 2010.06.25/outbox.cif.g09.slc.cpg/sg12_121_cif.got.tgz:240875.got - 2010.06.28 00:19:55.
