data_PCOD8113723
_publ_section_title
;
Structure prediction by ZEFSAII (Michael W. Deem and Ramdas Pophale) SiO2 
 PCOD8113723
Probable space group: C 2/M
;
_chemical_formula_sum "Si O2"
_cell_formula_units_Z 32
_cell_length_a 7.567595
_cell_length_b 17.418810
_cell_length_c 15.042804
_cell_angle_alpha 90.000000
_cell_angle_beta 125.624493
_cell_angle_gamma 90.000000
_cell_volume 1611.820047
_symmetry_space_group_name_H-M "C 2/M"
_symmetry_group_IT_number 12
_symmetry_cell_setting 'monoclinic'
loop_
_space_group_symop_operation_xyz
x,y,z
-x,y,-z
-x,-y,-z
x,-y,z
1/2+x,1/2+y,z
1/2-x,1/2+y,-z
1/2-x,1/2-y,-z
1/2+x,1/2-y,z
loop_
_atom_site_type_symbol
_atom_site_label
_atom_site_fract_x
_atom_site_fract_y
_atom_site_fract_z
Si Si1 0.926899 0.305744 0.288564
Si Si2 0.434012 0.588875 0.749866
Si Si3 0.765070 0.299505 0.918171
Si Si4 0.596241 0.659169 0.621431
O O1 0.802293 0.374592 0.301168
O O2 0.769232 0.257798 0.175868
O O3 0.997350 0.243997 0.384198
O O4 0.139969 0.339284 0.302670
O O5 0.421374 0.500000 0.769605
O O6 0.598960 0.629959 0.865883
O O7 0.514327 0.599806 0.672190
O O8 0.750000 0.250000 0.000000
O O9 0.000000 0.338035 0.000000
O O10 0.500000 0.630586 0.500000
#
# Coordination Sequence:
#
# PCOD8113723 Si02
#       4
#     8   8   8   8
#     4  11  21  39  64  94 121 164 208 260 300 369
#     4  11  25  41  59  94 133 160 204 262 313 367
#     4  11  19  38  65  87 118 163 208 250 304 368
#     4  11  22  39  68  93 120 165 219 256 301 369
#
# _framework density 19.853332999999999
#
# number of rings (size 3 to 8) (size 9 to 14) (size 15 to 20)
#    0.000    1.000    7.500    2.250    0.000    2.000 
#    0.000    3.750    0.000    0.000    0.000    0.000 
#    0.000    0.000    0.000    0.000    0.000    0.000 
#
# Total GULP energy -198321.729953 kJ/mol
# GULP energy per Si atom -12395.108122 kJ/mol
# Density = 1.980815 g / cm^3
# Si number density = 19.853333 Si / 1000 Ang^3
#
#
#
# Elastic Constant Matrix: (Units=GPa)
#
#
# Indices 1 2 3 4 5 6 
#
# 1 103.9819 31.2029 13.7089 0.0000 5.9102 0.0000
# 2 31.2029 122.6539 20.3790 0.0000 -2.1567 0.0000
# 3 13.7089 20.3790 84.2101 0.0000 -6.0161 0.0000
# 4 0.0000 0.0000 0.0000 15.7376 0.0000 0.4097
# 5 5.9102 -2.1567 -6.0161 0.0000 32.8817 0.0000
# 6 0.0000 0.0000 0.0000 0.4097 0.0000 27.7151
#
#
#
# Elastic Compliance Matrix: (Units=1/GPa)
#
#
# Indices 1 2 3 4 5 6 
#
# 1 0.010683 -0.002544 -0.001289 0.000000 -0.002323 0.000000
# 2 -0.002544 0.009102 -0.001736 0.000000 0.000737 0.000000
# 3 -0.001289 -0.001736 0.012679 0.000000 0.002438 0.000000
# 4 0.000000 0.000000 0.000000 0.063566 0.000000 -0.000940
# 5 -0.002323 0.000737 0.002438 0.000000 0.031324 0.000000
# 6 0.000000 0.000000 0.000000 -0.000940 0.000000 0.036095
#
#
# Mechanical properties :
#
#
# Convention : Reuss Voigt Hill
#
# Bulk Modulus (GPa) = 46.89401 49.04749 47.97075
# Shear Modulus (GPa) = 27.51853 31.63724 29.57789
#
# Velocity S-wave (km/s) = 3.72706 3.99626 3.86401
# Velocity P-wave (km/s) = 6.49560 6.78616 6.64247
#
# Compressibility (1/GPa) = 0.02132468
#
# Stress axis : x y z
#
# Youngs Moduli (GPa) = 93.61065 109.87044 78.86960
#
# Poissons Ratio (x) = 0.27954 0.10169
# Poissons Ratio (y) = 0.23817 0.13690
# Poissons Ratio (z) = 0.12069 0.19071
#
# Static dielectric constant tensor:
#      x y z
#    x 4.190100 0.000000 -0.212930 
#    y 0.000000 3.240070 0.000000 
#    z -0.212930 0.000000 3.382220 
# 
# 
# High freq. dielectric constant tensor:
#      x y z
#    x 1.794690 0.000000 0.001480 
#    y 0.000000 1.737430 0.000000 
#    z 0.001480 0.000000 1.774850 
# 
# From -- ./inp_files/256296.got.cif
#   From: 2010.06.25/outbox.cif.g09.slc.cpg/sg12_129_cif.got.tgz:256296.got - 2010.06.28 00:19:55.
