data_PCOD8113322
_publ_section_title
;
Structure prediction by ZEFSAII (Michael W. Deem and Ramdas Pophale) SiO2 
 PCOD8113322
Probable space group: C 2/M
;
_chemical_formula_sum "Si O2"
_cell_formula_units_Z 32
_cell_length_a 17.425560
_cell_length_b 11.484699
_cell_length_c 14.503518
_cell_angle_alpha 90.000000
_cell_angle_beta 29.978742
_cell_angle_gamma 90.000000
_cell_volume 1450.342301
_symmetry_space_group_name_H-M "C 2/M"
_symmetry_group_IT_number 12
_symmetry_cell_setting 'monoclinic'
loop_
_space_group_symop_operation_xyz
x,y,z
-x,y,-z
-x,-y,-z
x,-y,z
1/2+x,1/2+y,z
1/2-x,1/2+y,-z
1/2-x,1/2-y,-z
1/2+x,1/2-y,z
loop_
_atom_site_type_symbol
_atom_site_label
_atom_site_fract_x
_atom_site_fract_y
_atom_site_fract_z
Si Si1 0.905030 0.134747 0.006950
Si Si2 0.103761 0.000000 0.301443
Si Si3 0.469410 0.000000 0.925403
Si Si4 0.075976 0.284041 0.697594
Si Si5 0.920391 0.255360 0.679893
O O1 0.754767 0.213812 0.156608
O O2 0.857623 0.000000 0.053256
O O3 0.000000 0.165127 0.000000
O O4 0.004437 0.166305 0.814261
O O5 0.060464 0.123060 0.300564
O O6 0.000000 0.000000 0.500000
O O7 0.286947 0.000000 0.112935
O O8 0.550480 0.887924 0.796085
O O9 0.500000 0.000000 0.000000
O O10 0.250000 0.250000 0.500000
O O11 0.997799 0.327150 0.682640
O O12 0.000000 0.279583 0.500000
#
# Coordination Sequence:
#
# PCOD8113322 Si02
#       5
#     8   4   4   8   8
#     4  11  25  45  70 100 142 185 233 299 367 433
#     4  10  24  42  76 103 138 188 239 300 364 414
#     4  12  28  48  77 107 143 190 245 301 360 435
#     4  12  28  44  72 104 145 186 243 296 360 429
#     4  11  25  45  71 101 144 184 242 295 364 433
#
# _framework density 22.063758
#
# number of rings (size 3 to 8) (size 9 to 14) (size 15 to 20)
#    0.000    0.750    2.500    3.000   12.250    0.500 
#    0.000    0.000    0.000    0.000    0.000    0.000 
#    0.000    0.000    0.000    0.000    0.000    0.000 
#
# Total GULP energy -198256.862886 kJ/mol
# GULP energy per Si atom -12391.053930 kJ/mol
# Density = 2.201354 g / cm^3
# Si number density = 22.063758 Si / 1000 Ang^3
#
#
#
# Elastic Constant Matrix: (Units=GPa)
#
#
# Indices 1 2 3 4 5 6 
#
# 1 154.5798 32.6124 55.6700 0.0001 20.5082 0.0000
# 2 32.6124 100.9343 38.6347 0.0000 14.0214 0.0000
# 3 55.6700 38.6347 186.2758 0.0001 -0.4376 -0.0001
# 4 0.0001 0.0000 0.0001 34.5171 -0.0001 5.3279
# 5 20.5082 14.0214 -0.4376 -0.0001 38.4567 0.0000
# 6 0.0000 0.0000 -0.0001 5.3279 0.0000 25.0869
#
#
#
# Elastic Compliance Matrix: (Units=1/GPa)
#
#
# Indices 1 2 3 4 5 6 
#
# 1 0.008013 -0.001232 -0.002148 0.000000 -0.003849 0.000000
# 2 -0.001232 0.011586 -0.002043 0.000000 -0.003591 0.000000
# 3 -0.002148 -0.002043 0.006439 0.000000 0.001964 0.000000
# 4 0.000000 0.000000 0.000000 0.029953 0.000000 -0.006361
# 5 -0.003849 -0.003591 0.001964 0.000000 0.029387 0.000000
# 6 0.000000 0.000000 0.000000 -0.006361 0.000000 0.041213
#
#
# Mechanical properties :
#
#
# Convention : Reuss Voigt Hill
#
# Bulk Modulus (GPa) = 65.82832 77.29155 71.55993
# Shear Modulus (GPa) = 35.08702 40.60365 37.84533
#
# Velocity S-wave (km/s) = 3.99213 4.29451 4.14608
# Velocity P-wave (km/s) = 7.15190 7.72641 7.44470
#
# Compressibility (1/GPa) = 0.01519103
#
# Stress axis : x y z
#
# Youngs Moduli (GPa) = 124.79085 86.30756 155.30757
#
# Poissons Ratio (x) = 0.10635 0.33365
# Poissons Ratio (y) = 0.15377 0.31734
# Poissons Ratio (z) = 0.26809 0.17635
#
# Static dielectric constant tensor:
#      x y z
#    x 3.897440 0.000000 -0.025590 
#    y 0.000000 4.365820 0.000000 
#    z -0.025590 0.000000 3.733270 
# 
# 
# High freq. dielectric constant tensor:
#      x y z
#    x 1.870500 0.000000 0.005380 
#    y 0.000000 1.875150 0.000000 
#    z 0.005380 0.000000 1.890300 
# 
# From -- ./inp_files/56802.got.cif
#   From: 2010.06.25/outbox.cif.g09.slc.cpg/sg12_29_cif.got.tgz:56802.got - 2010.06.28 00:19:55.
