data_PCOD8113432
_publ_section_title
;
Structure prediction by ZEFSAII (Michael W. Deem and Ramdas Pophale) SiO2 
 PCOD8113432
Probable space group: C 2/M
;
_chemical_formula_sum "Si O2"
_cell_formula_units_Z 28
_cell_length_a 18.192888
_cell_length_b 12.908687
_cell_length_c 5.204894
_cell_angle_alpha 90.000000
_cell_angle_beta 67.960719
_cell_angle_gamma 90.000000
_cell_volume 1133.029065
_symmetry_space_group_name_H-M "C 2/M"
_symmetry_group_IT_number 12
_symmetry_cell_setting 'monoclinic'
loop_
_space_group_symop_operation_xyz
x,y,z
-x,y,-z
-x,-y,-z
x,-y,z
1/2+x,1/2+y,z
1/2-x,1/2+y,-z
1/2-x,1/2-y,-z
1/2+x,1/2-y,z
loop_
_atom_site_type_symbol
_atom_site_label
_atom_site_fract_x
_atom_site_fract_y
_atom_site_fract_z
Si Si1 0.666308 0.810205 0.538479
Si Si2 0.413188 0.384822 0.509606
Si Si3 0.448200 0.000000 0.316735
Si Si4 0.750657 0.117868 0.929822
O O1 0.615917 0.704158 0.648876
O O2 0.730861 0.829483 0.676937
O O3 0.603525 0.899194 0.623101
O O4 0.711362 0.812707 0.202594
O O5 0.500000 0.355853 0.500000
O O6 0.415356 0.500000 0.376664
O O7 0.346667 0.385992 0.824519
O O8 0.500000 0.000000 0.500000
O O9 0.500000 0.000000 0.000000
O O10 0.716420 0.000000 0.987169
#
# Coordination Sequence:
#
# PCOD8113432 Si02
#       4
#     8   8   4   8
#     4  12  23  45  71 104 141 181 234 288 351 421
#     4  10  24  45  70 102 143 189 238 287 343 412
#     4  12  24  40  68 104 141 176 219 286 360 410
#     4  11  22  44  73 105 138 183 235 288 349 419
#
# _framework density 24.712519
#
# number of rings (size 3 to 8) (size 9 to 14) (size 15 to 20)
#    0.000    0.857    2.857    4.286    0.000    0.000 
#    0.000    5.714    0.000   18.000    0.000    0.000 
#    0.000    0.000    0.000    0.000    0.000    0.000 
#
# Total GULP energy -173546.777228 kJ/mol
# GULP energy per Si atom -12396.198373 kJ/mol
# Density = 2.465627 g / cm^3
# Si number density = 24.712519 Si / 1000 Ang^3
#
#
#
# Elastic Constant Matrix: (Units=GPa)
#
#
# Indices 1 2 3 4 5 6 
#
# 1 193.5784 91.9437 76.4684 0.0000 -16.4063 0.0000
# 2 91.9437 198.9814 31.7395 0.0000 -2.7274 0.0000
# 3 76.4684 31.7395 149.2644 0.0000 4.4523 0.0000
# 4 0.0000 0.0000 0.0000 130.8874 0.0000 -24.8861
# 5 -16.4063 -2.7274 4.4523 0.0000 38.3927 0.0000
# 6 0.0000 0.0000 0.0000 -24.8861 0.0000 56.2277
#
#
#
# Elastic Compliance Matrix: (Units=1/GPa)
#
#
# Indices 1 2 3 4 5 6 
#
# 1 0.008560 -0.003296 -0.003800 0.000000 0.003864 0.000000
# 2 -0.003296 0.006481 0.000340 0.000000 -0.000988 0.000000
# 3 -0.003800 0.000340 0.008651 0.000000 -0.002603 0.000000
# 4 0.000000 0.000000 0.000000 0.008342 0.000000 0.003692
# 5 0.003864 -0.000988 -0.002603 0.000000 0.027930 0.000000
# 6 0.000000 0.000000 0.000000 0.003692 0.000000 0.019419
#
#
# Mechanical properties :
#
#
# Convention : Reuss Voigt Hill
#
# Bulk Modulus (GPa) = 98.22620 104.68082 101.45351
# Shear Modulus (GPa) = 51.92736 67.87973 59.90354
#
# Velocity S-wave (km/s) = 4.58892 5.24665 4.92877
# Velocity P-wave (km/s) = 8.24084 8.89689 8.57514
#
# Compressibility (1/GPa) = 0.01018058
#
# Stress axis : x y z
#
# Youngs Moduli (GPa) = 116.82297 154.29879 115.58807
#
# Poissons Ratio (x) = 0.50861 0.43919
# Poissons Ratio (y) = 0.38508 -0.03931
# Poissons Ratio (z) = 0.44388 -0.05247
#
# Static dielectric constant tensor:
#      x y z
#    x 4.634550 0.000000 -0.212660 
#    y 0.000000 5.238660 0.000000 
#    z -0.212660 0.000000 4.328720 
# 
# 
# High freq. dielectric constant tensor:
#      x y z
#    x 1.989250 0.000000 -0.025930 
#    y 0.000000 2.042300 0.000000 
#    z -0.025930 0.000000 1.960760 
# 
# From -- ./inp_files/14278.got.cif
#   From: 2010.06.25/outbox.cif.g09.slc.cpg/sg12_8_cif.got.tgz:14278.got - 2010.06.28 00:19:55.
