data_PCOD8113800
_publ_section_title
;
Structure prediction by ZEFSAII (Michael W. Deem and Ramdas Pophale) SiO2 
 PCOD8113800
Probable space group: C 2/M
;
_chemical_formula_sum "Si O2"
_cell_formula_units_Z 48
_cell_length_a 29.985579
_cell_length_b 8.932775
_cell_length_c 19.603973
_cell_angle_alpha 90.000000
_cell_angle_beta 31.200540
_cell_angle_gamma 90.000000
_cell_volume 2720.207868
_symmetry_space_group_name_H-M "C 2/M"
_symmetry_group_IT_number 12
_symmetry_cell_setting 'monoclinic'
loop_
_space_group_symop_operation_xyz
x,y,z
-x,y,-z
-x,-y,-z
x,-y,z
1/2+x,1/2+y,z
1/2-x,1/2+y,-z
1/2-x,1/2-y,-z
1/2+x,1/2-y,z
loop_
_atom_site_type_symbol
_atom_site_label
_atom_site_fract_x
_atom_site_fract_y
_atom_site_fract_z
Si Si1 0.010211 0.177228 0.911031
Si Si2 0.464690 0.678170 0.616606
Si Si3 0.379450 0.324088 0.968737
Si Si4 0.028646 0.177110 0.673809
Si Si5 0.227123 0.176957 0.101351
Si Si6 0.157049 0.178078 0.617685
O O1 0.097287 0.233314 0.759208
O O2 0.925437 0.222304 0.979229
O O3 0.016200 0.000000 0.907676
O O4 0.000000 0.248075 0.000000
O O5 0.500000 0.747673 0.500000
O O6 0.469452 0.500000 0.608426
O O7 0.523665 0.737865 0.602644
O O8 0.367177 0.731541 0.753431
O O9 0.359164 0.500000 0.992933
O O10 0.441164 0.274708 0.826022
O O11 0.291407 0.232169 0.076567
O O12 0.112188 0.235442 0.605904
O O13 0.032708 0.000000 0.669531
O O14 0.231813 0.000000 0.087328
O O15 0.250000 0.250000 0.000000
O O16 0.250000 0.250000 0.500000
O O17 0.166106 0.000000 0.606698
#
# Coordination Sequence:
#
# PCOD8113800 Si02
#       6
#     8   8   8   8   8   8
#     4   8  15  30  52  73  94 127 166 197 233 289
#     4   9  17  30  48  69  94 125 161 194 225 276
#     4   9  16  30  52  74  95 124 163 202 237 279
#     4   8  14  28  48  67  89 124 163 189 223 280
#     4  11  20  31  51  76  98 123 162 202 239 284
#     4   9  17  30  50  71  93 123 160 198 234 279
#
# _framework density 17.645710000000001
#
# number of rings (size 3 to 8) (size 9 to 14) (size 15 to 20)
#    0.000    3.000    1.667    2.500    0.000    0.000 
#    3.000    3.333    0.000    3.000    0.000    0.000 
#    0.000    0.000    0.000    0.000    0.000    0.000 
#
# Total GULP energy -297422.434063 kJ/mol
# GULP energy per Si atom -12392.601419 kJ/mol
# Density = 1.760555 g / cm^3
# Si number density = 17.645710 Si / 1000 Ang^3
#
#
#
# Elastic Constant Matrix: (Units=GPa)
#
#
# Indices 1 2 3 4 5 6 
#
# 1 176.3492 22.4149 99.7533 -0.0054 3.0226 -0.0005
# 2 22.4149 27.4910 26.9357 0.0014 -4.9207 0.0007
# 3 99.7533 26.9357 132.9730 0.0019 -5.8261 -0.0029
# 4 -0.0054 0.0014 0.0019 21.7416 0.0023 -9.4559
# 5 3.0226 -4.9207 -5.8261 0.0023 36.6561 0.0014
# 6 -0.0005 0.0007 -0.0029 -9.4559 0.0014 21.1676
#
#
#
# Elastic Compliance Matrix: (Units=1/GPa)
#
#
# Indices 1 2 3 4 5 6 
#
# 1 0.010039 -0.001376 -0.007348 0.000004 -0.002180 0.000001
# 2 -0.001376 0.046377 -0.008141 -0.000006 0.005045 -0.000006
# 3 -0.007348 -0.008141 0.014763 -0.000002 0.001860 0.000001
# 4 0.000004 -0.000006 -0.000002 0.057086 -0.000006 0.025501
# 5 -0.002180 0.005045 0.001860 -0.000006 0.028433 -0.000005
# 6 0.000001 -0.000006 0.000001 0.025501 -0.000005 0.058634
#
#
# Mechanical properties :
#
#
# Convention : Reuss Voigt Hill
#
# Bulk Modulus (GPa) = 26.70274 70.55790 48.63032
# Shear Modulus (GPa) = 19.11708 28.42700 23.77204
#
# Velocity S-wave (km/s) = 3.29505 4.01806 3.67438
# Velocity P-wave (km/s) = 5.44445 7.84851 6.75430
#
# Compressibility (1/GPa) = 0.03744934
#
# Stress axis : x y z
#
# Youngs Moduli (GPa) = 99.60797 21.56228 67.73605
#
# Poissons Ratio (x) = 0.02968 0.49773
# Poissons Ratio (y) = 0.13709 0.55143
# Poissons Ratio (z) = 0.73192 0.17554
#
# Static dielectric constant tensor:
#      x y z
#    x 3.905330 -0.000010 0.096250 
#    y -0.000010 2.786810 0.000020 
#    z 0.096250 0.000020 3.366370 
# 
# 
# High freq. dielectric constant tensor:
#      x y z
#    x 1.699210 0.000000 -0.006930 
#    y 0.000000 1.630890 0.000000 
#    z -0.006930 0.000000 1.670880 
# 
# From -- ./inp_files/222578.got.cif
#   From: 2010.06.25/outbox.cif.g09.slc.cpg/sg12_112_cif.got.tgz:222578.got - 2010.06.28 00:19:55.
