data_PCOD8113450
_publ_section_title
;
Structure prediction by ZEFSAII (Michael W. Deem and Ramdas Pophale) SiO2 
 PCOD8113450
Probable space group: C 2/M
;
_chemical_formula_sum "Si O2"
_cell_formula_units_Z 56
_cell_length_a 13.551972
_cell_length_b 18.200892
_cell_length_c 20.659653
_cell_angle_alpha 90.000000
_cell_angle_beta 32.606341
_cell_angle_gamma 90.000000
_cell_volume 2745.980036
_symmetry_space_group_name_H-M "C 2/M"
_symmetry_group_IT_number 12
_symmetry_cell_setting 'monoclinic'
loop_
_space_group_symop_operation_xyz
x,y,z
-x,y,-z
-x,-y,-z
x,-y,z
1/2+x,1/2+y,z
1/2-x,1/2+y,-z
1/2-x,1/2-y,-z
1/2+x,1/2-y,z
loop_
_atom_site_type_symbol
_atom_site_label
_atom_site_fract_x
_atom_site_fract_y
_atom_site_fract_z
Si Si1 0.960007 0.582192 0.332818
Si Si2 0.321179 0.582390 0.962838
Si Si3 0.453015 0.664091 0.778576
Si Si4 0.853020 0.705785 0.137966
Si Si5 0.862798 0.122556 0.132673
Si Si6 0.832986 0.413622 0.544615
Si Si7 0.491801 0.175715 0.812046
O O1 0.893452 0.500000 0.352083
O O2 0.176975 0.579872 0.223084
O O3 0.875247 0.608634 0.447420
O O4 0.900085 0.636816 0.307365
O O5 0.244559 0.500000 0.011184
O O6 0.315467 0.608951 0.892004
O O7 0.537716 0.589044 0.859350
O O8 0.204711 0.635330 0.074415
O O9 0.349376 0.675761 0.767829
O O10 0.655810 0.633412 0.659811
O O11 0.457296 0.739703 0.816351
O O12 0.828518 0.791838 0.162303
O O13 0.905855 0.666159 0.176038
O O14 0.000000 0.689812 0.000000
O O15 0.000000 0.103426 0.000000
O O16 0.791445 0.500000 0.574325
O O17 0.000000 0.391046 0.500000
#
# Coordination Sequence:
#
# PCOD8113450 Si02
#       7
#     8   8   8   8   8   8   8
#     4  11  23  41  63  95 134 169 211 278 339 385
#     4  12  23  37  62  96 131 173 218 268 333 394
#     4  12  23  42  68  93 131 176 224 267 326 395
#     4  11  22  40  63  97 136 172 215 263 328 391
#     4  11  20  34  63  96 128 163 210 273 331 394
#     4  10  24  46  70  97 131 172 222 278 332 389
#     4  12  23  40  63  96 136 171 214 273 330 389
#
# _framework density 20.393446999999998
#
# number of rings (size 3 to 8) (size 9 to 14) (size 15 to 20)
#    0.000    0.714    5.714    3.429    0.000    2.286 
#    0.000    4.286    0.000    1.714    0.000    0.000 
#    0.000    0.000    0.000    0.000    0.000    0.000 
#
# Total GULP energy -347176.021188 kJ/mol
# GULP energy per Si atom -12399.143614 kJ/mol
# Density = 2.034703 g / cm^3
# Si number density = 20.393447 Si / 1000 Ang^3
#
#
#
# Elastic Constant Matrix: (Units=GPa)
#
#
# Indices 1 2 3 4 5 6 
#
# 1 134.8956 45.0156 36.1845 0.0034 8.4404 -0.0012
# 2 45.0156 103.6071 57.5081 -0.0048 2.2806 -0.0007
# 3 36.1845 57.5081 96.7282 -0.0126 8.3323 -0.0065
# 4 0.0034 -0.0048 -0.0126 23.0572 0.0002 6.3666
# 5 8.4404 2.2806 8.3323 0.0002 36.3648 0.0032
# 6 -0.0012 -0.0007 -0.0065 6.3666 0.0032 25.8726
#
#
#
# Elastic Compliance Matrix: (Units=1/GPa)
#
#
# Indices 1 2 3 4 5 6 
#
# 1 0.008904 -0.003075 -0.001368 -0.000003 -0.001560 0.000001
# 2 -0.003075 0.015509 -0.008210 0.000000 0.001622 -0.000002
# 3 -0.001368 -0.008210 0.015975 0.000007 -0.002828 0.000002
# 4 -0.000003 0.000000 0.000007 0.046532 0.000000 -0.011450
# 5 -0.001560 0.001622 -0.002828 0.000000 0.028407 -0.000004
# 6 0.000001 -0.000002 0.000002 -0.011450 -0.000004 0.041469
#
#
# Mechanical properties :
#
#
# Convention : Reuss Voigt Hill
#
# Bulk Modulus (GPa) = 66.30696 68.07191 67.18944
# Shear Modulus (GPa) = 26.71935 30.16043 28.43989
#
# Velocity S-wave (km/s) = 3.62359 3.84985 3.73843
# Velocity P-wave (km/s) = 7.07754 7.29477 7.18697
#
# Compressibility (1/GPa) = 0.01508137
#
# Stress axis : x y z
#
# Youngs Moduli (GPa) = 112.31071 64.47760 62.59759
#
# Poissons Ratio (x) = 0.19825 0.08566
# Poissons Ratio (y) = 0.34532 0.51395
# Poissons Ratio (z) = 0.15368 0.52938
#
# Static dielectric constant tensor:
#      x y z
#    x 4.004070 -0.000010 0.164790 
#    y -0.000010 3.616880 0.000050 
#    z 0.164790 0.000050 3.630350 
# 
# 
# High freq. dielectric constant tensor:
#      x y z
#    x 1.801960 0.000000 0.016580 
#    y 0.000000 1.793660 0.000000 
#    z 0.016580 0.000000 1.779750 
# 
# From -- ./inp_files/311682.got.cif
#   From: 2010.06.25/outbox.cif.g09.slc.cpg/sg12_156_cif.got.tgz:311682.got - 2010.06.28 00:19:55.
