data_PCOD8113107
_publ_section_title
;
Structure prediction by ZEFSAII (Michael W. Deem and Ramdas Pophale) SiO2 
 PCOD8113107
Probable space group: C 2/M
;
_chemical_formula_sum "Si O2"
_cell_formula_units_Z 40
_cell_length_a 17.569730
_cell_length_b 9.535154
_cell_length_c 19.163366
_cell_angle_alpha 90.000000
_cell_angle_beta 139.947377
_cell_angle_gamma 90.000000
_cell_volume 2065.889120
_symmetry_space_group_name_H-M "C 2/M"
_symmetry_group_IT_number 12
_symmetry_cell_setting 'monoclinic'
loop_
_space_group_symop_operation_xyz
x,y,z
-x,y,-z
-x,-y,-z
x,-y,z
1/2+x,1/2+y,z
1/2-x,1/2+y,-z
1/2-x,1/2-y,-z
1/2+x,1/2-y,z
loop_
_atom_site_type_symbol
_atom_site_label
_atom_site_fract_x
_atom_site_fract_y
_atom_site_fract_z
Si Si1 0.709560 0.000000 0.932549
Si Si2 0.672097 0.500000 0.834096
Si Si3 0.011453 0.500000 0.393506
Si Si4 0.954353 0.000000 0.045538
Si Si5 0.534073 0.220118 0.753630
Si Si6 0.694205 0.000000 0.639475
Si Si7 0.890318 0.228985 0.781281
Si Si8 0.381687 0.000000 0.871316
O O1 0.632248 0.138231 0.867388
O O2 0.761671 0.000000 0.046000
O O3 0.812638 0.000000 0.946679
O O4 0.586605 0.367562 0.766468
O O5 0.768061 0.500000 0.840688
O O6 0.006474 0.638815 0.343478
O O7 0.900171 0.500000 0.365842
O O8 0.133464 0.500000 0.521327
O O9 0.997728 0.139586 0.114205
O O10 0.000000 0.000000 0.000000
O O11 0.417734 0.233883 0.720255
O O12 0.771134 0.860282 0.701898
O O13 0.876376 0.364955 0.818744
O O14 0.500000 0.000000 0.000000
#
# Coordination Sequence:
#
# PCOD8113107 Si02
#       8
#     4   4   4   4   8   4   8   4
#     4  11  23  37  59  86 126 171 204 238 283 366
#     4  12  22  37  57  88 123 162 194 247 297 353
#     4  10  23  44  68  91 109 159 204 258 312 363
#     4  11  24  35  61  87 124 171 214 237 285 356
#     4  11  23  39  62  87 123 157 205 247 303 359
#     4  10  23  45  69  85 117 154 213 253 300 372
#     4  11  23  42  58  91 123 160 202 252 296 360
#     4  12  25  34  57  90 132 158 194 243 303 350
#
# _framework density 19.362124000000001
#
# number of rings (size 3 to 8) (size 9 to 14) (size 15 to 20)
#    0.000    1.000    2.000    5.400   11.200    0.800 
#    0.000    1.000    0.000    3.600    0.000    0.000 
#    0.000    0.000    0.000    0.000    0.000    0.000 
#
# Total GULP energy -248108.232435 kJ/mol
# GULP energy per Si atom -12405.411622 kJ/mol
# Density = 1.931805 g / cm^3
# Si number density = 19.362124 Si / 1000 Ang^3
#
#
#
# Elastic Constant Matrix: (Units=GPa)
#
#
# Indices 1 2 3 4 5 6 
#
# 1 138.2729 55.4078 30.2163 0.0000 -5.2375 0.0000
# 2 55.4078 167.9349 56.4626 0.0000 -5.0308 0.0000
# 3 30.2163 56.4626 91.4571 0.0000 -7.8332 0.0000
# 4 0.0000 0.0000 0.0000 67.8624 0.0000 11.0695
# 5 -5.2375 -5.0308 -7.8332 0.0000 32.1452 0.0000
# 6 0.0000 0.0000 0.0000 11.0695 0.0000 38.1665
#
#
#
# Elastic Compliance Matrix: (Units=1/GPa)
#
#
# Indices 1 2 3 4 5 6 
#
# 1 0.008480 -0.002341 -0.001297 0.000000 0.000699 0.000000
# 2 -0.002341 0.008161 -0.004277 0.000000 -0.000147 0.000000
# 3 -0.001297 -0.004277 0.014225 0.000000 0.002586 0.000000
# 4 0.000000 0.000000 0.000000 0.015467 0.000000 -0.004486
# 5 0.000699 -0.000147 0.002586 0.000000 0.031830 0.000000
# 6 0.000000 0.000000 0.000000 -0.004486 0.000000 0.027502
#
#
# Mechanical properties :
#
#
# Convention : Reuss Voigt Hill
#
# Bulk Modulus (GPa) = 66.50857 75.75980 71.13418
# Shear Modulus (GPa) = 39.52373 44.67337 42.09855
#
# Velocity S-wave (km/s) = 4.52297 4.80860 4.66797
# Velocity P-wave (km/s) = 7.85498 8.36917 8.11615
#
# Compressibility (1/GPa) = 0.01503566
#
# Stress axis : x y z
#
# Youngs Moduli (GPa) = 117.92520 122.53729 70.30089
#
# Poissons Ratio (x) = 0.28686 0.09115
# Poissons Ratio (y) = 0.27606 0.30070
# Poissons Ratio (z) = 0.15289 0.52413
#
# Static dielectric constant tensor:
#      x y z
#    x 3.817180 0.000000 -0.009810 
#    y 0.000000 3.683730 0.000000 
#    z -0.009810 0.000000 3.443190 
# 
# 
# High freq. dielectric constant tensor:
#      x y z
#    x 1.778390 0.000000 -0.000270 
#    y 0.000000 1.771170 0.000000 
#    z -0.000270 0.000000 1.733080 
# 
# From -- ./inp_files/314569.got.cif
#   From: 2010.06.25/outbox.cif.g09.slc.cpg/sg12_158_cif.got.tgz:314569.got - 2010.06.28 00:19:55.
