data_PCOD8113436
_publ_section_title
;
Structure prediction by ZEFSAII (Michael W. Deem and Ramdas Pophale) SiO2 
 PCOD8113436
Probable space group: C 2/M
;
_chemical_formula_sum "Si O2"
_cell_formula_units_Z 24
_cell_length_a 13.719636
_cell_length_b 15.058366
_cell_length_c 9.837738
_cell_angle_alpha 90.000000
_cell_angle_beta 30.336975
_cell_angle_gamma 90.000000
_cell_volume 1026.549514
_symmetry_space_group_name_H-M "C 2/M"
_symmetry_group_IT_number 12
_symmetry_cell_setting 'monoclinic'
loop_
_space_group_symop_operation_xyz
x,y,z
-x,y,-z
-x,-y,-z
x,-y,z
1/2+x,1/2+y,z
1/2-x,1/2+y,-z
1/2-x,1/2-y,-z
1/2+x,1/2-y,z
loop_
_atom_site_type_symbol
_atom_site_label
_atom_site_fract_x
_atom_site_fract_y
_atom_site_fract_z
Si Si1 0.668507 0.323703 0.905331
Si Si2 0.471662 0.000000 0.874489
Si Si3 0.838130 0.855406 0.785970
Si Si4 0.767602 0.000000 0.289507
O O1 0.800882 0.237092 0.752525
O O2 0.798268 0.409685 0.707180
O O3 0.500000 0.307095 0.000000
O O4 0.578370 0.339985 0.163469
O O5 0.678346 0.000000 0.548819
O O6 0.500000 0.000000 0.000000
O O7 0.355780 0.087520 0.970291
O O8 0.000000 0.905049 0.500000
O O9 0.000000 0.000000 0.000000
#
# Coordination Sequence:
#
# PCOD8113436 Si02
#       4
#     8   4   8   4
#     4  10  24  45  72 103 141 192 238 284 353 423
#     4  12  28  46  75 107 144 185 239 298 359 415
#     4  11  26  43  71 109 146 181 238 297 352 419
#     4  10  25  46  75 100 138 193 238 284 355 429
#
# _framework density 23.379290000000001
#
# number of rings (size 3 to 8) (size 9 to 14) (size 15 to 20)
#    0.000    1.333    0.000    2.500   18.667    2.667 
#    0.000    0.000    0.000    0.000    0.000    0.000 
#    0.000    0.000    0.000    0.000    0.000    0.000 
#
# Total GULP energy -148764.407462 kJ/mol
# GULP energy per Si atom -12397.033955 kJ/mol
# Density = 2.332608 g / cm^3
# Si number density = 23.379290 Si / 1000 Ang^3
#
#
#
# Elastic Constant Matrix: (Units=GPa)
#
#
# Indices 1 2 3 4 5 6 
#
# 1 166.6935 36.7439 59.5448 -0.0018 30.8366 0.0017
# 2 36.7439 160.6032 37.0512 -0.0006 8.3599 0.0008
# 3 59.5448 37.0512 182.9198 -0.0004 15.1724 0.0011
# 4 -0.0018 -0.0006 -0.0004 26.0192 0.0014 6.8108
# 5 30.8366 8.3599 15.1724 0.0014 34.2435 -0.0015
# 6 0.0017 0.0008 0.0011 6.8108 -0.0015 28.9993
#
#
#
# Elastic Compliance Matrix: (Units=1/GPa)
#
#
# Indices 1 2 3 4 5 6 
#
# 1 0.008051 -0.001086 -0.001891 0.000001 -0.006147 -0.000001
# 2 -0.001086 0.006715 -0.000988 0.000000 -0.000224 0.000000
# 3 -0.001891 -0.000988 0.006355 0.000000 -0.000872 0.000000
# 4 0.000001 0.000000 0.000000 0.040951 -0.000003 -0.009618
# 5 -0.006147 -0.000224 -0.000872 -0.000003 0.035179 0.000003
# 6 -0.000001 0.000000 0.000000 -0.009618 0.000003 0.036742
#
#
# Mechanical properties :
#
#
# Convention : Reuss Voigt Hill
#
# Bulk Modulus (GPa) = 75.81046 86.32182 81.06614
# Shear Modulus (GPa) = 34.17193 42.97751 38.57472
#
# Velocity S-wave (km/s) = 3.82728 4.29216 4.06637
# Velocity P-wave (km/s) = 7.21301 7.84640 7.53636
#
# Compressibility (1/GPa) = 0.01319079
#
# Stress axis : x y z
#
# Youngs Moduli (GPa) = 124.20829 148.93098 157.35949
#
# Poissons Ratio (x) = 0.16170 0.29757
# Poissons Ratio (y) = 0.13486 0.15548
# Poissons Ratio (z) = 0.23488 0.14715
#
# Static dielectric constant tensor:
#      x y z
#    x 4.043580 0.000000 0.222800 
#    y 0.000000 4.802890 0.000000 
#    z 0.222800 0.000000 4.068590 
# 
# 
# High freq. dielectric constant tensor:
#      x y z
#    x 1.921180 0.000000 0.017580 
#    y 0.000000 1.944680 0.000000 
#    z 0.017580 0.000000 1.922890 
# 
# From -- ./inp_files/60628.got.cif
#   From: 2010.06.25/outbox.cif.g09.slc.cpg/sg12_31_cif.got.tgz:60628.got - 2010.06.28 00:19:55.
