data_PCOD8113086
_publ_section_title
;
Structure prediction by ZEFSAII (Michael W. Deem and Ramdas Pophale) SiO2 
 PCOD8113086
Probable space group: C 2/M
;
_chemical_formula_sum "Si O2"
_cell_formula_units_Z 48
_cell_length_a 10.825434
_cell_length_b 27.473613
_cell_length_c 13.494893
_cell_angle_alpha 90.000000
_cell_angle_beta 34.680174
_cell_angle_gamma 90.000000
_cell_volume 2283.699681
_symmetry_space_group_name_H-M "C 2/M"
_symmetry_group_IT_number 12
_symmetry_cell_setting 'monoclinic'
loop_
_space_group_symop_operation_xyz
x,y,z
-x,y,-z
-x,-y,-z
x,-y,z
1/2+x,1/2+y,z
1/2-x,1/2+y,-z
1/2-x,1/2-y,-z
1/2+x,1/2-y,z
loop_
_atom_site_type_symbol
_atom_site_label
_atom_site_fract_x
_atom_site_fract_y
_atom_site_fract_z
Si Si1 0.901740 0.946626 0.458607
Si Si2 0.220370 0.214451 0.791109
Si Si3 0.882317 0.888759 0.848513
Si Si4 0.302305 0.893163 0.700577
Si Si5 0.080381 0.442773 0.187252
Si Si6 0.081843 0.776259 0.180170
O O1 0.661944 0.924252 0.628262
O O2 0.000000 0.953452 0.500000
O O3 0.060401 0.911289 0.294853
O O4 0.888582 0.000000 0.415282
O O5 0.336544 0.162145 0.715113
O O6 0.396769 0.251409 0.724476
O O7 0.154133 0.228406 0.720052
O O8 0.000000 0.211586 0.000000
O O9 0.844465 0.831819 0.857851
O O10 0.078084 0.899663 0.792763
O O11 0.666180 0.913654 0.034668
O O12 0.500000 0.909206 0.500000
O O13 0.280713 0.929187 0.807772
O O14 0.090181 0.500000 0.157622
O O15 0.250000 0.750000 0.000000
#
# Coordination Sequence:
#
# PCOD8113086 Si02
#       6
#     8   8   8   8   8   8
#     4  10  23  44  62  88 129 163 204 257 305 362
#     4   9  18  36  58  81 119 162 203 251 311 365
#     4  11  22  41  65  92 124 164 205 251 313 371
#     4  11  21  38  61  90 129 162 198 257 316 365
#     4  11  23  39  65  94 121 162 207 252 308 371
#     4   9  18  36  59  86 120 161 202 254 310 359
#
# _framework density 21.018526000000001
#
# number of rings (size 3 to 8) (size 9 to 14) (size 15 to 20)
#    0.000    1.833    1.667    4.000    0.000    3.000 
#   12.000    6.667    0.000    0.000    0.000    0.000 
#    0.000    0.000    0.000    0.000    0.000    0.000 
#
# Total GULP energy -297529.240029 kJ/mol
# GULP energy per Si atom -12397.051668 kJ/mol
# Density = 2.097069 g / cm^3
# Si number density = 21.018526 Si / 1000 Ang^3
#
#
#
# Elastic Constant Matrix: (Units=GPa)
#
#
# Indices 1 2 3 4 5 6 
#
# 1 85.2514 39.6863 9.8320 0.0000 9.2783 0.0000
# 2 39.6863 107.8730 38.5947 0.0000 17.4799 0.0000
# 3 9.8320 38.5947 91.1843 0.0000 19.0666 0.0000
# 4 0.0000 0.0000 0.0000 12.2079 0.0000 -2.1846
# 5 9.2783 17.4799 19.0666 0.0000 20.9817 0.0000
# 6 0.0000 0.0000 0.0000 -2.1846 0.0000 30.9382
#
#
#
# Elastic Compliance Matrix: (Units=1/GPa)
#
#
# Indices 1 2 3 4 5 6 
#
# 1 0.014366 -0.005246 0.001341 0.000000 -0.003200 0.000000
# 2 -0.005246 0.013500 -0.004051 0.000000 -0.005245 0.000000
# 3 0.001341 -0.004051 0.014760 0.000000 -0.010630 0.000000
# 4 0.000000 0.000000 0.000000 0.082963 0.000000 0.005858
# 5 -0.003200 -0.005245 -0.010630 0.000000 0.063105 0.000000
# 6 0.000000 0.000000 0.000000 0.005858 0.000000 0.032736
#
#
# Mechanical properties :
#
#
# Convention : Reuss Voigt Hill
#
# Bulk Modulus (GPa) = 37.43716 51.17053 44.30385
# Shear Modulus (GPa) = 20.30477 25.90527 23.10502
#
# Velocity S-wave (km/s) = 3.11149 3.51450 3.31912
# Velocity P-wave (km/s) = 5.54605 6.39275 5.98439
#
# Compressibility (1/GPa) = 0.02671143
#
# Stress axis : x y z
#
# Youngs Moduli (GPa) = 69.60898 74.07561 67.75136
#
# Poissons Ratio (x) = 0.38862 -0.09084
# Poissons Ratio (y) = 0.36519 0.27449
# Poissons Ratio (z) = -0.09333 0.30012
#
# Static dielectric constant tensor:
#      x y z
#    x 4.103880 0.000000 0.092120 
#    y 0.000000 12.465290 0.000000 
#    z 0.092120 0.000000 3.755980 
# 
# 
# High freq. dielectric constant tensor:
#      x y z
#    x 1.826090 0.000000 0.001880 
#    y 0.000000 1.822580 0.000000 
#    z 0.001880 0.000000 1.810870 
# 
# From -- ./inp_files/50800.got.cif
#   From: 2010.06.25/outbox.cif.g09.slc.cpg/sg12_26_cif.got.tgz:50800.got - 2010.06.28 00:19:55.
