data_PCOD8113354
_publ_section_title
;
Structure prediction by ZEFSAII (Michael W. Deem and Ramdas Pophale) SiO2 
 PCOD8113354
Probable space group: C 2/M
;
_chemical_formula_sum "Si O2"
_cell_formula_units_Z 32
_cell_length_a 10.606429
_cell_length_b 15.213158
_cell_length_c 11.554413
_cell_angle_alpha 90.000000
_cell_angle_beta 133.229017
_cell_angle_gamma 90.000000
_cell_volume 1358.434312
_symmetry_space_group_name_H-M "C 2/M"
_symmetry_group_IT_number 12
_symmetry_cell_setting 'monoclinic'
loop_
_space_group_symop_operation_xyz
x,y,z
-x,y,-z
-x,-y,-z
x,-y,z
1/2+x,1/2+y,z
1/2-x,1/2+y,-z
1/2-x,1/2-y,-z
1/2+x,1/2-y,z
loop_
_atom_site_type_symbol
_atom_site_label
_atom_site_fract_x
_atom_site_fract_y
_atom_site_fract_z
Si Si1 0.661903 0.500000 0.018445
Si Si2 0.659946 0.207471 0.165512
Si Si3 0.985327 0.500000 0.624990
Si Si4 0.053924 0.162457 0.811991
Si Si5 0.266555 0.650483 0.467113
O O1 0.663153 0.586134 0.939905
O O2 0.500000 0.500000 0.000000
O O3 0.829409 0.500000 0.201533
O O4 0.806558 0.230190 0.160073
O O5 0.572602 0.292149 0.173032
O O6 0.761984 0.148745 0.324165
O O7 0.500000 0.157842 0.000000
O O8 0.000000 0.500000 0.500000
O O9 0.891682 0.589938 0.597701
O O10 0.941639 0.116759 0.638091
O O11 0.250000 0.750000 0.500000
#
# Coordination Sequence:
#
# PCOD8113354 Si02
#       5
#     4   8   4   8   8
#     4  12  26  45  70 105 144 189 237 293 359 429
#     4  11  23  41  68 103 141 185 235 291 352 424
#     4  12  26  47  72 105 146 189 241 301 359 429
#     4  11  24  44  70 102 141 187 238 295 356 426
#     4  10  24  43  69 103 140 186 236 293 356 421
#
# _framework density 23.556532000000001
#
# number of rings (size 3 to 8) (size 9 to 14) (size 15 to 20)
#    0.000    1.000    0.000    6.000    0.000   17.000 
#    0.000    5.000    0.000    1.500    0.000    0.000 
#    0.000    0.000    0.000    0.000    0.000    0.000 
#
# Total GULP energy -198215.341582 kJ/mol
# GULP energy per Si atom -12388.458849 kJ/mol
# Density = 2.350292 g / cm^3
# Si number density = 23.556532 Si / 1000 Ang^3
#
#
#
# Elastic Constant Matrix: (Units=GPa)
#
#
# Indices 1 2 3 4 5 6 
#
# 1 164.0713 66.0365 66.7697 0.0000 2.0834 0.0000
# 2 66.0365 113.4954 46.2683 0.0000 -0.8690 0.0000
# 3 66.7697 46.2683 228.6583 0.0000 3.4718 0.0000
# 4 0.0000 0.0000 0.0000 28.0228 0.0000 8.1424
# 5 2.0834 -0.8690 3.4718 0.0000 45.5908 0.0000
# 6 0.0000 0.0000 0.0000 8.1424 0.0000 33.5264
#
#
#
# Elastic Compliance Matrix: (Units=1/GPa)
#
#
# Indices 1 2 3 4 5 6 
#
# 1 0.008474 -0.004280 -0.001603 0.000000 -0.000347 0.000000
# 2 -0.004280 0.011769 -0.001139 0.000000 0.000507 0.000000
# 3 -0.001603 -0.001139 0.005077 0.000000 -0.000335 0.000000
# 4 0.000000 0.000000 0.000000 0.038395 0.000000 -0.009325
# 5 -0.000347 0.000507 -0.000335 0.000000 0.021985 0.000000
# 6 0.000000 0.000000 0.000000 -0.009325 0.000000 0.032092
#
#
# Mechanical properties :
#
#
# Convention : Reuss Voigt Hill
#
# Bulk Modulus (GPa) = 88.68490 96.04155 92.36323
# Shear Modulus (GPa) = 36.87411 43.23805 40.05608
#
# Velocity S-wave (km/s) = 3.96074 4.28892 4.12809
# Velocity P-wave (km/s) = 7.65807 8.08614 7.87501
#
# Compressibility (1/GPa) = 0.01127588
#
# Stress axis : x y z
#
# Youngs Moduli (GPa) = 118.00338 84.96539 196.96010
#
# Poissons Ratio (x) = 0.36363 0.31579
# Poissons Ratio (y) = 0.50503 0.22443
# Poissons Ratio (z) = 0.18919 0.09682
#
# Static dielectric constant tensor:
#      x y z
#    x 4.266020 0.000000 -0.109350 
#    y 0.000000 3.925660 0.000000 
#    z -0.109350 0.000000 5.608040 
# 
# 
# High freq. dielectric constant tensor:
#      x y z
#    x 1.935960 0.000000 -0.004530 
#    y 0.000000 1.892950 0.000000 
#    z -0.004530 0.000000 1.982920 
# 
# From -- ./inp_files/118699.got.cif
#   From: 2010.06.25/outbox.cif.g09.slc.cpg/sg12_60_cif.got.tgz:118699.got - 2010.06.28 00:19:55.
