data_PCOD8113084
_publ_section_title
;
Structure prediction by ZEFSAII (Michael W. Deem and Ramdas Pophale) SiO2 
 PCOD8113084
Probable space group: C 2/M
;
_chemical_formula_sum "Si O2"
_cell_formula_units_Z 56
_cell_length_a 14.074358
_cell_length_b 19.070967
_cell_length_c 18.757971
_cell_angle_alpha 90.000000
_cell_angle_beta 146.032437
_cell_angle_gamma 90.000000
_cell_volume 2813.092951
_symmetry_space_group_name_H-M "C 2/M"
_symmetry_group_IT_number 12
_symmetry_cell_setting 'monoclinic'
loop_
_space_group_symop_operation_xyz
x,y,z
-x,y,-z
-x,-y,-z
x,-y,z
1/2+x,1/2+y,z
1/2-x,1/2+y,-z
1/2-x,1/2-y,-z
1/2+x,1/2-y,z
loop_
_atom_site_type_symbol
_atom_site_label
_atom_site_fract_x
_atom_site_fract_y
_atom_site_fract_z
Si Si1 0.812651 0.183621 0.372890
Si Si2 0.378329 0.301899 0.252371
Si Si3 0.090192 0.350271 0.722010
Si Si4 0.308273 0.078447 0.352607
Si Si5 0.743616 0.680660 0.426097
Si Si6 0.659023 0.919730 0.047566
Si Si7 0.987613 0.579744 0.793652
O O1 0.794706 0.196781 0.277895
O O2 0.786877 0.253878 0.402199
O O3 0.679588 0.126163 0.314135
O O4 0.000000 0.152196 0.500000
O O5 0.335794 0.222737 0.199472
O O6 0.584048 0.308460 0.379396
O O7 0.302618 0.363273 0.156461
O O8 0.900807 0.336712 0.574578
O O9 0.092586 0.406819 0.786823
O O10 0.207429 0.380997 0.732142
O O11 0.500000 0.078526 0.500000
O O12 0.197023 0.117010 0.343633
O O13 0.237924 0.000000 0.299097
O O14 0.605885 0.902073 0.934125
O O15 0.727718 0.000000 0.097363
O O16 0.500000 0.908992 0.000000
O O17 0.926413 0.500000 0.759672
#
# Coordination Sequence:
#
# PCOD8113084 Si02
#       7
#     8   8   8   8   8   8   8
#     4  12  21  37  61  91 128 160 195 242 309 373
#     4  12  22  35  65  90 113 160 205 248 297 358
#     4  11  20  37  62  90 125 157 199 245 306 365
#     4   9  18  33  55  83 119 161 196 231 288 364
#     4  11  21  37  58  91 128 160 190 247 307 362
#     4  10  23  44  62  82 120 166 208 253 305 354
#     4  11  24  41  62  87 121 161 206 259 306 354
#
# _framework density 19.906914
#
# number of rings (size 3 to 8) (size 9 to 14) (size 15 to 20)
#    0.000    1.143    5.714    2.143    0.000    2.000 
#    0.000    1.429    0.000    0.000    0.000    3.000 
#    0.000    0.000    0.000    0.000    0.000    0.000 
#
# Total GULP energy -347124.796939 kJ/mol
# GULP energy per Si atom -12397.314176 kJ/mol
# Density = 1.986161 g / cm^3
# Si number density = 19.906914 Si / 1000 Ang^3
#
#
#
# Elastic Constant Matrix: (Units=GPa)
#
#
# Indices 1 2 3 4 5 6 
#
# 1 77.2457 20.7547 13.4713 0.0009 -26.4026 0.0005
# 2 20.7547 109.3860 38.2624 -0.0009 -16.8801 -0.0001
# 3 13.4713 38.2624 66.0652 0.0018 -22.2571 0.0018
# 4 0.0009 -0.0009 0.0018 32.4770 0.0009 -4.7595
# 5 -26.4026 -16.8801 -22.2571 0.0009 27.2726 0.0009
# 6 0.0005 -0.0001 0.0018 -4.7595 0.0009 32.6738
#
#
#
# Elastic Compliance Matrix: (Units=1/GPa)
#
#
# Indices 1 2 3 4 5 6 
#
# 1 0.020210 -0.001997 0.004428 -0.000002 0.021943 -0.000001
# 2 -0.001997 0.011769 -0.006353 0.000001 0.000166 0.000001
# 3 0.004428 -0.006353 0.024870 -0.000003 0.020652 -0.000002
# 4 -0.000002 0.000001 -0.000003 0.031463 -0.000004 0.004583
# 5 0.021943 0.000166 0.020652 -0.000004 0.074867 -0.000004
# 6 -0.000001 0.000001 -0.000002 0.004583 -0.000004 0.031273
#
#
# Mechanical properties :
#
#
# Convention : Reuss Voigt Hill
#
# Bulk Modulus (GPa) = 20.40583 44.18596 32.29590
# Shear Modulus (GPa) = 22.86962 30.49858 26.68410
#
# Velocity S-wave (km/s) = 3.39311 3.91840 3.66518
# Velocity P-wave (km/s) = 5.06200 6.53577 5.84552
#
# Compressibility (1/GPa) = 0.04900559
#
# Stress axis : x y z
#
# Youngs Moduli (GPa) = 49.47975 84.97130 40.20852
#
# Poissons Ratio (x) = 0.16973 -0.17806
# Poissons Ratio (y) = 0.09883 0.25544
# Poissons Ratio (z) = -0.21911 0.53980
#
# Static dielectric constant tensor:
#      x y z
#    x 3.767450 0.000000 -0.280100 
#    y 0.000000 3.898410 0.000000 
#    z -0.280100 0.000000 3.396990 
# 
# 
# High freq. dielectric constant tensor:
#      x y z
#    x 1.785420 0.000000 -0.028070 
#    y 0.000000 1.789640 0.000000 
#    z -0.028070 0.000000 1.740050 
# 
# From -- ./inp_files/271439.got.cif
#   From: 2010.06.25/outbox.cif.g09.slc.cpg/sg12_136_cif.got.tgz:271439.got - 2010.06.28 00:19:55.
