data_PCOD8113100
_publ_section_title
;
Structure prediction by ZEFSAII (Michael W. Deem and Ramdas Pophale) SiO2 
 PCOD8113100
Probable space group: C 2/M
;
_chemical_formula_sum "Si O2"
_cell_formula_units_Z 40
_cell_length_a 22.502080
_cell_length_b 8.537803
_cell_length_c 14.818562
_cell_angle_alpha 90.000000
_cell_angle_beta 41.612272
_cell_angle_gamma 90.000000
_cell_volume 1890.598982
_symmetry_space_group_name_H-M "C 2/M"
_symmetry_group_IT_number 12
_symmetry_cell_setting 'monoclinic'
loop_
_space_group_symop_operation_xyz
x,y,z
-x,y,-z
-x,-y,-z
x,-y,z
1/2+x,1/2+y,z
1/2-x,1/2+y,-z
1/2-x,1/2-y,-z
1/2+x,1/2-y,z
loop_
_atom_site_type_symbol
_atom_site_label
_atom_site_fract_x
_atom_site_fract_y
_atom_site_fract_z
Si Si1 0.833613 0.182673 0.956930
Si Si2 0.086986 0.681361 0.456173
Si Si3 0.580758 0.682469 0.843698
Si Si4 0.479876 0.820183 0.271043
Si Si5 0.275606 0.181070 0.204206
O O1 0.919076 0.272327 0.820995
O O2 0.844755 0.000000 0.925580
O O3 0.750000 0.250000 0.000000
O O4 0.823147 0.213056 0.074801
O O5 0.105142 0.500000 0.412776
O O6 0.076592 0.707996 0.574570
O O7 0.170939 0.782563 0.329233
O O8 0.000000 0.739993 0.500000
O O9 0.599103 0.500000 0.836540
O O10 0.558779 0.713308 0.764489
O O11 0.671452 0.777008 0.764209
O O12 0.500000 0.740008 0.000000
O O13 0.476308 0.000000 0.244267
O O14 0.287151 0.000000 0.166313
#
# Coordination Sequence:
#
# PCOD8113100 Si02
#       5
#     8   8   8   8   8
#     4  12  24  40  63  93 128 167 214 266 319 380
#     4  10  23  44  67  93 131 173 212 261 322 387
#     4  11  23  41  66  94 128 172 215 267 323 381
#     4  11  23  40  66  97 128 168 214 266 324 382
#     4  12  25  41  66  96 128 169 215 267 321 382
#
# _framework density 21.157316000000002
#
# number of rings (size 3 to 8) (size 9 to 14) (size 15 to 20)
#    0.000    0.800    2.000    6.000    0.000    5.200 
#    0.000    0.000    0.000    0.000    0.000    0.000 
#    0.000    0.000    0.000    0.000    0.000    0.000 
#
# Total GULP energy -248163.045358 kJ/mol
# GULP energy per Si atom -12408.152268 kJ/mol
# Density = 2.110916 g / cm^3
# Si number density = 21.157316 Si / 1000 Ang^3
#
#
#
# Elastic Constant Matrix: (Units=GPa)
#
#
# Indices 1 2 3 4 5 6 
#
# 1 98.4833 17.2319 0.0449 -0.0001 -8.3156 -0.0002
# 2 17.2319 74.9720 34.6149 -0.0046 -0.7774 0.0011
# 3 0.0449 34.6149 54.9768 -0.0035 -7.7406 0.0009
# 4 -0.0001 -0.0046 -0.0035 31.1852 -0.0001 -3.1346
# 5 -8.3156 -0.7774 -7.7406 -0.0001 37.4517 0.0007
# 6 -0.0002 0.0011 0.0009 -3.1346 0.0007 38.6122
#
#
#
# Elastic Compliance Matrix: (Units=1/GPa)
#
#
# Indices 1 2 3 4 5 6 
#
# 1 0.011069 -0.003809 0.002806 0.000000 0.002959 0.000000
# 2 -0.003809 0.020280 -0.013210 0.000001 -0.003155 0.000000
# 3 0.002806 -0.013210 0.027350 0.000001 0.006001 0.000000
# 4 0.000000 0.000001 0.000001 0.032330 0.000000 0.002625
# 5 0.002959 -0.003155 0.006001 0.000000 0.028533 -0.000001
# 6 0.000000 0.000000 0.000000 0.002625 -0.000001 0.026112
#
#
# Mechanical properties :
#
#
# Convention : Reuss Voigt Hill
#
# Bulk Modulus (GPa) = 33.03356 36.91286 34.97321
# Shear Modulus (GPa) = 27.14577 33.21919 30.18248
#
# Velocity S-wave (km/s) = 3.58585 3.96675 3.78110
# Velocity P-wave (km/s) = 5.72639 6.20201 5.96894
#
# Compressibility (1/GPa) = 0.03027224
#
# Stress axis : x y z
#
# Youngs Moduli (GPa) = 90.34252 49.30920 36.56361
#
# Poissons Ratio (x) = 0.18781 -0.10259
# Poissons Ratio (y) = 0.34410 0.48301
# Poissons Ratio (z) = -0.25347 0.65138
#
# Static dielectric constant tensor:
#      x y z
#    x 3.984240 0.000000 -0.008420 
#    y 0.000000 3.757630 0.000010 
#    z -0.008420 0.000010 3.791800 
# 
# 
# High freq. dielectric constant tensor:
#      x y z
#    x 1.846090 0.000000 -0.001670 
#    y 0.000000 1.833550 0.000000 
#    z -0.001670 0.000000 1.824220 
# 
# From -- ./inp_files/230624.got.cif
#   From: 2010.06.25/outbox.cif.g09.slc.cpg/sg12_116_cif.got.tgz:230624.got - 2010.06.28 00:19:55.
