data_PCOD8113796
_publ_section_title
;
Structure prediction by ZEFSAII (Michael W. Deem and Ramdas Pophale) SiO2 
 PCOD8113796
Probable space group: C 2/M
;
_chemical_formula_sum "Si O2"
_cell_formula_units_Z 56
_cell_length_a 20.648366
_cell_length_b 9.220699
_cell_length_c 21.839544
_cell_angle_alpha 90.000000
_cell_angle_beta 53.592169
_cell_angle_gamma 90.000000
_cell_volume 3346.477528
_symmetry_space_group_name_H-M "C 2/M"
_symmetry_group_IT_number 12
_symmetry_cell_setting 'monoclinic'
loop_
_space_group_symop_operation_xyz
x,y,z
-x,y,-z
-x,-y,-z
x,-y,z
1/2+x,1/2+y,z
1/2-x,1/2+y,-z
1/2-x,1/2-y,-z
1/2+x,1/2-y,z
loop_
_atom_site_type_symbol
_atom_site_label
_atom_site_fract_x
_atom_site_fract_y
_atom_site_fract_z
Si Si1 0.668740 0.670253 0.840997
Si Si2 0.087688 0.172110 0.465596
Si Si3 0.073672 0.161945 0.005903
Si Si4 0.525687 0.166591 0.855875
Si Si5 0.381619 0.163635 0.310726
Si Si6 0.835302 0.172023 0.451116
Si Si7 0.233695 0.168301 0.303426
O O1 0.670899 0.500000 0.826413
O O2 0.594830 0.738295 0.846547
O O3 0.749787 0.743807 0.768982
O O4 0.655044 0.700004 0.921631
O O5 0.115240 0.222702 0.517197
O O6 0.150551 0.226706 0.378942
O O7 0.000000 0.238534 0.500000
O O8 0.085148 0.000000 0.464995
O O9 0.059773 0.271102 0.071128
O O10 0.079755 0.000000 0.029436
O O11 0.000000 0.173549 0.000000
O O12 0.537070 0.180214 0.775988
O O13 0.534770 0.000000 0.871444
O O14 0.386123 0.276694 0.363716
O O15 0.303228 0.196817 0.313979
O O16 0.375404 0.000000 0.340209
O O17 0.750000 0.250000 0.500000
O O18 0.822443 0.000000 0.456530
O O19 0.229181 0.000000 0.288474
#
# Coordination Sequence:
#
# PCOD8113796 Si02
#       7
#     8   8   8   8   8   8   8
#     4   9  16  24  35  54  81 113 145 179 219 264
#     4   9  18  33  50  67  90 119 152 191 231 269
#     4   8  14  23  33  49  78 112 144 176 215 263
#     4   9  16  24  36  54  80 112 146 182 217 258
#     4   9  17  29  42  63  90 115 148 187 223 264
#     4  11  20  31  49  70  90 117 152 189 228 271
#     4   9  16  28  44  62  84 112 149 187 221 262
#
# _framework density 16.734013000000001
#
# number of rings (size 3 to 8) (size 9 to 14) (size 15 to 20)
#    0.000    2.857    1.429    3.000    0.000    6.000 
#    0.000    0.000    0.000    3.857    0.000    0.000 
#    0.000    1.143    0.000    2.571    0.000    5.143 
#
# Total GULP energy -346932.473164 kJ/mol
# GULP energy per Si atom -12390.445470 kJ/mol
# Density = 1.669593 g / cm^3
# Si number density = 16.734013 Si / 1000 Ang^3
#
#
#
# Elastic Constant Matrix: (Units=GPa)
#
#
# Indices 1 2 3 4 5 6 
#
# 1 51.1469 24.8416 41.0341 0.0001 -1.6301 -0.0006
# 2 24.8416 80.5242 69.9067 0.0001 3.3045 -0.0010
# 3 41.0341 69.9067 173.5546 0.0000 0.6409 -0.0001
# 4 0.0001 0.0001 0.0000 36.0820 0.0000 4.4971
# 5 -1.6301 3.3045 0.6409 0.0000 10.3927 0.0001
# 6 -0.0006 -0.0010 -0.0001 4.4971 0.0001 8.7635
#
#
#
# Elastic Compliance Matrix: (Units=1/GPa)
#
#
# Indices 1 2 3 4 5 6 
#
# 1 0.025238 -0.004332 -0.004243 0.000000 0.005598 0.000001
# 2 -0.004332 0.020171 -0.007076 0.000000 -0.006657 0.000002
# 3 -0.004243 -0.007076 0.009612 0.000000 0.000992 -0.000001
# 4 0.000000 0.000000 0.000000 0.029608 0.000000 -0.015194
# 5 0.005598 -0.006657 0.000992 0.000000 0.099155 -0.000001
# 6 0.000001 0.000002 -0.000001 -0.015194 -0.000001 0.121907
#
#
# Mechanical properties :
#
#
# Convention : Reuss Voigt Hill
#
# Bulk Modulus (GPa) = 42.16077 64.08782 53.12430
# Shear Modulus (GPa) = 14.49695 22.34383 18.42039
#
# Velocity S-wave (km/s) = 2.94652 3.65805 3.32139
# Velocity P-wave (km/s) = 6.06839 7.49819 6.82086
#
# Compressibility (1/GPa) = 0.02371873
#
# Stress axis : x y z
#
# Youngs Moduli (GPa) = 39.62289 49.57538 104.04188
#
# Poissons Ratio (x) = 0.21477 0.44142
# Poissons Ratio (y) = 0.17166 0.73620
# Poissons Ratio (z) = 0.16811 0.35080
#
# Static dielectric constant tensor:
#      x y z
#    x 2.614250 0.000000 0.033990 
#    y 0.000000 3.170570 0.000000 
#    z 0.033990 0.000000 4.207780 
# 
# 
# High freq. dielectric constant tensor:
#      x y z
#    x 1.559190 0.000000 0.005720 
#    y 0.000000 1.640910 0.000000 
#    z 0.005720 0.000000 1.674380 
# 
# From -- ./inp_files/345463.got.cif
#   From: 2010.06.25/outbox.cif.g09.slc.cpg/sg12_173_cif.got.tgz:345463.got - 2010.06.28 00:19:55.
