data_PCOD8113300
_publ_section_title
;
Structure prediction by ZEFSAII (Michael W. Deem and Ramdas Pophale) SiO2 
 PCOD8113300
Probable space group: C 2/M
;
_chemical_formula_sum "Si O2"
_cell_formula_units_Z 32
_cell_length_a 9.052408
_cell_length_b 20.596890
_cell_length_c 14.575658
_cell_angle_alpha 90.000000
_cell_angle_beta 144.596908
_cell_angle_gamma 90.000000
_cell_volume 1574.404525
_symmetry_space_group_name_H-M "C 2/M"
_symmetry_group_IT_number 12
_symmetry_cell_setting 'monoclinic'
loop_
_space_group_symop_operation_xyz
x,y,z
-x,y,-z
-x,-y,-z
x,-y,z
1/2+x,1/2+y,z
1/2-x,1/2+y,-z
1/2-x,1/2-y,-z
1/2+x,1/2-y,z
loop_
_atom_site_type_symbol
_atom_site_label
_atom_site_fract_x
_atom_site_fract_y
_atom_site_fract_z
Si Si1 0.788401 0.123926 0.179945
Si Si2 0.213102 0.615434 0.684242
Si Si3 0.369888 0.000000 0.831909
Si Si4 0.464686 0.257001 0.381213
Si Si5 0.286442 0.000000 0.174978
O O1 0.806646 0.064379 0.261896
O O2 0.827064 0.192316 0.247024
O O3 0.997821 0.109505 0.207178
O O4 0.500000 0.126507 0.000000
O O5 0.184291 0.689133 0.704573
O O6 0.161349 0.564905 0.739695
O O7 0.000000 0.600841 0.500000
O O8 0.554417 0.000000 0.838198
O O9 0.500000 0.000000 0.000000
O O10 0.500000 0.285007 0.500000
O O11 0.750000 0.250000 0.500000
O O12 0.000000 0.000000 0.000000
#
# Coordination Sequence:
#
# PCOD8113300 Si02
#       5
#     8   8   4   8   4
#     4  11  23  43  68  95 134 173 219 279 325 385
#     4  11  24  45  67  96 140 178 215 272 333 396
#     4  10  24  42  63  97 134 166 215 279 327 386
#     4  11  23  44  67  96 135 176 220 271 328 395
#     4  12  25  42  70 101 133 176 224 273 332 394
#
# _framework density 20.325146
#
# number of rings (size 3 to 8) (size 9 to 14) (size 15 to 20)
#    0.000    1.000    5.000    4.125    3.500    2.000 
#    0.000    1.875    0.000    0.000    0.000    0.000 
#    0.000    0.000    0.000    0.000    0.000    0.000 
#
# Total GULP energy -198241.641089 kJ/mol
# GULP energy per Si atom -12390.102568 kJ/mol
# Density = 2.027889 g / cm^3
# Si number density = 20.325146 Si / 1000 Ang^3
#
#
#
# Elastic Constant Matrix: (Units=GPa)
#
#
# Indices 1 2 3 4 5 6 
#
# 1 191.8893 72.4714 47.9410 0.5100 13.9087 0.1876
# 2 72.4714 172.9152 52.2428 2.1921 -4.5798 0.7900
# 3 47.9410 52.2428 89.8818 16.5185 12.8491 5.9839
# 4 0.5100 2.1921 16.5185 2113.0309 3.3839 745.3380
# 5 13.9087 -4.5798 12.8491 3.3839 44.2682 1.2318
# 6 0.1876 0.7900 5.9839 745.3380 1.2318 313.4481
#
#
#
# Elastic Compliance Matrix: (Units=1/GPa)
#
#
# Indices 1 2 3 4 5 6 
#
# 1 0.006688 -0.002240 -0.002019 0.000017 -0.001749 0.000007
# 2 -0.002240 0.007939 -0.003798 0.000015 0.002626 0.000008
# 3 -0.002019 -0.003798 0.015018 -0.000092 -0.004109 -0.000042
# 4 0.000017 0.000015 -0.000092 0.002936 -0.000007 -0.006979
# 5 -0.001749 0.002626 -0.004109 -0.000007 0.024604 -0.000006
# 6 0.000007 0.000008 -0.000042 -0.006979 -0.000006 0.019786
#
#
# Mechanical properties :
#
#
# Convention : Reuss Voigt Hill
#
# Bulk Modulus (GPa) = 73.90951 88.88853 81.39902
# Shear Modulus (GPa) = 51.23213 512.95152 282.09182
#
# Velocity S-wave (km/s) = 5.02603 15.90348 11.79368
# Velocity P-wave (km/s) = 8.37400 19.52065 15.01965
#
# Compressibility (1/GPa) = 0.01353006
#
# Stress axis : x y z
#
# Youngs Moduli (GPa) = 149.51318 125.96318 66.58838
#
# Poissons Ratio (x) = 0.28212 0.13446
# Poissons Ratio (y) = 0.33486 0.25293
# Poissons Ratio (z) = 0.30190 0.47847
#
# Static dielectric constant tensor:
#      x y z
#    x 4.257420 -0.000220 -0.013210 
#    y -0.000220 3.921240 0.000070 
#    z -0.013210 0.000070 3.564970 
# 
# 
# High freq. dielectric constant tensor:
#      x y z
#    x 1.812170 0.000000 0.012150 
#    y 0.000000 1.820860 0.000000 
#    z 0.012150 0.000000 1.780570 
# 
# From -- ./inp_files/37572.got.cif
#   From: 2010.06.25/outbox.cif.g09.slc.cpg/sg12_19_cif.got.tgz:37572.got - 2010.06.28 00:19:55.
