data_PCOD8113274
_publ_section_title
;
Structure prediction by ZEFSAII (Michael W. Deem and Ramdas Pophale) SiO2 
 PCOD8113274
Probable space group: C 2/M
;
_chemical_formula_sum "Si O2"
_cell_formula_units_Z 36
_cell_length_a 20.572973
_cell_length_b 14.027460
_cell_length_c 8.971738
_cell_angle_alpha 90.000000
_cell_angle_beta 140.907100
_cell_angle_gamma 90.000000
_cell_volume 1632.648220
_symmetry_space_group_name_H-M "C 2/M"
_symmetry_group_IT_number 12
_symmetry_cell_setting 'monoclinic'
loop_
_space_group_symop_operation_xyz
x,y,z
-x,y,-z
-x,-y,-z
x,-y,z
1/2+x,1/2+y,z
1/2-x,1/2+y,-z
1/2-x,1/2-y,-z
1/2+x,1/2-y,z
loop_
_atom_site_type_symbol
_atom_site_label
_atom_site_fract_x
_atom_site_fract_y
_atom_site_fract_z
Si Si1 0.389968 0.806353 0.646639
Si Si2 0.952770 0.798610 0.251882
Si Si3 0.199417 0.699150 0.204986
Si Si4 0.775156 0.500000 0.852806
Si Si5 0.990736 0.500000 0.806028
Si Si6 0.398571 0.500000 0.219220
O O1 0.459234 0.718975 0.713395
O O2 0.274944 0.784632 0.384014
O O3 0.389036 0.811721 0.825188
O O4 0.427771 0.906242 0.643410
O O5 0.000000 0.783345 0.500000
O O6 0.906720 0.903630 0.138126
O O7 0.858624 0.724978 0.053155
O O8 0.257261 0.597134 0.291293
O O9 0.711266 0.500000 0.891901
O O10 0.899981 0.500000 0.087240
O O11 0.000000 0.500000 0.000000
O O12 0.500000 0.500000 0.500000
#
# Coordination Sequence:
#
# PCOD8113274 Si02
#       6
#     8   8   8   4   4   4
#     4  11  23  41  68 100 135 176 228 284 336 404
#     4  11  23  43  64  92 136 179 223 282 337 407
#     4  11  23  41  70 100 130 178 234 279 344 400
#     4  12  22  42  74  94 134 188 222 278 345 406
#     4  12  20  43  70 100 137 175 226 287 344 395
#     4  10  24  41  61  93 136 183 224 266 342 416
#
# _framework density 22.050065
#
# number of rings (size 3 to 8) (size 9 to 14) (size 15 to 20)
#    0.000    0.889    4.444    3.333    0.000    4.444 
#    0.000    5.556    0.000    0.000    0.000    0.000 
#    0.000    0.000    0.000    0.000    0.000    0.000 
#
# Total GULP energy -223108.544763 kJ/mol
# GULP energy per Si atom -12394.919153 kJ/mol
# Density = 2.199988 g / cm^3
# Si number density = 22.050065 Si / 1000 Ang^3
#
#
#
# Elastic Constant Matrix: (Units=GPa)
#
#
# Indices 1 2 3 4 5 6 
#
# 1 129.9461 75.1566 17.0734 0.0000 21.7425 0.0000
# 2 75.1566 171.3362 46.5236 0.0000 4.9209 0.0000
# 3 17.0734 46.5236 78.4163 0.0000 -3.9043 0.0000
# 4 0.0000 0.0000 0.0000 26.0155 0.0000 9.1413
# 5 21.7425 4.9209 -3.9043 0.0000 31.9412 0.0000
# 6 0.0000 0.0000 0.0000 9.1413 0.0000 40.1289
#
#
#
# Elastic Compliance Matrix: (Units=1/GPa)
#
#
# Indices 1 2 3 4 5 6 
#
# 1 0.011776 -0.004963 0.000019 0.000000 -0.007249 0.000000
# 2 -0.004963 0.009129 -0.004264 0.000000 0.001450 0.000000
# 3 0.000019 -0.004264 0.015404 0.000000 0.002527 0.000000
# 4 0.000000 0.000000 0.000000 0.041783 0.000000 -0.009518
# 5 -0.007249 0.001450 0.002527 0.000000 0.036327 0.000000
# 6 0.000000 0.000000 0.000000 -0.009518 0.000000 0.027088
#
#
# Mechanical properties :
#
#
# Convention : Reuss Voigt Hill
#
# Bulk Modulus (GPa) = 55.88077 73.02287 64.45182
# Shear Modulus (GPa) = 30.14109 35.68012 32.91060
#
# Velocity S-wave (km/s) = 3.70122 4.02698 3.86753
# Velocity P-wave (km/s) = 6.60781 7.40343 7.01690
#
# Compressibility (1/GPa) = 0.01789524
#
# Stress axis : x y z
#
# Youngs Moduli (GPa) = 84.91771 109.53604 64.91985
#
# Poissons Ratio (x) = 0.54359 -0.00126
# Poissons Ratio (y) = 0.42142 0.27680
# Poissons Ratio (z) = -0.00164 0.46702
#
# Static dielectric constant tensor:
#      x y z
#    x 4.002730 0.000000 0.208080 
#    y 0.000000 4.631290 0.000000 
#    z 0.208080 0.000000 3.740640 
# 
# 
# High freq. dielectric constant tensor:
#      x y z
#    x 1.867430 0.000000 0.028000 
#    y 0.000000 1.885420 0.000000 
#    z 0.028000 0.000000 1.842430 
# 
# From -- ./inp_files/86455.got.cif
#   From: 2010.06.25/outbox.cif.g09.slc.cpg/sg12_44_cif.got.tgz:86455.got - 2010.06.28 00:19:55.
