data_PCOD8113353
_publ_section_title
;
Structure prediction by ZEFSAII (Michael W. Deem and Ramdas Pophale) SiO2 
 PCOD8113353
Probable space group: C 2/M
;
_chemical_formula_sum "Si O2"
_cell_formula_units_Z 56
_cell_length_a 17.834077
_cell_length_b 9.030376
_cell_length_c 16.089816
_cell_angle_alpha 90.000000
_cell_angle_beta 71.804747
_cell_angle_gamma 90.000000
_cell_volume 2461.672111
_symmetry_space_group_name_H-M "C 2/M"
_symmetry_group_IT_number 12
_symmetry_cell_setting 'monoclinic'
loop_
_space_group_symop_operation_xyz
x,y,z
-x,y,-z
-x,-y,-z
x,-y,z
1/2+x,1/2+y,z
1/2-x,1/2+y,-z
1/2-x,1/2-y,-z
1/2+x,1/2-y,z
loop_
_atom_site_type_symbol
_atom_site_label
_atom_site_fract_x
_atom_site_fract_y
_atom_site_fract_z
Si Si1 0.166997 0.329768 0.531746
Si Si2 0.883738 0.838615 0.096789
Si Si3 0.612729 0.829886 0.364274
Si Si4 0.030148 0.176577 0.669033
Si Si5 0.506220 0.165050 0.149324
Si Si6 0.730272 0.663486 0.207152
Si Si7 0.336760 0.715597 0.938950
O O1 0.177393 0.500000 0.556216
O O2 0.250000 0.250000 0.500000
O O3 0.124913 0.321320 0.457774
O O4 0.115357 0.242259 0.617041
O O5 0.960077 0.737939 0.087906
O O6 0.808356 0.752453 0.157677
O O7 0.890494 0.000000 0.138186
O O8 0.876383 0.874611 0.000713
O O9 0.533567 0.740389 0.372993
O O10 0.686523 0.756243 0.292681
O O11 0.603938 0.000000 0.337023
O O12 0.008911 0.227736 0.768415
O O13 0.031303 0.000000 0.663231
O O14 0.600501 0.151442 0.098148
O O15 0.474456 0.000000 0.177204
O O16 0.751621 0.500000 0.234186
O O17 0.673971 0.636350 0.146072
O O18 0.250000 0.750000 0.000000
#
# Coordination Sequence:
#
# PCOD8113353 Si02
#       7
#     8   8   8   8   8   8   8
#     4  11  26  47  73 105 143 183 228 281 341 408
#     4  11  25  43  66  96 139 183 229 286 347 408
#     4  11  24  44  71 102 139 181 227 279 341 407
#     4  12  26  45  72 104 140 182 231 284 343 411
#     4  12  26  45  70 100 138 184 233 286 346 411
#     4  11  23  41  68 101 137 180 231 283 340 408
#     4  10  24  43  69 100 135 177 232 286 347 404
#
# _framework density 22.748767000000001
#
# number of rings (size 3 to 8) (size 9 to 14) (size 15 to 20)
#    0.000    0.857    1.429    4.714    2.000   12.000 
#    0.000    0.000    0.000    0.000    0.000    0.000 
#    0.000    0.000    0.000    0.000    0.000    0.000 
#
# Total GULP energy -347019.445097 kJ/mol
# GULP energy per Si atom -12393.551611 kJ/mol
# Density = 2.269699 g / cm^3
# Si number density = 22.748767 Si / 1000 Ang^3
#
#
#
# Elastic Constant Matrix: (Units=GPa)
#
#
# Indices 1 2 3 4 5 6 
#
# 1 113.6797 48.8761 28.6433 0.0000 -16.8070 0.0000
# 2 48.8761 206.9554 36.2389 0.0000 -11.8456 0.0000
# 3 28.6433 36.2389 84.1950 0.0000 -17.0326 0.0000
# 4 0.0000 0.0000 0.0000 18.9415 0.0000 -8.1104
# 5 -16.8070 -11.8456 -17.0326 0.0000 40.1750 0.0000
# 6 0.0000 0.0000 0.0000 -8.1104 0.0000 31.5267
#
#
#
# Elastic Compliance Matrix: (Units=1/GPa)
#
#
# Indices 1 2 3 4 5 6 
#
# 1 0.010622 -0.001959 -0.002175 0.000000 0.002944 0.000000
# 2 -0.001959 0.005602 -0.001724 0.000000 0.000101 0.000000
# 3 -0.002175 -0.001724 0.014299 0.000000 0.004644 0.000000
# 4 0.000000 0.000000 0.000000 0.059329 0.000000 0.015263
# 5 0.002944 0.000101 0.004644 0.000000 0.028121 0.000000
# 6 0.000000 0.000000 0.000000 0.015263 0.000000 0.035645
#
#
# Mechanical properties :
#
#
# Convention : Reuss Voigt Hill
#
# Bulk Modulus (GPa) = 53.17329 70.26075 61.71702
# Shear Modulus (GPa) = 29.13663 37.53344 33.33503
#
# Velocity S-wave (km/s) = 3.58271 4.06632 3.83215
# Velocity P-wave (km/s) = 6.36705 7.28005 6.83880
#
# Compressibility (1/GPa) = 0.01880644
#
# Stress axis : x y z
#
# Youngs Moduli (GPa) = 94.14172 178.49449 69.93650
#
# Poissons Ratio (x) = 0.34973 0.15210
# Poissons Ratio (y) = 0.18445 0.12059
# Poissons Ratio (z) = 0.20474 0.30779
#
# Static dielectric constant tensor:
#      x y z
#    x 4.548660 0.000000 0.005890 
#    y 0.000000 4.380560 0.000000 
#    z 0.005890 0.000000 4.309040 
# 
# 
# High freq. dielectric constant tensor:
#      x y z
#    x 1.910370 0.000000 -0.003500 
#    y 0.000000 1.901770 0.000000 
#    z -0.003500 0.000000 1.902890 
# 
# From -- ./inp_files/275262.got.cif
#   From: 2010.06.25/outbox.cif.g09.slc.cpg/sg12_138_cif.got.tgz:275262.got - 2010.06.28 00:19:55.
