data_PCOD8113581
_publ_section_title
;
Structure prediction by ZEFSAII (Michael W. Deem and Ramdas Pophale) SiO2 
 PCOD8113581
Probable space group: C 2/M
;
_chemical_formula_sum "Si O2"
_cell_formula_units_Z 48
_cell_length_a 9.912824
_cell_length_b 27.513257
_cell_length_c 9.316806
_cell_angle_alpha 90.000000
_cell_angle_beta 76.531253
_cell_angle_gamma 90.000000
_cell_volume 2471.125335
_symmetry_space_group_name_H-M "C 2/M"
_symmetry_group_IT_number 12
_symmetry_cell_setting 'monoclinic'
loop_
_space_group_symop_operation_xyz
x,y,z
-x,y,-z
-x,-y,-z
x,-y,z
1/2+x,1/2+y,z
1/2-x,1/2+y,-z
1/2-x,1/2-y,-z
1/2+x,1/2-y,z
loop_
_atom_site_type_symbol
_atom_site_label
_atom_site_fract_x
_atom_site_fract_y
_atom_site_fract_z
Si Si1 0.364244 0.500000 0.437614
Si Si2 0.060739 0.407781 0.831458
Si Si3 0.354901 0.737668 0.600947
Si Si4 0.072784 0.500000 0.636297
Si Si5 0.406320 0.157414 0.664036
Si Si6 0.839464 0.134880 0.695902
Si Si7 0.362848 0.394782 0.361413
O O1 0.500000 0.500000 0.500000
O O2 0.237312 0.500000 0.579473
O O3 0.359186 0.452779 0.336861
O O4 0.028073 0.452297 0.733793
O O5 0.223670 0.395577 0.810187
O O6 0.987816 0.360138 0.783712
O O7 0.000000 0.421320 0.000000
O O8 0.500000 0.719145 0.500000
O O9 0.250000 0.750000 0.500000
O O10 0.377680 0.785288 0.692011
O O11 0.300064 0.692380 0.708539
O O12 0.000000 0.500000 0.500000
O O13 0.500000 0.147706 0.500000
O O14 0.260255 0.129764 0.696046
O O15 0.840074 0.115665 0.533910
O O16 0.989567 0.125815 0.730912
#
# Coordination Sequence:
#
# PCOD8113581 Si02
#       7
#     4   8   8   4   8   8   8
#     4  12  18  29  54  87 112 139 173 232 288 343
#     4  12  25  41  57  84 124 160 190 233 293 358
#     4  11  18  29  56  88 114 140 190 254 294 326
#     4  12  23  39  66  89 112 146 199 247 284 339
#     4  11  20  36  58  88 115 149 197 246 291 337
#     4  11  19  35  55  86 118 149 187 244 296 337
#     4  11  19  32  56  86 115 141 195 243 292 332
#
# _framework density 19.424348999999999
#
# number of rings (size 3 to 8) (size 9 to 14) (size 15 to 20)
#    0.000    0.667    8.333    2.750    0.000    0.000 
#    0.000    1.667    0.000    0.000    0.000    7.000 
#    0.000    0.000    0.000    0.000    0.000    0.000 
#
# Total GULP energy -297657.618172 kJ/mol
# GULP energy per Si atom -12402.400757 kJ/mol
# Density = 1.938014 g / cm^3
# Si number density = 19.424349 Si / 1000 Ang^3
#
#
#
# Elastic Constant Matrix: (Units=GPa)
#
#
# Indices 1 2 3 4 5 6 
#
# 1 128.7467 31.7830 36.3923 0.0000 -10.5796 0.0000
# 2 31.7830 161.9893 33.0447 0.0000 -3.3434 0.0000
# 3 36.3923 33.0447 71.8244 0.0000 -7.5966 0.0000
# 4 0.0000 0.0000 0.0000 8.6833 0.0000 4.4249
# 5 -10.5796 -3.3434 -7.5966 0.0000 17.1130 0.0000
# 6 0.0000 0.0000 0.0000 4.4249 0.0000 34.3018
#
#
#
# Elastic Compliance Matrix: (Units=1/GPa)
#
#
# Indices 1 2 3 4 5 6 
#
# 1 0.009436 -0.000971 -0.003922 0.000000 0.003903 0.000000
# 2 -0.000971 0.006913 -0.002738 0.000000 -0.000465 0.000000
# 3 -0.003922 -0.002738 0.017687 0.000000 0.004892 0.000000
# 4 0.000000 0.000000 0.000000 0.123267 0.000000 -0.015901
# 5 0.003903 -0.000465 0.004892 0.000000 0.062929 0.000000
# 6 0.000000 0.000000 0.000000 -0.015901 0.000000 0.031204
#
#
# Mechanical properties :
#
#
# Convention : Reuss Voigt Hill
#
# Bulk Modulus (GPa) = 53.26143 62.77784 58.01963
# Shear Modulus (GPa) = 18.31810 29.44230 23.88020
#
# Velocity S-wave (km/s) = 3.07424 3.89748 3.51008
# Velocity P-wave (km/s) = 6.33093 7.25555 6.80896
#
# Compressibility (1/GPa) = 0.01877531
#
# Stress axis : x y z
#
# Youngs Moduli (GPa) = 105.97589 144.66370 56.53943
#
# Poissons Ratio (x) = 0.14045 0.22173
# Poissons Ratio (y) = 0.10289 0.15478
# Poissons Ratio (z) = 0.41560 0.39603
#
# Static dielectric constant tensor:
#      x y z
#    x 3.909920 0.000000 -0.083970 
#    y 0.000000 4.015740 0.000000 
#    z -0.083970 0.000000 2.864040 
# 
# 
# High freq. dielectric constant tensor:
#      x y z
#    x 1.782310 0.000000 0.002270 
#    y 0.000000 1.782460 0.000000 
#    z 0.002270 0.000000 1.673010 
# 
# From -- ./inp_files/42313.got.cif
#   From: 2010.06.25/outbox.cif.g09.slc.cpg/sg12_22_cif.got.tgz:42313.got - 2010.06.28 00:19:55.
