data_PCOD8113750
_publ_section_title
;
Structure prediction by ZEFSAII (Michael W. Deem and Ramdas Pophale) SiO2 
 PCOD8113750
Probable space group: C 2/M
;
_chemical_formula_sum "Si O2"
_cell_formula_units_Z 64
_cell_length_a 18.895459
_cell_length_b 9.137242
_cell_length_c 21.135428
_cell_angle_alpha 90.000000
_cell_angle_beta 90.220894
_cell_angle_gamma 90.000000
_cell_volume 3649.054861
_symmetry_space_group_name_H-M "C 2/M"
_symmetry_group_IT_number 12
_symmetry_cell_setting 'monoclinic'
loop_
_space_group_symop_operation_xyz
x,y,z
-x,y,-z
-x,-y,-z
x,-y,z
1/2+x,1/2+y,z
1/2-x,1/2+y,-z
1/2-x,1/2-y,-z
1/2+x,1/2-y,z
loop_
_atom_site_type_symbol
_atom_site_label
_atom_site_fract_x
_atom_site_fract_y
_atom_site_fract_z
Si Si1 0.796791 0.670889 0.551971
Si Si2 0.386989 0.826884 0.904544
Si Si3 0.135644 0.825479 0.764325
Si Si4 0.489795 0.666214 0.149802
Si Si5 0.268751 0.674016 0.124336
Si Si6 0.418064 0.326637 0.495852
Si Si7 0.334399 0.669826 0.372876
Si Si8 0.387381 0.333292 0.032299
O O1 0.805846 0.500000 0.536219
O O2 0.750000 0.750000 0.500000
O O3 0.874215 0.748010 0.552940
O O4 0.750266 0.692817 0.615786
O O5 0.441730 0.769224 0.852259
O O6 0.310252 0.766188 0.883883
O O7 0.389126 0.000000 0.905971
O O8 0.407060 0.767933 0.973593
O O9 0.059777 0.778769 0.792778
O O10 0.197722 0.764304 0.810309
O O11 0.145242 0.756560 0.694260
O O12 0.140636 0.000000 0.762518
O O13 0.514073 0.500000 0.161853
O O14 0.449519 0.677857 0.083313
O O15 0.271572 0.500000 0.126559
O O16 0.315032 0.725182 0.064203
O O17 0.500000 0.279553 0.500000
O O18 0.409147 0.500000 0.504000
O O19 0.384219 0.268267 0.429605
O O20 0.352371 0.500000 0.368981
O O21 0.379493 0.500000 0.008284
#
# Coordination Sequence:
#
# PCOD8113750 Si02
#       8
#     8   8   8   8   8   8   8   8
#     4   9  16  27  45  70  96 120 151 187 222 263
#     4  11  20  28  42  66  92 112 133 172 229 275
#     4   8  14  29  50  65  80 111 157 192 210 247
#     4   9  18  31  47  64  83 112 147 181 214 253
#     4   8  16  29  44  63  85 110 141 181 223 257
#     4   9  17  29  45  69 101 128 149 182 228 268
#     4   8  14  26  47  69  85 113 156 190 215 254
#     4   9  17  31  48  63  81 109 147 180 208 255
#
# _framework density 17.538786999999999
#
# number of rings (size 3 to 8) (size 9 to 14) (size 15 to 20)
#    0.000    3.125    0.000    3.750    0.000    2.250 
#    0.000    1.875    0.000    5.250    0.000    0.000 
#    0.000    0.000    0.000    0.000    0.000    0.000 
#
# Total GULP energy -396548.227272 kJ/mol
# GULP energy per Si atom -12392.132102 kJ/mol
# Density = 1.749887 g / cm^3
# Si number density = 17.538787 Si / 1000 Ang^3
#
#
#
# Elastic Constant Matrix: (Units=GPa)
#
#
# Indices 1 2 3 4 5 6 
#
# 1 131.0027 37.3039 43.6778 0.0000 -24.7545 0.0000
# 2 37.3039 44.1858 19.6771 0.0000 -9.1650 0.0000
# 3 43.6778 19.6771 89.2970 0.0000 -23.0209 0.0000
# 4 0.0000 0.0000 0.0000 12.0840 0.0000 -5.0980
# 5 -24.7545 -9.1650 -23.0209 0.0000 21.1440 0.0000
# 6 0.0000 0.0000 0.0000 -5.0980 0.0000 28.3952
#
#
#
# Elastic Compliance Matrix: (Units=1/GPa)
#
#
# Indices 1 2 3 4 5 6 
#
# 1 0.012086 -0.007501 -0.002015 0.000000 0.008705 0.000000
# 2 -0.007501 0.030462 -0.002646 0.000000 0.001541 0.000000
# 3 -0.002015 -0.002646 0.016493 0.000000 0.014451 0.000000
# 4 0.000000 0.000000 0.000000 0.089535 0.000000 0.016075
# 5 0.008705 0.001541 0.014451 0.000000 0.073888 0.000000
# 6 0.000000 0.000000 0.000000 0.016075 0.000000 0.038103
#
#
# Mechanical properties :
#
#
# Convention : Reuss Voigt Hill
#
# Bulk Modulus (GPa) = 28.80397 51.75590 40.27993
# Shear Modulus (GPa) = 16.86547 23.24643 20.05595
#
# Velocity S-wave (km/s) = 3.10435 3.64459 3.38527
# Velocity P-wave (km/s) = 5.41368 6.87635 6.18838
#
# Compressibility (1/GPa) = 0.03471743
#
# Stress axis : x y z
#
# Youngs Moduli (GPa) = 82.74075 32.82734 60.63323
#
# Poissons Ratio (x) = 0.24623 0.12215
# Poissons Ratio (y) = 0.62062 0.16046
# Poissons Ratio (z) = 0.16669 0.08687
#
# Static dielectric constant tensor:
#      x y z
#    x 3.632300 0.000000 -0.225290 
#    y 0.000000 2.957730 0.000000 
#    z -0.225290 0.000000 3.422880 
# 
# 
# High freq. dielectric constant tensor:
#      x y z
#    x 1.684960 0.000000 -0.019660 
#    y 0.000000 1.640980 0.000000 
#    z -0.019660 0.000000 1.657430 
# 
# From -- ./inp_files/341982.got.cif
#   From: 2010.06.25/outbox.cif.g09.slc.cpg/sg12_171_cif.got.tgz:341982.got - 2010.06.28 00:19:55.
