data_PCOD8113307
_publ_section_title
;
Structure prediction by ZEFSAII (Michael W. Deem and Ramdas Pophale) SiO2 
 PCOD8113307
Probable space group: C 2/M
;
_chemical_formula_sum "Si O2"
_cell_formula_units_Z 32
_cell_length_a 17.226057
_cell_length_b 15.212413
_cell_length_c 5.046136
_cell_angle_alpha 90.000000
_cell_angle_beta 74.461052
_cell_angle_gamma 90.000000
_cell_volume 1274.006005
_symmetry_space_group_name_H-M "C 2/M"
_symmetry_group_IT_number 12
_symmetry_cell_setting 'monoclinic'
loop_
_space_group_symop_operation_xyz
x,y,z
-x,y,-z
-x,-y,-z
x,-y,z
1/2+x,1/2+y,z
1/2-x,1/2+y,-z
1/2-x,1/2-y,-z
1/2+x,1/2-y,z
loop_
_atom_site_type_symbol
_atom_site_label
_atom_site_fract_x
_atom_site_fract_y
_atom_site_fract_z
Si Si1 0.778852 0.394187 0.505431
Si Si2 0.944836 0.000000 0.803747
Si Si3 0.821430 0.846768 0.906197
Si Si4 0.055532 0.500000 0.202053
Si Si5 0.405812 0.824751 0.030833
O O1 0.787351 0.500000 0.485058
O O2 0.713108 0.357572 0.356551
O O3 0.863989 0.348314 0.351169
O O4 0.750044 0.363367 0.819747
O O5 0.892340 0.085735 0.875391
O O6 0.000000 0.000000 0.500000
O O7 0.000000 0.000000 0.000000
O O8 0.860119 0.751727 0.917553
O O9 0.000000 0.500000 0.500000
O O10 0.107955 0.410750 0.146852
O O11 0.000000 0.500000 0.000000
O O12 0.500000 0.802775 0.000000
#
# Coordination Sequence:
#
# PCOD8113307 Si02
#       5
#     8   4   8   4   8
#     4  12  24  48  75 105 146 197 239 294 366 437
#     4  12  24  42  70 104 141 188 233 292 350 419
#     4  12  26  47  73 108 148 191 242 293 367 439
#     4  10  24  42  66  98 140 180 226 288 354 411
#     4  11  26  48  74 110 145 190 245 306 360 425
#
# _framework density 25.117622000000001
#
# number of rings (size 3 to 8) (size 9 to 14) (size 15 to 20)
#    0.000    0.500    3.750    3.750    0.000    9.000 
#    0.000    0.000    0.000    0.000    0.000    0.000 
#    0.000    0.000    0.000    0.000    0.000    0.000 
#
# Total GULP energy -198418.529942 kJ/mol
# GULP energy per Si atom -12401.158121 kJ/mol
# Density = 2.506045 g / cm^3
# Si number density = 25.117622 Si / 1000 Ang^3
#
#
#
# Elastic Constant Matrix: (Units=GPa)
#
#
# Indices 1 2 3 4 5 6 
#
# 1 100.0682 29.3293 14.7748 0.0000 -25.4820 0.0000
# 2 29.3293 185.0653 25.7884 0.0000 -20.6095 0.0000
# 3 14.7748 25.7884 122.9295 0.0000 -25.0543 0.0000
# 4 0.0000 0.0000 0.0000 36.4833 0.0000 -13.6682
# 5 -25.4820 -20.6095 -25.0543 0.0000 44.1806 0.0000
# 6 0.0000 0.0000 0.0000 -13.6682 0.0000 52.2094
#
#
#
# Elastic Compliance Matrix: (Units=1/GPa)
#
#
# Indices 1 2 3 4 5 6 
#
# 1 0.011958 -0.001198 0.000120 0.000000 0.006406 0.000000
# 2 -0.001198 0.005880 -0.000759 0.000000 0.001621 0.000000
# 3 0.000120 -0.000759 0.009296 0.000000 0.004987 0.000000
# 4 0.000000 0.000000 0.000000 0.030391 0.000000 0.007956
# 5 0.006406 0.001621 0.004987 0.000000 0.029913 0.000000
# 6 0.000000 0.000000 0.000000 0.007956 0.000000 0.021237
#
#
# Mechanical properties :
#
#
# Convention : Reuss Voigt Hill
#
# Bulk Modulus (GPa) = 42.62892 60.87201 51.75047
# Shear Modulus (GPa) = 41.60823 49.11935 45.36379
#
# Velocity S-wave (km/s) = 4.07447 4.42698 4.25438
# Velocity P-wave (km/s) = 6.25649 7.10059 6.69186
#
# Compressibility (1/GPa) = 0.02345825
#
# Stress axis : x y z
#
# Youngs Moduli (GPa) = 83.62621 170.07583 107.57433
#
# Poissons Ratio (x) = 0.20382 -0.01288
# Poissons Ratio (y) = 0.10022 0.08165
# Poissons Ratio (z) = -0.01002 0.12909
#
# Static dielectric constant tensor:
#      x y z
#    x 4.744730 0.000000 -0.210550 
#    y 0.000000 5.146190 0.000000 
#    z -0.210550 0.000000 4.755720 
# 
# 
# High freq. dielectric constant tensor:
#      x y z
#    x 2.024250 0.000000 -0.004260 
#    y 0.000000 2.024600 0.000000 
#    z -0.004260 0.000000 2.014120 
# 
# From -- ./inp_files/14919.got.cif
#   From: 2010.06.25/outbox.cif.g09.slc.cpg/sg12_8_cif.got.tgz:14919.got - 2010.06.28 00:19:55.
