data_PCOD8113543
_publ_section_title
;
Structure prediction by ZEFSAII (Michael W. Deem and Ramdas Pophale) SiO2 
 PCOD8113543
Probable space group: C 2/M
;
_chemical_formula_sum "Si O2"
_cell_formula_units_Z 44
_cell_length_a 12.003504
_cell_length_b 23.377454
_cell_length_c 10.610798
_cell_angle_alpha 90.000000
_cell_angle_beta 42.422947
_cell_angle_gamma 90.000000
_cell_volume 2008.622872
_symmetry_space_group_name_H-M "C 2/M"
_symmetry_group_IT_number 12
_symmetry_cell_setting 'monoclinic'
loop_
_space_group_symop_operation_xyz
x,y,z
-x,y,-z
-x,-y,-z
x,-y,z
1/2+x,1/2+y,z
1/2-x,1/2+y,-z
1/2-x,1/2-y,-z
1/2+x,1/2-y,z
loop_
_atom_site_type_symbol
_atom_site_label
_atom_site_fract_x
_atom_site_fract_y
_atom_site_fract_z
Si Si1 0.856949 0.000000 0.309473
Si Si2 0.313375 0.688608 0.175096
Si Si3 0.314359 0.300721 0.623818
Si Si4 0.107927 0.614481 0.176786
Si Si5 0.000000 0.350487 0.000000
Si Si6 0.242415 0.618113 0.454956
Si Si7 0.278569 0.500000 0.098772
O O1 0.818470 0.055966 0.428269
O O2 0.744199 0.000000 0.277502
O O3 0.037062 0.000000 0.103523
O O4 0.202358 0.731893 0.353252
O O5 0.224684 0.669288 0.117545
O O6 0.324740 0.631684 0.250907
O O7 0.500000 0.712386 0.000000
O O8 0.500000 0.319957 0.500000
O O9 0.173923 0.317002 0.843119
O O10 0.281158 0.330032 0.518173
O O11 0.203220 0.555918 0.100350
O O12 0.028226 0.614807 0.103984
O O13 0.953657 0.613483 0.400595
#
# Coordination Sequence:
#
# PCOD8113543 Si02
#       7
#     4   8   8   8   4   8   4
#     4  11  23  41  67 107 136 171 230 277 355 407
#     4  12  24  41  70 106 139 180 229 291 347 407
#     4  11  25  45  69  97 143 185 231 285 342 414
#     4  11  24  43  71  97 144 180 231 282 344 408
#     4  10  26  47  64 104 136 189 232 280 342 416
#     4  11  24  43  67 104 137 177 233 282 343 414
#     4  11  23  40  70 103 136 181 215 291 341 415
#
# _framework density 21.905556000000001
#
# number of rings (size 3 to 8) (size 9 to 14) (size 15 to 20)
#    0.000    0.909    2.727    3.818    5.091    3.273 
#    0.000    1.364    0.000    0.000    0.000    0.000 
#    0.000    0.000    0.000    0.000    0.000    0.000 
#
# Total GULP energy -272594.873839 kJ/mol
# GULP energy per Si atom -12390.676084 kJ/mol
# Density = 2.185570 g / cm^3
# Si number density = 21.905556 Si / 1000 Ang^3
#
#
#
# Elastic Constant Matrix: (Units=GPa)
#
#
# Indices 1 2 3 4 5 6 
#
# 1 107.5373 47.9090 38.7991 0.0000 -5.1958 0.0000
# 2 47.9090 116.7800 19.0616 0.0000 1.6838 0.0000
# 3 38.7991 19.0616 111.8620 0.0000 -21.0218 0.0000
# 4 0.0000 0.0000 0.0000 24.4773 0.0000 -65.8889
# 5 -5.1958 1.6838 -21.0218 0.0000 38.4257 0.0000
# 6 0.0000 0.0000 0.0000 -65.8889 0.0000 -440.2332
#
#
#
# Elastic Compliance Matrix: (Units=1/GPa)
#
#
# Indices 1 2 3 4 5 6 
#
# 1 0.012649 -0.004598 -0.003616 0.000000 -0.000067 0.000000
# 2 -0.004598 0.010542 -0.000452 0.000000 -0.001331 0.000000
# 3 -0.003616 -0.000452 0.011350 0.000000 0.005740 0.000000
# 4 0.000000 0.000000 0.000000 0.029122 0.000000 -0.004359
# 5 -0.000067 -0.001331 0.005740 0.000000 0.029214 0.000000
# 6 0.000000 0.000000 0.000000 -0.004359 0.000000 -0.001619
#
#
# Mechanical properties :
#
#
# Convention : Reuss Voigt Hill
#
# Bulk Modulus (GPa) = 58.10959 60.85767 59.48363
# Shear Modulus (GPa) = 43.73470 -60.10541 -8.18535
#
# Velocity S-wave (km/s) = 4.47308 -5.24385 -1.93514
# Velocity P-wave (km/s) = 7.29814 2.97016 4.71386
#
# Compressibility (1/GPa) = 0.01720886
#
# Stress axis : x y z
#
# Youngs Moduli (GPa) = 79.05686 94.85517 88.10929
#
# Poissons Ratio (x) = 0.43615 0.31863
# Poissons Ratio (y) = 0.36351 0.03980
# Poissons Ratio (z) = 0.28589 0.04285
#
# Static dielectric constant tensor:
#      x y z
#    x 3.874640 0.000000 -0.236650 
#    y 0.000000 3.892210 0.000000 
#    z -0.236650 0.000000 4.031290 
# 
# 
# High freq. dielectric constant tensor:
#      x y z
#    x 1.846250 0.000000 -0.016220 
#    y 0.000000 1.863330 0.000000 
#    z -0.016220 0.000000 1.874030 
# 
# From -- ./inp_files/135800.got.cif
#   From: 2010.06.25/outbox.cif.g09.slc.cpg/sg12_68_cif.got.tgz:135800.got - 2010.06.28 00:19:55.
