data_PCOD8113301
_publ_section_title
;
Structure prediction by ZEFSAII (Michael W. Deem and Ramdas Pophale) SiO2 
 PCOD8113301
Probable space group: C 2/M
;
_chemical_formula_sum "Si O2"
_cell_formula_units_Z 40
_cell_length_a 8.653995
_cell_length_b 10.336584
_cell_length_c 20.202611
_cell_angle_alpha 90.000000
_cell_angle_beta 105.820135
_cell_angle_gamma 90.000000
_cell_volume 1738.727158
_symmetry_space_group_name_H-M "C 2/M"
_symmetry_group_IT_number 12
_symmetry_cell_setting 'monoclinic'
loop_
_space_group_symop_operation_xyz
x,y,z
-x,y,-z
-x,-y,-z
x,-y,z
1/2+x,1/2+y,z
1/2-x,1/2+y,-z
1/2-x,1/2-y,-z
1/2+x,1/2-y,z
loop_
_atom_site_type_symbol
_atom_site_label
_atom_site_fract_x
_atom_site_fract_y
_atom_site_fract_z
Si Si1 0.116777 0.743490 0.651372
Si Si2 0.080985 0.644179 0.255208
Si Si3 0.849466 0.298178 0.950325
Si Si4 0.185377 0.144110 0.442062
Si Si5 0.477262 0.357523 0.138672
O O1 0.230695 0.833389 0.709711
O O2 0.221359 0.651908 0.616472
O O3 0.011796 0.651923 0.686105
O O4 0.003136 0.833808 0.593092
O O5 0.057269 0.500000 0.222718
O O6 0.012096 0.750059 0.197327
O O7 0.717622 0.373139 0.891022
O O8 0.930220 0.181506 0.917744
O O9 0.750000 0.250000 0.000000
O O10 0.000000 0.379944 0.000000
O O11 0.250000 0.250000 0.500000
O O12 0.209631 0.000000 0.474428
O O13 0.540556 0.500000 0.167546
#
# Coordination Sequence:
#
# PCOD8113301 Si02
#       5
#     8   8   8   8   8
#     4  10  24  42  65  92 125 166 212 260 311 367
#     4  11  24  43  66  92 125 167 213 258 310 374
#     4   9  21  41  63  91 125 165 207 254 309 369
#     4  11  24  42  65  94 128 165 208 259 314 373
#     4  11  24  41  64  96 130 163 206 262 318 372
#
# _framework density 23.005334000000001
#
# number of rings (size 3 to 8) (size 9 to 14) (size 15 to 20)
#    0.000    1.600    0.000    3.000    0.000   20.000 
#    0.000    6.000    0.000    0.000    0.000    0.000 
#    0.000    0.000    0.000    0.000    0.000    0.000 
#
# Total GULP energy -247852.755760 kJ/mol
# GULP energy per Si atom -12392.637788 kJ/mol
# Density = 2.295297 g / cm^3
# Si number density = 23.005334 Si / 1000 Ang^3
#
#
#
# Elastic Constant Matrix: (Units=GPa)
#
#
# Indices 1 2 3 4 5 6 
#
# 1 124.9775 32.1701 35.3049 0.0000 24.9912 0.0000
# 2 32.1701 188.2620 57.2991 0.0000 18.3055 0.0000
# 3 35.3049 57.2991 107.7680 0.0000 30.5176 0.0000
# 4 0.0000 0.0000 0.0000 -40.6626 0.0000 -9.4074
# 5 24.9912 18.3055 30.5176 0.0000 41.7831 0.0000
# 6 0.0000 0.0000 0.0000 -9.4074 0.0000 11.5117
#
#
#
# Elastic Compliance Matrix: (Units=1/GPa)
#
#
# Indices 1 2 3 4 5 6 
#
# 1 0.009466 -0.000748 -0.001504 0.000000 -0.004236 0.000000
# 2 -0.000748 0.006402 -0.003141 0.000000 -0.000063 0.000000
# 3 -0.001504 -0.003141 0.013613 0.000000 -0.007667 0.000000
# 4 0.000000 0.000000 0.000000 -0.020682 0.000000 -0.016902
# 5 -0.004236 -0.000063 -0.007667 0.000000 0.032094 0.000000
# 6 0.000000 0.000000 0.000000 -0.016902 0.000000 0.073056
#
#
# Mechanical properties :
#
#
# Convention : Reuss Voigt Hill
#
# Bulk Modulus (GPa) = 53.48971 74.50620 63.99795
# Shear Modulus (GPa) = 38.17812 22.27534 30.22673
#
# Velocity S-wave (km/s) = 4.07816 3.11508 3.62871
# Velocity P-wave (km/s) = 6.74364 6.73759 6.74061
#
# Compressibility (1/GPa) = 0.01869519
#
# Stress axis : x y z
#
# Youngs Moduli (GPa) = 105.64393 156.21072 73.45956
#
# Poissons Ratio (x) = 0.11684 0.11048
# Poissons Ratio (y) = 0.07902 0.23071
# Poissons Ratio (z) = 0.15888 0.49061
#
# Static dielectric constant tensor:
#      x y z
#    x 4.949710 0.000000 0.368710 
#    y 0.000000 3.811370 0.000000 
#    z 0.368710 0.000000 4.422050 
# 
# 
# High freq. dielectric constant tensor:
#      x y z
#    x 1.934060 0.000000 0.000180 
#    y 0.000000 1.884320 0.000000 
#    z 0.000180 0.000000 1.912930 
# 
# From -- ./inp_files/331813.got.cif
#   From: 2010.06.25/outbox.cif.g09.slc.cpg/sg12_166_cif.got.tgz:331813.got - 2010.06.28 00:19:55.
