data_PCOD8113013
_publ_section_title
;
Structure prediction by ZEFSAII (Michael W. Deem and Ramdas Pophale) SiO2 
 PCOD8113013
Probable space group: C 2/M
;
_chemical_formula_sum "Si O2"
_cell_formula_units_Z 64
_cell_length_a 19.658614
_cell_length_b 9.005806
_cell_length_c 18.166314
_cell_angle_alpha 90.000000
_cell_angle_beta 88.798617
_cell_angle_gamma 90.000000
_cell_volume 3215.487466
_symmetry_space_group_name_H-M "C 2/M"
_symmetry_group_IT_number 12
_symmetry_cell_setting 'monoclinic'
loop_
_space_group_symop_operation_xyz
x,y,z
-x,y,-z
-x,-y,-z
x,-y,z
1/2+x,1/2+y,z
1/2-x,1/2+y,-z
1/2-x,1/2-y,-z
1/2+x,1/2-y,z
loop_
_atom_site_type_symbol
_atom_site_label
_atom_site_fract_x
_atom_site_fract_y
_atom_site_fract_z
Si Si1 0.060395 0.330531 0.550520
Si Si2 0.996316 0.330652 0.285810
Si Si3 0.385402 0.336040 0.201046
Si Si4 0.300288 0.676786 0.440855
Si Si5 0.377662 0.328033 0.769679
Si Si6 0.272053 0.827045 0.286191
Si Si7 0.553528 0.273298 0.946763
Si Si8 0.918282 0.662167 0.908629
O O1 0.080950 0.500000 0.530088
O O2 0.034956 0.319526 0.633590
O O3 0.123894 0.222549 0.537161
O O4 0.000000 0.273374 0.500000
O O5 0.995657 0.500000 0.257491
O O6 0.954343 0.224139 0.233922
O O7 0.073214 0.269867 0.283050
O O8 0.369339 0.500000 0.232593
O O9 0.323612 0.226905 0.221616
O O10 0.397702 0.353843 0.112603
O O11 0.292908 0.500000 0.443210
O O12 0.250000 0.750000 0.500000
O O13 0.283996 0.735839 0.360052
O O14 0.397358 0.500000 0.762588
O O15 0.302557 0.297579 0.742183
O O16 0.383794 0.280566 0.854826
O O17 0.286217 0.000000 0.302130
O O18 0.501551 0.165546 0.902438
O O19 0.500000 0.371761 0.000000
O O20 0.602808 0.191066 0.005108
O O21 0.892726 0.500000 0.884892
#
# Coordination Sequence:
#
# PCOD8113013 Si02
#       8
#     8   8   8   8   8   8   8   8
#     4  10  23  43  65  96 131 164 207 258 314 374
#     4  11  22  37  64  92 125 165 206 262 317 373
#     4  12  23  38  64  96 127 166 212 263 318 377
#     4  12  26  45  70  96 128 171 215 262 316 379
#     4  11  24  40  61  90 127 165 211 265 317 372
#     4  11  26  46  64  90 130 173 215 262 316 377
#     4   8  19  34  58  93 126 160 207 255 317 374
#     4   9  18  34  59  88 120 156 205 253 305 372
#
# _framework density 19.903670999999999
#
# number of rings (size 3 to 8) (size 9 to 14) (size 15 to 20)
#    0.750    0.625    2.500    3.375    1.750    5.000 
#    0.000    0.625    0.000    0.000    0.000    0.000 
#    0.000    0.000    0.000    0.000    0.000    0.000 
#
# Total GULP energy -396510.837604 kJ/mol
# GULP energy per Si atom -12390.963675 kJ/mol
# Density = 1.985837 g / cm^3
# Si number density = 19.903671 Si / 1000 Ang^3
#
#
#
# Elastic Constant Matrix: (Units=GPa)
#
#
# Indices 1 2 3 4 5 6 
#
# 1 117.4379 61.6875 52.2824 0.0000 -3.0217 0.0000
# 2 61.6875 129.5669 48.1752 0.0000 -0.5633 0.0000
# 3 52.2824 48.1752 88.0532 0.0000 -6.9209 0.0000
# 4 0.0000 0.0000 0.0000 33.5379 0.0000 -20.5506
# 5 -3.0217 -0.5633 -6.9209 0.0000 31.8214 0.0000
# 6 0.0000 0.0000 0.0000 -20.5506 0.0000 57.2357
#
#
#
# Elastic Compliance Matrix: (Units=1/GPa)
#
#
# Indices 1 2 3 4 5 6 
#
# 1 0.013194 -0.004229 -0.005523 0.000000 -0.000023 0.000000
# 2 -0.004229 0.011076 -0.003627 0.000000 -0.000994 0.000000
# 3 -0.005523 -0.003627 0.016862 0.000000 0.003079 0.000000
# 4 0.000000 0.000000 0.000000 0.038227 0.000000 0.013726
# 5 -0.000023 -0.000994 0.003079 0.000000 0.032075 0.000000
# 6 0.000000 0.000000 0.000000 0.013726 0.000000 0.022400
#
#
# Mechanical properties :
#
#
# Convention : Reuss Voigt Hill
#
# Bulk Modulus (GPa) = 69.56122 73.26092 71.41107
# Shear Modulus (GPa) = 30.23291 36.04653 33.13972
#
# Velocity S-wave (km/s) = 3.90161 4.26026 4.08487
# Velocity P-wave (km/s) = 7.43785 7.81584 7.62919
#
# Compressibility (1/GPa) = 0.01437583
#
# Stress axis : x y z
#
# Youngs Moduli (GPa) = 75.79017 90.28910 59.30437
#
# Poissons Ratio (x) = 0.38180 0.32751
# Poissons Ratio (y) = 0.32049 0.21509
# Poissons Ratio (z) = 0.41855 0.32748
#
# Static dielectric constant tensor:
#      x y z
#    x 3.555450 0.000000 0.071470 
#    y 0.000000 3.669790 0.000000 
#    z 0.071470 0.000000 3.926930 
# 
# 
# High freq. dielectric constant tensor:
#      x y z
#    x 1.759390 0.000000 -0.001580 
#    y 0.000000 1.777880 0.000000 
#    z -0.001580 0.000000 1.787310 
# 
# From -- ./inp_files/314063.got.cif
#   From: 2010.06.25/outbox.cif.g09.slc.cpg/sg12_158_cif.got.tgz:314063.got - 2010.06.28 00:19:55.
