data_PCOD8113647
_publ_section_title
;
Structure prediction by ZEFSAII (Michael W. Deem and Ramdas Pophale) SiO2 
 PCOD8113647
Probable space group: C 2/M
;
_chemical_formula_sum "Si O2"
_cell_formula_units_Z 56
_cell_length_a 18.144735
_cell_length_b 28.556889
_cell_length_c 9.628284
_cell_angle_alpha 90.000000
_cell_angle_beta 139.106817
_cell_angle_gamma 90.000000
_cell_volume 3266.030003
_symmetry_space_group_name_H-M "C 2/M"
_symmetry_group_IT_number 12
_symmetry_cell_setting 'monoclinic'
loop_
_space_group_symop_operation_xyz
x,y,z
-x,y,-z
-x,-y,-z
x,-y,z
1/2+x,1/2+y,z
1/2-x,1/2+y,-z
1/2-x,1/2-y,-z
1/2+x,1/2-y,z
loop_
_atom_site_type_symbol
_atom_site_label
_atom_site_fract_x
_atom_site_fract_y
_atom_site_fract_z
Si Si1 0.872265 0.000000 0.907911
Si Si2 0.309172 0.688769 0.933992
Si Si3 0.945988 0.719220 0.069933
Si Si4 0.080379 0.088044 0.489630
Si Si5 0.901930 0.261834 0.465768
Si Si6 0.718336 0.326028 0.785020
Si Si7 0.079324 0.098454 0.979449
Si Si8 0.623912 0.500000 0.381396
O O1 0.844275 0.949005 0.937230
O O2 0.805387 0.000000 0.661926
O O3 0.007047 0.000000 0.129948
O O4 0.389668 0.729819 0.995166
O O5 0.325153 0.682958 0.121192
O O6 0.179825 0.699786 0.718019
O O7 0.337189 0.642123 0.886327
O O8 0.049952 0.717165 0.324021
O O9 0.853809 0.678786 0.971361
O O10 0.000000 0.708624 0.000000
O O11 0.178024 0.122964 0.679075
O O12 0.000000 0.070734 0.500000
O O13 0.143240 0.044453 0.507332
O O14 0.999453 0.112143 0.262209
O O15 0.835623 0.212924 0.394273
O O16 0.000000 0.250467 0.500000
O O17 0.000000 0.090921 0.000000
#
# Coordination Sequence:
#
# PCOD8113647 Si02
#       8
#     4   8   8   8   8   8   8   4
#     4   9  16  34  48  70 108 140 156 206 260 303
#     4  11  21  33  54  79  98 138 179 204 250 306
#     4  11  23  37  51  75 107 133 172 220 247 290
#     4  11  19  30  52  77 104 135 168 205 253 305
#     4  11  19  36  57  68 101 145 170 202 257 299
#     4  11  21  34  53  77 103 136 174 209 253 299
#     4  11  19  32  51  75 107 135 167 208 250 304
#     4   9  17  32  48  72 106 138 164 197 261 311
#
# _framework density 17.146198999999999
#
# number of rings (size 3 to 8) (size 9 to 14) (size 15 to 20)
#    0.000    1.286    7.143    2.786    0.000    3.429 
#    0.000    0.000    0.000    0.000    0.000    2.000 
#    0.000    0.000    0.000    0.000    0.000    0.000 
#
# Total GULP energy -346923.024944 kJ/mol
# GULP energy per Si atom -12390.108034 kJ/mol
# Density = 1.710717 g / cm^3
# Si number density = 17.146199 Si / 1000 Ang^3
#
#
#
# Elastic Constant Matrix: (Units=GPa)
#
#
# Indices 1 2 3 4 5 6 
#
# 1 51.7314 16.1899 17.1201 0.0000 -7.5580 0.0000
# 2 16.1899 116.1971 36.1157 0.0000 8.1335 0.0000
# 3 17.1201 36.1157 93.6138 0.0000 -6.9236 0.0000
# 4 0.0000 0.0000 0.0000 16.5762 0.0000 -6.3701
# 5 -7.5580 8.1335 -6.9236 0.0000 24.1963 0.0000
# 6 0.0000 0.0000 0.0000 -6.3701 0.0000 16.8569
#
#
#
# Elastic Compliance Matrix: (Units=1/GPa)
#
#
# Indices 1 2 3 4 5 6 
#
# 1 0.022058 -0.002823 -0.002416 0.000000 0.007147 0.000000
# 2 -0.002823 0.010635 -0.004001 0.000000 -0.005601 0.000000
# 3 -0.002416 -0.004001 0.012986 0.000000 0.004306 0.000000
# 4 0.000000 0.000000 0.000000 0.070577 0.000000 0.026671
# 5 0.007147 -0.005601 0.004306 0.000000 0.046676 0.000000
# 6 0.000000 0.000000 0.000000 0.026671 0.000000 0.069402
#
#
# Mechanical properties :
#
#
# Convention : Reuss Voigt Hill
#
# Bulk Modulus (GPa) = 36.76602 44.48819 40.62710
# Shear Modulus (GPa) = 19.23965 24.33366 21.78665
#
# Velocity S-wave (km/s) = 3.35340 3.77130 3.56847
# Velocity P-wave (km/s) = 6.04011 6.70569 6.38158
#
# Compressibility (1/GPa) = 0.02719903
#
# Stress axis : x y z
#
# Youngs Moduli (GPa) = 45.33522 94.02914 77.00526
#
# Poissons Ratio (x) = 0.26541 0.18607
# Poissons Ratio (y) = 0.12796 0.30810
# Poissons Ratio (z) = 0.10955 0.37621
#
# Static dielectric constant tensor:
#      x y z
#    x 3.096710 0.000000 -0.282370 
#    y 0.000000 3.407430 0.000000 
#    z -0.282370 0.000000 3.715680 
# 
# 
# High freq. dielectric constant tensor:
#      x y z
#    x 1.637440 0.000000 -0.026090 
#    y 0.000000 1.657210 0.000000 
#    z -0.026090 0.000000 1.655380 
# 
# From -- ./inp_files/80528.got.cif
#   From: 2010.06.25/outbox.cif.g09.slc.cpg/sg12_41_cif.got.tgz:80528.got - 2010.06.28 00:19:55.
