data_PCOD8113099
_publ_section_title
;
Structure prediction by ZEFSAII (Michael W. Deem and Ramdas Pophale) SiO2 
 PCOD8113099
Probable space group: C 2/M
;
_chemical_formula_sum "Si O2"
_cell_formula_units_Z 32
_cell_length_a 29.143897
_cell_length_b 10.320121
_cell_length_c 4.993540
_cell_angle_alpha 90.000000
_cell_angle_beta 101.679108
_cell_angle_gamma 90.000000
_cell_volume 1470.805454
_symmetry_space_group_name_H-M "C 2/M"
_symmetry_group_IT_number 12
_symmetry_cell_setting 'monoclinic'
loop_
_space_group_symop_operation_xyz
x,y,z
-x,y,-z
-x,-y,-z
x,-y,z
1/2+x,1/2+y,z
1/2-x,1/2+y,-z
1/2-x,1/2-y,-z
1/2+x,1/2-y,z
loop_
_atom_site_type_symbol
_atom_site_label
_atom_site_fract_x
_atom_site_fract_y
_atom_site_fract_z
Si Si1 0.611940 0.853527 0.318963
Si Si2 0.171679 0.699093 0.886098
Si Si3 0.967583 0.853621 0.716534
Si Si4 0.759700 0.862401 0.300604
O O1 0.649004 0.870396 0.602566
O O2 0.572001 0.754898 0.366461
O O3 0.593537 0.000000 0.231512
O O4 0.634343 0.788638 0.081188
O O5 0.192440 0.836845 0.810237
O O6 0.216554 0.619966 0.044291
O O7 0.000000 0.849184 0.500000
O O8 0.946697 0.000000 0.728916
O O9 0.000000 0.813222 0.000000
O O10 0.750000 0.750000 0.500000
O O11 0.766177 0.000000 0.457639
#
# Coordination Sequence:
#
# PCOD8113099 Si02
#       4
#     8   8   8   8
#     4  12  24  41  68  97 128 167 216 271 320 379
#     4  11  25  42  62  96 133 173 214 270 325 376
#     4  10  23  44  67  93 129 167 204 258 326 390
#     4  11  24  43  67  93 132 179 224 271 323 381
#
# _framework density 21.756786000000002
#
# number of rings (size 3 to 8) (size 9 to 14) (size 15 to 20)
#    0.000    1.000    2.500    3.750    0.000    8.000 
#    0.000    0.000    0.000    0.000    0.000    0.000 
#    0.000    0.000    0.000    0.000    0.000    0.000 
#
# Total GULP energy -198267.110147 kJ/mol
# GULP energy per Si atom -12391.694384 kJ/mol
# Density = 2.170727 g / cm^3
# Si number density = 21.756786 Si / 1000 Ang^3
#
#
#
# Elastic Constant Matrix: (Units=GPa)
#
#
# Indices 1 2 3 4 5 6 
#
# 1 87.6681 70.8195 23.5463 0.0000 -6.0080 0.0000
# 2 70.8195 190.4490 48.0842 0.0000 2.5806 0.0000
# 3 23.5463 48.0842 121.3068 0.0000 -11.4283 0.0000
# 4 0.0000 0.0000 0.0000 39.7253 0.0000 1.3433
# 5 -6.0080 2.5806 -11.4283 0.0000 35.4898 0.0000
# 6 0.0000 0.0000 0.0000 1.3433 0.0000 2.5650
#
#
#
# Elastic Compliance Matrix: (Units=1/GPa)
#
#
# Indices 1 2 3 4 5 6 
#
# 1 0.016705 -0.006122 -0.000524 0.000000 0.003105 0.000000
# 2 -0.006122 0.008129 -0.002255 0.000000 -0.002354 0.000000
# 3 -0.000524 -0.002255 0.009536 0.000000 0.003146 0.000000
# 4 0.000000 0.000000 0.000000 0.025627 0.000000 -0.013421
# 5 0.003105 -0.002354 0.003146 0.000000 0.029887 0.000000
# 6 0.000000 0.000000 0.000000 -0.013421 0.000000 0.396899
#
#
# Mechanical properties :
#
#
# Convention : Reuss Voigt Hill
#
# Bulk Modulus (GPa) = 60.35809 76.03598 68.19704
# Shear Modulus (GPa) = 9.80187 32.68761 21.24474
#
# Velocity S-wave (km/s) = 2.12485 3.88030 3.12823
# Velocity P-wave (km/s) = 5.81570 7.42291 6.66791
#
# Compressibility (1/GPa) = 0.01656779
#
# Stress axis : x y z
#
# Youngs Moduli (GPa) = 59.86106 123.02308 104.87008
#
# Poissons Ratio (x) = 0.75313 0.05490
# Poissons Ratio (y) = 0.36646 0.23653
# Poissons Ratio (z) = 0.03134 0.27748
#
# Static dielectric constant tensor:
#      x y z
#    x 3.871810 0.000000 -0.102940 
#    y 0.000000 4.001650 0.000000 
#    z -0.102940 0.000000 4.043670 
# 
# 
# High freq. dielectric constant tensor:
#      x y z
#    x 1.843430 0.000000 -0.013320 
#    y 0.000000 1.855400 0.000000 
#    z -0.013320 0.000000 1.867010 
# 
# From -- ./inp_files/23362.got.cif
#   From: 2010.06.25/outbox.cif.g09.slc.cpg/sg12_12_cif.got.tgz:23362.got - 2010.06.28 00:19:55.
