data_PCOD8113824
_publ_section_title
;
Structure prediction by ZEFSAII (Michael W. Deem and Ramdas Pophale) SiO2 
 PCOD8113824
Probable space group: C 2/M
;
_chemical_formula_sum "Si O2"
_cell_formula_units_Z 56
_cell_length_a 19.835938
_cell_length_b 8.782046
_cell_length_c 21.119880
_cell_angle_alpha 90.000000
_cell_angle_beta 53.778239
_cell_angle_gamma 90.000000
_cell_volume 2968.050609
_symmetry_space_group_name_H-M "C 2/M"
_symmetry_group_IT_number 12
_symmetry_cell_setting 'monoclinic'
loop_
_space_group_symop_operation_xyz
x,y,z
-x,y,-z
-x,-y,-z
x,-y,z
1/2+x,1/2+y,z
1/2-x,1/2+y,-z
1/2-x,1/2-y,-z
1/2+x,1/2-y,z
loop_
_atom_site_type_symbol
_atom_site_label
_atom_site_fract_x
_atom_site_fract_y
_atom_site_fract_z
Si Si1 0.393283 0.329196 0.797400
Si Si2 0.509356 0.320232 0.377882
Si Si3 0.908723 0.318527 0.041803
Si Si4 0.843665 0.320812 0.628860
Si Si5 0.759237 0.672633 0.206907
Si Si6 0.839898 0.321114 0.949126
Si Si7 0.680762 0.319541 0.491571
O O1 0.418724 0.500000 0.802705
O O2 0.457783 0.265442 0.708958
O O3 0.300279 0.326306 0.821093
O O4 0.396360 0.225465 0.857751
O O5 0.523427 0.500000 0.378403
O O6 0.564676 0.242535 0.402557
O O7 0.412689 0.272948 0.434755
O O8 0.908493 0.500000 0.042582
O O9 0.847970 0.263904 0.132485
O O10 0.882670 0.256609 0.988120
O O11 0.000000 0.248909 0.000000
O O12 0.850827 0.500000 0.615118
O O13 0.775021 0.283709 0.720190
O O14 0.808403 0.245267 0.584702
O O15 0.765098 0.500000 0.230652
O O16 0.830771 0.500000 0.954740
O O17 0.750000 0.250000 0.000000
O O18 0.692158 0.500000 0.484726
O O19 0.750000 0.250000 0.500000
#
# Coordination Sequence:
#
# PCOD8113824 Si02
#       7
#     8   8   8   8   8   8   8
#     4   9  17  33  55  82 109 139 178 226 278 327
#     4   9  20  39  62  84 113 150 188 228 281 339
#     4   9  18  34  54  76 106 143 187 231 274 327
#     4  11  22  36  59  89 116 145 189 239 279 328
#     4   9  17  34  57  79 108 146 186 226 278 335
#     4  11  20  32  53  80 108 142 183 228 274 325
#     4  11  23  41  62  85 116 153 187 226 280 340
#
# _framework density 18.867602000000002
#
# number of rings (size 3 to 8) (size 9 to 14) (size 15 to 20)
#    0.000    2.143    1.429    3.429    0.000    5.143 
#    2.571    0.000    0.000    3.000    0.000    0.000 
#    0.000    0.000    0.000    0.000    0.000    0.000 
#
# Total GULP energy -347146.548614 kJ/mol
# GULP energy per Si atom -12398.091022 kJ/mol
# Density = 1.882466 g / cm^3
# Si number density = 18.867602 Si / 1000 Ang^3
#
#
#
# Elastic Constant Matrix: (Units=GPa)
#
#
# Indices 1 2 3 4 5 6 
#
# 1 143.7129 44.3654 74.9007 -0.0001 0.0860 0.0004
# 2 44.3654 70.6198 35.4998 -0.0001 5.5230 0.0011
# 3 74.9007 35.4998 118.7281 0.0000 -1.3124 -0.0001
# 4 -0.0001 -0.0001 0.0000 30.6274 0.0000 5.3028
# 5 0.0860 5.5230 -1.3124 0.0000 32.2721 0.0000
# 6 0.0004 0.0011 -0.0001 5.3028 0.0000 24.9764
#
#
#
# Elastic Compliance Matrix: (Units=1/GPa)
#
#
# Indices 1 2 3 4 5 6 
#
# 1 0.011316 -0.004187 -0.005882 0.000000 0.000447 0.000000
# 2 -0.004187 0.018521 -0.002933 0.000000 -0.003278 -0.000001
# 3 -0.005882 -0.002933 0.013022 0.000000 0.001047 0.000000
# 4 0.000000 0.000000 0.000000 0.033897 0.000000 -0.007197
# 5 0.000447 -0.003278 0.001047 0.000000 0.031589 0.000000
# 6 0.000000 -0.000001 0.000000 -0.007197 0.000000 0.041566
#
#
# Mechanical properties :
#
#
# Convention : Reuss Voigt Hill
#
# Bulk Modulus (GPa) = 59.32723 71.39917 65.36320
# Shear Modulus (GPa) = 27.54316 29.46150 28.50233
#
# Velocity S-wave (km/s) = 3.82489 3.95585 3.89092
# Velocity P-wave (km/s) = 7.14273 7.66742 7.40972
#
# Compressibility (1/GPa) = 0.01685567
#
# Stress axis : x y z
#
# Youngs Moduli (GPa) = 88.36765 53.99135 76.79462
#
# Poissons Ratio (x) = 0.22608 0.45171
# Poissons Ratio (y) = 0.37003 0.22520
# Poissons Ratio (z) = 0.51978 0.15833
#
# Static dielectric constant tensor:
#      x y z
#    x 3.601360 0.000000 0.195660 
#    y 0.000000 3.284620 0.000000 
#    z 0.195660 0.000000 4.023610 
# 
# 
# High freq. dielectric constant tensor:
#      x y z
#    x 1.716800 0.000000 0.000190 
#    y 0.000000 1.716190 0.000000 
#    z 0.000190 0.000000 1.749300 
# 
# From -- ./inp_files/313699.got.cif
#   From: 2010.06.25/outbox.cif.g09.slc.cpg/sg12_157_cif.got.tgz:313699.got - 2010.06.28 00:19:55.
