data_PCOD8113957
_publ_section_title
;
Structure prediction by ZEFSAII (Michael W. Deem and Ramdas Pophale) SiO2 
 PCOD8113957
Probable space group: C 2/M
;
_chemical_formula_sum "Si O2"
_cell_formula_units_Z 40
_cell_length_a 16.162458
_cell_length_b 18.183468
_cell_length_c 15.183113
_cell_angle_alpha 90.000000
_cell_angle_beta 153.161295
_cell_angle_gamma 90.000000
_cell_volume 2014.576934
_symmetry_space_group_name_H-M "C 2/M"
_symmetry_group_IT_number 12
_symmetry_cell_setting 'monoclinic'
loop_
_space_group_symop_operation_xyz
x,y,z
-x,y,-z
-x,-y,-z
x,-y,z
1/2+x,1/2+y,z
1/2-x,1/2+y,-z
1/2-x,1/2-y,-z
1/2+x,1/2-y,z
loop_
_atom_site_type_symbol
_atom_site_label
_atom_site_fract_x
_atom_site_fract_y
_atom_site_fract_z
Si Si1 0.708659 0.192353 0.883009
Si Si2 0.531196 0.585843 0.785016
Si Si3 0.717510 0.268088 0.714883
Si Si4 0.668457 0.420201 0.721836
Si Si5 0.284121 0.811096 0.462450
O O1 0.785389 0.225046 0.865098
O O2 0.498011 0.169404 0.668164
O O3 0.750000 0.250000 0.000000
O O4 0.816018 0.117563 0.004261
O O5 0.518418 0.500000 0.787785
O O6 0.589659 0.606705 0.741291
O O7 0.332282 0.617813 0.621135
O O8 0.500000 0.274268 0.500000
O O9 0.789688 0.353265 0.794967
O O10 0.790453 0.223527 0.700069
O O11 0.500000 0.436725 0.500000
O O12 0.774515 0.500000 0.831471
O O13 0.250000 0.750000 0.500000
#
# Coordination Sequence:
#
# PCOD8113957 Si02
#       5
#     8   8   8   8   8
#     4  11  20  38  59  85 117 154 200 241 281 350
#     4  11  23  39  60  89 120 155 196 248 301 343
#     4   9  18  33  56  84 114 153 199 234 291 352
#     4   9  16  30  55  84 116 151 189 238 298 355
#     4  11  21  37  61  87 118 155 199 241 289 355
#
# _framework density 19.855284999999999
#
# number of rings (size 3 to 8) (size 9 to 14) (size 15 to 20)
#    0.000    1.800    4.000    2.400    0.000    1.600 
#    0.000    2.000    0.000    3.600    0.000    9.800 
#    0.000    0.000    0.000    0.000    0.000    0.000 
#
# Total GULP energy -247814.084033 kJ/mol
# GULP energy per Si atom -12390.704202 kJ/mol
# Density = 1.981009 g / cm^3
# Si number density = 19.855285 Si / 1000 Ang^3
#
#
#
# Elastic Constant Matrix: (Units=GPa)
#
#
# Indices 1 2 3 4 5 6 
#
# 1 79.5626 40.9638 34.2043 0.0001 -38.5357 0.0000
# 2 40.9638 136.3950 45.7057 0.0001 -13.2218 0.0001
# 3 34.2043 45.7057 91.5874 0.0012 -9.1491 0.0005
# 4 0.0001 0.0001 0.0012 33.3932 0.0004 -0.9440
# 5 -38.5357 -13.2218 -9.1491 0.0004 33.3668 0.0001
# 6 0.0000 0.0001 0.0005 -0.9440 0.0001 33.6460
#
#
#
# Elastic Compliance Matrix: (Units=1/GPa)
#
#
# Indices 1 2 3 4 5 6 
#
# 1 0.037191 -0.004855 -0.007575 0.000000 0.038952 0.000000
# 2 -0.004855 0.009620 -0.003256 0.000000 -0.002688 0.000000
# 3 -0.007575 -0.003256 0.014774 0.000000 -0.005988 0.000000
# 4 0.000000 0.000000 0.000000 0.029970 -0.000001 0.000841
# 5 0.038952 -0.002688 -0.005988 -0.000001 0.072248 0.000000
# 6 0.000000 0.000000 0.000000 0.000841 0.000000 0.029745
#
#
# Mechanical properties :
#
#
# Convention : Reuss Voigt Hill
#
# Bulk Modulus (GPa) = 33.09924 61.03253 47.06588
# Shear Modulus (GPa) = 21.27713 32.52593 26.90153
#
# Velocity S-wave (km/s) = 3.27710 4.05180 3.68486
# Velocity P-wave (km/s) = 5.57006 7.25912 6.46995
#
# Compressibility (1/GPa) = 0.03021218
#
# Stress axis : x y z
#
# Youngs Moduli (GPa) = 26.88803 103.94536 67.68442
#
# Poissons Ratio (x) = 0.50469 0.51274
# Poissons Ratio (y) = 0.13055 0.22040
# Poissons Ratio (z) = 0.20369 0.33847
#
# Static dielectric constant tensor:
#      x y z
#    x 3.675650 0.000000 -0.314090 
#    y 0.000000 3.718270 -0.000010 
#    z -0.314090 -0.000010 3.272320 
# 
# 
# High freq. dielectric constant tensor:
#      x y z
#    x 1.770740 0.000000 -0.022530 
#    y 0.000000 1.775790 0.000000 
#    z -0.022530 0.000000 1.765380 
# 
# From -- ./inp_files/112529.got.cif
#   From: 2010.06.25/outbox.cif.g09.slc.cpg/sg12_57_cif.got.tgz:112529.got - 2010.06.28 00:19:55.
