data_PCOD8113871
_publ_section_title
;
Structure prediction by ZEFSAII (Michael W. Deem and Ramdas Pophale) SiO2 
 PCOD8113871
Probable space group: C 2/M
;
_chemical_formula_sum "Si O2"
_cell_formula_units_Z 40
_cell_length_a 22.082693
_cell_length_b 10.114806
_cell_length_c 10.596969
_cell_angle_alpha 90.000000
_cell_angle_beta 113.383997
_cell_angle_gamma 90.000000
_cell_volume 2172.552648
_symmetry_space_group_name_H-M "C 2/M"
_symmetry_group_IT_number 12
_symmetry_cell_setting 'monoclinic'
loop_
_space_group_symop_operation_xyz
x,y,z
-x,y,-z
-x,-y,-z
x,-y,z
1/2+x,1/2+y,z
1/2-x,1/2+y,-z
1/2-x,1/2-y,-z
1/2+x,1/2-y,z
loop_
_atom_site_type_symbol
_atom_site_label
_atom_site_fract_x
_atom_site_fract_y
_atom_site_fract_z
Si Si1 0.486951 0.000000 0.200856
Si Si2 0.505850 0.500000 0.805211
Si Si3 0.824230 0.842895 0.170871
Si Si4 0.112815 0.000000 0.100015
Si Si5 0.814102 0.254341 0.884404
Si Si6 0.602134 0.000000 0.117348
Si Si7 0.034854 0.237826 0.661413
O O1 0.563280 0.000000 0.218938
O O2 0.468350 0.874491 0.268019
O O3 0.445870 0.000000 0.040095
O O4 0.447274 0.500000 0.854739
O O5 0.497436 0.629126 0.713569
O O6 0.578641 0.500000 0.931919
O O7 0.763428 0.782509 0.200316
O O8 0.890477 0.811386 0.302875
O O9 0.813410 0.000000 0.139257
O O10 0.829263 0.761672 0.044912
O O11 0.160760 0.876971 0.164102
O O12 0.853224 0.371590 0.851762
O O13 0.000000 0.255089 0.500000
#
# Coordination Sequence:
#
# PCOD8113871 Si02
#       7
#     4   4   8   4   8   4   8
#     4  11  23  37  55  90 116 147 190 227 295 330
#     4  11  21  37  59  88 114 153 192 229 287 334
#     4  11  21  35  56  85 118 147 192 230 287 338
#     4  11  20  36  60  87 123 140 184 249 284 338
#     4  11  20  34  57  87 116 147 180 239 291 334
#     4  11  20  36  60  83 121 148 176 237 290 350
#     4  12  23  39  59  82 117 153 194 233 272 340
#
# _framework density 18.411522000000001
#
# number of rings (size 3 to 8) (size 9 to 14) (size 15 to 20)
#    0.000    0.800    7.000    1.800    0.000    4.000 
#    0.000    0.000    0.000    7.200    0.000    0.000 
#    0.000    0.000    0.000    0.000    0.000    0.000 
#
# Total GULP energy -248004.277225 kJ/mol
# GULP energy per Si atom -12400.213861 kJ/mol
# Density = 1.836962 g / cm^3
# Si number density = 18.411522 Si / 1000 Ang^3
#
#
#
# Elastic Constant Matrix: (Units=GPa)
#
#
# Indices 1 2 3 4 5 6 
#
# 1 121.5522 48.6864 19.0679 0.0000 12.6367 0.0000
# 2 48.6864 146.6865 12.0924 0.0000 -3.5381 0.0000
# 3 19.0679 12.0924 55.3685 0.0000 4.0097 0.0000
# 4 0.0000 0.0000 0.0000 -29.7027 0.0000 26.5376
# 5 12.6367 -3.5381 4.0097 0.0000 20.1164 0.0000
# 6 0.0000 0.0000 0.0000 26.5376 0.0000 33.2819
#
#
#
# Elastic Compliance Matrix: (Units=1/GPa)
#
#
# Indices 1 2 3 4 5 6 
#
# 1 0.010737 -0.003529 -0.002428 0.000000 -0.006882 0.000000
# 2 -0.003529 0.008150 -0.000841 0.000000 0.003818 0.000000
# 3 -0.002428 -0.000841 0.019259 0.000000 -0.002461 0.000000
# 4 0.000000 0.000000 0.000000 -0.019661 0.000000 0.015677
# 5 -0.006882 0.003818 -0.002461 0.000000 0.055196 0.000000
# 6 0.000000 0.000000 0.000000 0.015677 0.000000 0.017546
#
#
# Mechanical properties :
#
#
# Convention : Reuss Voigt Hill
#
# Bulk Modulus (GPa) = 40.73599 53.70007 47.21803
# Shear Modulus (GPa) = 44.24459 20.98981 32.61720
#
# Velocity S-wave (km/s) = 4.90745 3.38011 4.21356
# Velocity P-wave (km/s) = 7.36777 6.66808 7.02664
#
# Compressibility (1/GPa) = 0.02454832
#
# Stress axis : x y z
#
# Youngs Moduli (GPa) = 93.13606 122.69714 51.92366
#
# Poissons Ratio (x) = 0.43306 0.12609
# Poissons Ratio (y) = 0.32872 0.04367
# Poissons Ratio (z) = 0.22618 0.10319
#
# Static dielectric constant tensor:
#      x y z
#    x 3.722280 0.000000 0.101630 
#    y 0.000000 3.344140 0.000000 
#    z 0.101630 0.000000 3.025990 
# 
# 
# High freq. dielectric constant tensor:
#      x y z
#    x 1.734420 0.000000 0.005560 
#    y 0.000000 1.735420 0.000000 
#    z 0.005560 0.000000 1.662780 
# 
# From -- ./inp_files/172624.got.cif
#   From: 2010.06.25/outbox.cif.g09.slc.cpg/sg12_87_cif.got.tgz:172624.got - 2010.06.28 00:19:55.
