data_PCOD8113927
_publ_section_title
;
Structure prediction by ZEFSAII (Michael W. Deem and Ramdas Pophale) SiO2 
 PCOD8113927
Probable space group: C 2/M
;
_chemical_formula_sum "Si O2"
_cell_formula_units_Z 56
_cell_length_a 22.582564
_cell_length_b 15.279615
_cell_length_c 17.584531
_cell_angle_alpha 90.000000
_cell_angle_beta 26.746558
_cell_angle_gamma 90.000000
_cell_volume 2730.688707
_symmetry_space_group_name_H-M "C 2/M"
_symmetry_group_IT_number 12
_symmetry_cell_setting 'monoclinic'
loop_
_space_group_symop_operation_xyz
x,y,z
-x,y,-z
-x,-y,-z
x,-y,z
1/2+x,1/2+y,z
1/2-x,1/2+y,-z
1/2-x,1/2-y,-z
1/2+x,1/2-y,z
loop_
_atom_site_type_symbol
_atom_site_label
_atom_site_fract_x
_atom_site_fract_y
_atom_site_fract_z
Si Si1 0.526250 0.293884 0.651726
Si Si2 0.100805 0.903553 0.317183
Si Si3 0.454678 0.750634 0.201961
Si Si4 0.310677 0.826710 0.159077
Si Si5 0.881313 0.677366 0.580148
Si Si6 0.867584 0.097537 0.200150
Si Si7 0.286886 0.102871 0.346626
O O1 0.403901 0.336502 0.747985
O O2 0.487320 0.275922 0.783150
O O3 0.563820 0.203510 0.566329
O O4 0.635683 0.370365 0.521101
O O5 0.252729 0.903077 0.171934
O O6 0.000000 0.876660 0.500000
O O7 0.066018 0.000000 0.327839
O O8 0.368178 0.671243 0.265599
O O9 0.363145 0.836374 0.320362
O O10 0.570745 0.772562 0.011376
O O11 0.184978 0.762787 0.308219
O O12 0.352887 0.869451 0.190520
O O13 0.763752 0.607004 0.701678
O O14 0.000000 0.643485 0.500000
O O15 0.864934 0.000000 0.239340
O O16 0.000000 0.109384 0.000000
O O17 0.306307 0.000000 0.341067
#
# Coordination Sequence:
#
# PCOD8113927 Si02
#       7
#     8   8   8   8   8   8   8
#     4  11  22  37  59  90 123 162 204 251 315 381
#     4  11  20  36  62  92 121 161 213 259 307 376
#     4  12  24  39  59  92 131 164 202 256 324 380
#     4  11  20  37  62  90 122 162 204 258 311 380
#     4  11  20  40  65  87 113 159 215 261 307 368
#     4  11  23  41  65  89 117 163 219 263 303 365
#     4  11  22  38  64  93 123 161 207 259 318 385
#
# _framework density 20.507646999999999
#
# number of rings (size 3 to 8) (size 9 to 14) (size 15 to 20)
#    0.000    0.857    8.571    1.714    0.000    3.714 
#    0.000    0.000    0.000    0.000    0.000    0.000 
#    0.000    0.000    0.000    0.000    0.000    0.000 
#
# Total GULP energy -347009.974400 kJ/mol
# GULP energy per Si atom -12393.213371 kJ/mol
# Density = 2.046097 g / cm^3
# Si number density = 20.507647 Si / 1000 Ang^3
#
#
#
# Elastic Constant Matrix: (Units=GPa)
#
#
# Indices 1 2 3 4 5 6 
#
# 1 103.4512 35.3983 10.5498 0.0001 -3.0326 -0.0001
# 2 35.3983 117.1215 18.2568 0.0002 -2.0976 -0.0001
# 3 10.5498 18.2568 35.0208 0.0001 -6.9831 -0.0002
# 4 0.0001 0.0002 0.0001 16.6764 -0.0002 -7.0245
# 5 -3.0326 -2.0976 -6.9831 -0.0002 29.0580 0.0001
# 6 -0.0001 -0.0001 -0.0002 -7.0245 0.0001 19.3955
#
#
#
# Elastic Compliance Matrix: (Units=1/GPa)
#
#
# Indices 1 2 3 4 5 6 
#
# 1 0.010882 -0.003031 -0.001591 0.000000 0.000534 0.000000
# 2 -0.003031 0.010145 -0.004509 0.000000 -0.000668 0.000000
# 3 -0.001591 -0.004509 0.032861 0.000000 0.007405 0.000000
# 4 0.000000 0.000000 0.000000 0.070760 0.000000 0.025627
# 5 0.000534 -0.000668 0.007405 0.000000 0.036201 0.000000
# 6 0.000000 0.000000 0.000000 0.025627 0.000000 0.060840
#
#
# Mechanical properties :
#
#
# Convention : Reuss Voigt Hill
#
# Bulk Modulus (GPa) = 28.07002 42.66705 35.36854
# Shear Modulus (GPa) = 19.85500 25.78522 22.82011
#
# Velocity S-wave (km/s) = 3.11493 3.54976 3.33943
# Velocity P-wave (km/s) = 5.16278 6.13609 5.67036
#
# Compressibility (1/GPa) = 0.03562519
#
# Stress axis : x y z
#
# Youngs Moduli (GPa) = 91.89892 98.56931 30.43128
#
# Poissons Ratio (x) = 0.29878 0.04842
# Poissons Ratio (y) = 0.27856 0.13721
# Poissons Ratio (z) = 0.14623 0.44443
#
# Static dielectric constant tensor:
#      x y z
#    x 3.765400 0.000000 -0.230140 
#    y 0.000000 3.650770 0.000000 
#    z -0.230140 0.000000 3.499850 
# 
# 
# High freq. dielectric constant tensor:
#      x y z
#    x 1.798440 0.000000 -0.020490 
#    y 0.000000 1.793020 0.000000 
#    z -0.020490 0.000000 1.777790 
# 
# From -- ./inp_files/156513.got.cif
#   From: 2010.06.25/outbox.cif.g09.slc.cpg/sg12_79_cif.got.tgz:156513.got - 2010.06.28 00:19:55.
