data_PCOD8113634
_publ_section_title
;
Structure prediction by ZEFSAII (Michael W. Deem and Ramdas Pophale) SiO2 
 PCOD8113634
Probable space group: C 2/M
;
_chemical_formula_sum "Si O2"
_cell_formula_units_Z 48
_cell_length_a 17.622101
_cell_length_b 16.681275
_cell_length_c 11.146234
_cell_angle_alpha 90.000000
_cell_angle_beta 128.677002
_cell_angle_gamma 90.000000
_cell_volume 2557.931247
_symmetry_space_group_name_H-M "C 2/M"
_symmetry_group_IT_number 12
_symmetry_cell_setting 'monoclinic'
loop_
_space_group_symop_operation_xyz
x,y,z
-x,y,-z
-x,-y,-z
x,-y,z
1/2+x,1/2+y,z
1/2-x,1/2+y,-z
1/2-x,1/2-y,-z
1/2+x,1/2-y,z
loop_
_atom_site_type_symbol
_atom_site_label
_atom_site_fract_x
_atom_site_fract_y
_atom_site_fract_z
Si Si1 0.276633 0.779121 0.157477
Si Si2 0.294573 0.591741 0.547298
Si Si3 0.101925 0.176718 0.549963
Si Si4 0.398467 0.687693 0.843811
Si Si5 0.403431 0.813602 0.649718
Si Si6 0.942282 0.592183 0.319572
O O1 0.330491 0.705439 0.274763
O O2 0.178144 0.802296 0.126303
O O3 0.343494 0.857851 0.221765
O O4 0.250000 0.750000 0.000000
O O5 0.263480 0.500000 0.530345
O O6 0.344163 0.605060 0.466845
O O7 0.368664 0.616295 0.725036
O O8 0.201334 0.647465 0.470638
O O9 0.080894 0.249688 0.439700
O O10 0.000000 0.143990 0.500000
O O11 0.409643 0.772059 0.785098
O O12 0.500000 0.661371 0.000000
O O13 0.488487 0.879375 0.721545
O O14 0.914083 0.500000 0.271648
O O15 0.000000 0.605230 0.500000
#
# Coordination Sequence:
#
# PCOD8113634 Si02
#       6
#     8   8   8   8   8   8
#     4  12  22  38  61  89 123 163 196 239 301 362
#     4  11  23  39  63  89 121 159 198 253 301 348
#     4  11  20  39  63  88 115 154 211 244 287 363
#     4  11  23  38  62  90 117 158 207 246 292 360
#     4  11  18  39  65  90 115 151 201 252 300 350
#     4  11  21  36  63  96 120 145 193 257 309 343
#
# _framework density 18.765163999999999
#
# number of rings (size 3 to 8) (size 9 to 14) (size 15 to 20)
#    0.000    0.833    6.667    2.500    2.333    2.667 
#    0.000    0.833    0.000    2.000    0.000    0.000 
#    0.000    0.000    0.000    0.000    0.000    0.000 
#
# Total GULP energy -297716.786674 kJ/mol
# GULP energy per Si atom -12404.866111 kJ/mol
# Density = 1.872245 g / cm^3
# Si number density = 18.765164 Si / 1000 Ang^3
#
#
#
# Elastic Constant Matrix: (Units=GPa)
#
#
# Indices 1 2 3 4 5 6 
#
# 1 136.6597 25.1780 36.6458 0.0000 4.9584 0.0000
# 2 25.1780 78.5461 20.1934 0.0000 -9.6816 0.0000
# 3 36.6458 20.1934 95.3666 0.0000 -5.6451 0.0000
# 4 0.0000 0.0000 0.0000 17.1222 0.0000 4.9402
# 5 4.9584 -9.6816 -5.6451 0.0000 31.4848 0.0000
# 6 0.0000 0.0000 0.0000 4.9402 0.0000 20.0141
#
#
#
# Elastic Compliance Matrix: (Units=1/GPa)
#
#
# Indices 1 2 3 4 5 6 
#
# 1 0.008640 -0.002325 -0.002982 0.000000 -0.002610 0.000000
# 2 -0.002325 0.014522 -0.001916 0.000000 0.004488 0.000000
# 3 -0.002982 -0.001916 0.012160 0.000000 0.002061 0.000000
# 4 0.000000 0.000000 0.000000 0.062882 0.000000 -0.015522
# 5 -0.002610 0.004488 0.002061 0.000000 0.033922 0.000000
# 6 0.000000 0.000000 0.000000 -0.015522 0.000000 0.053796
#
#
# Mechanical properties :
#
#
# Convention : Reuss Voigt Hill
#
# Bulk Modulus (GPa) = 47.90210 52.73408 50.31809
# Shear Modulus (GPa) = 24.11648 28.96124 26.53886
#
# Velocity S-wave (km/s) = 3.58882 3.93281 3.76475
# Velocity P-wave (km/s) = 6.53876 6.98468 6.76540
#
# Compressibility (1/GPa) = 0.02087591
#
# Stress axis : x y z
#
# Youngs Moduli (GPa) = 115.73845 68.85931 82.23979
#
# Poissons Ratio (x) = 0.16007 0.24527
# Poissons Ratio (y) = 0.26905 0.15758
# Poissons Ratio (z) = 0.34518 0.13194
#
# Static dielectric constant tensor:
#      x y z
#    x 3.774770 0.000000 0.004470 
#    y 0.000000 3.311430 0.000000 
#    z 0.004470 0.000000 3.761540 
# 
# 
# High freq. dielectric constant tensor:
#      x y z
#    x 1.753880 0.000000 0.004030 
#    y 0.000000 1.710400 0.000000 
#    z 0.004030 0.000000 1.717880 
# 
# From -- ./inp_files/158028.got.cif
#   From: 2010.06.25/outbox.cif.g09.slc.cpg/sg12_80_cif.got.tgz:158028.got - 2010.06.28 00:19:55.
