data_PCOD8113196
_publ_section_title
;
Structure prediction by ZEFSAII (Michael W. Deem and Ramdas Pophale) SiO2 
 PCOD8113196
Probable space group: C 2/M
;
_chemical_formula_sum "Si O2"
_cell_formula_units_Z 40
_cell_length_a 7.800949
_cell_length_b 24.321790
_cell_length_c 10.504051
_cell_angle_alpha 90.000000
_cell_angle_beta 53.863651
_cell_angle_gamma 90.000000
_cell_volume 1609.550736
_symmetry_space_group_name_H-M "C 2/M"
_symmetry_group_IT_number 12
_symmetry_cell_setting 'monoclinic'
loop_
_space_group_symop_operation_xyz
x,y,z
-x,y,-z
-x,-y,-z
x,-y,z
1/2+x,1/2+y,z
1/2-x,1/2+y,-z
1/2-x,1/2-y,-z
1/2+x,1/2-y,z
loop_
_atom_site_type_symbol
_atom_site_label
_atom_site_fract_x
_atom_site_fract_y
_atom_site_fract_z
Si Si1 0.867546 0.894681 0.444794
Si Si2 0.479342 0.828072 0.666802
Si Si3 0.707382 0.830959 0.984032
Si Si4 0.065038 0.061942 0.118225
Si Si5 0.089256 0.788529 0.683508
O O1 0.620487 0.883463 0.591473
O O2 0.989464 0.834913 0.381300
O O3 0.000000 0.925546 0.500000
O O4 0.876391 0.928284 0.306068
O O5 0.323528 0.833225 0.852719
O O6 0.318062 0.816382 0.620288
O O7 0.627259 0.773452 0.619137
O O8 0.500000 0.810216 0.000000
O O9 0.757797 0.893724 0.919462
O O10 0.903388 0.788506 0.872453
O O11 0.152127 0.000000 0.093963
O O12 0.000000 0.072804 0.000000
#
# Coordination Sequence:
#
# PCOD8113196 Si02
#       5
#     8   8   8   8   8
#     4  11  23  41  64  96 133 169 213 269 326 382
#     4  12  22  38  62  93 133 175 219 264 316 379
#     4  11  22  39  63  93 130 171 218 267 320 384
#     4  10  23  46  71  94 125 167 216 271 333 397
#     4  11  23  38  59  92 134 178 215 254 314 386
#
# _framework density 24.851655999999998
#
# number of rings (size 3 to 8) (size 9 to 14) (size 15 to 20)
#    0.000    1.000    0.000    9.600    0.000    0.800 
#    0.000    1.000    0.000   14.400    0.000    0.000 
#    0.000    0.000    0.000    0.000    0.000    0.000 
#
# Total GULP energy -247811.693005 kJ/mol
# GULP energy per Si atom -12390.584650 kJ/mol
# Density = 2.479509 g / cm^3
# Si number density = 24.851656 Si / 1000 Ang^3
#
#
#
# Elastic Constant Matrix: (Units=GPa)
#
#
# Indices 1 2 3 4 5 6 
#
# 1 132.0600 18.0303 52.1615 0.0000 -2.1077 0.0000
# 2 18.0303 81.6923 1.8699 0.0000 4.7658 0.0000
# 3 52.1615 1.8699 122.4734 0.0000 9.7663 0.0000
# 4 0.0000 0.0000 0.0000 28.6066 0.0000 2.4615
# 5 -2.1077 4.7658 9.7663 0.0000 47.9821 0.0000
# 6 0.0000 0.0000 0.0000 2.4615 0.0000 21.3389
#
#
#
# Elastic Compliance Matrix: (Units=1/GPa)
#
#
# Indices 1 2 3 4 5 6 
#
# 1 0.009516 -0.002091 -0.004138 0.000000 0.001468 0.000000
# 2 -0.002091 0.012773 0.000817 0.000000 -0.001527 0.000000
# 3 -0.004138 0.000817 0.010100 0.000000 -0.002319 0.000000
# 4 0.000000 0.000000 0.000000 0.035307 0.000000 -0.004073
# 5 0.001468 -0.001527 -0.002319 0.000000 0.021529 0.000000
# 6 0.000000 0.000000 0.000000 -0.004073 0.000000 0.047333
#
#
# Mechanical properties :
#
#
# Convention : Reuss Voigt Hill
#
# Bulk Modulus (GPa) = 46.37116 53.37213 49.87165
# Shear Modulus (GPa) = 32.34800 37.19646 34.77223
#
# Velocity S-wave (km/s) = 3.61174 3.87297 3.74463
# Velocity P-wave (km/s) = 6.00771 6.44382 6.22958
#
# Compressibility (1/GPa) = 0.02156513
#
# Stress axis : x y z
#
# Youngs Moduli (GPa) = 105.09040 78.29044 99.01229
#
# Poissons Ratio (x) = 0.16371 0.40970
# Poissons Ratio (y) = 0.21976 -0.08093
# Poissons Ratio (z) = 0.43485 -0.06399
#
# Static dielectric constant tensor:
#      x y z
#    x 4.096190 0.000000 0.169090 
#    y 0.000000 4.196020 0.000000 
#    z 0.169090 0.000000 5.090450 
# 
# 
# High freq. dielectric constant tensor:
#      x y z
#    x 1.966020 0.000000 0.010400 
#    y 0.000000 1.954570 0.000000 
#    z 0.010400 0.000000 2.040100 
# 
# From -- ./inp_files/123405.got.cif
#   From: 2010.06.25/outbox.cif.g09.slc.cpg/sg12_62_cif.got.tgz:123405.got - 2010.06.28 00:19:55.
