data_PCOD8113741
_publ_section_title
;
Structure prediction by ZEFSAII (Michael W. Deem and Ramdas Pophale) SiO2 
 PCOD8113741
Probable space group: C 2/M
;
_chemical_formula_sum "Si O2"
_cell_formula_units_Z 48
_cell_length_a 32.410645
_cell_length_b 15.996884
_cell_length_c 9.448671
_cell_angle_alpha 90.000000
_cell_angle_beta 151.554686
_cell_angle_gamma 90.000000
_cell_volume 2333.417180
_symmetry_space_group_name_H-M "C 2/M"
_symmetry_group_IT_number 12
_symmetry_cell_setting 'monoclinic'
loop_
_space_group_symop_operation_xyz
x,y,z
-x,y,-z
-x,-y,-z
x,-y,z
1/2+x,1/2+y,z
1/2-x,1/2+y,-z
1/2-x,1/2-y,-z
1/2+x,1/2-y,z
loop_
_atom_site_type_symbol
_atom_site_label
_atom_site_fract_x
_atom_site_fract_y
_atom_site_fract_z
Si Si1 0.389207 0.180692 0.947341
Si Si2 0.847365 0.249499 0.336031
Si Si3 0.409817 0.672129 0.797042
Si Si4 0.708337 0.404833 0.337870
Si Si5 0.904095 0.812949 0.219927
Si Si6 0.963112 0.594150 0.733185
O O1 0.426353 0.249204 0.949070
O O2 0.291527 0.153000 0.618184
O O3 0.393591 0.221334 0.115969
O O4 0.457537 0.105111 0.139429
O O5 0.848374 0.199557 0.484988
O O6 0.895176 0.196740 0.360174
O O7 0.884689 0.343031 0.464931
O O8 0.750000 0.250000 0.000000
O O9 0.360473 0.601944 0.740687
O O10 0.500000 0.639844 0.000000
O O11 0.738708 0.500000 0.414006
O O12 0.664788 0.375868 0.059213
O O13 0.000000 0.851203 0.500000
O O14 0.927034 0.500000 0.609964
O O15 0.000000 0.611474 0.000000
#
# Coordination Sequence:
#
# PCOD8113741 Si02
#       6
#     8   8   8   8   8   8
#     4  11  19  42  64  94 121 166 212 253 306 384
#     4  12  21  38  60  93 125 164 205 251 310 385
#     4  11  20  41  67  87 120 168 222 252 296 380
#     4  11  25  41  63  94 126 166 215 266 310 365
#     4  11  22  39  65  89 124 163 209 255 312 378
#     4  11  22  38  65  97 127 161 206 263 318 367
#
# _framework density 20.570689999999999
#
# number of rings (size 3 to 8) (size 9 to 14) (size 15 to 20)
#    0.000    0.833    5.000    5.500    0.000    0.667 
#    0.000    5.833    0.000    0.000    0.000    0.000 
#    0.000    0.000    0.000    0.000    0.000    0.000 
#
# Total GULP energy -297558.990435 kJ/mol
# GULP energy per Si atom -12398.291268 kJ/mol
# Density = 2.052387 g / cm^3
# Si number density = 20.570690 Si / 1000 Ang^3
#
#
#
# Elastic Constant Matrix: (Units=GPa)
#
#
# Indices 1 2 3 4 5 6 
#
# 1 72.7462 18.5373 0.1922 0.0000 -5.5602 0.0000
# 2 18.5373 79.3358 23.1414 0.0000 -0.9582 0.0000
# 3 0.1922 23.1414 104.5933 0.0000 5.8683 0.0000
# 4 0.0000 0.0000 0.0000 28.2549 0.0000 0.2314
# 5 -5.5602 -0.9582 5.8683 0.0000 41.4515 0.0000
# 6 0.0000 0.0000 0.0000 0.2314 0.0000 17.4105
#
#
#
# Elastic Compliance Matrix: (Units=1/GPa)
#
#
# Indices 1 2 3 4 5 6 
#
# 1 0.014809 -0.003636 0.000676 0.000000 0.001807 0.000000
# 2 -0.003636 0.014389 -0.003194 0.000000 0.000297 0.000000
# 3 0.000676 -0.003194 0.010347 0.000000 -0.001448 0.000000
# 4 0.000000 0.000000 0.000000 0.035396 0.000000 -0.000471
# 5 0.001807 0.000297 -0.001448 0.000000 0.024579 0.000000
# 6 0.000000 0.000000 0.000000 -0.000471 0.000000 0.057443
#
#
# Mechanical properties :
#
#
# Convention : Reuss Voigt Hill
#
# Bulk Modulus (GPa) = 36.71199 37.82413 37.26806
# Shear Modulus (GPa) = 28.03479 31.74367 29.88923
#
# Velocity S-wave (km/s) = 3.69569 3.93256 3.81596
# Velocity P-wave (km/s) = 6.00802 6.24879 6.12958
#
# Compressibility (1/GPa) = 0.02723905
#
# Stress axis : x y z
#
# Youngs Moduli (GPa) = 67.52584 69.49624 96.64225
#
# Poissons Ratio (x) = 0.25266 -0.06531
# Poissons Ratio (y) = 0.24549 0.30864
# Poissons Ratio (z) = -0.04563 0.22195
#
# Static dielectric constant tensor:
#      x y z
#    x 3.973950 0.000000 0.028050 
#    y 0.000000 -2.591410 0.000000 
#    z 0.028050 0.000000 3.768790 
# 
# 
# High freq. dielectric constant tensor:
#      x y z
#    x 1.816120 0.000000 0.004080 
#    y 0.000000 1.771910 0.000000 
#    z 0.004080 0.000000 1.816410 
# 
# From -- ./inp_files/112957.got.cif
#   From: 2010.06.25/outbox.cif.g09.slc.cpg/sg12_57_cif.got.tgz:112957.got - 2010.06.28 00:19:55.
