data_PCOD8113650
_publ_section_title
;
Structure prediction by ZEFSAII (Michael W. Deem and Ramdas Pophale) SiO2 
 PCOD8113650
Probable space group: C 2/M
;
_chemical_formula_sum "Si O2"
_cell_formula_units_Z 56
_cell_length_a 21.319260
_cell_length_b 20.203389
_cell_length_c 8.346309
_cell_angle_alpha 90.000000
_cell_angle_beta 60.080796
_cell_angle_gamma 90.000000
_cell_volume 3115.834991
_symmetry_space_group_name_H-M "C 2/M"
_symmetry_group_IT_number 12
_symmetry_cell_setting 'monoclinic'
loop_
_space_group_symop_operation_xyz
x,y,z
-x,y,-z
-x,-y,-z
x,-y,z
1/2+x,1/2+y,z
1/2-x,1/2+y,-z
1/2-x,1/2-y,-z
1/2+x,1/2-y,z
loop_
_atom_site_type_symbol
_atom_site_label
_atom_site_fract_x
_atom_site_fract_y
_atom_site_fract_z
Si Si1 0.667970 0.925145 0.641611
Si Si2 0.263774 0.682490 0.379629
Si Si3 0.535359 0.884106 0.612029
Si Si4 0.685665 0.215636 0.168371
Si Si5 0.932235 0.766236 0.500461
Si Si6 0.922604 0.788720 0.150749
Si Si7 0.904981 0.650996 0.990441
O O1 0.738475 0.879672 0.518145
O O2 0.606120 0.922228 0.583558
O O3 0.696020 0.000000 0.619298
O O4 0.635201 0.903685 0.853849
O O5 0.250000 0.750000 0.500000
O O6 0.213150 0.677046 0.289090
O O7 0.346499 0.675337 0.206231
O O8 0.500000 0.920181 0.500000
O O9 0.558391 0.812188 0.523975
O O10 0.480366 0.878703 0.831828
O O11 0.635051 0.276265 0.294262
O O12 0.643580 0.167421 0.101999
O O13 0.750000 0.250000 0.000000
O O14 0.919609 0.795621 0.344442
O O15 0.000000 0.801050 0.500000
O O16 0.920315 0.715156 0.081269
O O17 0.000000 0.821956 0.000000
#
# Coordination Sequence:
#
# PCOD8113650 Si02
#       7
#     8   8   8   8   8   8   8
#     4  12  25  40  55  79 113 155 196 238 284 334
#     4  12  21  38  60  83 112 147 191 232 286 335
#     4  11  19  34  54  77 113 156 193 228 271 331
#     4  12  20  31  54  85 113 150 185 238 283 325
#     4  11  19  31  50  82 116 151 182 228 279 327
#     4  12  20  33  55  84 116 143 184 231 287 333
#     4  12  20  33  54  80 117 151 188 227 274 341
#
# _framework density 17.972708999999998
#
# number of rings (size 3 to 8) (size 9 to 14) (size 15 to 20)
#    0.000    0.286   11.429    0.429    0.000    1.429 
#    0.000    2.143    0.000    0.429    0.000    0.000 
#    0.000    1.714    0.000    0.000    0.000    0.000 
#
# Total GULP energy -346950.764450 kJ/mol
# GULP energy per Si atom -12391.098730 kJ/mol
# Density = 1.793180 g / cm^3
# Si number density = 17.972709 Si / 1000 Ang^3
#
#
#
# Elastic Constant Matrix: (Units=GPa)
#
#
# Indices 1 2 3 4 5 6 
#
# 1 91.5244 14.1099 28.7203 0.0000 -9.5894 0.0000
# 2 14.1099 63.0632 28.8858 0.0000 -11.0464 0.0000
# 3 28.7203 28.8858 114.0980 0.0000 -23.7026 0.0000
# 4 0.0000 0.0000 0.0000 12.3537 0.0000 -3.1432
# 5 -9.5894 -11.0464 -23.7026 0.0000 50.7831 0.0000
# 6 0.0000 0.0000 0.0000 -3.1432 0.0000 12.5811
#
#
#
# Elastic Compliance Matrix: (Units=1/GPa)
#
#
# Indices 1 2 3 4 5 6 
#
# 1 0.012011 -0.001401 -0.002503 0.000000 0.000795 0.000000
# 2 -0.001401 0.018281 -0.003881 0.000000 0.001901 0.000000
# 3 -0.002503 -0.003881 0.011188 0.000000 0.003905 0.000000
# 4 0.000000 0.000000 0.000000 0.086442 0.000000 0.021596
# 5 0.000795 0.001901 0.003905 0.000000 0.022078 0.000000
# 6 0.000000 0.000000 0.000000 0.021596 0.000000 0.084880
#
#
# Mechanical properties :
#
#
# Convention : Reuss Voigt Hill
#
# Bulk Modulus (GPa) = 38.59611 45.79083 42.19347
# Shear Modulus (GPa) = 19.29849 28.27489 23.78669
#
# Velocity S-wave (km/s) = 3.28039 3.97068 3.64193
# Velocity P-wave (km/s) = 5.98911 6.82312 6.41967
#
# Compressibility (1/GPa) = 0.02590935
#
# Stress axis : x y z
#
# Youngs Moduli (GPa) = 83.25738 54.70142 89.37955
#
# Poissons Ratio (x) = 0.07666 0.22376
# Poissons Ratio (y) = 0.11668 0.34684
# Poissons Ratio (z) = 0.20843 0.21227
#
# Static dielectric constant tensor:
#      x y z
#    x 3.894170 0.000000 -0.080010 
#    y 0.000000 2.683430 0.000000 
#    z -0.080010 0.000000 3.891100 
# 
# 
# High freq. dielectric constant tensor:
#      x y z
#    x 1.717890 0.000000 0.001700 
#    y 0.000000 1.607470 0.000000 
#    z 0.001700 0.000000 1.723830 
# 
# From -- ./inp_files/89086.got.cif
#   From: 2010.06.25/outbox.cif.g09.slc.cpg/sg12_45_cif.got.tgz:89086.got - 2010.06.28 00:19:55.
