data_PCOD8113034
_publ_section_title
;
Structure prediction by ZEFSAII (Michael W. Deem and Ramdas Pophale) SiO2 
 PCOD8113034
Probable space group: C 2/M
;
_chemical_formula_sum "Si O2"
_cell_formula_units_Z 48
_cell_length_a 9.239549
_cell_length_b 29.296606
_cell_length_c 18.248080
_cell_angle_alpha 90.000000
_cell_angle_beta 28.384624
_cell_angle_gamma 90.000000
_cell_volume 2348.191931
_symmetry_space_group_name_H-M "C 2/M"
_symmetry_group_IT_number 12
_symmetry_cell_setting 'monoclinic'
loop_
_space_group_symop_operation_xyz
x,y,z
-x,y,-z
-x,-y,-z
x,-y,z
1/2+x,1/2+y,z
1/2-x,1/2+y,-z
1/2-x,1/2-y,-z
1/2+x,1/2-y,z
loop_
_atom_site_type_symbol
_atom_site_label
_atom_site_fract_x
_atom_site_fract_y
_atom_site_fract_z
Si Si1 0.831625 0.377736 0.876437
Si Si2 0.645368 0.446410 0.654502
Si Si3 0.343417 0.202975 0.346020
Si Si4 0.812872 0.049328 0.655711
Si Si5 0.818345 0.702299 0.651199
Si Si6 0.192288 0.871541 0.102171
O O1 0.932350 0.328835 0.800066
O O2 0.055741 0.415744 0.746314
O O3 0.500000 0.390720 0.000000
O O4 0.829371 0.382594 0.963194
O O5 0.602835 0.500000 0.691748
O O6 0.526813 0.433060 0.626518
O O7 0.448743 0.417296 0.799930
O O8 0.000000 0.432667 0.500000
O O9 0.334689 0.250652 0.306572
O O10 0.461093 0.209740 0.377044
O O11 0.000000 0.182320 0.500000
O O12 0.000000 0.042338 0.500000
O O13 0.672616 0.000000 0.740888
O O14 0.556697 0.667840 0.790896
O O15 0.000000 0.681982 0.500000
O O16 0.500000 0.852422 0.000000
#
# Coordination Sequence:
#
# PCOD8113034 Si02
#       6
#     8   8   8   8   8   8
#     4  12  26  43  62  96 134 166 208 261 321 377
#     4  10  23  43  67  94 125 168 219 262 307 373
#     4  11  25  44  69  93 126 168 213 263 309 375
#     4  10  23  43  67  93 126 170 215 261 313 372
#     4  11  25  44  68  95 125 166 217 259 312 375
#     4  12  26  41  65  96 129 171 208 260 321 377
#
# _framework density 20.441258999999999
#
# number of rings (size 3 to 8) (size 9 to 14) (size 15 to 20)
#    0.000    1.000    3.333    3.000    7.000    5.333 
#    0.000    0.000    0.000    0.000    0.000    0.000 
#    0.000    0.000    0.000    0.000    0.000    0.000 
#
# Total GULP energy -297518.048074 kJ/mol
# GULP energy per Si atom -12396.585336 kJ/mol
# Density = 2.039473 g / cm^3
# Si number density = 20.441259 Si / 1000 Ang^3
#
#
#
# Elastic Constant Matrix: (Units=GPa)
#
#
# Indices 1 2 3 4 5 6 
#
# 1 144.9246 40.3444 37.0703 -0.0011 -5.3583 -0.0003
# 2 40.3444 81.0697 45.7694 0.0003 -7.0387 0.0001
# 3 37.0703 45.7694 87.5409 0.0035 -5.7232 0.0007
# 4 -0.0011 0.0003 0.0035 -1.6468 -0.0009 -0.2867
# 5 -5.3583 -7.0387 -5.7232 -0.0009 48.2068 -0.0002
# 6 -0.0003 0.0001 0.0007 -0.2867 -0.0002 21.4986
#
#
#
# Elastic Compliance Matrix: (Units=1/GPa)
#
#
# Indices 1 2 3 4 5 6 
#
# 1 0.008231 -0.003002 -0.001900 -0.000010 0.000251 0.000000
# 2 -0.003002 0.018701 -0.008415 -0.000014 0.001398 0.000000
# 3 -0.001900 -0.008415 0.016663 0.000035 0.000538 0.000000
# 4 -0.000010 -0.000014 0.000035 -0.605846 -0.000010 -0.008079
# 5 0.000251 0.001398 0.000538 -0.000010 0.021040 0.000000
# 6 0.000000 0.000000 0.000000 -0.008079 0.000000 0.046407
#
#
# Mechanical properties :
#
#
# Convention : Reuss Voigt Hill
#
# Bulk Modulus (GPa) = 58.95671 62.21149 60.58410
# Shear Modulus (GPa) = -10.81041 26.30181 7.74570
#
# Velocity S-wave (km/s) = -2.30217 3.59095 1.94871
# Velocity P-wave (km/s) = 4.67311 6.90606 5.89625
#
# Compressibility (1/GPa) = 0.01696160
#
# Stress axis : x y z
#
# Youngs Moduli (GPa) = 121.49194 53.47250 60.01492
#
# Poissons Ratio (x) = 0.16052 0.11400
# Poissons Ratio (y) = 0.36471 0.50503
# Poissons Ratio (z) = 0.23079 0.44997
#
# Static dielectric constant tensor:
#      x y z
#    x 3.917880 0.000000 -0.042680 
#    y 0.000000 3.718810 0.000000 
#    z -0.042680 0.000000 3.772590 
# 
# 
# High freq. dielectric constant tensor:
#      x y z
#    x 1.819330 0.000000 -0.001100 
#    y 0.000000 1.802650 0.000000 
#    z -0.001100 0.000000 1.804810 
# 
# From -- ./inp_files/260221.got.cif
#   From: 2010.06.25/outbox.cif.g09.slc.cpg/sg12_131_cif.got.tgz:260221.got - 2010.06.28 00:19:55.
