data_PCOD8113950
_publ_section_title
;
Structure prediction by ZEFSAII (Michael W. Deem and Ramdas Pophale) SiO2 
 PCOD8113950
Probable space group: C 2/M
;
_chemical_formula_sum "Si O2"
_cell_formula_units_Z 40
_cell_length_a 13.604689
_cell_length_b 18.903934
_cell_length_c 14.147674
_cell_angle_alpha 90.000000
_cell_angle_beta 31.803264
_cell_angle_gamma 90.000000
_cell_volume 1917.520166
_symmetry_space_group_name_H-M "C 2/M"
_symmetry_group_IT_number 12
_symmetry_cell_setting 'monoclinic'
loop_
_space_group_symop_operation_xyz
x,y,z
-x,y,-z
-x,-y,-z
x,-y,z
1/2+x,1/2+y,z
1/2-x,1/2+y,-z
1/2-x,1/2-y,-z
1/2+x,1/2-y,z
loop_
_atom_site_type_symbol
_atom_site_label
_atom_site_fract_x
_atom_site_fract_y
_atom_site_fract_z
Si Si1 0.471623 0.641855 0.912211
Si Si2 0.119695 0.702768 0.995722
Si Si3 0.702042 0.145113 0.488873
Si Si4 0.472980 0.708298 0.413890
Si Si5 0.099285 0.421266 0.153648
O O1 0.658499 0.616887 0.706009
O O2 0.500000 0.641270 0.000000
O O3 0.420060 0.721964 0.920134
O O4 0.307461 0.588056 0.022431
O O5 0.337005 0.695595 0.797379
O O6 0.051477 0.638530 0.116210
O O7 0.000000 0.698388 0.000000
O O8 0.587095 0.210418 0.540166
O O9 0.814527 0.162203 0.493009
O O10 0.550343 0.085555 0.638945
O O11 0.500000 0.683896 0.500000
O O12 0.083513 0.500000 0.122850
#
# Coordination Sequence:
#
# PCOD8113950 Si02
#       5
#     8   8   8   8   8
#     4  11  23  43  71  95 124 167 218 271 316 370
#     4  11  21  41  69  98 127 163 213 272 321 372
#     4  11  23  39  63  96 130 162 211 264 316 376
#     4  11  20  37  68 101 127 157 210 274 323 368
#     4  12  26  43  62  92 136 174 212 258 319 388
#
# _framework density 20.860275999999999
#
# number of rings (size 3 to 8) (size 9 to 14) (size 15 to 20)
#    0.000    0.800    4.000    6.600    0.000    1.600 
#    0.000    1.000    0.000    2.400    0.000    0.000 
#    0.000    0.000    0.000    0.000    0.000    0.000 
#
# Total GULP energy -248069.389693 kJ/mol
# GULP energy per Si atom -12403.469485 kJ/mol
# Density = 2.081280 g / cm^3
# Si number density = 20.860276 Si / 1000 Ang^3
#
#
#
# Elastic Constant Matrix: (Units=GPa)
#
#
# Indices 1 2 3 4 5 6 
#
# 1 64.8490 19.1979 23.5742 -0.0120 10.7323 0.0067
# 2 19.1979 71.6452 46.7128 -0.0348 0.8119 0.0242
# 3 23.5742 46.7128 172.3643 -0.0219 -1.9330 0.0151
# 4 -0.0120 -0.0348 -0.0219 10.8101 0.0154 5.5382
# 5 10.7323 0.8119 -1.9330 0.0154 35.2075 -0.0129
# 6 0.0067 0.0242 0.0151 5.5382 -0.0129 11.3159
#
#
#
# Elastic Compliance Matrix: (Units=1/GPa)
#
#
# Indices 1 2 3 4 5 6 
#
# 1 0.017991 -0.003783 -0.001497 0.000022 -0.005479 -0.000017
# 2 -0.003783 0.017763 -0.004291 0.000078 0.000508 -0.000068
# 3 -0.001497 -0.004291 0.007180 -0.000004 0.000949 0.000004
# 4 0.000022 0.000078 -0.000004 0.123462 -0.000085 -0.060425
# 5 -0.005479 0.000508 0.000949 -0.000085 0.030114 0.000077
# 6 -0.000017 -0.000068 0.000004 -0.060425 0.000077 0.117944
#
#
# Mechanical properties :
#
#
# Convention : Reuss Voigt Hill
#
# Bulk Modulus (GPa) = 42.02895 54.20315 48.11605
# Shear Modulus (GPa) = 14.64012 26.09162 20.36587
#
# Velocity S-wave (km/s) = 2.65206 3.54047 3.12797
# Velocity P-wave (km/s) = 5.43778 6.53862 6.01345
#
# Compressibility (1/GPa) = 0.02379312
#
# Stress axis : x y z
#
# Youngs Moduli (GPa) = 55.58254 56.29575 139.27666
#
# Poissons Ratio (x) = 0.21296 0.20849
# Poissons Ratio (y) = 0.21026 0.59763
# Poissons Ratio (z) = 0.08320 0.24156
#
# Static dielectric constant tensor:
#      x y z
#    x 3.906780 -0.000020 -0.175490 
#    y -0.000020 3.399000 0.000030 
#    z -0.175490 0.000030 4.221420 
# 
# 
# High freq. dielectric constant tensor:
#      x y z
#    x 1.827540 0.000000 -0.007480 
#    y 0.000000 1.770520 0.000010 
#    z -0.007480 0.000010 1.842770 
# 
# From -- ./inp_files/216610.got.cif
#   From: 2010.06.25/outbox.cif.g09.slc.cpg/sg12_109_cif.got.tgz:216610.got - 2010.06.28 00:19:55.
