data_PCOD8113033
_publ_section_title
;
Structure prediction by ZEFSAII (Michael W. Deem and Ramdas Pophale) SiO2 
 PCOD8113033
Probable space group: C 2/M
;
_chemical_formula_sum "Si O2"
_cell_formula_units_Z 44
_cell_length_a 8.241670
_cell_length_b 19.995143
_cell_length_c 15.776892
_cell_angle_alpha 90.000000
_cell_angle_beta 53.041314
_cell_angle_gamma 90.000000
_cell_volume 2077.521882
_symmetry_space_group_name_H-M "C 2/M"
_symmetry_group_IT_number 12
_symmetry_cell_setting 'monoclinic'
loop_
_space_group_symop_operation_xyz
x,y,z
-x,y,-z
-x,-y,-z
x,-y,z
1/2+x,1/2+y,z
1/2-x,1/2+y,-z
1/2-x,1/2-y,-z
1/2+x,1/2-y,z
loop_
_atom_site_type_symbol
_atom_site_label
_atom_site_fract_x
_atom_site_fract_y
_atom_site_fract_z
Si Si1 0.410801 0.690607 0.437287
Si Si2 0.916151 0.351081 0.751018
Si Si3 0.199476 0.270968 0.781567
Si Si4 0.222899 0.077663 0.958002
Si Si5 0.500000 0.156429 0.000000
Si Si6 0.144875 0.573009 0.531073
O O1 0.500000 0.676473 0.500000
O O2 0.250000 0.750000 0.500000
O O3 0.575173 0.704891 0.313853
O O4 0.318642 0.619686 0.437620
O O5 0.716937 0.310455 0.780325
O O6 0.863432 0.410273 0.832223
O O7 0.046756 0.293404 0.756503
O O8 0.037868 0.385019 0.638115
O O9 0.125981 0.297826 0.895594
O O10 0.211809 0.000000 0.984366
O O11 0.326421 0.113502 0.006349
O O12 0.000000 0.104780 0.000000
O O13 0.223408 0.500000 0.539497
O O14 0.000000 0.557503 0.500000
#
# Coordination Sequence:
#
# PCOD8113033 Si02
#       6
#     8   8   8   8   4   8
#     4  12  22  41  65  96 127 171 218 268 331 397
#     4  11  24  41  63  95 131 169 218 276 336 400
#     4  11  24  40  65  99 128 173 213 278 337 386
#     4  10  23  43  67  92 131 182 223 276 340 403
#     4  10  25  42  66 102 133 170 232 278 332 402
#     4  11  25  42  63  93 131 172 219 273 330 401
#
# _framework density 21.179079000000002
#
# number of rings (size 3 to 8) (size 9 to 14) (size 15 to 20)
#    0.000    1.091    3.636    1.364    6.364    1.818 
#    0.000    3.636    0.000    0.000    0.000    0.000 
#    0.000    0.000    0.000    0.000    0.000    0.000 
#
# Total GULP energy -272624.176091 kJ/mol
# GULP energy per Si atom -12392.008004 kJ/mol
# Density = 2.113087 g / cm^3
# Si number density = 21.179079 Si / 1000 Ang^3
#
#
#
# Elastic Constant Matrix: (Units=GPa)
#
#
# Indices 1 2 3 4 5 6 
#
# 1 83.7166 26.0961 16.7883 0.0000 -3.0119 0.0000
# 2 26.0961 119.3213 27.7069 0.0000 -2.1211 0.0000
# 3 16.7883 27.7069 129.2742 0.0000 -4.7393 0.0000
# 4 0.0000 0.0000 0.0000 26.0674 0.0000 -2.2320
# 5 -3.0119 -2.1211 -4.7393 0.0000 30.9402 0.0000
# 6 0.0000 0.0000 0.0000 -2.2320 0.0000 32.4242
#
#
#
# Elastic Compliance Matrix: (Units=1/GPa)
#
#
# Indices 1 2 3 4 5 6 
#
# 1 0.013001 -0.002571 -0.001104 0.000000 0.000920 0.000000
# 2 -0.002571 0.009331 -0.001661 0.000000 0.000135 0.000000
# 3 -0.001104 -0.001661 0.008273 0.000000 0.001046 0.000000
# 4 0.000000 0.000000 0.000000 0.038590 0.000000 0.002656
# 5 0.000920 0.000135 0.001046 0.000000 0.032579 0.000000
# 6 0.000000 0.000000 0.000000 0.002656 0.000000 0.031024
#
#
# Mechanical properties :
#
#
# Convention : Reuss Voigt Hill
#
# Bulk Modulus (GPa) = 50.16510 52.61050 51.38780
# Shear Modulus (GPa) = 33.30805 35.33440 34.32123
#
# Velocity S-wave (km/s) = 3.97001 4.08899 4.02994
# Velocity P-wave (km/s) = 6.68971 6.86934 6.78012
#
# Compressibility (1/GPa) = 0.01993418
#
# Stress axis : x y z
#
# Youngs Moduli (GPa) = 76.91813 107.16880 120.87247
#
# Poissons Ratio (x) = 0.27550 0.13340
# Poissons Ratio (y) = 0.19773 0.20078
# Poissons Ratio (z) = 0.08489 0.17802
#
# Static dielectric constant tensor:
#      x y z
#    x 4.742060 0.000000 0.202790 
#    y 0.000000 3.947900 0.000000 
#    z 0.202790 0.000000 4.001170 
# 
# 
# High freq. dielectric constant tensor:
#      x y z
#    x 1.834590 0.000000 0.005590 
#    y 0.000000 1.835640 0.000000 
#    z 0.005590 0.000000 1.838820 
# 
# From -- ./inp_files/196822.got.cif
#   From: 2010.06.25/outbox.cif.g09.slc.cpg/sg12_99_cif.got.tgz:196822.got - 2010.06.28 00:19:55.
