data_PCOD8113212
_publ_section_title
;
Structure prediction by ZEFSAII (Michael W. Deem and Ramdas Pophale) SiO2 
 PCOD8113212
Probable space group: C 2/M
;
_chemical_formula_sum "Si O2"
_cell_formula_units_Z 48
_cell_length_a 28.913775
_cell_length_b 11.239540
_cell_length_c 26.186152
_cell_angle_alpha 90.000000
_cell_angle_beta 161.409453
_cell_angle_gamma 90.000000
_cell_volume 2712.984620
_symmetry_space_group_name_H-M "C 2/M"
_symmetry_group_IT_number 12
_symmetry_cell_setting 'monoclinic'
loop_
_space_group_symop_operation_xyz
x,y,z
-x,y,-z
-x,-y,-z
x,-y,z
1/2+x,1/2+y,z
1/2-x,1/2+y,-z
1/2-x,1/2-y,-z
1/2+x,1/2-y,z
loop_
_atom_site_type_symbol
_atom_site_label
_atom_site_fract_x
_atom_site_fract_y
_atom_site_fract_z
Si Si1 0.161714 0.747961 0.958542
Si Si2 0.242936 0.000000 0.183938
Si Si3 0.606853 0.215847 0.380295
Si Si4 0.787940 0.500000 0.343191
Si Si5 0.019996 0.698678 0.576736
Si Si6 0.435065 0.639196 0.283499
Si Si7 0.926986 0.000000 0.091369
Si Si8 0.252155 0.000000 0.418929
O O1 0.007701 0.683921 0.785054
O O2 0.144836 0.882795 0.960287
O O3 0.250000 0.750000 0.000000
O O4 0.262786 0.670499 0.101735
O O5 0.335449 0.118394 0.268393
O O6 0.192154 0.000000 0.190593
O O7 0.102071 0.000000 0.000146
O O8 0.750000 0.250000 0.500000
O O9 0.531609 0.317627 0.336137
O O10 0.646008 0.109807 0.459418
O O11 0.703555 0.500000 0.308594
O O12 0.883395 0.616651 0.443556
O O13 0.009930 0.803760 0.606713
O O14 0.000000 0.756993 0.500000
O O15 0.457390 0.500000 0.310058
O O16 0.097003 0.000000 0.284650
#
# Coordination Sequence:
#
# PCOD8113212 Si02
#       8
#     8   4   8   4   8   8   4   4
#     4  10  24  35  54  78 114 144 187 227 279 319
#     4   9  18  33  59  83 119 134 179 241 286 334
#     4  11  24  39  54  80 115 152 185 232 271 334
#     4   9  18  35  55  89 109 144 179 231 293 339
#     4   9  17  33  57  83 109 141 180 230 287 336
#     4  11  23  37  56  81 111 147 193 231 272 331
#     4  12  21  38  58  86 109 147 191 234 276 343
#     4  12  23  36  64  80 113 151 193 222 288 339
#
# _framework density 17.692692000000001
#
# number of rings (size 3 to 8) (size 9 to 14) (size 15 to 20)
#    0.000    1.667    5.000    1.000    7.000    2.667 
#    0.000    0.000    0.000    0.000    0.000    0.000 
#    0.000    8.000    0.000    0.000    0.000    0.000 
#
# Total GULP energy -297340.778108 kJ/mol
# GULP energy per Si atom -12389.199088 kJ/mol
# Density = 1.765242 g / cm^3
# Si number density = 17.692692 Si / 1000 Ang^3
#
#
#
# Elastic Constant Matrix: (Units=GPa)
#
#
# Indices 1 2 3 4 5 6 
#
# 1 97.4942 48.2786 43.2290 0.0004 -11.4615 -0.0001
# 2 48.2786 114.9792 41.8209 0.0068 -7.9490 0.0036
# 3 43.2290 41.8209 110.1854 0.0060 -6.1051 0.0036
# 4 0.0004 0.0068 0.0060 20.7089 0.0020 -0.5978
# 5 -11.4615 -7.9490 -6.1051 0.0020 30.6191 0.0000
# 6 -0.0001 0.0036 0.0036 -0.5978 0.0000 26.0149
#
#
#
# Elastic Compliance Matrix: (Units=1/GPa)
#
#
# Indices 1 2 3 4 5 6 
#
# 1 0.014593 -0.004492 -0.003824 0.000002 0.003534 0.000001
# 2 -0.004492 0.011581 -0.002588 -0.000003 0.000809 -0.000001
# 3 -0.003824 -0.002588 0.011570 -0.000002 0.000203 -0.000001
# 4 0.000002 -0.000003 -0.000002 0.048320 -0.000004 0.001110
# 5 0.003534 0.000809 0.000203 -0.000004 0.034233 0.000000
# 6 0.000001 -0.000001 -0.000001 0.001110 0.000000 0.038465
#
#
# Mechanical properties :
#
#
# Convention : Reuss Voigt Hill
#
# Bulk Modulus (GPa) = 62.76017 65.47953 64.11985
# Shear Modulus (GPa) = 26.89884 28.09060 27.49472
#
# Velocity S-wave (km/s) = 3.90338 3.98891 3.94638
# Velocity P-wave (km/s) = 7.47426 7.63577 7.55544
#
# Compressibility (1/GPa) = 0.01593367
#
# Stress axis : x y z
#
# Youngs Moduli (GPa) = 68.52802 86.35056 86.43272
#
# Poissons Ratio (x) = 0.38788 0.33055
# Poissons Ratio (y) = 0.30782 0.22371
# Poissons Ratio (z) = 0.26208 0.22350
#
# Static dielectric constant tensor:
#      x y z
#    x 3.366190 -0.000010 -0.320970 
#    y -0.000010 3.019810 0.000060 
#    z -0.320970 0.000060 4.846990 
# 
# 
# High freq. dielectric constant tensor:
#      x y z
#    x 1.684540 0.000000 -0.013440 
#    y 0.000000 1.663950 0.000000 
#    z -0.013440 0.000000 1.689660 
# 
# From -- ./inp_files/351972.got.cif
#   From: 2010.06.25/outbox.cif.g09.slc.cpg/sg12_176_cif.got.tgz:351972.got - 2010.06.28 00:19:55.
