data_PCOD8113592
_publ_section_title
;
Structure prediction by ZEFSAII (Michael W. Deem and Ramdas Pophale) SiO2 
 PCOD8113592
Probable space group: C 2/M
;
_chemical_formula_sum "Si O2"
_cell_formula_units_Z 56
_cell_length_a 15.211361
_cell_length_b 19.895879
_cell_length_c 18.484089
_cell_angle_alpha 90.000000
_cell_angle_beta 29.782703
_cell_angle_gamma 90.000000
_cell_volume 2778.650218
_symmetry_space_group_name_H-M "C 2/M"
_symmetry_group_IT_number 12
_symmetry_cell_setting 'monoclinic'
loop_
_space_group_symop_operation_xyz
x,y,z
-x,y,-z
-x,-y,-z
x,-y,z
1/2+x,1/2+y,z
1/2-x,1/2+y,-z
1/2-x,1/2-y,-z
1/2+x,1/2-y,z
loop_
_atom_site_type_symbol
_atom_site_label
_atom_site_fract_x
_atom_site_fract_y
_atom_site_fract_z
Si Si1 0.501999 0.208252 0.918179
Si Si2 0.538062 0.723255 0.554570
Si Si3 0.025376 0.370221 0.605563
Si Si4 0.606499 0.693909 0.200634
Si Si5 0.111350 0.923471 0.702877
Si Si6 0.372602 0.360602 0.156076
Si Si7 0.403630 0.178846 0.298225
O O1 0.602479 0.280407 0.848934
O O2 0.587882 0.160971 0.793943
O O3 0.500000 0.175004 0.000000
O O4 0.300742 0.210541 0.032703
O O5 0.500000 0.704483 0.500000
O O6 0.593954 0.800400 0.523353
O O7 0.377130 0.706708 0.723800
O O8 0.699415 0.677841 0.467353
O O9 0.180017 0.420383 0.469201
O O10 0.004378 0.370286 0.708910
O O11 0.829370 0.383191 0.715522
O O12 0.527425 0.619758 0.245274
O O13 0.477001 0.745680 0.253505
O O14 0.075116 0.901267 0.810711
O O15 0.051675 0.000000 0.736201
O O16 0.500000 0.383826 0.000000
#
# Coordination Sequence:
#
# PCOD8113592 Si02
#       7
#     8   8   8   8   8   8   8
#     4  11  21  34  58  95 124 148 182 244 317 370
#     4  11  18  31  56  87 119 145 184 244 313 364
#     4  11  21  37  58  89 121 156 193 246 296 357
#     4  11  21  36  57  88 121 153 193 242 302 357
#     4  12  25  42  60  82 119 171 212 238 275 342
#     4  11  23  38  60  89 124 155 194 244 297 356
#     4  11  18  32  56  87 118 149 184 240 313 358
#
# _framework density 20.153670000000002
#
# number of rings (size 3 to 8) (size 9 to 14) (size 15 to 20)
#    0.000    0.857    4.286    7.714    2.000    1.429 
#    0.000    0.000    0.000    0.857    0.000    0.000 
#    0.000    0.000    0.000    0.000    0.000    0.143 
#
# Total GULP energy -346900.486363 kJ/mol
# GULP energy per Si atom -12389.303084 kJ/mol
# Density = 2.010780 g / cm^3
# Si number density = 20.153670 Si / 1000 Ang^3
#
#
#
# Elastic Constant Matrix: (Units=GPa)
#
#
# Indices 1 2 3 4 5 6 
#
# 1 85.4436 18.7492 11.5995 -0.0033 22.7587 -0.0130
# 2 18.7492 52.1931 7.9896 -0.0054 7.9411 -0.0056
# 3 11.5995 7.9896 80.1631 -0.0230 7.3449 -0.0145
# 4 -0.0033 -0.0054 -0.0230 15.4212 0.0015 0.6418
# 5 22.7587 7.9411 7.3449 0.0015 43.9772 0.0055
# 6 -0.0130 -0.0056 -0.0145 0.6418 0.0055 14.0433
#
#
#
# Elastic Compliance Matrix: (Units=1/GPa)
#
#
# Indices 1 2 3 4 5 6 
#
# 1 0.014493 -0.004037 -0.001091 0.000000 -0.006589 0.000013
# 2 -0.004037 0.021046 -0.001378 0.000004 -0.001481 0.000004
# 3 -0.001091 -0.001378 0.012893 0.000018 -0.001340 0.000011
# 4 0.000000 0.000004 0.000018 0.064969 -0.000006 -0.002969
# 5 -0.006589 -0.001481 -0.001340 -0.000006 0.026640 -0.000018
# 6 0.000013 0.000004 0.000011 -0.002969 -0.000018 0.071344
#
#
# Mechanical properties :
#
#
# Convention : Reuss Voigt Hill
#
# Bulk Modulus (GPa) = 28.23247 32.71960 30.47604
# Shear Modulus (GPa) = 21.16833 26.65245 23.91039
#
# Velocity S-wave (km/s) = 3.24442 3.64051 3.44816
# Velocity P-wave (km/s) = 5.29849 5.82592 5.56846
#
# Compressibility (1/GPa) = 0.03542020
#
# Stress axis : x y z
#
# Youngs Moduli (GPa) = 69.00101 47.51501 77.56428
#
# Poissons Ratio (x) = 0.19180 0.08462
# Poissons Ratio (y) = 0.27853 0.10687
# Poissons Ratio (z) = 0.07528 0.06547
#
# Static dielectric constant tensor:
#      x y z
#    x 3.856820 -0.000040 0.116430 
#    y -0.000040 3.007800 0.000140 
#    z 0.116430 0.000140 4.003390 
# 
# 
# High freq. dielectric constant tensor:
#      x y z
#    x 1.807830 0.000000 0.007580 
#    y 0.000000 1.697130 0.000010 
#    z 0.007580 0.000010 1.811940 
# 
# From -- ./inp_files/272356.got.cif
#   From: 2010.06.25/outbox.cif.g09.slc.cpg/sg12_137_cif.got.tgz:272356.got - 2010.06.28 00:19:55.
