data_PCOD8113825
_publ_section_title
;
Structure prediction by ZEFSAII (Michael W. Deem and Ramdas Pophale) SiO2 
 PCOD8113825
Probable space group: C 2/M
;
_chemical_formula_sum "Si O2"
_cell_formula_units_Z 64
_cell_length_a 12.465288
_cell_length_b 19.924782
_cell_length_c 22.944612
_cell_angle_alpha 90.000000
_cell_angle_beta 36.517672
_cell_angle_gamma 90.000000
_cell_volume 3391.135766
_symmetry_space_group_name_H-M "C 2/M"
_symmetry_group_IT_number 12
_symmetry_cell_setting 'monoclinic'
loop_
_space_group_symop_operation_xyz
x,y,z
-x,y,-z
-x,-y,-z
x,-y,z
1/2+x,1/2+y,z
1/2-x,1/2+y,-z
1/2-x,1/2-y,-z
1/2+x,1/2-y,z
loop_
_atom_site_type_symbol
_atom_site_label
_atom_site_fract_x
_atom_site_fract_y
_atom_site_fract_z
Si Si1 0.196762 0.198744 0.888422
Si Si2 0.606575 0.334727 0.202198
Si Si3 0.339352 0.305740 0.227270
Si Si4 0.385503 0.578706 0.607110
Si Si5 0.952674 0.653713 0.198671
Si Si6 0.018557 0.295978 0.559061
Si Si7 0.100614 0.835582 0.593655
Si Si8 0.408188 0.922133 0.100669
O O1 0.241091 0.277572 0.869808
O O2 0.182214 0.171297 0.829369
O O3 0.354174 0.158437 0.853569
O O4 0.000000 0.185787 0.000000
O O5 0.507328 0.344256 0.183617
O O6 0.461635 0.314203 0.314445
O O7 0.698671 0.403660 0.182637
O O8 0.369016 0.226067 0.221021
O O9 0.159727 0.330305 0.338093
O O10 0.500000 0.600205 0.500000
O O11 0.346532 0.500000 0.624483
O O12 0.190745 0.615529 0.696897
O O13 0.504006 0.597403 0.612267
O O14 0.988033 0.616682 0.121699
O O15 0.047855 0.224022 0.574292
O O16 0.184448 0.346146 0.499761
O O17 0.000000 0.281559 0.500000
O O18 0.429524 0.000000 0.104714
O O19 0.500000 0.900581 0.000000
#
# Coordination Sequence:
#
# PCOD8113825 Si02
#       8
#     8   8   8   8   8   8   8   8
#     4  11  24  38  57  87 122 160 190 241 301 353
#     4  11  21  36  58  87 120 153 194 240 295 349
#     4  11  22  36  56  90 124 155 191 236 294 361
#     4  11  23  38  58  84 113 150 195 243 294 341
#     4  11  23  38  61  87 120 153 200 239 296 354
#     4  11  20  32  53  84 118 148 185 225 287 353
#     4  11  21  32  56  82 117 154 184 234 288 347
#     4  11  23  40  63  86 111 148 198 249 292 338
#
# _framework density 18.872734000000001
#
# number of rings (size 3 to 8) (size 9 to 14) (size 15 to 20)
#    0.000    1.000    6.250    1.125    3.500    1.000 
#    0.000    0.000    0.000    4.125    0.000    0.000 
#    0.000    0.000    0.000    0.000    0.000    0.000 
#
# Total GULP energy -396743.967040 kJ/mol
# GULP energy per Si atom -12398.248970 kJ/mol
# Density = 1.882978 g / cm^3
# Si number density = 18.872734 Si / 1000 Ang^3
#
#
#
# Elastic Constant Matrix: (Units=GPa)
#
#
# Indices 1 2 3 4 5 6 
#
# 1 153.6276 28.3920 66.3396 0.0047 0.0549 -0.0005
# 2 28.3920 44.1457 25.6942 0.0098 -1.9044 -0.0064
# 3 66.3396 25.6942 137.9247 0.0213 0.3626 -0.0120
# 4 0.0047 0.0098 0.0213 17.3124 -0.0080 1.3436
# 5 0.0549 -1.9044 0.3626 -0.0080 37.2034 0.0029
# 6 -0.0005 -0.0064 -0.0120 1.3436 0.0029 21.3530
#
#
#
# Elastic Compliance Matrix: (Units=1/GPa)
#
#
# Indices 1 2 3 4 5 6 
#
# 1 0.008682 -0.003545 -0.003515 0.000004 -0.000160 -0.000003
# 2 -0.003545 0.026922 -0.003314 -0.000010 0.001416 0.000007
# 3 -0.003515 -0.003314 0.009559 -0.000009 -0.000258 0.000005
# 4 0.000004 -0.000010 -0.000009 0.058045 0.000012 -0.003652
# 5 -0.000160 0.001416 -0.000258 0.000012 0.026954 -0.000004
# 6 -0.000003 0.000007 0.000005 -0.003652 -0.000004 0.047062
#
#
# Mechanical properties :
#
#
# Convention : Reuss Voigt Hill
#
# Bulk Modulus (GPa) = 40.95809 64.06106 52.50958
# Shear Modulus (GPa) = 24.25864 29.52525 26.89194
#
# Velocity S-wave (km/s) = 3.58911 3.95959 3.77889
# Velocity P-wave (km/s) = 6.23899 7.41093 6.85007
#
# Compressibility (1/GPa) = 0.02441520
#
# Stress axis : x y z
#
# Youngs Moduli (GPa) = 115.17531 37.14424 104.61137
#
# Poissons Ratio (x) = 0.13167 0.36774
# Poissons Ratio (y) = 0.40829 0.34669
# Poissons Ratio (z) = 0.40488 0.12310
#
# Static dielectric constant tensor:
#      x y z
#    x 3.749470 0.000000 0.026570 
#    y 0.000000 3.077270 0.000030 
#    z 0.026570 0.000030 3.779980 
# 
# 
# High freq. dielectric constant tensor:
#      x y z
#    x 1.746600 0.000000 0.004780 
#    y 0.000000 1.685950 0.000000 
#    z 0.004780 0.000000 1.752510 
# 
# From -- ./inp_files/306772.got.cif
#   From: 2010.06.25/outbox.cif.g09.slc.cpg/sg12_154_cif.got.tgz:306772.got - 2010.06.28 00:19:55.
