data_PCOD8113088
_publ_section_title
;
Structure prediction by ZEFSAII (Michael W. Deem and Ramdas Pophale) SiO2 
 PCOD8113088
Probable space group: C 2/M
;
_chemical_formula_sum "Si O2"
_cell_formula_units_Z 40
_cell_length_a 21.043035
_cell_length_b 12.622868
_cell_length_c 19.197340
_cell_angle_alpha 90.000000
_cell_angle_beta 19.426879
_cell_angle_gamma 90.000000
_cell_volume 1696.033409
_symmetry_space_group_name_H-M "C 2/M"
_symmetry_group_IT_number 12
_symmetry_cell_setting 'monoclinic'
loop_
_space_group_symop_operation_xyz
x,y,z
-x,y,-z
-x,-y,-z
x,-y,z
1/2+x,1/2+y,z
1/2-x,1/2+y,-z
1/2-x,1/2-y,-z
1/2+x,1/2-y,z
loop_
_atom_site_type_symbol
_atom_site_label
_atom_site_fract_x
_atom_site_fract_y
_atom_site_fract_z
Si Si1 0.166266 0.378433 0.661603
Si Si2 0.933592 0.198609 0.494786
Si Si3 0.974852 0.124214 0.233603
Si Si4 0.752527 0.873427 0.933496
Si Si5 0.153586 0.875430 0.782539
O O1 0.127008 0.500000 0.688475
O O2 0.249252 0.363698 0.653905
O O3 0.316017 0.332657 0.451417
O O4 0.959422 0.324893 0.859247
O O5 0.858076 0.319159 0.584722
O O6 0.000000 0.149979 0.500000
O O7 0.112269 0.190835 0.258715
O O8 0.932248 0.172437 0.201269
O O9 0.182766 0.149572 0.052993
O O10 0.954165 0.000000 0.245558
O O11 0.771571 0.000000 0.898139
O O12 0.194463 0.000000 0.738397
O O13 0.000000 0.845704 0.000000
#
# Coordination Sequence:
#
# PCOD8113088 Si02
#       5
#     8   8   8   8   8
#     4   9  19  37  64  95 126 156 189 235 299 367
#     4  11  24  38  60  87 126 159 203 247 289 353
#     4   8  16  37  63  89 119 151 196 249 297 353
#     4   9  19  37  63  96 126 155 189 235 300 367
#     4  10  23  44  65  83 115 161 207 257 303 343
#
# _framework density 23.584441999999999
#
# number of rings (size 3 to 8) (size 9 to 14) (size 15 to 20)
#    0.000    2.600    0.000    1.800    2.800    5.200 
#    3.600    4.000    0.000    0.000    0.000    0.000 
#    0.000    0.000    0.000    0.000    0.000    0.000 
#
# Total GULP energy -247889.805462 kJ/mol
# GULP energy per Si atom -12394.490273 kJ/mol
# Density = 2.353076 g / cm^3
# Si number density = 23.584442 Si / 1000 Ang^3
#
#
#
# Elastic Constant Matrix: (Units=GPa)
#
#
# Indices 1 2 3 4 5 6 
#
# 1 209.7947 23.5268 89.4214 -0.0095 -6.6423 0.0082
# 2 23.5268 38.4279 19.2973 0.0427 -9.1562 0.0267
# 3 89.4214 19.2973 142.6055 0.0657 -21.6262 -0.0182
# 4 -0.0095 0.0427 0.0657 2.6371 0.0045 -13.8052
# 5 -6.6423 -9.1562 -21.6262 0.0045 45.1583 -0.0191
# 6 0.0082 0.0267 -0.0182 -13.8052 -0.0191 32.9627
#
#
#
# Elastic Compliance Matrix: (Units=1/GPa)
#
#
# Indices 1 2 3 4 5 6 
#
# 1 0.006751 -0.002410 -0.004130 -0.000129 -0.001474 -0.000057
# 2 -0.002410 0.029521 -0.001758 0.000472 0.004790 0.000176
# 3 -0.004130 -0.001758 0.010453 0.000167 0.004042 0.000080
# 4 -0.000129 0.000472 0.000167 -0.317986 0.000132 -0.133177
# 5 -0.001474 0.004790 0.004042 0.000132 0.024834 0.000068
# 6 -0.000057 0.000176 0.000080 -0.133177 0.000068 -0.025439
#
#
# Mechanical properties :
#
#
# Convention : Reuss Voigt Hill
#
# Bulk Modulus (GPa) = 33.19010 72.81325 53.00167
# Shear Modulus (GPa) = -20.38923 33.39048 6.50062
#
# Velocity S-wave (km/s) = -2.94346 3.76677 1.66202
# Velocity P-wave (km/s) = 1.59733 7.06106 5.11908
#
# Compressibility (1/GPa) = 0.03012946
#
# Stress axis : x y z
#
# Youngs Moduli (GPa) = 148.13432 33.87392 95.66577
#
# Poissons Ratio (x) = 0.08163 0.39513
# Poissons Ratio (y) = 0.35697 0.16814
# Poissons Ratio (z) = 0.61185 0.05954
#
# Static dielectric constant tensor:
#      x y z
#    x 4.629130 -0.000040 -0.186010 
#    y -0.000040 4.299850 0.000050 
#    z -0.186010 0.000050 4.112710 
# 
# 
# High freq. dielectric constant tensor:
#      x y z
#    x 1.947150 0.000000 -0.017470 
#    y 0.000000 1.957690 0.000010 
#    z -0.017470 0.000010 1.913020 
# 
# From -- ./inp_files/284426.got.cif
#   From: 2010.06.25/outbox.cif.g09.slc.cpg/sg12_143_cif.got.tgz:284426.got - 2010.06.28 00:19:55.
