data_PCOD8113387
_publ_section_title
;
Structure prediction by ZEFSAII (Michael W. Deem and Ramdas Pophale) SiO2 
 PCOD8113387
Probable space group: C 2/M
;
_chemical_formula_sum "Si O2"
_cell_formula_units_Z 48
_cell_length_a 9.272688
_cell_length_b 14.809059
_cell_length_c 31.282732
_cell_angle_alpha 90.000000
_cell_angle_beta 144.461286
_cell_angle_gamma 90.000000
_cell_volume 2496.910209
_symmetry_space_group_name_H-M "C 2/M"
_symmetry_group_IT_number 12
_symmetry_cell_setting 'monoclinic'
loop_
_space_group_symop_operation_xyz
x,y,z
-x,y,-z
-x,-y,-z
x,-y,z
1/2+x,1/2+y,z
1/2-x,1/2+y,-z
1/2-x,1/2-y,-z
1/2+x,1/2-y,z
loop_
_atom_site_type_symbol
_atom_site_label
_atom_site_fract_x
_atom_site_fract_y
_atom_site_fract_z
Si Si1 0.065630 0.658896 0.812262
Si Si2 0.306099 0.102308 0.325790
Si Si3 0.289334 0.500000 0.073780
Si Si4 0.579613 0.341819 0.182893
Si Si5 0.001989 0.895289 0.666098
Si Si6 0.130416 0.000000 0.076897
Si Si7 0.228700 0.742163 0.445381
O O1 0.217085 0.673476 0.805060
O O2 0.195158 0.586628 0.874344
O O3 0.055766 0.749350 0.837639
O O4 0.791183 0.628157 0.732799
O O5 0.206352 0.114357 0.254364
O O6 0.540880 0.165328 0.386566
O O7 0.094988 0.127871 0.309573
O O8 0.393826 0.000000 0.353897
O O9 0.367479 0.410126 0.117335
O O10 0.404895 0.500000 0.055012
O O11 0.000000 0.500000 0.000000
O O12 0.846622 0.836955 0.594636
O O13 0.960334 0.000000 0.644532
O O14 0.000000 0.000000 0.000000
O O15 0.500000 0.708601 0.500000
O O16 0.250000 0.750000 0.500000
#
# Coordination Sequence:
#
# PCOD8113387 Si02
#       7
#     8   8   4   8   8   4   8
#     4  11  23  41  66  98 130 171 217 261 319 381
#     4  11  24  42  66  95 127 168 219 264 322 389
#     4  10  24  44  66  98 136 170 210 267 320 374
#     4  11  23  41  66  98 131 170 217 262 316 386
#     4  11  24  42  67  94 126 171 218 263 322 389
#     4  10  24  44  66  98 136 168 214 264 320 380
#     4  12  26  44  63  93 131 166 214 273 328 377
#
# _framework density 19.223758
#
# number of rings (size 3 to 8) (size 9 to 14) (size 15 to 20)
#    0.000    1.000    5.000    1.000    2.333    4.667 
#    0.000    3.333    0.000    0.000    0.000    0.000 
#    0.000    0.000    0.000    0.000    0.000    0.000 
#
# Total GULP energy -297633.297182 kJ/mol
# GULP energy per Si atom -12401.387383 kJ/mol
# Density = 1.918000 g / cm^3
# Si number density = 19.223758 Si / 1000 Ang^3
#
#
#
# Elastic Constant Matrix: (Units=GPa)
#
#
# Indices 1 2 3 4 5 6 
#
# 1 138.9652 68.9726 73.7599 -0.0001 2.3507 0.0000
# 2 68.9726 153.8520 64.3024 0.0000 2.8237 0.0000
# 3 73.7599 64.3024 139.1850 -0.0001 0.7311 0.0000
# 4 -0.0001 0.0000 -0.0001 41.9313 0.0000 2.8464
# 5 2.3507 2.8237 0.7311 0.0000 45.7661 0.0000
# 6 0.0000 0.0000 0.0000 2.8464 0.0000 32.4524
#
#
#
# Elastic Compliance Matrix: (Units=1/GPa)
#
#
# Indices 1 2 3 4 5 6 
#
# 1 0.011107 -0.003116 -0.004445 0.000000 -0.000307 0.000000
# 2 -0.003116 0.008938 -0.002476 0.000000 -0.000352 0.000000
# 3 -0.004445 -0.002476 0.010683 0.000000 0.000210 0.000000
# 4 0.000000 0.000000 0.000000 0.023991 0.000000 -0.002104
# 5 -0.000307 -0.000352 0.000210 0.000000 0.021884 0.000000
# 6 0.000000 0.000000 0.000000 -0.002104 0.000000 0.030999
#
#
# Mechanical properties :
#
#
# Convention : Reuss Voigt Hill
#
# Bulk Modulus (GPa) = 93.86084 94.00798 93.93441
# Shear Modulus (GPa) = 38.10153 39.02779 38.56466
#
# Velocity S-wave (km/s) = 4.45680 4.51065 4.48380
# Velocity P-wave (km/s) = 8.68421 8.72560 8.70493
#
# Compressibility (1/GPa) = 0.01065407
#
# Stress axis : x y z
#
# Youngs Moduli (GPa) = 90.03286 111.88154 93.60579
#
# Poissons Ratio (x) = 0.34862 0.41607
# Poissons Ratio (y) = 0.28054 0.23178
# Poissons Ratio (z) = 0.40019 0.27704
#
# Static dielectric constant tensor:
#      x y z
#    x 3.733560 0.000000 -0.009030 
#    y 0.000000 3.830350 0.000000 
#    z -0.009030 0.000000 3.401860 
# 
# 
# High freq. dielectric constant tensor:
#      x y z
#    x 1.765370 0.000000 -0.000960 
#    y 0.000000 1.764720 0.000000 
#    z -0.000960 0.000000 1.749620 
# 
# From -- ./inp_files/372430.got.cif
#   From: 2010.06.25/outbox.cif.g09.slc.cpg/sg12_187_cif.got.tgz:372430.got - 2010.06.28 00:19:55.
