data_PCOD8113509
_publ_section_title
;
Structure prediction by ZEFSAII (Michael W. Deem and Ramdas Pophale) SiO2 
 PCOD8113509
Probable space group: C 2/M
;
_chemical_formula_sum "Si O2"
_cell_formula_units_Z 56
_cell_length_a 14.776263
_cell_length_b 17.861579
_cell_length_c 11.184461
_cell_angle_alpha 90.000000
_cell_angle_beta 62.966338
_cell_angle_gamma 90.000000
_cell_volume 2629.361521
_symmetry_space_group_name_H-M "C 2/M"
_symmetry_group_IT_number 12
_symmetry_cell_setting 'monoclinic'
loop_
_space_group_symop_operation_xyz
x,y,z
-x,y,-z
-x,-y,-z
x,-y,z
1/2+x,1/2+y,z
1/2-x,1/2+y,-z
1/2-x,1/2-y,-z
1/2+x,1/2-y,z
loop_
_atom_site_type_symbol
_atom_site_label
_atom_site_fract_x
_atom_site_fract_y
_atom_site_fract_z
Si Si1 0.984892 0.667669 0.372193
Si Si2 0.420475 0.588231 0.451587
Si Si3 0.985801 0.811340 0.206882
Si Si4 0.880847 0.640257 0.063724
Si Si5 0.807244 0.412491 0.362720
Si Si6 0.841685 0.801857 0.074673
Si Si7 0.336474 0.083574 0.842588
O O1 0.005210 0.738760 0.276251
O O2 0.872050 0.635305 0.418786
O O3 0.000000 0.692038 0.500000
O O4 0.062418 0.601783 0.292028
O O5 0.500000 0.620136 0.500000
O O6 0.425249 0.500000 0.442235
O O7 0.453360 0.617744 0.303383
O O8 0.308327 0.615845 0.555276
O O9 0.895295 0.796264 0.170436
O O10 0.087584 0.833170 0.074007
O O11 0.844601 0.601752 0.206180
O O12 0.814836 0.714288 0.067369
O O13 0.862315 0.582398 0.967899
O O14 0.000000 0.663275 0.000000
O O15 0.817133 0.500000 0.386905
O O16 0.746201 0.855362 0.144866
O O17 0.299608 0.000000 0.829844
#
# Coordination Sequence:
#
# PCOD8113509 Si02
#       7
#     8   8   8   8   8   8   8
#     4  12  26  44  68 101 136 181 226 276 337 410
#     4  10  25  45  66  96 135 178 229 285 337 400
#     4  11  23  47  69  96 129 177 230 281 339 398
#     4  12  21  45  72  98 133 177 227 282 329 395
#     4  11  24  43  69  99 134 180 225 280 343 401
#     4  11  23  43  71  97 134 171 224 283 338 391
#     4  12  27  42  66 104 139 177 222 276 342 406
#
# _framework density 21.297947000000001
#
# number of rings (size 3 to 8) (size 9 to 14) (size 15 to 20)
#    0.000    0.714    5.714    1.714    4.000    4.571 
#    0.000    1.429    0.000    0.000    0.000    0.000 
#    0.000    0.000    0.000    0.000    0.000    0.000 
#
# Total GULP energy -347320.979823 kJ/mol
# GULP energy per Si atom -12404.320708 kJ/mol
# Density = 2.124947 g / cm^3
# Si number density = 21.297947 Si / 1000 Ang^3
#
#
#
# Elastic Constant Matrix: (Units=GPa)
#
#
# Indices 1 2 3 4 5 6 
#
# 1 99.4549 43.5931 52.4596 0.0000 -9.6649 0.0000
# 2 43.5931 75.9544 20.8151 0.0000 -6.1291 0.0000
# 3 52.4596 20.8151 113.8125 0.0000 15.6907 0.0000
# 4 0.0000 0.0000 0.0000 22.1752 0.0000 -1.6315
# 5 -9.6649 -6.1291 15.6907 0.0000 33.9209 0.0000
# 6 0.0000 0.0000 0.0000 -1.6315 0.0000 27.6846
#
#
#
# Elastic Compliance Matrix: (Units=1/GPa)
#
#
# Indices 1 2 3 4 5 6 
#
# 1 0.018510 -0.007769 -0.008165 0.000000 0.007647 0.000000
# 2 -0.007769 0.017629 0.000238 0.000000 0.000862 0.000000
# 3 -0.008165 0.000238 0.013695 0.000000 -0.008618 0.000000
# 4 0.000000 0.000000 0.000000 0.045292 0.000000 0.002669
# 5 0.007647 0.000862 -0.008618 0.000000 0.035801 0.000000
# 6 0.000000 0.000000 0.000000 0.002669 0.000000 0.036278
#
#
# Mechanical properties :
#
#
# Convention : Reuss Voigt Hill
#
# Bulk Modulus (GPa) = 54.22622 58.10639 56.16631
# Shear Modulus (GPa) = 24.42058 28.24639 26.33349
#
# Velocity S-wave (km/s) = 3.38985 3.64572 3.52011
# Velocity P-wave (km/s) = 6.39042 6.71294 6.55366
#
# Compressibility (1/GPa) = 0.01844126
#
# Stress axis : x y z
#
# Youngs Moduli (GPa) = 54.02418 56.72479 73.02114
#
# Poissons Ratio (x) = 0.44069 0.59624
# Poissons Ratio (y) = 0.41971 -0.01738
# Poissons Ratio (z) = 0.44113 -0.01350
#
# Static dielectric constant tensor:
#      x y z
#    x 4.052700 0.000000 0.020020 
#    y 0.000000 3.701880 0.000000 
#    z 0.020020 0.000000 3.936350 
# 
# 
# High freq. dielectric constant tensor:
#      x y z
#    x 1.841020 0.000000 0.004490 
#    y 0.000000 1.835010 0.000000 
#    z 0.004490 0.000000 1.840910 
# 
# From -- ./inp_files/146064.got.cif
#   From: 2010.06.25/outbox.cif.g09.slc.cpg/sg12_74_cif.got.tgz:146064.got - 2010.06.28 00:19:55.
