data_PCOD8113614
_publ_section_title
;
Structure prediction by ZEFSAII (Michael W. Deem and Ramdas Pophale) SiO2 
 PCOD8113614
Probable space group: C 2/M
;
_chemical_formula_sum "Si O2"
_cell_formula_units_Z 40
_cell_length_a 18.542894
_cell_length_b 20.377683
_cell_length_c 8.955441
_cell_angle_alpha 90.000000
_cell_angle_beta 38.846842
_cell_angle_gamma 90.000000
_cell_volume 2122.528636
_symmetry_space_group_name_H-M "C 2/M"
_symmetry_group_IT_number 12
_symmetry_cell_setting 'monoclinic'
loop_
_space_group_symop_operation_xyz
x,y,z
-x,y,-z
-x,-y,-z
x,-y,z
1/2+x,1/2+y,z
1/2-x,1/2+y,-z
1/2-x,1/2-y,-z
1/2+x,1/2-y,z
loop_
_atom_site_type_symbol
_atom_site_label
_atom_site_fract_x
_atom_site_fract_y
_atom_site_fract_z
Si Si1 0.311924 0.165879 0.645445
Si Si2 0.410662 0.697401 0.516293
Si Si3 0.927803 0.787598 0.976569
Si Si4 0.513433 0.076996 0.807051
Si Si5 0.176320 0.660358 0.017224
O O1 0.367281 0.234899 0.513050
O O2 0.376573 0.109273 0.450579
O O3 0.318307 0.159100 0.813551
O O4 0.179387 0.166618 0.804072
O O5 0.500000 0.714097 0.500000
O O6 0.485439 0.666205 0.260760
O O7 0.305151 0.652794 0.742634
O O8 0.881412 0.727149 0.949866
O O9 0.000000 0.760268 0.000000
O O10 0.396414 0.097382 0.913305
O O11 0.530711 0.000000 0.764523
O O12 0.500000 0.099392 0.000000
#
# Coordination Sequence:
#
# PCOD8113614 Si02
#       5
#     8   8   8   8   8
#     4  11  21  36  59  83 117 154 192 229 279 343
#     4  11  18  34  56  87 124 148 178 233 287 337
#     4  11  22  33  55  91 122 151 182 231 291 341
#     4  11  25  42  59  83 113 147 194 243 283 328
#     4  11  21  35  58  85 116 154 191 229 279 340
#
# _framework density 18.845445999999999
#
# number of rings (size 3 to 8) (size 9 to 14) (size 15 to 20)
#    0.000    1.000    6.000    2.400    2.800    3.200 
#    0.000    0.000    0.000    2.400    0.000    0.000 
#    0.000    0.000    0.000    0.000    0.000    0.000 
#
# Total GULP energy -247872.380150 kJ/mol
# GULP energy per Si atom -12393.619008 kJ/mol
# Density = 1.880255 g / cm^3
# Si number density = 18.845446 Si / 1000 Ang^3
#
#
#
# Elastic Constant Matrix: (Units=GPa)
#
#
# Indices 1 2 3 4 5 6 
#
# 1 113.9637 26.4727 60.3755 0.0000 -7.4869 0.0000
# 2 26.4727 56.3411 42.5504 0.0000 -4.4704 0.0000
# 3 60.3755 42.5504 169.2772 0.0000 -20.5649 0.0000
# 4 0.0000 0.0000 0.0000 25.0439 0.0000 1.3451
# 5 -7.4869 -4.4704 -20.5649 0.0000 30.6378 0.0000
# 6 0.0000 0.0000 0.0000 1.3451 0.0000 18.7080
#
#
#
# Elastic Compliance Matrix: (Units=1/GPa)
#
#
# Indices 1 2 3 4 5 6 
#
# 1 0.011157 -0.002763 -0.003269 0.000000 0.000129 0.000000
# 2 -0.002763 0.022601 -0.004766 0.000000 -0.000576 0.000000
# 3 -0.003269 -0.004766 0.008808 0.000000 0.004418 0.000000
# 4 0.000000 0.000000 0.000000 0.040085 0.000000 -0.002882
# 5 0.000129 -0.000576 0.004418 0.000000 0.035552 0.000000
# 6 0.000000 0.000000 0.000000 -0.002882 0.000000 0.053660
#
#
# Mechanical properties :
#
#
# Convention : Reuss Voigt Hill
#
# Bulk Modulus (GPa) = 47.68669 66.48657 57.08663
# Shear Modulus (GPa) = 24.94409 28.89018 26.91714
#
# Velocity S-wave (km/s) = 3.64210 3.91961 3.78340
# Velocity P-wave (km/s) = 6.56091 7.47268 7.03159
#
# Compressibility (1/GPa) = 0.02097021
#
# Stress axis : x y z
#
# Youngs Moduli (GPa) = 89.63043 44.24649 113.53244
#
# Poissons Ratio (x) = 0.12226 0.37115
# Poissons Ratio (y) = 0.24766 0.54104
# Poissons Ratio (z) = 0.29301 0.21086
#
# Static dielectric constant tensor:
#      x y z
#    x 3.658470 0.000000 -0.126710 
#    y 0.000000 2.935650 0.000000 
#    z -0.126710 0.000000 4.156330 
# 
# 
# High freq. dielectric constant tensor:
#      x y z
#    x 1.745020 0.000000 -0.001530 
#    y 0.000000 1.660960 0.000000 
#    z -0.001530 0.000000 1.768260 
# 
# From -- ./inp_files/46911.got.cif
#   From: 2010.06.25/outbox.cif.g09.slc.cpg/sg12_24_cif.got.tgz:46911.got - 2010.06.28 00:19:55.
