data_PCOD8113496
_publ_section_title
;
Structure prediction by ZEFSAII (Michael W. Deem and Ramdas Pophale) SiO2 
 PCOD8113496
Probable space group: C 2/M
;
_chemical_formula_sum "Si O2"
_cell_formula_units_Z 52
_cell_length_a 18.040374
_cell_length_b 15.098950
_cell_length_c 15.249866
_cell_angle_alpha 90.000000
_cell_angle_beta 144.508806
_cell_angle_gamma 90.000000
_cell_volume 2411.674853
_symmetry_space_group_name_H-M "C 2/M"
_symmetry_group_IT_number 12
_symmetry_cell_setting 'monoclinic'
loop_
_space_group_symop_operation_xyz
x,y,z
-x,y,-z
-x,-y,-z
x,-y,z
1/2+x,1/2+y,z
1/2-x,1/2+y,-z
1/2-x,1/2-y,-z
1/2+x,1/2-y,z
loop_
_atom_site_type_symbol
_atom_site_label
_atom_site_fract_x
_atom_site_fract_y
_atom_site_fract_z
Si Si1 0.290915 0.324591 0.407193
Si Si2 0.809241 0.400576 0.241661
Si Si3 0.893983 0.180885 0.828250
Si Si4 0.166277 0.500000 0.231490
Si Si5 0.890995 0.500000 0.027520
Si Si6 0.046352 0.101607 0.291135
Si Si7 0.000000 0.725224 0.500000
Si Si8 0.266635 0.644251 0.021258
O O1 0.165296 0.263604 0.281627
O O2 0.255636 0.417690 0.333836
O O3 0.346404 0.337133 0.558882
O O4 0.399617 0.286418 0.450457
O O5 0.856822 0.500000 0.303189
O O6 0.713532 0.375374 0.227059
O O7 0.931987 0.336740 0.361851
O O8 0.739579 0.394004 0.082039
O O9 0.957524 0.118652 0.816643
O O10 0.000000 0.214503 0.000000
O O11 0.132718 0.500000 0.097728
O O12 0.045373 0.500000 0.182440
O O13 0.836456 0.590919 0.018688
O O14 0.906304 0.123645 0.195119
O O15 0.080265 0.000000 0.342356
O O16 0.250000 0.750000 0.000000
#
# Coordination Sequence:
#
# PCOD8113496 Si02
#       8
#     8   8   8   4   4   8   4   8
#     4  11  26  47  67 105 136 191 237 293 360 421
#     4  11  22  45  67 105 137 184 229 292 356 427
#     4  11  25  42  72 101 145 183 237 290 350 433
#     4  11  28  46  75  95 146 185 240 297 361 418
#     4  11  28  49  70 110 139 186 245 302 356 433
#     4  12  24  45  69 104 142 185 233 292 354 426
#     4  10  25  43  70  98 140 182 242 291 359 424
#     4  12  26  43  72 104 141 183 236 293 360 418
#
# _framework density 21.561779999999999
#
# number of rings (size 3 to 8) (size 9 to 14) (size 15 to 20)
#    0.000    0.769    3.846    2.077   10.769    0.923 
#    5.538    0.000    0.000    0.000    0.000    0.000 
#    0.000    0.000    0.000    0.000    0.000    0.000 
#
# Total GULP energy -322427.997259 kJ/mol
# GULP energy per Si atom -12401.076818 kJ/mol
# Density = 2.151270 g / cm^3
# Si number density = 21.561780 Si / 1000 Ang^3
#
#
#
# Elastic Constant Matrix: (Units=GPa)
#
#
# Indices 1 2 3 4 5 6 
#
# 1 97.4947 56.7633 34.7755 0.0000 3.5306 0.0000
# 2 56.7633 162.2341 55.3393 0.0000 11.8898 0.0000
# 3 34.7755 55.3393 136.2480 0.0000 3.6756 0.0000
# 4 0.0000 0.0000 0.0000 37.9576 0.0000 -4.3862
# 5 3.5306 11.8898 3.6756 0.0000 35.3445 0.0000
# 6 0.0000 0.0000 0.0000 -4.3862 0.0000 33.9416
#
#
#
# Elastic Compliance Matrix: (Units=1/GPa)
#
#
# Indices 1 2 3 4 5 6 
#
# 1 0.013227 -0.004052 -0.001736 0.000000 0.000222 0.000000
# 2 -0.004052 0.008557 -0.002381 0.000000 -0.002226 0.000000
# 3 -0.001736 -0.002381 0.008748 0.000000 0.000065 0.000000
# 4 0.000000 0.000000 0.000000 0.026745 0.000000 0.003456
# 5 0.000222 -0.002226 0.000065 0.000000 0.029013 0.000000
# 6 0.000000 0.000000 0.000000 0.003456 0.000000 0.029909
#
#
# Mechanical properties :
#
#
# Convention : Reuss Voigt Hill
#
# Bulk Modulus (GPa) = 70.45566 76.63700 73.54633
# Shear Modulus (GPa) = 36.42462 38.05534 37.23998
#
# Velocity S-wave (km/s) = 4.11459 4.20568 4.16038
# Velocity P-wave (km/s) = 7.43776 7.69440 7.56717
#
# Compressibility (1/GPa) = 0.01419332
#
# Stress axis : x y z
#
# Youngs Moduli (GPa) = 75.60026 116.86140 114.30944
#
# Poissons Ratio (x) = 0.47354 0.19848
# Poissons Ratio (y) = 0.30634 0.27221
# Poissons Ratio (z) = 0.13126 0.27828
#
# Static dielectric constant tensor:
#      x y z
#    x 3.794590 0.000000 0.087200 
#    y 0.000000 4.066730 0.000000 
#    z 0.087200 0.000000 4.149770 
# 
# 
# High freq. dielectric constant tensor:
#      x y z
#    x 1.840940 0.000000 0.002790 
#    y 0.000000 1.859290 0.000000 
#    z 0.002790 0.000000 1.860390 
# 
# From -- ./inp_files/225812.got.cif
#   From: 2010.06.25/outbox.cif.g09.slc.cpg/sg12_113_cif.got.tgz:225812.got - 2010.06.28 00:19:55.
