data_PCOD8113913
_publ_section_title
;
Structure prediction by ZEFSAII (Michael W. Deem and Ramdas Pophale) SiO2 
 PCOD8113913
Probable space group: C 2/M
;
_chemical_formula_sum "Si O2"
_cell_formula_units_Z 48
_cell_length_a 14.404709
_cell_length_b 24.813411
_cell_length_c 13.437261
_cell_angle_alpha 90.000000
_cell_angle_beta 149.564279
_cell_angle_gamma 90.000000
_cell_volume 2433.001502
_symmetry_space_group_name_H-M "C 2/M"
_symmetry_group_IT_number 12
_symmetry_cell_setting 'monoclinic'
loop_
_space_group_symop_operation_xyz
x,y,z
-x,y,-z
-x,-y,-z
x,-y,z
1/2+x,1/2+y,z
1/2-x,1/2+y,-z
1/2-x,1/2-y,-z
1/2+x,1/2-y,z
loop_
_atom_site_type_symbol
_atom_site_label
_atom_site_fract_x
_atom_site_fract_y
_atom_site_fract_z
Si Si1 0.089146 0.355021 0.979934
Si Si2 0.186866 0.582305 0.884647
Si Si3 0.855261 0.768956 0.281681
Si Si4 0.447727 0.756607 0.728162
Si Si5 0.994189 0.000000 0.114132
Si Si6 0.572545 0.000000 0.455394
Si Si7 0.124673 0.822886 0.035694
O O1 0.133310 0.405958 0.950043
O O2 0.958409 0.310100 0.806647
O O3 0.281335 0.327518 0.185209
O O4 0.000000 0.376610 0.000000
O O5 0.213736 0.638913 0.853995
O O6 0.012088 0.552402 0.676044
O O7 0.380510 0.550862 0.052270
O O8 0.700470 0.726948 0.174658
O O9 0.000000 0.778405 0.500000
O O10 0.918345 0.737171 0.241486
O O11 0.250000 0.750000 0.500000
O O12 0.504832 0.701362 0.835263
O O13 0.205457 0.000000 0.347939
O O14 0.000000 0.000000 0.000000
O O15 0.500000 0.000000 0.500000
O O16 0.000000 0.855911 0.000000
#
# Coordination Sequence:
#
# PCOD8113913 Si02
#       7
#     8   8   8   8   4   4   8
#     4  11  22  42  61  88 130 172 213 259 311 361
#     4  11  23  43  69  95 125 164 211 267 319 394
#     4  11  20  37  55  87 135 171 211 254 301 356
#     4  11  20  36  56  88 132 176 215 255 300 359
#     4  11  23  48  69  94 131 158 190 275 346 389
#     4  11  25  46  71  98 124 157 199 263 354 391
#     4  11  21  36  57  90 126 168 211 253 304 367
#
# _framework density 19.728717
#
# number of rings (size 3 to 8) (size 9 to 14) (size 15 to 20)
#    0.000    1.000    5.000    5.500    0.000    2.000 
#    3.000    1.667    0.000    1.000    0.000    0.000 
#    0.000    0.000    0.000    0.000    0.000    0.000 
#
# Total GULP energy -297449.484891 kJ/mol
# GULP energy per Si atom -12393.728537 kJ/mol
# Density = 1.968381 g / cm^3
# Si number density = 19.728717 Si / 1000 Ang^3
#
#
#
# Elastic Constant Matrix: (Units=GPa)
#
#
# Indices 1 2 3 4 5 6 
#
# 1 150.4543 51.3795 40.7110 0.0000 -5.3416 0.0000
# 2 51.3795 95.7286 53.2589 0.0000 -6.7539 0.0000
# 3 40.7110 53.2589 172.9009 0.0000 -6.9368 0.0000
# 4 0.0000 0.0000 0.0000 22.5689 0.0000 -0.3393
# 5 -5.3416 -6.7539 -6.9368 0.0000 31.1259 0.0000
# 6 0.0000 0.0000 0.0000 -0.3393 0.0000 20.3092
#
#
#
# Elastic Compliance Matrix: (Units=1/GPa)
#
#
# Indices 1 2 3 4 5 6 
#
# 1 0.008211 -0.003998 -0.000686 0.000000 0.000389 0.000000
# 2 -0.003998 0.014664 -0.003507 0.000000 0.001714 0.000000
# 3 -0.000686 -0.003507 0.007053 0.000000 0.000693 0.000000
# 4 0.000000 0.000000 0.000000 0.044320 0.000000 0.000741
# 5 0.000389 0.001714 0.000693 0.000000 0.032721 0.000000
# 6 0.000000 0.000000 0.000000 0.000741 0.000000 0.049251
#
#
# Mechanical properties :
#
#
# Convention : Reuss Voigt Hill
#
# Bulk Modulus (GPa) = 73.82051 78.86474 76.34263
# Shear Modulus (GPa) = 28.22979 33.04977 30.63978
#
# Velocity S-wave (km/s) = 3.78683 4.09737 3.94516
# Velocity P-wave (km/s) = 7.52457 7.90228 7.71573
#
# Compressibility (1/GPa) = 0.01354637
#
# Stress axis : x y z
#
# Youngs Moduli (GPa) = 121.78308 68.19447 141.77779
#
# Poissons Ratio (x) = 0.27264 0.09731
# Poissons Ratio (y) = 0.48688 0.49719
# Poissons Ratio (z) = 0.08359 0.23915
#
# Static dielectric constant tensor:
#      x y z
#    x 3.878940 0.000000 0.014290 
#    y 0.000000 3.421280 0.000000 
#    z 0.014290 0.000000 3.572290 
# 
# 
# High freq. dielectric constant tensor:
#      x y z
#    x 1.787950 0.000000 0.006090 
#    y 0.000000 1.745970 0.000000 
#    z 0.006090 0.000000 1.767270 
# 
# From -- ./inp_files/218567.got.cif
#   From: 2010.06.25/outbox.cif.g09.slc.cpg/sg12_110_cif.got.tgz:218567.got - 2010.06.28 00:19:55.
