data_PCOD8113586
_publ_section_title
;
Structure prediction by ZEFSAII (Michael W. Deem and Ramdas Pophale) SiO2 
 PCOD8113586
Probable space group: C 2/M
;
_chemical_formula_sum "Si O2"
_cell_formula_units_Z 64
_cell_length_a 27.397575
_cell_length_b 22.143434
_cell_length_c 10.090144
_cell_angle_alpha 90.000000
_cell_angle_beta 137.670539
_cell_angle_gamma 90.000000
_cell_volume 4122.141431
_symmetry_space_group_name_H-M "C 2/M"
_symmetry_group_IT_number 12
_symmetry_cell_setting 'monoclinic'
loop_
_space_group_symop_operation_xyz
x,y,z
-x,y,-z
-x,-y,-z
x,-y,z
1/2+x,1/2+y,z
1/2-x,1/2+y,-z
1/2-x,1/2-y,-z
1/2+x,1/2-y,z
loop_
_atom_site_type_symbol
_atom_site_label
_atom_site_fract_x
_atom_site_fract_y
_atom_site_fract_z
Si Si1 0.357762 0.633503 0.455634
Si Si2 0.918705 0.255709 0.681578
Si Si3 0.220613 0.317347 0.295972
Si Si4 0.584812 0.429655 0.680371
Si Si5 0.418332 0.244067 0.992248
Si Si6 0.642069 0.633038 0.050439
Si Si7 0.418303 0.429608 0.822519
Si Si8 0.281254 0.182973 0.414834
O O1 0.400919 0.695741 0.563379
O O2 0.270874 0.642070 0.300984
O O3 0.370450 0.610311 0.333322
O O4 0.388876 0.583132 0.616933
O O5 0.907703 0.240468 0.815117
O O6 0.864653 0.310903 0.531389
O O7 0.000115 0.277377 0.813370
O O8 0.137074 0.310127 0.077771
O O9 0.252691 0.250740 0.367584
O O10 0.221177 0.346794 0.443698
O O11 0.500000 0.415002 0.500000
O O12 0.599895 0.500000 0.685697
O O13 0.613598 0.412152 0.882540
O O14 0.401355 0.303882 0.043402
O O15 0.631660 0.603459 0.172300
O O16 0.729174 0.644907 0.211958
O O17 0.416395 0.500000 0.847941
O O18 0.500000 0.404414 0.000000
#
# Coordination Sequence:
#
# PCOD8113586 Si02
#       8
#     8   8   8   8   8   8   8   8
#     4  11  18  31  46  61  87 122 151 180 221 259
#     4   9  15  25  46  72  95 117 143 174 216 269
#     4   8  14  26  43  67  91 113 142 180 217 260
#     4  11  24  36  43  58  89 123 154 189 224 254
#     4   9  15  25  46  72  95 117 143 174 216 269
#     4  11  18  31  46  61  87 122 151 180 221 259
#     4  11  20  28  43  64  81 105 152 197 216 244
#     4   8  14  26  43  67  91 113 142 180 217 260
#
# _framework density 15.525911000000001
#
# number of rings (size 3 to 8) (size 9 to 14) (size 15 to 20)
#    0.000    2.250    2.500    4.500    0.000    2.000 
#    0.000    5.625    0.000    0.000    0.000    0.000 
#    0.000    6.000    0.000    0.000    0.000    0.000 
#
# Total GULP energy -396615.951447 kJ/mol
# GULP energy per Si atom -12394.248483 kJ/mol
# Density = 1.549057 g / cm^3
# Si number density = 15.525911 Si / 1000 Ang^3
#
#
#
# Elastic Constant Matrix: (Units=GPa)
#
#
# Indices 1 2 3 4 5 6 
#
# 1 83.7561 28.7564 34.4166 0.0000 26.7923 0.0000
# 2 28.7564 38.9133 20.5982 0.0000 11.8138 0.0000
# 3 34.4166 20.5982 57.3600 0.0000 21.4503 0.0000
# 4 0.0000 0.0000 0.0000 14.7877 0.0000 2.1967
# 5 26.7923 11.8138 21.4503 0.0000 33.8027 0.0000
# 6 0.0000 0.0000 0.0000 2.1967 0.0000 17.5028
#
#
#
# Elastic Compliance Matrix: (Units=1/GPa)
#
#
# Indices 1 2 3 4 5 6 
#
# 1 0.020377 -0.009361 -0.005308 0.000000 -0.009511 0.000000
# 2 -0.009361 0.036704 -0.007266 0.000000 -0.000798 0.000000
# 3 -0.005308 -0.007266 0.027147 0.000000 -0.010480 0.000000
# 4 0.000000 0.000000 0.000000 0.068908 0.000000 -0.008648
# 5 -0.009511 -0.000798 -0.010480 0.000000 0.044051 0.000000
# 6 0.000000 0.000000 0.000000 -0.008648 0.000000 0.058219
#
#
# Mechanical properties :
#
#
# Convention : Reuss Voigt Hill
#
# Bulk Modulus (GPa) = 24.77795 38.61908 31.69851
# Shear Modulus (GPa) = 15.98828 19.63585 17.81207
#
# Velocity S-wave (km/s) = 3.21250 3.56014 3.39078
# Velocity P-wave (km/s) = 5.45472 6.46741 5.98253
#
# Compressibility (1/GPa) = 0.04035847
#
# Stress axis : x y z
#
# Youngs Moduli (GPa) = 49.07496 27.24499 36.83652
#
# Poissons Ratio (x) = 0.25504 0.19553
# Poissons Ratio (y) = 0.45940 0.26764
# Poissons Ratio (z) = 0.26049 0.19795
#
# Static dielectric constant tensor:
#      x y z
#    x 3.175730 0.000000 0.384480 
#    y 0.000000 2.692460 0.000000 
#    z 0.384480 0.000000 2.988720 
# 
# 
# High freq. dielectric constant tensor:
#      x y z
#    x 1.589370 0.000000 0.017520 
#    y 0.000000 1.555940 0.000000 
#    z 0.017520 0.000000 1.583260 
# 
# From -- ./inp_files/89202.got.cif
#   From: 2010.06.25/outbox.cif.g09.slc.cpg/sg12_45_cif.got.tgz:89202.got - 2010.06.28 00:19:55.
