data_PCOD8113936
_publ_section_title
;
Structure prediction by ZEFSAII (Michael W. Deem and Ramdas Pophale) SiO2 
 PCOD8113936
Probable space group: C 2/M
;
_chemical_formula_sum "Si O2"
_cell_formula_units_Z 48
_cell_length_a 25.235746
_cell_length_b 7.628058
_cell_length_c 18.300934
_cell_angle_alpha 90.000000
_cell_angle_beta 46.847503
_cell_angle_gamma 90.000000
_cell_volume 2570.100293
_symmetry_space_group_name_H-M "C 2/M"
_symmetry_group_IT_number 12
_symmetry_cell_setting 'monoclinic'
loop_
_space_group_symop_operation_xyz
x,y,z
-x,y,-z
-x,-y,-z
x,-y,z
1/2+x,1/2+y,z
1/2-x,1/2+y,-z
1/2-x,1/2-y,-z
1/2+x,1/2-y,z
loop_
_atom_site_type_symbol
_atom_site_label
_atom_site_fract_x
_atom_site_fract_y
_atom_site_fract_z
Si Si1 0.379801 0.500000 0.618259
Si Si2 0.969165 0.303320 0.754395
Si Si3 0.692096 0.702271 0.115131
Si Si4 0.504800 0.500000 0.616199
Si Si5 0.723910 0.801921 0.243346
Si Si6 0.997400 0.792328 0.119655
Si Si7 0.886394 0.207170 0.104281
O O1 0.428995 0.500000 0.644327
O O2 0.426917 0.500000 0.501161
O O3 0.331988 0.675951 0.662287
O O4 0.974997 0.500000 0.717196
O O5 0.886201 0.246218 0.843783
O O6 0.009789 0.174171 0.660396
O O7 0.006993 0.298492 0.797723
O O8 0.697097 0.500000 0.132376
O O9 0.707312 0.813468 0.173062
O O10 0.750000 0.750000 0.000000
O O11 0.804358 0.721535 0.179887
O O12 0.716672 0.000000 0.281716
O O13 0.925131 0.736707 0.143257
O O14 0.001636 0.000000 0.126411
O O15 0.067601 0.722379 0.008425
O O16 0.885435 0.000000 0.098839
#
# Coordination Sequence:
#
# PCOD8113936 Si02
#       7
#     4   8   8   4   8   8   8
#     4  11  24  42  64  85 106 150 196 240 301 345
#     4  12  22  37  58  86 115 151 193 235 291 340
#     4  12  22  35  53  84 122 158 187 224 278 343
#     4  11  24  44  62  81 114 146 194 250 291 345
#     4  11  20  37  58  86 117 146 189 238 288 342
#     4   9  16  34  56  83 121 160 192 226 274 341
#     4   8  17  31  56  86 118 160 192 223 279 340
#
# _framework density 18.676314999999999
#
# number of rings (size 3 to 8) (size 9 to 14) (size 15 to 20)
#    0.000    1.500    4.167    3.500    0.000    2.000 
#    3.000    2.500    0.000    1.000    0.000    0.000 
#    0.000    0.000    0.000    0.000    0.000    0.000 
#
# Total GULP energy -297639.283242 kJ/mol
# GULP energy per Si atom -12401.636802 kJ/mol
# Density = 1.863381 g / cm^3
# Si number density = 18.676315 Si / 1000 Ang^3
#
#
#
# Elastic Constant Matrix: (Units=GPa)
#
#
# Indices 1 2 3 4 5 6 
#
# 1 104.3632 20.1403 49.2509 -0.0224 0.1252 0.0248
# 2 20.1403 107.4503 43.0416 -0.0131 -2.0048 -0.0010
# 3 49.2509 43.0416 110.4460 -0.0013 -0.4646 -0.0005
# 4 -0.0224 -0.0131 -0.0013 21.8697 -0.0053 -3.1873
# 5 0.1252 -2.0048 -0.4646 -0.0053 25.9862 0.0053
# 6 0.0248 -0.0010 -0.0005 -3.1873 0.0053 18.0956
#
#
#
# Elastic Compliance Matrix: (Units=1/GPa)
#
#
# Indices 1 2 3 4 5 6 
#
# 1 0.012138 -0.000130 -0.005363 0.000010 -0.000164 -0.000015
# 2 -0.000130 0.011045 -0.004243 0.000007 0.000777 0.000002
# 3 -0.005363 -0.004243 0.013099 -0.000006 -0.000067 0.000006
# 4 0.000010 0.000007 -0.000006 0.046930 0.000008 0.008266
# 5 -0.000164 0.000777 -0.000067 0.000008 0.038542 -0.000010
# 6 -0.000015 0.000002 0.000006 0.008266 -0.000010 0.056718
#
#
# Mechanical properties :
#
#
# Convention : Reuss Voigt Hill
#
# Bulk Modulus (GPa) = 59.48726 60.79165 60.13945
# Shear Modulus (GPa) = 24.56440 27.17876 25.87158
#
# Velocity S-wave (km/s) = 3.63060 3.81892 3.72595
# Velocity P-wave (km/s) = 7.03533 7.21570 7.12608
#
# Compressibility (1/GPa) = 0.01681032
#
# Stress axis : x y z
#
# Youngs Moduli (GPa) = 82.38623 90.53727 76.34267
#
# Poissons Ratio (x) = 0.01177 0.40940
# Poissons Ratio (y) = 0.01071 0.32393
# Poissons Ratio (z) = 0.44181 0.38416
#
# Static dielectric constant tensor:
#      x y z
#    x 3.641490 -0.000080 -0.118000 
#    y -0.000080 3.417840 0.000020 
#    z -0.118000 0.000020 3.160270 
# 
# 
# High freq. dielectric constant tensor:
#      x y z
#    x 1.728030 -0.000010 -0.000880 
#    y -0.000010 1.729740 0.000010 
#    z -0.000880 0.000010 1.695460 
# 
# From -- ./inp_files/287281.got.cif
#   From: 2010.06.25/outbox.cif.g09.slc.cpg/sg12_144_cif.got.tgz:287281.got - 2010.06.28 00:19:55.
