data_PCOD8113420
_publ_section_title
;
Structure prediction by ZEFSAII (Michael W. Deem and Ramdas Pophale) SiO2 
 PCOD8113420
Probable space group: C 2/M
;
_chemical_formula_sum "Si O2"
_cell_formula_units_Z 52
_cell_length_a 8.653594
_cell_length_b 23.613581
_cell_length_c 15.374052
_cell_angle_alpha 90.000000
_cell_angle_beta 53.911794
_cell_angle_gamma 90.000000
_cell_volume 2538.737586
_symmetry_space_group_name_H-M "C 2/M"
_symmetry_group_IT_number 12
_symmetry_cell_setting 'monoclinic'
loop_
_space_group_symop_operation_xyz
x,y,z
-x,y,-z
-x,-y,-z
x,-y,z
1/2+x,1/2+y,z
1/2-x,1/2+y,-z
1/2-x,1/2-y,-z
1/2+x,1/2-y,z
loop_
_atom_site_type_symbol
_atom_site_label
_atom_site_fract_x
_atom_site_fract_y
_atom_site_fract_z
Si Si1 0.370315 0.188192 0.785076
Si Si2 0.062406 0.000000 0.719577
Si Si3 0.185324 0.387216 0.608027
Si Si4 0.519498 0.689314 0.191018
Si Si5 0.789413 0.500000 0.032757
Si Si6 0.481400 0.000000 0.610465
Si Si7 0.492005 0.387599 0.364532
Si Si8 0.195252 0.117344 0.986115
O O1 0.542456 0.165509 0.668417
O O2 0.406629 0.248050 0.817475
O O3 0.185071 0.191347 0.786488
O O4 0.350665 0.145518 0.872211
O O5 0.256885 0.000000 0.712422
O O6 0.071895 0.946158 0.655315
O O7 0.874376 0.000000 0.840163
O O8 0.326859 0.367970 0.484824
O O9 0.305685 0.397289 0.655720
O O10 0.075437 0.444620 0.620884
O O11 0.508710 0.660538 0.287726
O O12 0.669232 0.654836 0.081697
O O13 0.770878 0.555272 0.980748
O O14 0.000000 0.500000 0.000000
O O15 0.500000 0.000000 0.500000
O O16 0.000000 0.111592 0.000000
#
# Coordination Sequence:
#
# PCOD8113420 Si02
#       8
#     8   4   8   8   4   4   8   8
#     4  11  25  41  68  96 130 175 222 275 328 395
#     4  12  23  41  68  97 133 177 217 275 332 400
#     4  11  25  41  65 102 131 176 220 270 330 392
#     4  11  23  44  68  95 131 177 222 272 331 388
#     4  12  27  41  67 103 130 176 217 274 336 388
#     4  12  23  40  70  99 134 180 219 266 336 406
#     4  11  23  43  67  94 140 170 222 275 324 396
#     4  10  24  45  67  96 132 172 218 272 330 397
#
# _framework density 20.482621000000002
#
# number of rings (size 3 to 8) (size 9 to 14) (size 15 to 20)
#    0.000    0.923    3.077    3.000    4.308    3.692 
#    0.000    0.000    0.000    0.000    0.000    0.000 
#    0.000    0.000    0.000    0.000    0.000    0.000 
#
# Total GULP energy -322515.681927 kJ/mol
# GULP energy per Si atom -12404.449305 kJ/mol
# Density = 2.043600 g / cm^3
# Si number density = 20.482621 Si / 1000 Ang^3
#
#
#
# Elastic Constant Matrix: (Units=GPa)
#
#
# Indices 1 2 3 4 5 6 
#
# 1 113.2914 59.4007 64.1536 0.0000 5.2593 0.0000
# 2 59.4007 161.8972 57.8048 0.0000 12.5077 0.0000
# 3 64.1536 57.8048 118.2134 0.0000 0.7237 0.0000
# 4 0.0000 0.0000 0.0000 33.3124 0.0000 2.4007
# 5 5.2593 12.5077 0.7237 0.0000 32.0173 0.0000
# 6 0.0000 0.0000 0.0000 2.4007 0.0000 45.2406
#
#
#
# Elastic Compliance Matrix: (Units=1/GPa)
#
#
# Indices 1 2 3 4 5 6 
#
# 1 0.013808 -0.002802 -0.006117 0.000000 -0.001035 0.000000
# 2 -0.002802 0.008320 -0.002531 0.000000 -0.002733 0.000000
# 3 -0.006117 -0.002531 0.013006 0.000000 0.001699 0.000000
# 4 0.000000 0.000000 0.000000 0.030134 0.000000 -0.001599
# 5 -0.001035 -0.002733 0.001699 0.000000 0.032432 0.000000
# 6 0.000000 0.000000 0.000000 -0.001599 0.000000 0.022189
#
#
# Mechanical properties :
#
#
# Convention : Reuss Voigt Hill
#
# Bulk Modulus (GPa) = 81.74027 84.01336 82.87681
# Shear Modulus (GPa) = 34.04459 36.25024 35.14742
#
# Velocity S-wave (km/s) = 4.08133 4.21147 4.14691
# Velocity P-wave (km/s) = 7.88692 8.04702 7.96737
#
# Compressibility (1/GPa) = 0.01223387
#
# Stress axis : x y z
#
# Youngs Moduli (GPa) = 72.42239 120.19821 76.88786
#
# Poissons Ratio (x) = 0.33682 0.47031
# Poissons Ratio (y) = 0.20294 0.19458
# Poissons Ratio (z) = 0.44300 0.30419
#
# Static dielectric constant tensor:
#      x y z
#    x 3.913020 0.000000 0.010050 
#    y 0.000000 3.814510 0.000000 
#    z 0.010050 0.000000 3.907380 
# 
# 
# High freq. dielectric constant tensor:
#      x y z
#    x 1.815720 0.000000 -0.000250 
#    y 0.000000 1.809690 0.000000 
#    z -0.000250 0.000000 1.811130 
# 
# From -- ./inp_files/258455.got.cif
#   From: 2010.06.25/outbox.cif.g09.slc.cpg/sg12_130_cif.got.tgz:258455.got - 2010.06.28 00:19:55.
