data_PCOD8113865
_publ_section_title
;
Structure prediction by ZEFSAII (Michael W. Deem and Ramdas Pophale) SiO2 
 PCOD8113865
Probable space group: C 2/M
;
_chemical_formula_sum "Si O2"
_cell_formula_units_Z 48
_cell_length_a 27.166141
_cell_length_b 23.529830
_cell_length_c 11.573040
_cell_angle_alpha 90.000000
_cell_angle_beta 20.144163
_cell_angle_gamma 90.000000
_cell_volume 2547.630560
_symmetry_space_group_name_H-M "C 2/M"
_symmetry_group_IT_number 12
_symmetry_cell_setting 'monoclinic'
loop_
_space_group_symop_operation_xyz
x,y,z
-x,y,-z
-x,-y,-z
x,-y,z
1/2+x,1/2+y,z
1/2-x,1/2+y,-z
1/2-x,1/2-y,-z
1/2+x,1/2-y,z
loop_
_atom_site_type_symbol
_atom_site_label
_atom_site_fract_x
_atom_site_fract_y
_atom_site_fract_z
Si Si1 0.078763 0.162470 0.010900
Si Si2 0.836908 0.061844 0.324324
Si Si3 0.766824 0.701561 0.794863
Si Si4 0.840252 0.318678 0.877586
Si Si5 0.751308 0.134084 0.704261
Si Si6 0.544951 0.787032 0.027031
O O1 0.089743 0.221069 0.915275
O O2 0.914978 0.145352 0.375904
O O3 0.176765 0.112909 0.738031
O O4 0.138102 0.172919 0.008511
O O5 0.743630 0.076540 0.644913
O O6 0.784735 0.000000 0.391674
O O7 0.000000 0.057310 0.000000
O O8 0.770317 0.666719 0.908068
O O9 0.916134 0.699543 0.398515
O O10 0.739152 0.767492 0.882136
O O11 0.000000 0.299409 0.500000
O O12 0.830609 0.370967 0.991024
O O13 0.685458 0.183128 0.768262
O O14 0.500000 0.810372 0.000000
#
# Coordination Sequence:
#
# PCOD8113865 Si02
#       6
#     8   8   8   8   8   8
#     4  11  20  34  55  82 113 141 181 227 277 329
#     4   9  20  37  58  81 107 143 187 235 281 323
#     4  11  22  33  52  81 119 153 176 214 269 338
#     4  11  21  35  52  78 119 154 187 211 261 333
#     4  11  21  35  55  81 111 148 184 224 269 327
#     4  12  21  33  52  84 117 146 176 219 279 336
#
# _framework density 18.841037
#
# number of rings (size 3 to 8) (size 9 to 14) (size 15 to 20)
#    0.000    1.167    5.000    2.500    2.333    2.000 
#    0.000    0.000    0.000    6.000    0.000    4.667 
#    0.000    0.000    0.000    0.000    0.000    0.000 
#
# Total GULP energy -297400.705661 kJ/mol
# GULP energy per Si atom -12391.696069 kJ/mol
# Density = 1.879815 g / cm^3
# Si number density = 18.841037 Si / 1000 Ang^3
#
#
#
# Elastic Constant Matrix: (Units=GPa)
#
#
# Indices 1 2 3 4 5 6 
#
# 1 161.7542 37.2478 40.3883 -0.0017 8.1993 -0.0034
# 2 37.2478 70.5991 25.7778 -0.0005 9.3919 -0.0007
# 3 40.3883 25.7778 67.5879 0.0091 12.3207 0.0022
# 4 -0.0017 -0.0005 0.0091 8.7282 0.0035 3.6634
# 5 8.1993 9.3919 12.3207 0.0035 37.7984 0.0020
# 6 -0.0034 -0.0007 0.0022 3.6634 0.0020 14.2484
#
#
#
# Elastic Compliance Matrix: (Units=1/GPa)
#
#
# Indices 1 2 3 4 5 6 
#
# 1 0.007707 -0.002785 -0.003577 0.000005 0.000186 0.000001
# 2 -0.002785 0.017632 -0.004648 0.000006 -0.002262 0.000000
# 3 -0.003577 -0.004648 0.019514 -0.000020 -0.004430 0.000002
# 4 0.000005 0.000006 -0.000020 0.128430 -0.000006 -0.033021
# 5 0.000186 -0.002262 -0.004430 -0.000006 0.028422 -0.000002
# 6 0.000001 0.000000 0.000002 -0.033021 -0.000002 0.078673
#
#
# Mechanical properties :
#
#
# Convention : Reuss Voigt Hill
#
# Bulk Modulus (GPa) = 43.79887 56.30766 50.05327
# Shear Modulus (GPa) = 16.12851 25.25683 20.69267
#
# Velocity S-wave (km/s) = 2.92897 3.66529 3.31762
# Velocity P-wave (km/s) = 5.89368 6.91831 6.42645
#
# Compressibility (1/GPa) = 0.02283164
#
# Stress axis : x y z
#
# Youngs Moduli (GPa) = 129.74688 56.71545 51.24625
#
# Poissons Ratio (x) = 0.15795 0.18333
# Poissons Ratio (y) = 0.36133 0.23821
# Poissons Ratio (z) = 0.46416 0.26363
#
# Static dielectric constant tensor:
#      x y z
#    x 3.874100 0.000010 0.094520 
#    y 0.000010 3.542910 0.000010 
#    z 0.094520 0.000010 3.505840 
# 
# 
# High freq. dielectric constant tensor:
#      x y z
#    x 1.746460 0.000000 0.004200 
#    y 0.000000 1.673050 0.000000 
#    z 0.004200 0.000000 1.736070 
# 
# From -- ./inp_files/185095.got.cif
#   From: 2010.06.25/outbox.cif.g09.slc.cpg/sg12_93_cif.got.tgz:185095.got - 2010.06.28 00:19:55.
