data_PCOD8113969
_publ_section_title
;
Structure prediction by ZEFSAII (Michael W. Deem and Ramdas Pophale) SiO2 
 PCOD8113969
Probable space group: C 2/M
;
_chemical_formula_sum "Si O2"
_cell_formula_units_Z 64
_cell_length_a 9.090130
_cell_length_b 22.758708
_cell_length_c 15.077962
_cell_angle_alpha 90.000000
_cell_angle_beta 87.104716
_cell_angle_gamma 90.000000
_cell_volume 3115.341204
_symmetry_space_group_name_H-M "C 2/M"
_symmetry_group_IT_number 12
_symmetry_cell_setting 'monoclinic'
loop_
_space_group_symop_operation_xyz
x,y,z
-x,y,-z
-x,-y,-z
x,-y,z
1/2+x,1/2+y,z
1/2-x,1/2+y,-z
1/2-x,1/2-y,-z
1/2+x,1/2-y,z
loop_
_atom_site_type_symbol
_atom_site_label
_atom_site_fract_x
_atom_site_fract_y
_atom_site_fract_z
Si Si1 0.994467 0.172053 0.271017
Si Si2 0.838258 0.566319 0.522984
Si Si3 0.689194 0.879168 0.301336
Si Si4 0.585592 0.830817 0.916340
Si Si5 0.752202 0.122722 0.635593
Si Si6 0.406621 0.281825 0.915989
Si Si7 0.519754 0.785060 0.605099
Si Si8 0.935672 0.568157 0.215083
O O1 0.096492 0.124528 0.316271
O O2 0.062492 0.181524 0.172714
O O3 0.984299 0.225867 0.338609
O O4 0.837773 0.144185 0.254967
O O5 0.850025 0.500000 0.492882
O O6 0.782747 0.571518 0.624875
O O7 0.719531 0.597864 0.463461
O O8 0.000000 0.596649 0.500000
O O9 0.609022 0.826107 0.354302
O O10 0.603786 0.910963 0.223568
O O11 0.460353 0.784193 0.886589
O O12 0.730123 0.791635 0.939312
O O13 0.633313 0.883914 0.850540
O O14 0.500000 0.862123 0.000000
O O15 0.677464 0.186762 0.626248
O O16 0.644667 0.076351 0.688478
O O17 0.500000 0.302469 0.000000
O O18 0.500000 0.772700 0.500000
O O19 0.924837 0.500000 0.183212
#
# Coordination Sequence:
#
# PCOD8113969 Si02
#       8
#     8   8   8   8   8   8   8   8
#     4  12  27  36  62  93 133 164 203 265 325 385
#     4  11  20  38  63  82 112 166 225 268 301 364
#     4  11  23  39  60  91 126 166 219 258 314 369
#     4  11  24  42  72 102 129 164 208 261 323 387
#     4  11  21  41  58  91 124 168 214 258 314 366
#     4  11  24  44  69 101 133 169 207 264 325 384
#     4  11  22  39  60  89 130 175 213 254 311 381
#     4  11  23  43  69  93 124 168 220 264 308 380
#
# _framework density 20.543496999999999
#
# number of rings (size 3 to 8) (size 9 to 14) (size 15 to 20)
#    0.000    0.875    5.000    4.500    7.000    1.250 
#    0.000    3.125    0.000    0.375    0.000    0.000 
#    0.000    0.000    0.000    0.000    0.000    0.000 
#
# Total GULP energy -396546.040004 kJ/mol
# GULP energy per Si atom -12392.063750 kJ/mol
# Density = 2.049674 g / cm^3
# Si number density = 20.543497 Si / 1000 Ang^3
#
#
#
# Elastic Constant Matrix: (Units=GPa)
#
#
# Indices 1 2 3 4 5 6 
#
# 1 83.9492 31.6283 10.1308 0.0000 7.6707 0.0000
# 2 31.6283 93.2546 24.5568 0.0000 12.3904 0.0000
# 3 10.1308 24.5568 66.7816 0.0000 12.3422 0.0000
# 4 0.0000 0.0000 0.0000 22.1782 0.0000 8.2423
# 5 7.6707 12.3904 12.3422 0.0000 29.7598 0.0000
# 6 0.0000 0.0000 0.0000 8.2423 0.0000 1.7542
#
#
#
# Elastic Compliance Matrix: (Units=1/GPa)
#
#
# Indices 1 2 3 4 5 6 
#
# 1 0.013739 -0.004398 -0.000163 0.000000 -0.001642 0.000000
# 2 -0.004398 0.013606 -0.003789 0.000000 -0.002960 0.000000
# 3 -0.000163 -0.003789 0.017429 0.000000 -0.005609 0.000000
# 4 0.000000 0.000000 0.000000 -0.060428 0.000000 0.283922
# 5 -0.001642 -0.002960 -0.005609 0.000000 0.037584 0.000000
# 6 0.000000 0.000000 0.000000 0.283922 0.000000 -0.763972
#
#
# Mechanical properties :
#
#
# Convention : Reuss Voigt Hill
#
# Bulk Modulus (GPa) = 35.62230 41.84636 38.73433
# Shear Modulus (GPa) = -6.98340 22.58308 7.79984
#
# Velocity S-wave (km/s) = -1.84573 3.31914 1.95064
# Velocity P-wave (km/s) = 3.58264 5.92476 4.89582
#
# Compressibility (1/GPa) = 0.02807230
#
# Stress axis : x y z
#
# Youngs Moduli (GPa) = 72.78612 73.49624 57.37641
#
# Poissons Ratio (x) = 0.32327 0.00937
# Poissons Ratio (y) = 0.32015 0.21740
# Poissons Ratio (z) = 0.01188 0.27848
#
# Static dielectric constant tensor:
#      x y z
#    x 3.758440 0.000000 0.073080 
#    y 0.000000 3.541300 0.000000 
#    z 0.073080 0.000000 3.836990 
# 
# 
# High freq. dielectric constant tensor:
#      x y z
#    x 1.793880 0.000000 0.004500 
#    y 0.000000 1.783730 0.000000 
#    z 0.004500 0.000000 1.809040 
# 
# From -- ./inp_files/198892.got.cif
#   From: 2010.06.25/outbox.cif.g09.slc.cpg/sg12_100_cif.got.tgz:198892.got - 2010.06.28 00:19:55.
