data_PCOD8113526
_publ_section_title
;
Structure prediction by ZEFSAII (Michael W. Deem and Ramdas Pophale) SiO2 
 PCOD8113526
Probable space group: C 2/M
;
_chemical_formula_sum "Si O2"
_cell_formula_units_Z 24
_cell_length_a 8.695342
_cell_length_b 21.349358
_cell_length_c 5.377760
_cell_angle_alpha 90.000000
_cell_angle_beta 84.558105
_cell_angle_gamma 90.000000
_cell_volume 993.827627
_symmetry_space_group_name_H-M "C 2/M"
_symmetry_group_IT_number 12
_symmetry_cell_setting 'monoclinic'
loop_
_space_group_symop_operation_xyz
x,y,z
-x,y,-z
-x,-y,-z
x,-y,z
1/2+x,1/2+y,z
1/2-x,1/2+y,-z
1/2-x,1/2-y,-z
1/2+x,1/2-y,z
loop_
_atom_site_type_symbol
_atom_site_label
_atom_site_fract_x
_atom_site_fract_y
_atom_site_fract_z
Si Si1 0.655717 0.153435 0.075448
Si Si2 0.359513 0.719615 0.675370
Si Si3 0.403262 0.428401 0.264900
O O1 0.588960 0.221455 0.165270
O O2 0.745959 0.114405 0.276685
O O3 0.500000 0.117734 0.000000
O O4 0.782427 0.163506 0.839720
O O5 0.500000 0.688745 0.500000
O O6 0.250000 0.750000 0.500000
O O7 0.500000 0.413942 0.500000
O O8 0.346699 0.500000 0.276644
O O9 0.500000 0.414831 0.000000
#
# Coordination Sequence:
#
# PCOD8113526 Si02
#       3
#     8   8   8
#     4  11  25  41  67 105 138 182 236 287 345 415
#     4  11  24  41  63  98 147 186 225 280 350 418
#     4  10  25  47  72 102 136 183 237 290 354 419
#
# _framework density 24.149056999999999
#
# number of rings (size 3 to 8) (size 9 to 14) (size 15 to 20)
#    0.000    1.333    3.333    0.000    9.333    0.667 
#    0.000    0.000    0.000    7.000    0.000    0.000 
#    0.000    0.000    0.000    0.000    0.000    0.000 
#
# Total GULP energy -148676.275331 kJ/mol
# GULP energy per Si atom -12389.689611 kJ/mol
# Density = 2.409409 g / cm^3
# Si number density = 24.149057 Si / 1000 Ang^3
#
#
#
# Elastic Constant Matrix: (Units=GPa)
#
#
# Indices 1 2 3 4 5 6 
#
# 1 180.1052 64.4920 75.6905 0.0000 26.4035 0.0000
# 2 64.4920 107.8531 26.1703 0.0000 7.0588 0.0000
# 3 75.6905 26.1703 151.5548 0.0000 9.4910 0.0000
# 4 0.0000 0.0000 0.0000 25.6682 0.0000 12.9540
# 5 26.4035 7.0588 9.4910 0.0000 64.0327 0.0000
# 6 0.0000 0.0000 0.0000 12.9540 0.0000 26.4768
#
#
#
# Elastic Compliance Matrix: (Units=1/GPa)
#
#
# Indices 1 2 3 4 5 6 
#
# 1 0.009008 -0.004341 -0.003580 0.000000 -0.002705 0.000000
# 2 -0.004341 0.011812 0.000098 0.000000 0.000473 0.000000
# 3 -0.003580 0.000098 0.008355 0.000000 0.000227 0.000000
# 4 0.000000 0.000000 0.000000 0.051732 0.000000 -0.025311
# 5 -0.002705 0.000473 0.000227 0.000000 0.016647 0.000000
# 6 0.000000 0.000000 0.000000 -0.025311 0.000000 0.050152
#
#
# Mechanical properties :
#
#
# Convention : Reuss Voigt Hill
#
# Bulk Modulus (GPa) = 73.90289 85.80208 79.85248
# Shear Modulus (GPa) = 29.78668 41.44621 35.61645
#
# Velocity S-wave (km/s) = 3.51586 4.14728 3.84456
# Velocity P-wave (km/s) = 6.86666 7.65118 7.26951
#
# Compressibility (1/GPa) = 0.01353127
#
# Stress axis : x y z
#
# Youngs Moduli (GPa) = 111.01846 84.65610 119.69075
#
# Poissons Ratio (x) = 0.36745 0.42845
# Poissons Ratio (y) = 0.48188 -0.01177
# Poissons Ratio (z) = 0.39741 -0.00833
#
# Static dielectric constant tensor:
#      x y z
#    x 4.190820 0.000000 0.196230 
#    y 0.000000 2.987760 0.000000 
#    z 0.196230 0.000000 4.464860 
# 
# 
# High freq. dielectric constant tensor:
#      x y z
#    x 1.958040 0.000000 0.021410 
#    y 0.000000 1.946800 0.000000 
#    z 0.021410 0.000000 1.972620 
# 
# From -- ./inp_files/2741.got.cif
#   From: 2010.06.25/outbox.cif.g09.slc.cpg/sg12_2_cif.got.tgz:2741.got - 2010.06.28 00:19:55.
