data_PCOD8113639
_publ_section_title
;
Structure prediction by ZEFSAII (Michael W. Deem and Ramdas Pophale) SiO2 
 PCOD8113639
Probable space group: C 2/M
;
_chemical_formula_sum "Si O2"
_cell_formula_units_Z 56
_cell_length_a 27.083555
_cell_length_b 9.421017
_cell_length_c 14.385615
_cell_angle_alpha 90.000000
_cell_angle_beta 103.797701
_cell_angle_gamma 90.000000
_cell_volume 3564.638180
_symmetry_space_group_name_H-M "C 2/M"
_symmetry_group_IT_number 12
_symmetry_cell_setting 'monoclinic'
loop_
_space_group_symop_operation_xyz
x,y,z
-x,y,-z
-x,-y,-z
x,-y,z
1/2+x,1/2+y,z
1/2-x,1/2+y,-z
1/2-x,1/2-y,-z
1/2+x,1/2-y,z
loop_
_atom_site_type_symbol
_atom_site_label
_atom_site_fract_x
_atom_site_fract_y
_atom_site_fract_z
Si Si1 0.533607 0.840533 0.886765
Si Si2 0.959166 0.832815 0.603718
Si Si3 0.698040 0.167147 0.969413
Si Si4 0.614423 0.838169 0.078656
Si Si5 0.621382 0.162375 0.779418
Si Si6 0.929041 0.832399 0.392284
Si Si7 0.437020 0.668336 0.797454
O O1 0.572802 0.812335 0.821949
O O2 0.490041 0.723485 0.862459
O O3 0.510657 0.000000 0.868281
O O4 0.562235 0.824885 0.997502
O O5 0.925351 0.786801 0.499500
O O6 0.932735 0.783179 0.687499
O O7 0.016771 0.774468 0.621777
O O8 0.965066 0.000000 0.604333
O O9 0.671450 0.207050 0.859680
O O10 0.708081 0.000000 0.978828
O O11 0.750000 0.250000 0.000000
O O12 0.661888 0.214181 0.038382
O O13 0.609718 0.738991 0.167580
O O14 0.622873 0.000000 0.114188
O O15 0.616334 0.257460 0.684746
O O16 0.625523 0.000000 0.749817
O O17 0.922883 0.000000 0.376633
O O18 0.434610 0.500000 0.807908
#
# Coordination Sequence:
#
# PCOD8113639 Si02
#       7
#     8   8   8   8   8   8   8
#     4   9  17  29  42  57  86 125 153 174 212 263
#     4   8  16  27  40  60  90 123 154 188 222 251
#     4   9  19  35  52  69  91 115 143 183 229 274
#     4   9  19  33  45  60  87 121 148 175 220 273
#     4   9  17  29  45  67  92 116 146 187 226 261
#     4   9  15  28  45  60  85 124 158 184 219 262
#     4  11  19  27  41  64  90 118 154 190 215 245
#
# _framework density 15.70987
#
# number of rings (size 3 to 8) (size 9 to 14) (size 15 to 20)
#    0.000    2.857    1.429    3.429    0.000    3.429 
#    0.000    5.714    0.000    0.000    0.000    1.000 
#    0.000    0.000    0.000    0.000    0.000    0.000 
#
# Total GULP energy -347057.110741 kJ/mol
# GULP energy per Si atom -12394.896812 kJ/mol
# Density = 1.567411 g / cm^3
# Si number density = 15.709870 Si / 1000 Ang^3
#
#
#
# Elastic Constant Matrix: (Units=GPa)
#
#
# Indices 1 2 3 4 5 6 
#
# 1 69.0744 39.7717 55.6425 0.0000 1.5693 0.0000
# 2 39.7717 60.8719 53.6249 0.0000 -2.5697 0.0000
# 3 55.6425 53.6249 121.1112 0.0000 -7.8221 0.0000
# 4 0.0000 0.0000 0.0000 26.8327 0.0000 -0.0430
# 5 1.5693 -2.5697 -7.8221 0.0000 19.1963 0.0000
# 6 0.0000 0.0000 0.0000 -0.0430 0.0000 25.5295
#
#
#
# Elastic Compliance Matrix: (Units=1/GPa)
#
#
# Indices 1 2 3 4 5 6 
#
# 1 0.027695 -0.011118 -0.008261 0.000000 -0.007119 0.000000
# 2 -0.011118 0.031428 -0.008706 0.000000 0.001568 0.000000
# 3 -0.008261 -0.008706 0.016305 0.000000 0.006154 0.000000
# 4 0.000000 0.000000 0.000000 0.037268 0.000000 0.000063
# 5 -0.007119 0.001568 0.006154 0.000000 0.055393 0.000000
# 6 0.000000 0.000000 0.000000 0.000063 0.000000 0.039170
#
#
# Mechanical properties :
#
#
# Convention : Reuss Voigt Hill
#
# Bulk Modulus (GPa) = 51.92883 61.01507 56.47195
# Shear Modulus (GPa) = 18.52892 21.11294 19.82093
#
# Velocity S-wave (km/s) = 3.43803 3.66994 3.55588
# Velocity P-wave (km/s) = 6.99191 7.54195 7.27213
#
# Compressibility (1/GPa) = 0.01925713
#
# Stress axis : x y z
#
# Youngs Moduli (GPa) = 36.10757 31.81874 61.33243
#
# Poissons Ratio (x) = 0.35376 0.50667
# Poissons Ratio (y) = 0.40144 0.53397
# Poissons Ratio (z) = 0.29828 0.27702
#
# Static dielectric constant tensor:
#      x y z
#    x 2.730610 0.000000 -0.185760 
#    y 0.000000 2.840920 0.000000 
#    z -0.185760 0.000000 3.223330 
# 
# 
# High freq. dielectric constant tensor:
#      x y z
#    x 1.563560 0.000000 -0.014610 
#    y 0.000000 1.593210 0.000000 
#    z -0.014610 0.000000 1.603570 
# 
# From -- ./inp_files/243253.got.cif
#   From: 2010.06.25/outbox.cif.g09.slc.cpg/sg12_122_cif.got.tgz:243253.got - 2010.06.28 00:19:55.
