data_PCOD8113929
_publ_section_title
;
Structure prediction by ZEFSAII (Michael W. Deem and Ramdas Pophale) SiO2 
 PCOD8113929
Probable space group: C 2/M
;
_chemical_formula_sum "Si O2"
_cell_formula_units_Z 56
_cell_length_a 14.042339
_cell_length_b 19.152193
_cell_length_c 11.726254
_cell_angle_alpha 90.000000
_cell_angle_beta 123.853104
_cell_angle_gamma 90.000000
_cell_volume 2619.029753
_symmetry_space_group_name_H-M "C 2/M"
_symmetry_group_IT_number 12
_symmetry_cell_setting 'monoclinic'
loop_
_space_group_symop_operation_xyz
x,y,z
-x,y,-z
-x,-y,-z
x,-y,z
1/2+x,1/2+y,z
1/2-x,1/2+y,-z
1/2-x,1/2-y,-z
1/2+x,1/2-y,z
loop_
_atom_site_type_symbol
_atom_site_label
_atom_site_fract_x
_atom_site_fract_y
_atom_site_fract_z
Si Si1 0.600450 0.135212 0.489712
Si Si2 0.097970 0.800467 0.147777
Si Si3 0.128291 0.637914 0.902009
Si Si4 0.754875 0.919582 0.779424
Si Si5 0.486128 0.261326 0.298940
Si Si6 0.261717 0.677516 0.209471
Si Si7 0.611408 0.079520 0.250727
O O1 0.500000 0.102578 0.500000
O O2 0.712173 0.125958 0.641582
O O3 0.570355 0.216369 0.437969
O O4 0.612101 0.087668 0.386851
O O5 0.125589 0.878825 0.120200
O O6 0.208161 0.752004 0.203717
O O7 0.061974 0.801665 0.256539
O O8 0.000000 0.769234 0.000000
O O9 0.174039 0.584317 0.836515
O O10 0.102701 0.710980 0.824961
O O11 0.010452 0.607997 0.878354
O O12 0.224478 0.648469 0.061249
O O13 0.775204 0.000000 0.760714
O O14 0.401101 0.315042 0.308486
O O15 0.219410 0.622036 0.274633
O O16 0.627156 0.000000 0.224737
#
# Coordination Sequence:
#
# PCOD8113929 Si02
#       7
#     8   8   8   8   8   8   8
#     4  11  21  41  63  90 122 163 209 260 314 360
#     4  12  22  41  67  93 129 164 210 264 310 379
#     4  11  20  36  63  92 123 161 208 262 315 367
#     4  12  26  41  63  94 130 172 208 255 319 378
#     4  11  22  38  62  97 117 163 211 262 308 368
#     4  12  21  40  64  93 128 164 210 258 322 372
#     4  11  23  37  59  93 130 169 209 257 316 377
#
# _framework density 21.381962999999999
#
# number of rings (size 3 to 8) (size 9 to 14) (size 15 to 20)
#    0.000    0.571    8.571    2.571    0.000    3.143 
#    2.571    0.714    0.000    0.000    0.000    2.000 
#    0.000    0.000    0.000    0.000    0.000    0.000 
#
# Total GULP energy -347147.730131 kJ/mol
# GULP energy per Si atom -12398.133219 kJ/mol
# Density = 2.133330 g / cm^3
# Si number density = 21.381963 Si / 1000 Ang^3
#
#
#
# Elastic Constant Matrix: (Units=GPa)
#
#
# Indices 1 2 3 4 5 6 
#
# 1 114.9489 56.4145 19.5652 0.0000 -14.8170 0.0000
# 2 56.4145 120.0499 27.2806 0.0000 -7.7948 0.0000
# 3 19.5652 27.2806 56.6415 0.0000 -13.0286 0.0000
# 4 0.0000 0.0000 0.0000 18.5951 0.0000 -1.8304
# 5 -14.8170 -7.7948 -13.0286 0.0000 24.1947 0.0000
# 6 0.0000 0.0000 0.0000 -1.8304 0.0000 31.6937
#
#
#
# Elastic Compliance Matrix: (Units=1/GPa)
#
#
# Indices 1 2 3 4 5 6 
#
# 1 0.012028 -0.005209 -0.000385 0.000000 0.005480 0.000000
# 2 -0.005209 0.011619 -0.004188 0.000000 -0.001702 0.000000
# 3 -0.000385 -0.004188 0.022189 0.000000 0.010363 0.000000
# 4 0.000000 0.000000 0.000000 0.054085 0.000000 0.003124
# 5 0.005480 -0.001702 0.010363 0.000000 0.049720 0.000000
# 6 0.000000 0.000000 0.000000 0.003124 0.000000 0.031732
#
#
# Mechanical properties :
#
#
# Convention : Reuss Voigt Hill
#
# Bulk Modulus (GPa) = 38.06510 55.35120 46.70815
# Shear Modulus (GPa) = 23.84415 27.45536 25.64976
#
# Velocity S-wave (km/s) = 3.34301 3.58724 3.46728
# Velocity P-wave (km/s) = 5.72207 6.56512 6.15804
#
# Compressibility (1/GPa) = 0.02627078
#
# Stress axis : x y z
#
# Youngs Moduli (GPa) = 83.14001 86.06684 45.06733
#
# Poissons Ratio (x) = 0.44831 0.01737
# Poissons Ratio (y) = 0.43306 0.18876
# Poissons Ratio (z) = 0.03204 0.36048
#
# Static dielectric constant tensor:
#      x y z
#    x 3.974200 0.000000 -0.148650 
#    y 0.000000 3.567320 0.000000 
#    z -0.148650 0.000000 3.798950 
# 
# 
# High freq. dielectric constant tensor:
#      x y z
#    x 1.842590 0.000000 -0.017140 
#    y 0.000000 1.812010 0.000000 
#    z -0.017140 0.000000 1.829490 
# 
# From -- ./inp_files/146239.got.cif
#   From: 2010.06.25/outbox.cif.g09.slc.cpg/sg12_74_cif.got.tgz:146239.got - 2010.06.28 00:19:55.
