data_PCOD8113037
_publ_section_title
;
Structure prediction by ZEFSAII (Michael W. Deem and Ramdas Pophale) SiO2 
 PCOD8113037
Probable space group: C 2/M
;
_chemical_formula_sum "Si O2"
_cell_formula_units_Z 56
_cell_length_a 32.886876
_cell_length_b 18.925760
_cell_length_c 9.633106
_cell_angle_alpha 90.000000
_cell_angle_beta 26.701861
_cell_angle_gamma 90.000000
_cell_volume 2694.170748
_symmetry_space_group_name_H-M "C 2/M"
_symmetry_group_IT_number 12
_symmetry_cell_setting 'monoclinic'
loop_
_space_group_symop_operation_xyz
x,y,z
-x,y,-z
-x,-y,-z
x,-y,z
1/2+x,1/2+y,z
1/2-x,1/2+y,-z
1/2-x,1/2-y,-z
1/2+x,1/2-y,z
loop_
_atom_site_type_symbol
_atom_site_label
_atom_site_fract_x
_atom_site_fract_y
_atom_site_fract_z
Si Si1 0.003177 0.124109 0.144643
Si Si2 0.684399 0.583508 0.147316
Si Si3 0.811085 0.077480 0.345031
Si Si4 0.434410 0.216440 0.085118
Si Si5 0.302053 0.920653 0.047499
Si Si6 0.236578 0.818157 0.733779
Si Si7 0.912084 0.301879 0.844293
O O1 0.909915 0.112052 0.507372
O O2 0.080906 0.085935 0.996778
O O3 0.027793 0.206119 0.060397
O O4 0.000000 0.090907 0.000000
O O5 0.677719 0.500000 0.134009
O O6 0.764685 0.599700 0.010358
O O7 0.708255 0.628113 0.939647
O O8 0.783240 0.086755 0.589723
O O9 0.756921 0.136555 0.426357
O O10 0.784351 0.000000 0.369860
O O11 0.334385 0.217482 0.458638
O O12 0.500000 0.179368 0.000000
O O13 0.433429 0.176890 0.939304
O O14 0.340759 0.000000 0.929546
O O15 0.383920 0.871057 0.844251
O O16 0.165147 0.756558 0.929909
O O17 0.000000 0.270432 0.500000
#
# Coordination Sequence:
#
# PCOD8113037 Si02
#       7
#     8   8   8   8   8   8   8
#     4  11  21  38  64  97 132 173 223 270 327 398
#     4  11  25  42  65 100 141 176 217 273 334 398
#     4  11  21  38  66  93 129 178 219 265 327 396
#     4  11  25  43  67  97 133 173 218 276 336 390
#     4  10  23  43  67  94 126 177 224 267 328 390
#     4  12  25  43  66  97 137 175 217 272 333 395
#     4  12  25  43  68  98 131 171 223 275 324 388
#
# _framework density 20.785616000000001
#
# number of rings (size 3 to 8) (size 9 to 14) (size 15 to 20)
#    0.000    0.857    4.286    3.000    4.000    1.429 
#    0.000    1.429    0.000    2.143    0.000    0.000 
#    0.000    0.000    0.000    0.000    0.000    0.000 
#
# Total GULP energy -347229.551862 kJ/mol
# GULP energy per Si atom -12401.055424 kJ/mol
# Density = 2.073831 g / cm^3
# Si number density = 20.785616 Si / 1000 Ang^3
#
#
#
# Elastic Constant Matrix: (Units=GPa)
#
#
# Indices 1 2 3 4 5 6 
#
# 1 120.2245 40.7265 35.9317 0.0000 -8.5796 0.0000
# 2 40.7265 86.3939 13.7692 0.0000 -5.8220 0.0000
# 3 35.9317 13.7692 97.5413 0.0000 -6.6712 0.0000
# 4 0.0000 0.0000 0.0000 23.8858 0.0000 4.6302
# 5 -8.5796 -5.8220 -6.6712 0.0000 32.4945 0.0000
# 6 0.0000 0.0000 0.0000 4.6302 0.0000 17.0517
#
#
#
# Elastic Compliance Matrix: (Units=1/GPa)
#
#
# Indices 1 2 3 4 5 6 
#
# 1 0.010939 -0.004538 -0.003293 0.000000 0.001399 0.000000
# 2 -0.004538 0.013829 -0.000196 0.000000 0.001239 0.000000
# 3 -0.003293 -0.000196 0.011594 0.000000 0.001476 0.000000
# 4 0.000000 0.000000 0.000000 0.044192 0.000000 -0.012000
# 5 0.001399 0.001239 0.001476 0.000000 0.031669 0.000000
# 6 0.000000 0.000000 0.000000 -0.012000 0.000000 0.061903
#
#
# Mechanical properties :
#
#
# Convention : Reuss Voigt Hill
#
# Bulk Modulus (GPa) = 49.24178 53.89049 51.56613
# Shear Modulus (GPa) = 25.38732 28.93523 27.16128
#
# Velocity S-wave (km/s) = 3.49863 3.73511 3.61880
# Velocity P-wave (km/s) = 6.32948 6.67716 6.50564
#
# Compressibility (1/GPa) = 0.02030796
#
# Stress axis : x y z
#
# Youngs Moduli (GPa) = 91.41567 72.31371 86.25260
#
# Poissons Ratio (x) = 0.32813 0.28407
# Poissons Ratio (y) = 0.41480 0.01689
# Poissons Ratio (z) = 0.30107 0.01416
#
# Static dielectric constant tensor:
#      x y z
#    x 4.179690 0.000000 -0.065370 
#    y 0.000000 3.746240 0.000000 
#    z -0.065370 0.000000 3.654800 
# 
# 
# High freq. dielectric constant tensor:
#      x y z
#    x 1.823000 0.000000 -0.001820 
#    y 0.000000 1.808950 0.000000 
#    z -0.001820 0.000000 1.810620 
# 
# From -- ./inp_files/113334.got.cif
#   From: 2010.06.25/outbox.cif.g09.slc.cpg/sg12_57_cif.got.tgz:113334.got - 2010.06.28 00:19:55.
