data_PCOD8113713
_publ_section_title
;
Structure prediction by ZEFSAII (Michael W. Deem and Ramdas Pophale) SiO2 
 PCOD8113713
Probable space group: C 2/M
;
_chemical_formula_sum "Si O2"
_cell_formula_units_Z 40
_cell_length_a 11.140633
_cell_length_b 15.697692
_cell_length_c 9.853403
_cell_angle_alpha 90.000000
_cell_angle_beta 85.439864
_cell_angle_gamma 90.000000
_cell_volume 1717.730193
_symmetry_space_group_name_H-M "C 2/M"
_symmetry_group_IT_number 12
_symmetry_cell_setting 'monoclinic'
loop_
_space_group_symop_operation_xyz
x,y,z
-x,y,-z
-x,-y,-z
x,-y,z
1/2+x,1/2+y,z
1/2-x,1/2+y,-z
1/2-x,1/2-y,-z
1/2+x,1/2-y,z
loop_
_atom_site_type_symbol
_atom_site_label
_atom_site_fract_x
_atom_site_fract_y
_atom_site_fract_z
Si Si1 0.665341 0.864420 0.525422
Si Si2 0.946012 0.223537 0.147386
Si Si3 0.240238 0.591692 0.232406
Si Si4 0.029150 0.593498 0.787247
Si Si5 0.903144 0.188369 0.603306
O O1 0.712816 0.917731 0.394554
O O2 0.556092 0.905834 0.622030
O O3 0.776852 0.860998 0.623712
O O4 0.621705 0.772800 0.481753
O O5 0.826889 0.169591 0.189502
O O6 0.908362 0.324146 0.147868
O O7 0.047538 0.207119 0.251495
O O8 0.000000 0.193643 0.000000
O O9 0.296143 0.500000 0.182502
O O10 0.112549 0.605911 0.170602
O O11 0.069983 0.500000 0.841396
O O12 0.000000 0.137441 0.500000
#
# Coordination Sequence:
#
# PCOD8113713 Si02
#       5
#     8   8   8   8   8
#     4  11  19  37  70  99 132 167 219 277 339 389
#     4  12  26  44  69  95 137 183 224 268 332 391
#     4  11  23  42  69 100 134 174 221 274 334 398
#     4  11  24  42  68 102 134 172 221 275 336 398
#     4  11  19  38  67  98 130 172 224 276 324 391
#
# _framework density 23.286543999999999
#
# number of rings (size 3 to 8) (size 9 to 14) (size 15 to 20)
#    0.000    0.800    6.000    2.400    0.000    3.200 
#    0.000    3.000    0.000    0.000    0.000    0.000 
#    0.000    0.000    0.000    0.000    0.000    0.000 
#
# Total GULP energy -247814.011563 kJ/mol
# GULP energy per Si atom -12390.700578 kJ/mol
# Density = 2.323354 g / cm^3
# Si number density = 23.286544 Si / 1000 Ang^3
#
#
#
# Elastic Constant Matrix: (Units=GPa)
#
#
# Indices 1 2 3 4 5 6 
#
# 1 103.5063 58.7128 30.8888 0.0000 -12.7433 0.0000
# 2 58.7128 154.4045 9.7781 0.0000 -10.2487 0.0000
# 3 30.8888 9.7781 99.5777 0.0000 -16.1615 0.0000
# 4 0.0000 0.0000 0.0000 -2.9887 0.0000 8.5102
# 5 -12.7433 -10.2487 -16.1615 0.0000 22.7284 0.0000
# 6 0.0000 0.0000 0.0000 8.5102 0.0000 20.8658
#
#
#
# Elastic Compliance Matrix: (Units=1/GPa)
#
#
# Indices 1 2 3 4 5 6 
#
# 1 0.013765 -0.004813 -0.003275 0.000000 0.003219 0.000000
# 2 -0.004813 0.008362 0.000956 0.000000 0.001752 0.000000
# 3 -0.003275 0.000956 0.012137 0.000000 0.007225 0.000000
# 4 0.000000 0.000000 0.000000 -0.154809 0.000000 0.063139
# 5 0.003219 0.001752 0.007225 0.000000 0.051730 0.000000
# 6 0.000000 0.000000 0.000000 0.063139 0.000000 0.022174
#
#
# Mechanical properties :
#
#
# Convention : Reuss Voigt Hill
#
# Bulk Modulus (GPa) = 49.99753 61.80532 55.90143
# Shear Modulus (GPa) = -194.47984 25.32837 -84.57573
#
# Velocity S-wave (km/s) = -9.14862 3.30158 -6.03311
# Velocity P-wave (km/s) = 9.49101 6.41348 4.94704
#
# Compressibility (1/GPa) = 0.02000099
#
# Stress axis : x y z
#
# Youngs Moduli (GPa) = 72.64786 119.58209 82.39247
#
# Poissons Ratio (x) = 0.57557 0.26982
# Poissons Ratio (y) = 0.34967 -0.07879
# Poissons Ratio (z) = 0.23791 -0.11435
#
# Static dielectric constant tensor:
#      x y z
#    x 4.649180 0.000000 -0.064980 
#    y 0.000000 4.177550 0.000000 
#    z -0.064980 0.000000 3.992710 
# 
# 
# High freq. dielectric constant tensor:
#      x y z
#    x 1.925030 0.000000 -0.012670 
#    y 0.000000 1.906040 0.000000 
#    z -0.012670 0.000000 1.898220 
# 
# From -- ./inp_files/47065.got.cif
#   From: 2010.06.25/outbox.cif.g09.slc.cpg/sg12_24_cif.got.tgz:47065.got - 2010.06.28 00:19:55.
