data_PCOD8113466
_publ_section_title
;
Structure prediction by ZEFSAII (Michael W. Deem and Ramdas Pophale) SiO2 
 PCOD8113466
Probable space group: C 2/M
;
_chemical_formula_sum "Si O2"
_cell_formula_units_Z 36
_cell_length_a 14.923269
_cell_length_b 25.832589
_cell_length_c 8.830154
_cell_angle_alpha 90.000000
_cell_angle_beta 29.589853
_cell_angle_gamma 90.000000
_cell_volume 1680.895053
_symmetry_space_group_name_H-M "C 2/M"
_symmetry_group_IT_number 12
_symmetry_cell_setting 'monoclinic'
loop_
_space_group_symop_operation_xyz
x,y,z
-x,y,-z
-x,-y,-z
x,-y,z
1/2+x,1/2+y,z
1/2-x,1/2+y,-z
1/2-x,1/2-y,-z
1/2+x,1/2-y,z
loop_
_atom_site_type_symbol
_atom_site_label
_atom_site_fract_x
_atom_site_fract_y
_atom_site_fract_z
Si Si1 0.717176 0.216230 0.399049
Si Si2 0.355143 0.120733 0.340100
Si Si3 0.949426 0.148243 0.852968
Si Si4 0.684288 0.940713 0.316537
Si Si5 0.000000 0.787714 0.500000
O O1 0.750000 0.250000 0.500000
O O2 0.579730 0.170192 0.653824
O O3 0.643028 0.251526 0.374539
O O4 0.893731 0.186881 0.071532
O O5 0.339466 0.070588 0.469877
O O6 0.162911 0.136364 0.548484
O O7 0.500000 0.107440 0.000000
O O8 0.899328 0.175701 0.768579
O O9 0.843595 0.094232 0.014058
O O10 0.500000 0.928014 0.500000
O O11 0.742728 0.000000 0.209482
#
# Coordination Sequence:
#
# PCOD8113466 Si02
#       5
#     8   8   8   8   4
#     4  11  24  41  66  94 140 184 228 272 332 399
#     4  11  26  42  69 100 136 179 228 279 330 411
#     4  11  26  46  65 102 136 182 231 276 339 404
#     4  10  24  47  74  99 132 172 221 287 352 406
#     4  12  26  38  69  98 143 182 226 278 330 400
#
# _framework density 21.417161
#
# number of rings (size 3 to 8) (size 9 to 14) (size 15 to 20)
#    0.000    1.111    2.222    3.333   12.444    2.222 
#    0.000    0.556    0.000    0.000    0.000    0.000 
#    0.000    0.000    0.000    0.000    0.000    0.000 
#
# Total GULP energy -223123.856214 kJ/mol
# GULP energy per Si atom -12395.769790 kJ/mol
# Density = 2.136841 g / cm^3
# Si number density = 21.417161 Si / 1000 Ang^3
#
#
#
# Elastic Constant Matrix: (Units=GPa)
#
#
# Indices 1 2 3 4 5 6 
#
# 1 126.8739 60.9639 41.0965 0.0001 -1.2725 -0.0001
# 2 60.9639 142.9202 59.7483 -0.0001 -4.6314 0.0000
# 3 41.0965 59.7483 117.7728 0.0000 -2.5399 -0.0001
# 4 0.0001 -0.0001 0.0000 14.3974 0.0000 7.7518
# 5 -1.2725 -4.6314 -2.5399 0.0000 28.9432 0.0000
# 6 -0.0001 0.0000 -0.0001 7.7518 0.0000 36.7184
#
#
#
# Elastic Compliance Matrix: (Units=1/GPa)
#
#
# Indices 1 2 3 4 5 6 
#
# 1 0.010181 -0.003635 -0.001715 0.000000 -0.000285 0.000000
# 2 -0.003635 0.010209 -0.003886 0.000000 0.001133 0.000000
# 3 -0.001715 -0.003886 0.011067 0.000000 0.000274 0.000000
# 4 0.000000 0.000000 0.000000 0.078364 0.000000 -0.016544
# 5 -0.000285 0.001133 0.000274 0.000000 0.034743 0.000000
# 6 0.000000 0.000000 0.000000 -0.016544 0.000000 0.030727
#
#
# Mechanical properties :
#
#
# Convention : Reuss Voigt Hill
#
# Bulk Modulus (GPa) = 77.01440 79.02047 78.01743
# Shear Modulus (GPa) = 25.24083 31.06236 28.15160
#
# Velocity S-wave (km/s) = 3.43670 3.81248 3.62946
# Velocity P-wave (km/s) = 7.19619 7.50706 7.35327
#
# Compressibility (1/GPa) = 0.01298458
#
# Stress axis : x y z
#
# Youngs Moduli (GPa) = 98.22068 97.95334 90.36136
#
# Poissons Ratio (x) = 0.35609 0.15493
# Poissons Ratio (y) = 0.35706 0.35116
# Poissons Ratio (z) = 0.16841 0.38067
#
# Static dielectric constant tensor:
#      x y z
#    x -14.029100 0.000000 5.349840 
#    y 0.000000 4.010640 0.000000 
#    z 5.349840 0.000000 2.366840 
# 
# 
# High freq. dielectric constant tensor:
#      x y z
#    x 1.853100 0.000000 0.009870 
#    y 0.000000 1.842410 0.000000 
#    z 0.009870 0.000000 1.833110 
# 
# From -- ./inp_files/67252.got.cif
#   From: 2010.06.25/outbox.cif.g09.slc.cpg/sg12_34_cif.got.tgz:67252.got - 2010.06.28 00:19:55.
