data_PCOD8113443
_publ_section_title
;
Structure prediction by ZEFSAII (Michael W. Deem and Ramdas Pophale) SiO2 
 PCOD8113443
Probable space group: C 2/M
;
_chemical_formula_sum "Si O2"
_cell_formula_units_Z 40
_cell_length_a 20.617217
_cell_length_b 9.014948
_cell_length_c 13.362976
_cell_angle_alpha 90.000000
_cell_angle_beta 130.435488
_cell_angle_gamma 90.000000
_cell_volume 1890.423620
_symmetry_space_group_name_H-M "C 2/M"
_symmetry_group_IT_number 12
_symmetry_cell_setting 'monoclinic'
loop_
_space_group_symop_operation_xyz
x,y,z
-x,y,-z
-x,-y,-z
x,-y,z
1/2+x,1/2+y,z
1/2-x,1/2+y,-z
1/2-x,1/2-y,-z
1/2+x,1/2-y,z
loop_
_atom_site_type_symbol
_atom_site_label
_atom_site_fract_x
_atom_site_fract_y
_atom_site_fract_z
Si Si1 0.666990 0.326943 0.371122
Si Si2 0.372684 0.168898 0.316731
Si Si3 0.097603 0.826383 0.086480
Si Si4 0.956088 0.331917 0.613004
Si Si5 0.223942 0.674072 0.076561
O O1 0.680189 0.500000 0.398901
O O2 0.750000 0.250000 0.500000
O O3 0.652727 0.287395 0.240585
O O4 0.581188 0.278685 0.342314
O O5 0.443343 0.196459 0.301163
O O6 0.410595 0.197711 0.462802
O O7 0.297076 0.285672 0.229352
O O8 0.338266 0.000000 0.273598
O O9 0.134996 0.736443 0.029830
O O10 0.102567 0.000000 0.067261
O O11 0.000000 0.775374 0.000000
O O12 0.939328 0.500000 0.631637
O O13 0.215730 0.500000 0.052344
O O14 0.250000 0.750000 0.000000
#
# Coordination Sequence:
#
# PCOD8113443 Si02
#       5
#     8   8   8   8   8
#     4  11  23  38  61  91 125 165 209 259 317 377
#     4   9  19  38  61  89 124 163 204 253 313 368
#     4  10  24  46  67  91 128 169 212 265 321 377
#     4   9  19  36  61  90 124 161 201 254 312 372
#     4  12  26  42  64  92 124 165 212 261 312 375
#
# _framework density 21.159279000000002
#
# number of rings (size 3 to 8) (size 9 to 14) (size 15 to 20)
#    0.000    1.800    0.000    4.800    2.800    8.400 
#    0.000    2.000    0.000    0.000    0.000    0.000 
#    0.000    0.000    0.000    0.000    0.000    0.000 
#
# Total GULP energy -248044.288734 kJ/mol
# GULP energy per Si atom -12402.214437 kJ/mol
# Density = 2.111112 g / cm^3
# Si number density = 21.159279 Si / 1000 Ang^3
#
#
#
# Elastic Constant Matrix: (Units=GPa)
#
#
# Indices 1 2 3 4 5 6 
#
# 1 150.9914 73.6200 33.2929 0.0000 -2.0340 0.0000
# 2 73.6200 111.9071 45.8167 0.0000 -4.2804 0.0000
# 3 33.2929 45.8167 65.5528 0.0000 9.0240 0.0000
# 4 0.0000 0.0000 0.0000 29.2829 0.0000 1.8193
# 5 -2.0340 -4.2804 9.0240 0.0000 32.2409 0.0000
# 6 0.0000 0.0000 0.0000 1.8193 0.0000 42.5022
#
#
#
# Elastic Compliance Matrix: (Units=1/GPa)
#
#
# Indices 1 2 3 4 5 6 
#
# 1 0.009771 -0.006161 -0.000654 0.000000 -0.000019 0.000000
# 2 -0.006161 0.016996 -0.009368 0.000000 0.004490 0.000000
# 3 -0.000654 -0.009368 0.023206 0.000000 -0.007780 0.000000
# 4 0.000000 0.000000 0.000000 0.034241 0.000000 -0.001466
# 5 -0.000019 0.004490 -0.007780 0.000000 0.033789 0.000000
# 6 0.000000 0.000000 0.000000 -0.001466 0.000000 0.023591
#
#
# Mechanical properties :
#
#
# Convention : Reuss Voigt Hill
#
# Bulk Modulus (GPa) = 56.79625 70.43451 63.61538
# Shear Modulus (GPa) = 27.80434 32.51999 30.16216
#
# Velocity S-wave (km/s) = 3.62891 3.92460 3.77965
# Velocity P-wave (km/s) = 6.66777 7.34144 7.01270
#
# Compressibility (1/GPa) = 0.01760680
#
# Stress axis : x y z
#
# Youngs Moduli (GPa) = 102.34681 58.83638 43.09291
#
# Poissons Ratio (x) = 0.36248 0.02817
# Poissons Ratio (y) = 0.63054 0.40371
# Poissons Ratio (z) = 0.06691 0.55120
#
# Static dielectric constant tensor:
#      x y z
#    x 4.192160 0.000000 0.137660 
#    y 0.000000 3.756010 0.000000 
#    z 0.137660 0.000000 3.880770 
# 
# 
# High freq. dielectric constant tensor:
#      x y z
#    x 1.845590 0.000000 0.004050 
#    y 0.000000 1.816690 0.000000 
#    z 0.004050 0.000000 1.831610 
# 
# From -- ./inp_files/229645.got.cif
#   From: 2010.06.25/outbox.cif.g09.slc.cpg/sg12_115_cif.got.tgz:229645.got - 2010.06.28 00:19:55.
