data_PCOD8113749
_publ_section_title
;
Structure prediction by ZEFSAII (Michael W. Deem and Ramdas Pophale) SiO2 
 PCOD8113749
Probable space group: C 2/M
;
_chemical_formula_sum "Si O2"
_cell_formula_units_Z 64
_cell_length_a 19.016646
_cell_length_b 9.145140
_cell_length_c 21.425661
_cell_angle_alpha 90.000000
_cell_angle_beta 87.139720
_cell_angle_gamma 90.000000
_cell_volume 3721.492294
_symmetry_space_group_name_H-M "C 2/M"
_symmetry_group_IT_number 12
_symmetry_cell_setting 'monoclinic'
loop_
_space_group_symop_operation_xyz
x,y,z
-x,y,-z
-x,-y,-z
x,-y,z
1/2+x,1/2+y,z
1/2-x,1/2+y,-z
1/2-x,1/2-y,-z
1/2+x,1/2-y,z
loop_
_atom_site_type_symbol
_atom_site_label
_atom_site_fract_x
_atom_site_fract_y
_atom_site_fract_z
Si Si1 0.498207 0.166335 0.855432
Si Si2 0.593238 0.824951 0.371959
Si Si3 0.613223 0.833211 0.032677
Si Si4 0.878846 0.173147 0.094971
Si Si5 0.176131 0.675023 0.489472
Si Si6 0.541925 0.159190 0.561809
Si Si7 0.776537 0.673838 0.872356
Si Si8 0.118857 0.673992 0.233635
O O1 0.455676 0.177425 0.921746
O O2 0.566489 0.268336 0.856300
O O3 0.451466 0.223666 0.799704
O O4 0.522386 0.000000 0.843097
O O5 0.649966 0.776792 0.421606
O O6 0.513857 0.759760 0.389383
O O7 0.618619 0.762970 0.303963
O O8 0.587144 0.000000 0.372342
O O9 0.680181 0.773661 0.068780
O O10 0.624852 0.000000 0.009832
O O11 0.601886 0.731438 0.973950
O O12 0.802503 0.232735 0.119396
O O13 0.881078 0.000000 0.093471
O O14 0.183464 0.500000 0.493295
O O15 0.250000 0.750000 0.500000
O O16 0.117655 0.734225 0.542760
O O17 0.500000 0.137918 0.500000
O O18 0.559685 0.000000 0.589318
O O19 0.780045 0.500000 0.870903
O O20 0.812967 0.733994 0.807110
O O21 0.121213 0.500000 0.234765
#
# Coordination Sequence:
#
# PCOD8113749 Si02
#       8
#     8   8   8   8   8   8   8   8
#     4   9  18  31  46  63  83 108 139 179 219 249
#     4   8  13  24  46  68  81 107 153 188 204 234
#     4   9  17  31  48  62  80 109 144 177 210 252
#     4  11  20  28  42  65  90 111 133 169 219 267
#     4   9  16  26  42  67  97 119 137 171 216 254
#     4   7  11  21  38  61  86 110 139 175 208 234
#     4   8  16  29  43  61  85 112 140 174 216 255
#     4   8  14  28  48  64  79 107 151 188 206 237
#
# _framework density 17.197402
#
# number of rings (size 3 to 8) (size 9 to 14) (size 15 to 20)
#    0.000    3.375    0.000    4.125    0.000    2.000 
#    0.000    1.875    0.000    5.625    0.000    0.000 
#    0.000    0.000    0.000    0.000    0.000    0.000 
#
# Total GULP energy -396430.172373 kJ/mol
# GULP energy per Si atom -12388.442887 kJ/mol
# Density = 1.715826 g / cm^3
# Si number density = 17.197402 Si / 1000 Ang^3
#
#
#
# Elastic Constant Matrix: (Units=GPa)
#
#
# Indices 1 2 3 4 5 6 
#
# 1 124.4092 26.4088 41.6021 0.0000 8.2389 0.0000
# 2 26.4088 28.0174 14.0224 0.0000 2.1171 0.0000
# 3 41.6021 14.0224 92.6370 0.0000 2.9135 0.0000
# 4 0.0000 0.0000 0.0000 9.0870 0.0000 3.5812
# 5 8.2389 2.1171 2.9135 0.0000 14.7712 0.0000
# 6 0.0000 0.0000 0.0000 3.5812 0.0000 24.6836
#
#
#
# Elastic Compliance Matrix: (Units=1/GPa)
#
#
# Indices 1 2 3 4 5 6 
#
# 1 0.011372 -0.008548 -0.003675 0.000000 -0.004393 0.000000
# 2 -0.008548 0.045331 -0.002987 0.000000 -0.001140 0.000000
# 3 -0.003675 -0.002987 0.012899 0.000000 -0.000066 0.000000
# 4 0.000000 0.000000 0.000000 0.116721 0.000000 -0.016934
# 5 -0.004393 -0.001140 -0.000066 0.000000 0.070326 0.000000
# 6 0.000000 0.000000 0.000000 -0.016934 0.000000 0.042970
#
#
# Mechanical properties :
#
#
# Convention : Reuss Voigt Hill
#
# Bulk Modulus (GPa) = 25.52188 45.45892 35.49040
# Shear Modulus (GPa) = 14.57301 20.57707 17.57504
#
# Velocity S-wave (km/s) = 2.91416 3.46283 3.20028
# Velocity P-wave (km/s) = 5.11819 6.51761 5.85983
#
# Compressibility (1/GPa) = 0.03918206
#
# Stress axis : x y z
#
# Youngs Moduli (GPa) = 87.93208 22.06014 77.52252
#
# Poissons Ratio (x) = 0.18857 0.28490
# Poissons Ratio (y) = 0.75166 0.23156
# Poissons Ratio (z) = 0.32316 0.06589
#
# Static dielectric constant tensor:
#      x y z
#    x 3.490830 0.000000 -0.234310 
#    y 0.000000 2.690870 0.000000 
#    z -0.234310 0.000000 3.372550 
# 
# 
# High freq. dielectric constant tensor:
#      x y z
#    x 1.672110 0.000000 -0.008160 
#    y 0.000000 1.607300 0.000000 
#    z -0.008160 0.000000 1.650240 
# 
# From -- ./inp_files/319150.got.cif
#   From: 2010.06.25/outbox.cif.g09.slc.cpg/sg12_160_cif.got.tgz:319150.got - 2010.06.28 00:19:55.
