data_PCOD8113303
_publ_section_title
;
Structure prediction by ZEFSAII (Michael W. Deem and Ramdas Pophale) SiO2 
 PCOD8113303
Probable space group: C 2/M
;
_chemical_formula_sum "Si O2"
_cell_formula_units_Z 52
_cell_length_a 20.816280
_cell_length_b 17.616202
_cell_length_c 8.820973
_cell_angle_alpha 90.000000
_cell_angle_beta 129.895679
_cell_angle_gamma 90.000000
_cell_volume 2481.693514
_symmetry_space_group_name_H-M "C 2/M"
_symmetry_group_IT_number 12
_symmetry_cell_setting 'monoclinic'
loop_
_space_group_symop_operation_xyz
x,y,z
-x,y,-z
-x,-y,-z
x,-y,z
1/2+x,1/2+y,z
1/2-x,1/2+y,-z
1/2-x,1/2-y,-z
1/2+x,1/2-y,z
loop_
_atom_site_type_symbol
_atom_site_label
_atom_site_fract_x
_atom_site_fract_y
_atom_site_fract_z
Si Si1 0.407179 0.714232 0.360988
Si Si2 0.302685 0.140130 0.689733
Si Si3 0.405761 0.000000 0.816416
Si Si4 0.849068 0.210903 0.934005
Si Si5 0.181318 0.351805 0.627377
Si Si6 0.088013 0.500000 0.537537
Si Si7 0.883984 0.912905 0.562001
Si Si8 0.000000 0.141038 0.000000
O O1 0.500000 0.749377 0.500000
O O2 0.347307 0.772818 0.349856
O O3 0.412367 0.634458 0.458055
O O4 0.368389 0.704828 0.138535
O O5 0.358468 0.069464 0.826685
O O6 0.312886 0.207630 0.825685
O O7 0.340373 0.158178 0.581796
O O8 0.205791 0.118167 0.519986
O O9 0.410752 0.000000 0.642388
O O10 0.500000 0.000000 0.000000
O O11 0.781708 0.144278 0.800392
O O12 0.933747 0.197406 0.972877
O O13 0.138954 0.422821 0.652496
O O14 0.000000 0.500000 0.500000
O O15 0.952889 0.908742 0.801054
O O16 0.876033 0.000000 0.499817
#
# Coordination Sequence:
#
# PCOD8113303 Si02
#       8
#     8   8   4   8   8   4   8   4
#     4  12  26  45  64  98 141 182 225 285 347 415
#     4  11  23  42  73 100 135 178 237 289 345 418
#     4  10  24  42  66 104 135 174 228 292 351 409
#     4  12  25  43  68 103 133 184 234 279 352 415
#     4  11  23  43  69  97 137 176 227 286 342 414
#     4  10  24  46  66  98 135 178 222 282 351 407
#     4  12  25  48  71 102 138 183 233 290 352 406
#     4  12  25  44  74 103 134 184 236 291 342 418
#
# _framework density 20.953433
#
# number of rings (size 3 to 8) (size 9 to 14) (size 15 to 20)
#    0.000    0.615    5.385    2.538    1.077    2.769 
#    2.769    0.000    0.000    0.000    0.000    0.000 
#    0.000    0.000    0.000    0.000    0.000    0.000 
#
# Total GULP energy -322268.993361 kJ/mol
# GULP energy per Si atom -12394.961283 kJ/mol
# Density = 2.090574 g / cm^3
# Si number density = 20.953433 Si / 1000 Ang^3
#
#
#
# Elastic Constant Matrix: (Units=GPa)
#
#
# Indices 1 2 3 4 5 6 
#
# 1 114.4277 52.7405 39.9334 0.0000 13.5776 0.0000
# 2 52.7405 123.2916 51.6801 0.0000 -1.2289 0.0000
# 3 39.9334 51.6801 120.0023 0.0000 2.5285 0.0000
# 4 0.0000 0.0000 0.0000 26.3094 0.0000 15.7250
# 5 13.5776 -1.2289 2.5285 0.0000 45.2318 0.0000
# 6 0.0000 0.0000 0.0000 15.7250 0.0000 43.8599
#
#
#
# Elastic Compliance Matrix: (Units=1/GPa)
#
#
# Indices 1 2 3 4 5 6 
#
# 1 0.011825 -0.004241 -0.002034 0.000000 -0.003551 0.000000
# 2 -0.004241 0.011430 -0.003549 0.000000 0.001782 0.000000
# 3 -0.002034 -0.003549 0.010540 0.000000 -0.000075 0.000000
# 4 0.000000 0.000000 0.000000 0.048376 0.000000 -0.017344
# 5 -0.003551 0.001782 -0.000075 0.000000 0.023227 0.000000
# 6 0.000000 0.000000 0.000000 -0.017344 0.000000 0.029018
#
#
# Mechanical properties :
#
#
# Convention : Reuss Voigt Hill
#
# Bulk Modulus (GPa) = 70.68246 71.82553 71.25399
# Shear Modulus (GPa) = 31.49018 37.30474 34.39746
#
# Velocity S-wave (km/s) = 3.88089 4.22401 4.05608
# Velocity P-wave (km/s) = 7.34085 7.62514 7.48434
#
# Compressibility (1/GPa) = 0.01414778
#
# Stress axis : x y z
#
# Youngs Moduli (GPa) = 84.56588 87.48524 94.87830
#
# Poissons Ratio (x) = 0.37106 0.19295
# Poissons Ratio (y) = 0.35868 0.33670
# Poissons Ratio (z) = 0.17198 0.31047
#
# Static dielectric constant tensor:
#      x y z
#    x 4.074410 0.000000 0.021920 
#    y 0.000000 3.869000 0.000000 
#    z 0.021920 0.000000 4.067540 
# 
# 
# High freq. dielectric constant tensor:
#      x y z
#    x 1.839520 0.000000 0.009980 
#    y 0.000000 1.818420 0.000000 
#    z 0.009980 0.000000 1.822480 
# 
# From -- ./inp_files/88516.got.cif
#   From: 2010.06.25/outbox.cif.g09.slc.cpg/sg12_45_cif.got.tgz:88516.got - 2010.06.28 00:19:55.
