data_PCOD8113221
_publ_section_title
;
Structure prediction by ZEFSAII (Michael W. Deem and Ramdas Pophale) SiO2 
 PCOD8113221
Probable space group: C 2/M
;
_chemical_formula_sum "Si O2"
_cell_formula_units_Z 44
_cell_length_a 11.841277
_cell_length_b 26.946226
_cell_length_c 8.843047
_cell_angle_alpha 90.000000
_cell_angle_beta 50.807757
_cell_angle_gamma 90.000000
_cell_volume 2186.839767
_symmetry_space_group_name_H-M "C 2/M"
_symmetry_group_IT_number 12
_symmetry_cell_setting 'monoclinic'
loop_
_space_group_symop_operation_xyz
x,y,z
-x,y,-z
-x,-y,-z
x,-y,z
1/2+x,1/2+y,z
1/2-x,1/2+y,-z
1/2-x,1/2-y,-z
1/2+x,1/2-y,z
loop_
_atom_site_type_symbol
_atom_site_label
_atom_site_fract_x
_atom_site_fract_y
_atom_site_fract_z
Si Si1 0.320195 0.000000 0.065041
Si Si2 0.643472 0.000000 0.289934
Si Si3 0.000000 0.588149 0.000000
Si Si4 0.740837 0.176596 0.305368
Si Si5 0.508759 0.828320 0.243637
Si Si6 0.491937 0.500000 0.330428
Si Si7 0.000000 0.249496 0.000000
Si Si8 0.367270 0.573490 0.220346
O O1 0.413727 0.000000 0.833074
O O2 0.359418 0.050990 0.120993
O O3 0.157881 0.000000 0.135772
O O4 0.500000 0.000000 0.500000
O O5 0.726743 0.050149 0.261910
O O6 0.012193 0.621767 0.838467
O O7 0.635121 0.186634 0.537944
O O8 0.645888 0.163970 0.237830
O O9 0.854960 0.219991 0.171816
O O10 0.843203 0.131175 0.265998
O O11 0.546949 0.782808 0.102209
O O12 0.500000 0.500000 0.500000
O O13 0.405204 0.548564 0.348879
O O14 0.500000 0.561560 0.000000
#
# Coordination Sequence:
#
# PCOD8113221 Si02
#       8
#     4   4   4   8   8   4   4   8
#     4  11  22  39  58  87 130 170 210 254 310 365
#     4  11  23  36  66  91 124 170 216 256 304 361
#     4  10  24  37  60  88 128 167 204 258 314 366
#     4  11  23  40  68  93 122 161 209 255 315 376
#     4  10  24  42  63  94 126 157 207 265 313 375
#     4  11  25  40  60  87 131 170 207 254 303 359
#     4  11  22  45  68  92 122 161 202 263 326 378
#     4  11  22  42  61  90 127 167 215 254 301 372
#
# _framework density 20.120358
#
# number of rings (size 3 to 8) (size 9 to 14) (size 15 to 20)
#    0.000    1.273    2.727    2.727    7.636    1.455 
#    0.000    0.000    4.000    0.000    0.000    0.000 
#    0.000    0.000    0.000    0.000    0.000    0.000 
#
# Total GULP energy -272709.678133 kJ/mol
# GULP energy per Si atom -12395.894461 kJ/mol
# Density = 2.007456 g / cm^3
# Si number density = 20.120358 Si / 1000 Ang^3
#
#
#
# Elastic Constant Matrix: (Units=GPa)
#
#
# Indices 1 2 3 4 5 6 
#
# 1 113.0485 58.1895 46.4013 0.0000 7.3177 0.0000
# 2 58.1895 146.3846 53.5594 0.0000 5.6589 0.0000
# 3 46.4013 53.5594 115.6272 0.0000 3.5728 0.0000
# 4 0.0000 0.0000 0.0000 -451.0131 0.0000 -174.9593
# 5 7.3177 5.6589 3.5728 0.0000 41.0152 0.0000
# 6 0.0000 0.0000 0.0000 -174.9593 0.0000 -36.6657
#
#
#
# Elastic Compliance Matrix: (Units=1/GPa)
#
#
# Indices 1 2 3 4 5 6 
#
# 1 0.012075 -0.003599 -0.003136 0.000000 -0.001385 0.000000
# 2 -0.003599 0.009325 -0.002863 0.000000 -0.000395 0.000000
# 3 -0.003136 -0.002863 0.011234 0.000000 -0.000024 0.000000
# 4 0.000000 0.000000 0.000000 0.002605 0.000000 -0.012431
# 5 -0.001385 -0.000395 -0.000024 0.000000 0.024685 0.000000
# 6 0.000000 0.000000 0.000000 -0.012431 0.000000 0.032046
#
#
# Mechanical properties :
#
#
# Convention : Reuss Voigt Hill
#
# Bulk Modulus (GPa) = 74.41521 76.81785 75.61653
# Shear Modulus (GPa) = 43.23612 -74.87206 -15.81797
#
# Velocity S-wave (km/s) = 4.64062 -6.10679 -2.80691
# Velocity P-wave (km/s) = 8.11044 3.38553 5.21140
#
# Compressibility (1/GPa) = 0.01343811
#
# Stress axis : x y z
#
# Youngs Moduli (GPa) = 82.81526 107.24205 89.01804
#
# Poissons Ratio (x) = 0.38598 0.27914
# Poissons Ratio (y) = 0.29806 0.25484
# Poissons Ratio (z) = 0.25969 0.30701
#
# Static dielectric constant tensor:
#      x y z
#    x 3.436840 0.000000 0.238910 
#    y 0.000000 3.549000 0.000000 
#    z 0.238910 0.000000 3.463940 
# 
# 
# High freq. dielectric constant tensor:
#      x y z
#    x 1.794820 0.000000 0.002980 
#    y 0.000000 1.787660 0.000000 
#    z 0.002980 0.000000 1.792160 
# 
# From -- ./inp_files/53072.got.cif
#   From: 2010.06.25/outbox.cif.g09.slc.cpg/sg12_27_cif.got.tgz:53072.got - 2010.06.28 00:19:55.
