data_PCOD8113170
_publ_section_title
;
Structure prediction by ZEFSAII (Michael W. Deem and Ramdas Pophale) SiO2 
 PCOD8113170
Probable space group: C 2/M
;
_chemical_formula_sum "Si O2"
_cell_formula_units_Z 36
_cell_length_a 15.070501
_cell_length_b 13.443624
_cell_length_c 12.762228
_cell_angle_alpha 90.000000
_cell_angle_beta 141.536438
_cell_angle_gamma 90.000000
_cell_volume 1608.320738
_symmetry_space_group_name_H-M "C 2/M"
_symmetry_group_IT_number 12
_symmetry_cell_setting 'monoclinic'
loop_
_space_group_symop_operation_xyz
x,y,z
-x,y,-z
-x,-y,-z
x,-y,z
1/2+x,1/2+y,z
1/2-x,1/2+y,-z
1/2-x,1/2-y,-z
1/2+x,1/2-y,z
loop_
_atom_site_type_symbol
_atom_site_label
_atom_site_fract_x
_atom_site_fract_y
_atom_site_fract_z
Si Si1 0.454789 0.110700 0.265346
Si Si2 0.465221 0.311588 0.583949
Si Si3 0.000000 0.757380 0.000000
Si Si4 0.374888 0.384967 0.068973
Si Si5 0.331333 0.888119 0.723150
O O1 0.526737 0.191145 0.408734
O O2 0.532521 0.114990 0.226060
O O3 0.469900 0.000000 0.328856
O O4 0.291421 0.139823 0.094347
O O5 0.500000 0.351675 0.500000
O O6 0.575777 0.355817 0.769190
O O7 0.307414 0.349606 0.467566
O O8 0.136108 0.686770 0.150898
O O9 0.964973 0.824692 0.067240
O O10 0.406065 0.500000 0.077516
O O11 0.307140 0.000000 0.743489
#
# Coordination Sequence:
#
# PCOD8113170 Si02
#       5
#     8   8   4   8   8
#     4  10  23  45  69  97 134 175 219 269 325 392
#     4  12  25  44  68  98 134 175 217 274 327 386
#     4  12  24  44  72  94 134 176 218 272 326 390
#     4  11  25  45  69  99 132 173 222 268 327 391
#     4  11  25  43  68 100 133 173 220 271 328 389
#
# _framework density 22.383593999999999
#
# number of rings (size 3 to 8) (size 9 to 14) (size 15 to 20)
#    0.000    0.889    2.222    4.000    3.111    2.222 
#    0.000    1.111    0.000    0.000    0.000    0.000 
#    0.000    0.000    0.000    0.000    0.000    0.000 
#
# Total GULP energy -223270.037535 kJ/mol
# GULP energy per Si atom -12403.890974 kJ/mol
# Density = 2.233265 g / cm^3
# Si number density = 22.383594 Si / 1000 Ang^3
#
#
#
# Elastic Constant Matrix: (Units=GPa)
#
#
# Indices 1 2 3 4 5 6 
#
# 1 87.1032 49.1178 52.0920 0.0000 -3.4999 0.0000
# 2 49.1178 169.9695 75.9914 0.0000 8.3981 0.0000
# 3 52.0920 75.9914 89.3761 0.0000 -1.2219 0.0000
# 4 0.0000 0.0000 0.0000 35.6297 0.0000 8.5535
# 5 -3.4999 8.3981 -1.2219 0.0000 37.3584 0.0000
# 6 0.0000 0.0000 0.0000 8.5535 0.0000 23.8919
#
#
#
# Elastic Compliance Matrix: (Units=1/GPa)
#
#
# Indices 1 2 3 4 5 6 
#
# 1 0.017782 -0.000955 -0.009530 0.000000 0.001569 0.000000
# 2 -0.000955 0.009763 -0.007779 0.000000 -0.002539 0.000000
# 3 -0.009530 -0.007779 0.023379 0.000000 0.001620 0.000000
# 4 0.000000 0.000000 0.000000 0.030705 0.000000 -0.010993
# 5 0.001569 -0.002539 0.001620 0.000000 0.027538 0.000000
# 6 0.000000 0.000000 0.000000 -0.010993 0.000000 0.045791
#
#
# Mechanical properties :
#
#
# Convention : Reuss Voigt Hill
#
# Bulk Modulus (GPa) = 69.46671 77.87235 73.66953
# Shear Modulus (GPa) = 25.47314 30.65917 28.06615
#
# Velocity S-wave (km/s) = 3.37713 3.70498 3.54485
# Velocity P-wave (km/s) = 6.80505 7.29164 7.05254
#
# Compressibility (1/GPa) = 0.01439538
#
# Stress axis : x y z
#
# Youngs Moduli (GPa) = 56.23659 102.43223 42.77301
#
# Poissons Ratio (x) = 0.09784 0.40765
# Poissons Ratio (y) = 0.05372 0.33271
# Poissons Ratio (z) = 0.53596 0.79677
#
# Static dielectric constant tensor:
#      x y z
#    x 3.783600 0.000000 0.149660 
#    y 0.000000 4.536190 0.000000 
#    z 0.149660 0.000000 3.931450 
# 
# 
# High freq. dielectric constant tensor:
#      x y z
#    x 1.874550 0.000000 0.012270 
#    y 0.000000 1.907360 0.000000 
#    z 0.012270 0.000000 1.878620 
# 
# From -- ./inp_files/143959.got.cif
#   From: 2010.06.25/outbox.cif.g09.slc.cpg/sg12_72_cif.got.tgz:143959.got - 2010.06.28 00:19:55.
