data_PCOD8113830
_publ_section_title
;
Structure prediction by ZEFSAII (Michael W. Deem and Ramdas Pophale) SiO2 
 PCOD8113830
Probable space group: C 2/M
;
_chemical_formula_sum "Si O2"
_cell_formula_units_Z 56
_cell_length_a 27.472489
_cell_length_b 18.439856
_cell_length_c 16.613538
_cell_angle_alpha 90.000000
_cell_angle_beta 156.651488
_cell_angle_gamma 90.000000
_cell_volume 3335.546070
_symmetry_space_group_name_H-M "C 2/M"
_symmetry_group_IT_number 12
_symmetry_cell_setting 'monoclinic'
loop_
_space_group_symop_operation_xyz
x,y,z
-x,y,-z
-x,-y,-z
x,-y,z
1/2+x,1/2+y,z
1/2-x,1/2+y,-z
1/2-x,1/2-y,-z
1/2+x,1/2-y,z
loop_
_atom_site_type_symbol
_atom_site_label
_atom_site_fract_x
_atom_site_fract_y
_atom_site_fract_z
Si Si1 0.463804 0.311520 0.208861
Si Si2 0.313729 0.195790 0.226404
Si Si3 0.029643 0.917051 0.174630
Si Si4 0.801945 0.917268 0.716188
Si Si5 0.841980 0.584861 0.130535
Si Si6 0.073625 0.332699 0.431896
Si Si7 0.897518 0.154070 0.283147
O O1 0.539340 0.365457 0.266317
O O2 0.537842 0.237065 0.325894
O O3 0.454877 0.349697 0.281727
O O4 0.329012 0.294785 0.968619
O O5 0.333187 0.123404 0.203879
O O6 0.392921 0.191149 0.426991
O O7 0.359628 0.263181 0.243154
O O8 0.134463 0.893804 0.270676
O O9 0.048935 0.000000 0.231402
O O10 0.896367 0.908152 0.932619
O O11 0.685766 0.867459 0.554820
O O12 0.757757 0.000000 0.643871
O O13 0.849876 0.500000 0.159095
O O14 0.962056 0.610547 0.264814
O O15 0.722753 0.603439 0.895190
O O16 0.000000 0.124362 0.500000
#
# Coordination Sequence:
#
# PCOD8113830 Si02
#       7
#     8   8   8   8   8   8   8
#     4  11  20  32  58  80 105 142 181 219 262 317
#     4  11  20  37  53  76 107 147 177 217 266 309
#     4   9  19  37  55  79 107 135 174 223 271 319
#     4   9  19  35  56  78 109 139 167 220 280 317
#     4  11  23  34  50  79 110 139 179 222 259 313
#     4  12  20  33  57  80 105 141 181 216 263 321
#     4  11  20  38  55  74 109 150 181 210 261 306
#
# _framework density 16.788854000000001
#
# number of rings (size 3 to 8) (size 9 to 14) (size 15 to 20)
#    0.000    1.429    5.714    2.571    0.000    4.857 
#    0.000    0.000    0.000    0.000    0.000    0.000 
#    0.000    6.286    0.000    0.000    0.000    0.000 
#
# Total GULP energy -347279.059352 kJ/mol
# GULP energy per Si atom -12402.823548 kJ/mol
# Density = 1.675064 g / cm^3
# Si number density = 16.788854 Si / 1000 Ang^3
#
#
#
# Elastic Constant Matrix: (Units=GPa)
#
#
# Indices 1 2 3 4 5 6 
#
# 1 93.8157 58.6291 38.4931 0.0000 6.5917 0.0000
# 2 58.6291 113.5577 47.8005 0.0000 3.7703 0.0000
# 3 38.4931 47.8005 85.9956 0.0000 10.0383 0.0000
# 4 0.0000 0.0000 0.0000 17.7913 0.0000 3.8354
# 5 6.5917 3.7703 10.0383 0.0000 26.3791 0.0000
# 6 0.0000 0.0000 0.0000 3.8354 0.0000 33.8615
#
#
#
# Elastic Compliance Matrix: (Units=1/GPa)
#
#
# Indices 1 2 3 4 5 6 
#
# 1 0.016578 -0.007135 -0.003234 0.000000 -0.001892 0.000000
# 2 -0.007135 0.014584 -0.005104 0.000000 0.001641 0.000000
# 3 -0.003234 -0.005104 0.016465 0.000000 -0.004728 0.000000
# 4 0.000000 0.000000 0.000000 0.057614 0.000000 -0.006526
# 5 -0.001892 0.001641 -0.004728 0.000000 0.039946 0.000000
# 6 0.000000 0.000000 0.000000 -0.006526 0.000000 0.030271
#
#
# Mechanical properties :
#
#
# Convention : Reuss Voigt Hill
#
# Bulk Modulus (GPa) = 59.94852 64.80159 62.37506
# Shear Modulus (GPa) = 23.58885 25.50282 24.54584
#
# Velocity S-wave (km/s) = 3.75244 3.90171 3.82780
# Velocity P-wave (km/s) = 7.38642 7.67981 7.53455
#
# Compressibility (1/GPa) = 0.01668098
#
# Stress axis : x y z
#
# Youngs Moduli (GPa) = 60.32120 68.56843 60.73480
#
# Poissons Ratio (x) = 0.48924 0.19639
# Poissons Ratio (y) = 0.43040 0.31000
# Poissons Ratio (z) = 0.19506 0.34999
#
# Static dielectric constant tensor:
#      x y z
#    x 3.002900 0.000000 0.075600 
#    y 0.000000 3.036400 0.000000 
#    z 0.075600 0.000000 3.286990 
# 
# 
# High freq. dielectric constant tensor:
#      x y z
#    x 1.636570 0.000000 0.010150 
#    y 0.000000 1.641530 0.000000 
#    z 0.010150 0.000000 1.649260 
# 
# From -- ./inp_files/296952.got.cif
#   From: 2010.06.25/outbox.cif.g09.slc.cpg/sg12_149_cif.got.tgz:296952.got - 2010.06.28 00:19:55.
