data_PCOD8113769
_publ_section_title
;
Structure prediction by ZEFSAII (Michael W. Deem and Ramdas Pophale) SiO2 
 PCOD8113769
Probable space group: C 2/M
;
_chemical_formula_sum "Si O2"
_cell_formula_units_Z 48
_cell_length_a 23.911747
_cell_length_b 8.930283
_cell_length_c 20.644638
_cell_angle_alpha 90.000000
_cell_angle_beta 140.956883
_cell_angle_gamma 90.000000
_cell_volume 2776.891333
_symmetry_space_group_name_H-M "C 2/M"
_symmetry_group_IT_number 12
_symmetry_cell_setting 'monoclinic'
loop_
_space_group_symop_operation_xyz
x,y,z
-x,y,-z
-x,-y,-z
x,-y,z
1/2+x,1/2+y,z
1/2-x,1/2+y,-z
1/2-x,1/2-y,-z
1/2+x,1/2-y,z
loop_
_atom_site_type_symbol
_atom_site_label
_atom_site_fract_x
_atom_site_fract_y
_atom_site_fract_z
Si Si1 0.819456 0.671842 0.108108
Si Si2 0.151882 0.326757 0.722345
Si Si3 0.981360 0.329053 0.711451
Si Si4 0.202016 0.327601 0.630791
Si Si5 0.201414 0.672665 0.395870
Si Si6 0.470788 0.324493 0.570176
O O1 0.795923 0.500000 0.081770
O O2 0.807280 0.725725 0.171974
O O3 0.919792 0.705269 0.172897
O O4 0.750000 0.750000 0.000000
O O5 0.121589 0.500000 0.701108
O O6 0.222213 0.307677 0.726329
O O7 0.066111 0.226313 0.629737
O O8 0.978908 0.500000 0.682336
O O9 0.905366 0.307130 0.697078
O O10 0.959106 0.212851 0.635089
O O11 0.206458 0.500000 0.613645
O O12 0.271346 0.239055 0.648907
O O13 0.103202 0.266878 0.534369
O O14 0.229490 0.500000 0.423008
O O15 0.250000 0.750000 0.500000
O O16 0.458007 0.500000 0.546829
#
# Coordination Sequence:
#
# PCOD8113769 Si02
#       6
#     8   8   8   8   8   8
#     4   9  18  35  57  79  98 124 164 212 264 314
#     4   9  20  36  51  69 100 138 170 203 258 317
#     4   9  19  35  52  71 103 140 171 203 253 310
#     4  11  21  33  49  69 101 143 175 205 248 301
#     4  11  21  33  51  74 103 141 178 212 245 294
#     4  11  20  29  47  74 103 133 171 215 250 293
#
# _framework density 17.285516000000001
#
# number of rings (size 3 to 8) (size 9 to 14) (size 15 to 20)
#    0.000    2.000    1.667    4.000    0.000    6.667 
#    0.000    0.000    0.000    1.000    0.000    7.000 
#    0.000    0.000    0.000    0.000    0.000    0.000 
#
# Total GULP energy -297463.701125 kJ/mol
# GULP energy per Si atom -12394.320880 kJ/mol
# Density = 1.724617 g / cm^3
# Si number density = 17.285516 Si / 1000 Ang^3
#
#
#
# Elastic Constant Matrix: (Units=GPa)
#
#
# Indices 1 2 3 4 5 6 
#
# 1 146.9528 49.8929 59.0431 0.0000 -7.0985 0.0000
# 2 49.8929 82.4889 28.7955 0.0000 3.2056 0.0000
# 3 59.0431 28.7955 88.2915 0.0000 4.1424 0.0000
# 4 0.0000 0.0000 0.0000 25.5078 0.0000 1.2863
# 5 -7.0985 3.2056 4.1424 0.0000 10.7551 0.0000
# 6 0.0000 0.0000 0.0000 1.2863 0.0000 28.2230
#
#
#
# Elastic Compliance Matrix: (Units=1/GPa)
#
#
# Indices 1 2 3 4 5 6 
#
# 1 0.011926 -0.005305 -0.006812 0.000000 0.012076 0.000000
# 2 -0.005305 0.016101 -0.001338 0.000000 -0.007785 0.000000
# 3 -0.006812 -0.001338 0.016814 0.000000 -0.010573 0.000000
# 4 0.000000 0.000000 0.000000 0.039294 0.000000 -0.001791
# 5 0.012076 -0.007785 -0.010573 0.000000 0.107342 0.000000
# 6 0.000000 0.000000 0.000000 -0.001791 0.000000 0.035514
#
#
# Mechanical properties :
#
#
# Convention : Reuss Voigt Hill
#
# Bulk Modulus (GPa) = 55.76944 65.91069 60.84007
# Shear Modulus (GPa) = 19.23976 24.89728 22.06852
#
# Velocity S-wave (km/s) = 3.33987 3.79932 3.57698
# Velocity P-wave (km/s) = 6.87071 7.58022 7.23417
#
# Compressibility (1/GPa) = 0.01793097
#
# Stress axis : x y z
#
# Youngs Moduli (GPa) = 83.84878 62.10695 59.47435
#
# Poissons Ratio (x) = 0.32947 0.40513
# Poissons Ratio (y) = 0.44481 0.07961
# Poissons Ratio (z) = 0.57116 0.08313
#
# Static dielectric constant tensor:
#      x y z
#    x 3.442220 0.000000 -0.052150 
#    y 0.000000 3.259390 0.000000 
#    z -0.052150 0.000000 3.004750 
# 
# 
# High freq. dielectric constant tensor:
#      x y z
#    x 1.675440 0.000000 -0.003990 
#    y 0.000000 1.674150 0.000000 
#    z -0.003990 0.000000 1.626490 
# 
# From -- ./inp_files/287263.got.cif
#   From: 2010.06.25/outbox.cif.g09.slc.cpg/sg12_144_cif.got.tgz:287263.got - 2010.06.28 00:19:55.
