data_PCOD8113490
_publ_section_title
;
Structure prediction by ZEFSAII (Michael W. Deem and Ramdas Pophale) SiO2 
 PCOD8113490
Probable space group: C 2/M
;
_chemical_formula_sum "Si O2"
_cell_formula_units_Z 52
_cell_length_a 11.298507
_cell_length_b 20.361579
_cell_length_c 12.506298
_cell_angle_alpha 90.000000
_cell_angle_beta 124.084394
_cell_angle_gamma 90.000000
_cell_volume 2382.886370
_symmetry_space_group_name_H-M "C 2/M"
_symmetry_group_IT_number 12
_symmetry_cell_setting 'monoclinic'
loop_
_space_group_symop_operation_xyz
x,y,z
-x,y,-z
-x,-y,-z
x,-y,z
1/2+x,1/2+y,z
1/2-x,1/2+y,-z
1/2-x,1/2-y,-z
1/2+x,1/2-y,z
loop_
_atom_site_type_symbol
_atom_site_label
_atom_site_fract_x
_atom_site_fract_y
_atom_site_fract_z
Si Si1 0.191847 0.500000 0.995060
Si Si2 0.196308 0.621508 0.380393
Si Si3 0.871002 0.500000 0.788184
Si Si4 0.919945 0.661823 0.351831
Si Si5 0.257332 0.711082 0.226752
Si Si6 0.619691 0.379152 0.891276
Si Si7 0.186367 0.923187 0.340529
Si Si8 0.500000 0.718091 0.000000
O O1 0.168520 0.500000 0.109067
O O2 0.279908 0.435156 0.007002
O O3 0.041759 0.500000 0.856935
O O4 0.204984 0.561878 0.303099
O O5 0.255826 0.685267 0.348396
O O6 0.295110 0.609334 0.533513
O O7 0.030563 0.628626 0.327357
O O8 0.864472 0.728275 0.270180
O O9 0.791765 0.610963 0.309120
O O10 0.000000 0.681622 0.500000
O O11 0.302630 0.654244 0.169036
O O12 0.097892 0.734646 0.120245
O O13 0.473857 0.412472 0.778746
O O14 0.596906 0.326247 0.972293
O O15 0.224546 0.000000 0.365443
#
# Coordination Sequence:
#
# PCOD8113490 Si02
#       8
#     4   8   4   8   8   8   8   4
#     4  11  26  44  69  97 142 175 233 282 331 406
#     4  11  25  43  74  99 135 183 226 280 344 405
#     4  11  24  45  66 103 133 185 227 274 341 403
#     4  10  25  42  66 100 136 180 224 274 338 404
#     4  12  26  45  70 100 136 178 230 283 336 413
#     4  12  26  46  69 101 137 179 228 286 340 404
#     4  11  24  46  69 103 142 174 228 285 342 404
#     4  12  28  47  68  95 140 188 228 274 346 402
#
# _framework density 21.822275000000001
#
# number of rings (size 3 to 8) (size 9 to 14) (size 15 to 20)
#    0.000    0.769    4.615    1.385    7.538    2.462 
#    0.000    1.538    0.000    0.000    0.000    0.000 
#    0.000    0.000    0.000    0.000    0.000    0.000 
#
# Total GULP energy -322578.500931 kJ/mol
# GULP energy per Si atom -12406.865420 kJ/mol
# Density = 2.177261 g / cm^3
# Si number density = 21.822275 Si / 1000 Ang^3
#
#
#
# Elastic Constant Matrix: (Units=GPa)
#
#
# Indices 1 2 3 4 5 6 
#
# 1 72.7254 17.1996 2.1566 0.0000 -4.6912 0.0000
# 2 17.1996 97.0747 10.0527 0.0000 -2.2039 0.0000
# 3 2.1566 10.0527 41.8388 0.0000 0.5364 0.0000
# 4 0.0000 0.0000 0.0000 28.2136 0.0000 7.7690
# 5 -4.6912 -2.2039 0.5364 0.0000 40.2951 0.0000
# 6 0.0000 0.0000 0.0000 7.7690 0.0000 36.1459
#
#
#
# Elastic Compliance Matrix: (Units=1/GPa)
#
#
# Indices 1 2 3 4 5 6 
#
# 1 0.014448 -0.002508 -0.000162 0.000000 0.001547 0.000000
# 2 -0.002508 0.011015 -0.002522 0.000000 0.000344 0.000000
# 3 -0.000162 -0.002522 0.024522 0.000000 -0.000483 0.000000
# 4 0.000000 0.000000 0.000000 0.037674 0.000000 -0.008097
# 5 0.001547 0.000344 -0.000483 0.000000 0.025022 0.000000
# 6 0.000000 0.000000 0.000000 -0.008097 0.000000 0.029406
#
#
# Mechanical properties :
#
#
# Convention : Reuss Voigt Hill
#
# Bulk Modulus (GPa) = 25.25177 30.05075 27.65126
# Shear Modulus (GPa) = 30.18045 33.07958 31.63001
#
# Velocity S-wave (km/s) = 3.72292 3.89763 3.81128
# Velocity P-wave (km/s) = 5.48424 5.83575 5.66272
#
# Compressibility (1/GPa) = 0.03960119
#
# Stress axis : x y z
#
# Youngs Moduli (GPa) = 69.21330 90.78813 40.78022
#
# Poissons Ratio (x) = 0.22770 0.00660
# Poissons Ratio (y) = 0.17359 0.10283
# Poissons Ratio (z) = 0.01121 0.22894
#
# Static dielectric constant tensor:
#      x y z
#    x 4.004900 0.000000 -0.001910 
#    y 0.000000 4.001760 0.000000 
#    z -0.001910 0.000000 3.913750 
# 
# 
# High freq. dielectric constant tensor:
#      x y z
#    x 1.862850 0.000000 0.000320 
#    y 0.000000 1.870690 0.000000 
#    z 0.000320 0.000000 1.862220 
# 
# From -- ./inp_files/134064.got.cif
#   From: 2010.06.25/outbox.cif.g09.slc.cpg/sg12_68_cif.got.tgz:134064.got - 2010.06.28 00:19:55.
