data_PCOD8113139
_publ_section_title
;
Structure prediction by ZEFSAII (Michael W. Deem and Ramdas Pophale) SiO2 
 PCOD8113139
Probable space group: C 2/M
;
_chemical_formula_sum "Si O2"
_cell_formula_units_Z 64
_cell_length_a 9.147063
_cell_length_b 25.055236
_cell_length_c 13.105320
_cell_angle_alpha 90.000000
_cell_angle_beta 93.185042
_cell_angle_gamma 90.000000
_cell_volume 2998.861619
_symmetry_space_group_name_H-M "C 2/M"
_symmetry_group_IT_number 12
_symmetry_cell_setting 'monoclinic'
loop_
_space_group_symop_operation_xyz
x,y,z
-x,y,-z
-x,-y,-z
x,-y,z
1/2+x,1/2+y,z
1/2-x,1/2+y,-z
1/2-x,1/2-y,-z
1/2+x,1/2-y,z
loop_
_atom_site_type_symbol
_atom_site_label
_atom_site_fract_x
_atom_site_fract_y
_atom_site_fract_z
Si Si1 0.383430 0.060517 0.216376
Si Si2 0.914258 0.845209 0.103283
Si Si3 0.778955 0.743762 0.344236
Si Si4 0.927513 0.058135 0.883751
Si Si5 0.424914 0.864334 0.896454
Si Si6 0.327975 0.662756 0.492449
Si Si7 0.984567 0.740821 0.792790
Si Si8 0.661070 0.060831 0.550893
O O1 0.247456 0.068418 0.131545
O O2 0.524499 0.095994 0.191839
O O3 0.333436 0.075448 0.328919
O O4 0.439695 0.000000 0.215910
O O5 0.746792 0.862717 0.087957
O O6 0.992910 0.892991 0.171193
O O7 0.923660 0.790470 0.162840
O O8 0.000000 0.837794 0.000000
O O9 0.721232 0.698020 0.414567
O O10 0.779259 0.803563 0.391136
O O11 0.682157 0.744786 0.237861
O O12 0.939936 0.725635 0.312785
O O13 0.961075 0.000000 0.835608
O O14 0.000000 0.059304 0.000000
O O15 0.490178 0.806090 0.875019
O O16 0.500000 0.886805 0.000000
O O17 0.500000 0.655028 0.500000
O O18 0.258370 0.603770 0.492899
O O19 0.500000 0.065826 0.500000
O O20 0.719819 0.000000 0.536118
#
# Coordination Sequence:
#
# PCOD8113139 Si02
#       8
#     8   8   8   8   8   8   8   8
#     4  10  23  44  69  97 128 171 220 266 326 389
#     4  11  25  40  60  90 127 167 211 263 324 382
#     4  11  25  42  63  97 126 168 214 270 320 385
#     4   9  19  38  64  91 123 162 207 262 318 375
#     4  12  26  40  64  95 127 174 218 268 325 381
#     4  11  24  41  66  97 132 164 214 265 327 386
#     4  12  25  42  64  90 129 168 218 261 322 384
#     4  10  24  44  69  99 133 173 214 267 329 389
#
# _framework density 21.341429999999999
#
# number of rings (size 3 to 8) (size 9 to 14) (size 15 to 20)
#    0.000    1.250    2.500    2.625    8.750    2.000 
#    0.000    0.000    0.000    5.250    0.000    0.000 
#    0.000    0.000    0.000    0.000    0.000    0.000 
#
# Total GULP energy -396597.554559 kJ/mol
# GULP energy per Si atom -12393.673580 kJ/mol
# Density = 2.129286 g / cm^3
# Si number density = 21.341430 Si / 1000 Ang^3
#
#
#
# Elastic Constant Matrix: (Units=GPa)
#
#
# Indices 1 2 3 4 5 6 
#
# 1 125.0993 54.0487 30.2281 0.0000 -8.3959 0.0000
# 2 54.0487 112.8729 10.0247 0.0000 -14.5806 0.0000
# 3 30.2281 10.0247 52.5369 0.0000 -0.3160 0.0000
# 4 0.0000 0.0000 0.0000 28.8685 0.0000 -6.3452
# 5 -8.3959 -14.5806 -0.3160 0.0000 36.0992 0.0000
# 6 0.0000 0.0000 0.0000 -6.3452 0.0000 37.6250
#
#
#
# Elastic Compliance Matrix: (Units=1/GPa)
#
#
# Indices 1 2 3 4 5 6 
#
# 1 0.011548 -0.004941 -0.005698 0.000000 0.000640 0.000000
# 2 -0.004941 0.011627 0.000646 0.000000 0.003553 0.000000
# 3 -0.005698 0.000646 0.022184 0.000000 -0.000870 0.000000
# 4 0.000000 0.000000 0.000000 0.035973 0.000000 0.006067
# 5 0.000640 0.003553 -0.000870 0.000000 0.029278 0.000000
# 6 0.000000 0.000000 0.000000 0.006067 0.000000 0.027601
#
#
# Mechanical properties :
#
#
# Convention : Reuss Voigt Hill
#
# Bulk Modulus (GPa) = 39.41176 53.23467 46.32322
# Shear Modulus (GPa) = 30.00201 33.59904 31.80052
#
# Velocity S-wave (km/s) = 3.75348 3.97212 3.86435
# Velocity P-wave (km/s) = 6.10673 6.78494 6.45475
#
# Compressibility (1/GPa) = 0.02537314
#
# Stress axis : x y z
#
# Youngs Moduli (GPa) = 86.59401 86.00593 45.07725
#
# Poissons Ratio (x) = 0.42496 0.25684
# Poissons Ratio (y) = 0.42786 -0.02911
# Poissons Ratio (z) = 0.49339 -0.05553
#
# Static dielectric constant tensor:
#      x y z
#    x 3.841820 0.000000 0.038690 
#    y 0.000000 4.400880 0.000000 
#    z 0.038690 0.000000 3.740160 
# 
# 
# High freq. dielectric constant tensor:
#      x y z
#    x 1.841480 0.000000 0.005950 
#    y 0.000000 1.853000 0.000000 
#    z 0.005950 0.000000 1.821990 
# 
# From -- ./inp_files/198905.got.cif
#   From: 2010.06.25/outbox.cif.g09.slc.cpg/sg12_100_cif.got.tgz:198905.got - 2010.06.28 00:19:55.
