data_PCOD8113807
_publ_section_title
;
Structure prediction by ZEFSAII (Michael W. Deem and Ramdas Pophale) SiO2 
 PCOD8113807
Probable space group: C 2/M
;
_chemical_formula_sum "Si O2"
_cell_formula_units_Z 48
_cell_length_a 23.558436
_cell_length_b 8.713956
_cell_length_c 30.702747
_cell_angle_alpha 90.000000
_cell_angle_beta 25.466919
_cell_angle_gamma 90.000000
_cell_volume 2710.174805
_symmetry_space_group_name_H-M "C 2/M"
_symmetry_group_IT_number 12
_symmetry_cell_setting 'monoclinic'
loop_
_space_group_symop_operation_xyz
x,y,z
-x,y,-z
-x,-y,-z
x,-y,z
1/2+x,1/2+y,z
1/2-x,1/2+y,-z
1/2-x,1/2-y,-z
1/2+x,1/2-y,z
loop_
_atom_site_type_symbol
_atom_site_label
_atom_site_fract_x
_atom_site_fract_y
_atom_site_fract_z
Si Si1 0.293151 0.321212 0.757361
Si Si2 0.148312 0.182658 0.104888
Si Si3 0.469803 0.671701 0.083757
Si Si4 0.732812 0.178495 0.136450
Si Si5 0.371634 0.182974 0.615027
Si Si6 0.597672 0.672453 0.772952
O O1 0.322108 0.500000 0.740496
O O2 0.137584 0.293102 0.857871
O O3 0.339278 0.241473 0.770406
O O4 0.378457 0.250634 0.658858
O O5 0.178057 0.231056 0.133164
O O6 0.000063 0.245546 0.195484
O O7 0.153309 0.000000 0.097105
O O8 0.250000 0.250000 0.000000
O O9 0.423081 0.500000 0.102157
O O10 0.485290 0.679183 0.124913
O O11 0.611098 0.710419 0.965194
O O12 0.703059 0.000000 0.150322
O O13 0.500000 0.237254 0.500000
O O14 0.241785 0.251116 0.679876
O O15 0.362023 0.000000 0.625900
O O16 0.628443 0.500000 0.737240
#
# Coordination Sequence:
#
# PCOD8113807 Si02
#       6
#     8   8   8   8   8   8
#     4  11  22  33  48  76 107 133 166 213 265 313
#     4  11  20  32  49  73 107 144 179 210 247 300
#     4   9  17  32  50  69  99 140 176 209 251 301
#     4  11  21  34  50  70 101 143 181 214 251 298
#     4   9  18  36  61  81  98 129 171 212 260 317
#     4   8  15  30  50  75 103 132 168 210 254 296
#
# _framework density 17.711034999999999
#
# number of rings (size 3 to 8) (size 9 to 14) (size 15 to 20)
#    0.000    2.167    1.667    4.000    0.000    3.667 
#    0.000    0.833    0.000    1.000    0.000    0.000 
#    0.000    0.000    0.000    0.000    0.000    0.000 
#
# Total GULP energy -297476.597287 kJ/mol
# GULP energy per Si atom -12394.858220 kJ/mol
# Density = 1.767072 g / cm^3
# Si number density = 17.711035 Si / 1000 Ang^3
#
#
#
# Elastic Constant Matrix: (Units=GPa)
#
#
# Indices 1 2 3 4 5 6 
#
# 1 100.9417 31.3526 54.1346 0.0213 14.5523 -0.0434
# 2 31.3526 61.4779 31.0037 0.0196 2.7555 -0.0363
# 3 54.1346 31.0037 112.4492 -0.0032 11.0557 -0.0187
# 4 0.0213 0.0196 -0.0032 17.4866 0.0153 3.0640
# 5 14.5523 2.7555 11.0557 0.0153 19.7831 0.0046
# 6 -0.0434 -0.0363 -0.0187 3.0640 0.0046 27.0546
#
#
#
# Elastic Compliance Matrix: (Units=1/GPa)
#
#
# Indices 1 2 3 4 5 6 
#
# 1 0.015353 -0.004807 -0.005313 -0.000011 -0.007655 0.000017
# 2 -0.004807 0.020400 -0.003575 -0.000023 0.002693 0.000019
# 3 -0.005313 -0.003575 0.012701 0.000016 -0.002692 -0.000006
# 4 -0.000011 -0.000023 0.000016 0.058345 -0.000042 -0.006608
# 5 -0.007655 0.002693 -0.002692 -0.000042 0.057308 -0.000016
# 6 0.000017 0.000019 -0.000006 -0.006608 -0.000016 0.037711
#
#
# Mechanical properties :
#
#
# Convention : Reuss Voigt Hill
#
# Bulk Modulus (GPa) = 47.47620 56.42785 51.95203
# Shear Modulus (GPa) = 21.16597 23.42338 22.29468
#
# Velocity S-wave (km/s) = 3.46073 3.64061 3.55181
# Velocity P-wave (km/s) = 6.54470 7.04283 6.79833
#
# Compressibility (1/GPa) = 0.02106318
#
# Stress axis : x y z
#
# Youngs Moduli (GPa) = 65.13519 49.02019 78.73396
#
# Poissons Ratio (x) = 0.23564 0.41832
# Poissons Ratio (y) = 0.31311 0.28147
# Poissons Ratio (z) = 0.34607 0.17525
#
# Static dielectric constant tensor:
#      x y z
#    x 3.441080 0.000080 -0.005440 
#    y 0.000080 3.098840 -0.000030 
#    z -0.005440 -0.000030 3.181460 
# 
# 
# High freq. dielectric constant tensor:
#      x y z
#    x 1.690150 0.000000 0.008520 
#    y 0.000000 1.669120 0.000000 
#    z 0.008520 0.000000 1.655570 
# 
# From -- ./inp_files/236867.got.cif
#   From: 2010.06.25/outbox.cif.g09.slc.cpg/sg12_119_cif.got.tgz:236867.got - 2010.06.28 00:19:55.
