data_PCOD8113441
_publ_section_title
;
Structure prediction by ZEFSAII (Michael W. Deem and Ramdas Pophale) SiO2 
 PCOD8113441
Probable space group: C 2/M
;
_chemical_formula_sum "Si O2"
_cell_formula_units_Z 48
_cell_length_a 12.194811
_cell_length_b 13.361186
_cell_length_c 22.576680
_cell_angle_alpha 90.000000
_cell_angle_beta 144.118032
_cell_angle_gamma 90.000000
_cell_volume 2156.079500
_symmetry_space_group_name_H-M "C 2/M"
_symmetry_group_IT_number 12
_symmetry_cell_setting 'monoclinic'
loop_
_space_group_symop_operation_xyz
x,y,z
-x,y,-z
-x,-y,-z
x,-y,z
1/2+x,1/2+y,z
1/2-x,1/2+y,-z
1/2-x,1/2-y,-z
1/2+x,1/2-y,z
loop_
_atom_site_type_symbol
_atom_site_label
_atom_site_fract_x
_atom_site_fract_y
_atom_site_fract_z
Si Si1 0.369837 0.116930 0.500000
Si Si2 0.492162 0.750000 0.661441
Si Si3 0.141031 0.309741 0.842181
Si Si4 0.385512 0.809741 0.842181
Si Si5 0.698877 0.110012 0.051320
Si Si6 0.044916 0.889988 0.948680
O O1 0.500000 0.124534 0.500000
O O2 0.471061 0.174981 0.597448
O O3 0.178715 0.174981 0.402551
O O4 0.332927 0.000000 0.500000
O O5 0.523124 0.825637 0.730788
O O6 0.669241 0.674363 0.730788
O O7 0.209995 0.193867 0.866776
O O8 0.334155 0.376048 0.936107
O O9 0.002444 0.332242 0.834962
O O10 0.474167 0.876048 0.936107
O O11 0.390333 0.693867 0.866776
O O12 0.738423 0.000000 0.094293
O O13 0.795068 0.126852 0.030045
O O14 0.955542 0.000000 0.905707
#
# Coordination Sequence:
#
# PCOD8113441 Si02
#       6
#     8   8   8   8   8   8
#     4  10  24  46  66  84 110 144 186 242 306 366
#     4  11  22  37  62  88 110 141 192 247 296 346
#     4   9  18  32  51  79 114 151 189 228 274 327
#     4   9  18  32  51  79 114 151 189 228 274 327
#     4   8  15  29  48  74 115 160 192 221 262 317
#     4   8  15  29  48  74 115 160 192 221 262 317
#
# _framework density 22.262630000000001
#
# number of rings (size 3 to 8) (size 9 to 14) (size 15 to 20)
#    0.000    2.833    0.000    3.000    0.000    5.333 
#    0.000    5.000    0.000   17.000    0.000    0.000 
#    0.000    0.000    0.000    0.000    0.000    0.000 
#
# Total GULP energy -297480.156748 kJ/mol
# GULP energy per Si atom -12395.006531 kJ/mol
# Density = 2.221196 g / cm^3
# Si number density = 22.262630 Si / 1000 Ang^3
#
#
#
# Elastic Constant Matrix: (Units=GPa)
#
#
# Indices 1 2 3 4 5 6 
#
# 1 73.0423 18.2837 48.0294 0.0000 2.6969 0.0000
# 2 18.2837 120.0898 38.4485 0.0000 1.2281 0.0000
# 3 48.0294 38.4485 149.5200 -0.0001 1.9605 -0.0001
# 4 0.0000 0.0000 -0.0001 20.1023 0.0000 -0.6886
# 5 2.6969 1.2281 1.9605 0.0000 34.6047 0.0000
# 6 0.0000 0.0000 -0.0001 -0.6886 0.0000 31.4106
#
#
#
# Elastic Compliance Matrix: (Units=1/GPa)
#
#
# Indices 1 2 3 4 5 6 
#
# 1 0.017490 -0.000935 -0.005364 0.000000 -0.001026 0.000000
# 2 -0.000935 0.009125 -0.002044 0.000000 -0.000135 0.000000
# 3 -0.005364 -0.002044 0.008937 0.000000 -0.000016 0.000000
# 4 0.000000 0.000000 0.000000 0.049783 0.000000 0.001091
# 5 -0.001026 -0.000135 -0.000016 0.000000 0.028983 0.000000
# 6 0.000000 0.000000 0.000000 0.001091 0.000000 0.031860
#
#
# Mechanical properties :
#
#
# Convention : Reuss Voigt Hill
#
# Bulk Modulus (GPa) = 53.00796 61.35280 57.18038
# Shear Modulus (GPa) = 29.55870 33.08290 31.32080
#
# Velocity S-wave (km/s) = 3.64775 3.85909 3.75491
# Velocity P-wave (km/s) = 6.45007 6.89022 6.67378
#
# Compressibility (1/GPa) = 0.01886509
#
# Stress axis : x y z
#
# Youngs Moduli (GPa) = 57.17575 109.58441 111.89246
#
# Poissons Ratio (x) = 0.10245 0.60023
# Poissons Ratio (y) = 0.05345 0.22876
# Poissons Ratio (z) = 0.30671 0.22404
#
# Static dielectric constant tensor:
#      x y z
#    x 4.720670 0.000000 -0.050660 
#    y 0.000000 3.889200 0.000000 
#    z -0.050660 0.000000 3.888640 
# 
# 
# High freq. dielectric constant tensor:
#      x y z
#    x 1.944030 0.000000 -0.005260 
#    y 0.000000 1.855650 0.000000 
#    z -0.005260 0.000000 1.857720 
# 
# From -- ./inp_files/340222.got.cif
#   From: 2010.06.25/outbox.cif.g09.slc.cpg/sg12_171_cif.got.tgz:340222.got - 2010.06.28 00:19:55.
