data_PCOD8113052
_publ_section_title
;
Structure prediction by ZEFSAII (Michael W. Deem and Ramdas Pophale) SiO2 
 PCOD8113052
Probable space group: C 2/M
;
_chemical_formula_sum "Si O2"
_cell_formula_units_Z 56
_cell_length_a 19.852953
_cell_length_b 8.490035
_cell_length_c 25.167666
_cell_angle_alpha 90.000000
_cell_angle_beta 39.929692
_cell_angle_gamma 90.000000
_cell_volume 2722.758520
_symmetry_space_group_name_H-M "C 2/M"
_symmetry_group_IT_number 12
_symmetry_cell_setting 'monoclinic'
loop_
_space_group_symop_operation_xyz
x,y,z
-x,y,-z
-x,-y,-z
x,-y,z
1/2+x,1/2+y,z
1/2-x,1/2+y,-z
1/2-x,1/2-y,-z
1/2+x,1/2-y,z
loop_
_atom_site_type_symbol
_atom_site_label
_atom_site_fract_x
_atom_site_fract_y
_atom_site_fract_z
Si Si1 0.133610 0.315709 0.568946
Si Si2 0.502656 0.315196 0.437287
Si Si3 0.934500 0.683187 0.988513
Si Si4 0.231587 0.318262 0.148667
Si Si5 0.268257 0.682266 0.738156
Si Si6 0.932554 0.181511 0.184767
Si Si7 0.486404 0.316529 0.748814
O O1 0.134034 0.500000 0.580736
O O2 0.250000 0.250000 0.500000
O O3 0.063846 0.228108 0.654674
O O4 0.086643 0.281795 0.539176
O O5 0.500000 0.265168 0.500000
O O6 0.480931 0.500000 0.443021
O O7 0.614219 0.264740 0.345963
O O8 0.908548 0.500000 0.008949
O O9 0.998984 0.712941 0.896071
O O10 0.825258 0.778853 0.051096
O O11 0.000000 0.742494 0.000000
O O12 0.233850 0.500000 0.163842
O O13 0.252972 0.212163 0.187266
O O14 0.121042 0.280094 0.188661
O O15 0.249782 0.500000 0.736160
O O16 0.190128 0.783159 0.749089
O O17 0.958962 0.226829 0.228978
O O18 0.956518 0.000000 0.158261
O O19 0.459346 0.500000 0.760311
#
# Coordination Sequence:
#
# PCOD8113052 Si02
#       7
#     8   8   8   8   8   8   8
#     4  12  26  44  68  96 130 172 215 264 321 380
#     4  10  23  43  67  98 132 169 213 264 320 379
#     4  11  23  40  65  95 128 169 214 263 322 380
#     4  12  24  40  67  96 127 170 216 262 318 380
#     4  11  22  39  65  94 131 171 212 264 320 379
#     4  11  25  42  65  96 130 168 215 269 318 377
#     4  11  25  46  67  94 132 171 214 263 320 382
#
# _framework density 20.567377
#
# number of rings (size 3 to 8) (size 9 to 14) (size 15 to 20)
#    0.000    0.857    2.857    4.286    2.000    4.286 
#    0.000    0.000    0.000    0.000    0.000    0.000 
#    0.000    0.000    0.000    0.000    0.000    0.000 
#
# Total GULP energy -347435.520023 kJ/mol
# GULP energy per Si atom -12408.411429 kJ/mol
# Density = 2.052057 g / cm^3
# Si number density = 20.567377 Si / 1000 Ang^3
#
#
#
# Elastic Constant Matrix: (Units=GPa)
#
#
# Indices 1 2 3 4 5 6 
#
# 1 133.0030 28.6826 43.8145 -0.0003 -7.4071 0.0002
# 2 28.6826 62.4753 25.0597 -0.0005 -3.0685 0.0003
# 3 43.8145 25.0597 100.6308 0.0000 -15.7361 0.0003
# 4 -0.0003 -0.0005 0.0000 30.6590 0.0000 -5.6914
# 5 -7.4071 -3.0685 -15.7361 0.0000 39.1210 0.0004
# 6 0.0002 0.0003 0.0003 -5.6914 0.0004 33.2750
#
#
#
# Elastic Compliance Matrix: (Units=1/GPa)
#
#
# Indices 1 2 3 4 5 6 
#
# 1 0.009234 -0.002921 -0.003261 0.000000 0.000208 0.000000
# 2 -0.002921 0.018713 -0.003463 0.000000 -0.000478 0.000000
# 3 -0.003261 -0.003463 0.012891 0.000000 0.004296 0.000000
# 4 0.000000 0.000000 0.000000 0.033686 0.000000 0.005762
# 5 0.000208 -0.000478 0.004296 0.000000 0.027292 0.000000
# 6 0.000000 0.000000 0.000000 0.005762 0.000000 0.031038
#
#
# Mechanical properties :
#
#
# Convention : Reuss Voigt Hill
#
# Bulk Modulus (GPa) = 46.40636 54.58031 50.49333
# Shear Modulus (GPa) = 31.38191 33.84784 32.61487
#
# Velocity S-wave (km/s) = 3.91040 4.06113 3.98648
# Velocity P-wave (km/s) = 6.55747 6.97032 6.76704
#
# Compressibility (1/GPa) = 0.02154877
#
# Stress axis : x y z
#
# Youngs Moduli (GPa) = 108.29137 53.43861 77.57246
#
# Poissons Ratio (x) = 0.15612 0.25293
# Poissons Ratio (y) = 0.31637 0.26862
# Poissons Ratio (z) = 0.35310 0.18505
#
# Static dielectric constant tensor:
#      x y z
#    x 3.827820 0.000000 -0.104580 
#    y 0.000000 3.720500 0.000000 
#    z -0.104580 0.000000 3.815950 
# 
# 
# High freq. dielectric constant tensor:
#      x y z
#    x 1.808760 0.000000 -0.007630 
#    y 0.000000 1.810020 0.000000 
#    z -0.007630 0.000000 1.814240 
# 
# From -- ./inp_files/362900.got.cif
#   From: 2010.06.25/outbox.cif.g09.slc.cpg/sg12_182_cif.got.tgz:362900.got - 2010.06.28 00:19:55.
