data_PCOD8113191
_publ_section_title
;
Structure prediction by ZEFSAII (Michael W. Deem and Ramdas Pophale) SiO2 
 PCOD8113191
Probable space group: C 2/M
;
_chemical_formula_sum "Si O2"
_cell_formula_units_Z 48
_cell_length_a 11.491014
_cell_length_b 18.700319
_cell_length_c 16.290505
_cell_angle_alpha 90.000000
_cell_angle_beta 136.410415
_cell_angle_gamma 90.000000
_cell_volume 2413.618146
_symmetry_space_group_name_H-M "C 2/M"
_symmetry_group_IT_number 12
_symmetry_cell_setting 'monoclinic'
loop_
_space_group_symop_operation_xyz
x,y,z
-x,y,-z
-x,-y,-z
x,-y,z
1/2+x,1/2+y,z
1/2-x,1/2+y,-z
1/2-x,1/2-y,-z
1/2+x,1/2-y,z
loop_
_atom_site_type_symbol
_atom_site_label
_atom_site_fract_x
_atom_site_fract_y
_atom_site_fract_z
Si Si1 0.279804 0.231281 0.609261
Si Si2 0.165252 0.712794 0.833979
Si Si3 0.697799 0.000000 0.620519
Si Si4 0.191214 0.854524 0.252624
Si Si5 0.505888 0.500000 0.365373
Si Si6 0.702412 0.646727 0.935218
Si Si7 0.696591 0.000000 0.084920
Si Si8 0.500000 0.381877 0.500000
O O1 0.250000 0.250000 0.500000
O O2 0.468974 0.205115 0.715789
O O3 0.241396 0.302022 0.642213
O O4 0.164117 0.167826 0.584512
O O5 0.266406 0.676050 0.813974
O O6 0.225045 0.795591 0.873001
O O7 0.197884 0.672607 0.934925
O O8 0.500000 0.000000 0.500000
O O9 0.726933 0.068677 0.691779
O O10 0.829044 0.000000 0.610006
O O11 0.993194 0.862699 0.149187
O O12 0.326434 0.500000 0.227447
O O13 0.509047 0.429251 0.422531
O O14 0.775996 0.570434 0.953077
O O15 0.500000 0.000000 0.000000
#
# Coordination Sequence:
#
# PCOD8113191 Si02
#       8
#     8   8   4   8   4   8   4   4
#     4  11  24  40  68 102 133 172 224 274 332 409
#     4  10  24  40  70  98 132 169 225 271 335 406
#     4  12  27  42  66  96 140 178 223 281 342 411
#     4  11  23  42  68  95 131 176 216 276 340 394
#     4  11  26  50  64 101 136 182 229 279 348 391
#     4  10  23  46  64  98 131 171 217 284 329 399
#     4  12  27  42  74  90 132 175 225 277 332 401
#     4  11  26  42  72  91 142 180 220 285 330 410
#
# _framework density 19.887156000000001
#
# number of rings (size 3 to 8) (size 9 to 14) (size 15 to 20)
#    0.000    1.167    1.667    2.500   12.833    3.333 
#    0.000    1.667    0.000    0.000    0.000    0.000 
#    0.000    0.000    0.000    0.000    0.000    0.000 
#
# Total GULP energy -297608.519593 kJ/mol
# GULP energy per Si atom -12400.354983 kJ/mol
# Density = 1.984189 g / cm^3
# Si number density = 19.887156 Si / 1000 Ang^3
#
#
#
# Elastic Constant Matrix: (Units=GPa)
#
#
# Indices 1 2 3 4 5 6 
#
# 1 128.9569 76.1893 53.6203 -0.0004 4.4309 0.0000
# 2 76.1893 160.1548 52.0086 0.0003 19.0624 -0.0002
# 3 53.6203 52.0086 132.0725 -0.0009 19.5857 0.0000
# 4 -0.0004 0.0003 -0.0009 11.6179 -0.0010 22.6613
# 5 4.4309 19.0624 19.5857 -0.0010 20.9582 0.0002
# 6 0.0000 -0.0002 0.0000 22.6613 0.0002 16.4964
#
#
#
# Elastic Compliance Matrix: (Units=1/GPa)
#
#
# Indices 1 2 3 4 5 6 
#
# 1 0.012234 -0.005288 -0.003731 -0.000001 0.005710 0.000001
# 2 -0.005288 0.009831 -0.000655 0.000001 -0.007211 -0.000001
# 3 -0.003731 -0.000655 0.010609 0.000000 -0.008530 0.000000
# 4 -0.000001 0.000001 0.000000 -0.051251 -0.000004 0.070403
# 5 0.005710 -0.007211 -0.008530 -0.000004 0.061037 0.000005
# 6 0.000001 -0.000001 0.000000 0.070403 0.000005 -0.036094
#
#
# Mechanical properties :
#
#
# Convention : Reuss Voigt Hill
#
# Bulk Modulus (GPa) = 75.04384 87.20230 81.12307
# Shear Modulus (GPa) = 165.80119 25.77225 95.78672
#
# Velocity S-wave (km/s) = 9.14068 3.60380 6.94764
# Velocity P-wave (km/s) = 12.21554 7.82689 10.25865
#
# Compressibility (1/GPa) = 0.01332554
#
# Stress axis : x y z
#
# Youngs Moduli (GPa) = 81.73946 101.72390 94.25643
#
# Poissons Ratio (x) = 0.53791 0.35170
# Poissons Ratio (y) = 0.43223 0.06173
# Poissons Ratio (z) = 0.30500 0.06662
#
# Static dielectric constant tensor:
#      x y z
#    x 4.389160 0.000000 0.022160 
#    y 0.000000 3.962150 0.000000 
#    z 0.022160 0.000000 3.741450 
# 
# 
# High freq. dielectric constant tensor:
#      x y z
#    x 1.780260 0.000000 0.006300 
#    y 0.000000 1.794790 0.000000 
#    z 0.006300 0.000000 1.793690 
# 
# From -- ./inp_files/208074.got.cif
#   From: 2010.06.25/outbox.cif.g09.slc.cpg/sg12_105_cif.got.tgz:208074.got - 2010.06.28 00:19:55.
