data_PCOD8113115
_publ_section_title
;
Structure prediction by ZEFSAII (Michael W. Deem and Ramdas Pophale) SiO2 
 PCOD8113115
Probable space group: C 2/M
;
_chemical_formula_sum "Si O2"
_cell_formula_units_Z 40
_cell_length_a 19.102677
_cell_length_b 8.689763
_cell_length_c 11.905882
_cell_angle_alpha 90.000000
_cell_angle_beta 103.634675
_cell_angle_gamma 90.000000
_cell_volume 1920.652995
_symmetry_space_group_name_H-M "C 2/M"
_symmetry_group_IT_number 12
_symmetry_cell_setting 'monoclinic'
loop_
_space_group_symop_operation_xyz
x,y,z
-x,y,-z
-x,-y,-z
x,-y,z
1/2+x,1/2+y,z
1/2-x,1/2+y,-z
1/2-x,1/2-y,-z
1/2+x,1/2-y,z
loop_
_atom_site_type_symbol
_atom_site_label
_atom_site_fract_x
_atom_site_fract_y
_atom_site_fract_z
Si Si1 0.432695 0.823395 0.894359
Si Si2 0.112913 0.820604 0.711098
Si Si3 0.171588 0.182258 0.973864
Si Si4 0.677927 0.179804 0.523934
Si Si5 0.050489 0.178863 0.336398
O O1 0.443873 0.715766 0.792140
O O2 0.422033 0.000000 0.852784
O O3 0.500000 0.802094 0.000000
O O4 0.363056 0.764546 0.932663
O O5 0.129711 0.770257 0.844634
O O6 0.166500 0.732298 0.647864
O O7 0.029929 0.779803 0.651655
O O8 0.127686 0.000000 0.700201
O O9 0.171766 0.000000 0.991392
O O10 0.250000 0.250000 0.000000
O O11 0.750000 0.250000 0.500000
O O12 0.607883 0.223593 0.426479
O O13 0.688586 0.000000 0.525579
O O14 0.066957 0.000000 0.362185
#
# Coordination Sequence:
#
# PCOD8113115 Si02
#       5
#     8   8   8   8   8
#     4  11  23  40  65  98 134 169 213 264 315 380
#     4  10  23  44  68  94 128 170 216 263 318 384
#     4  11  24  42  65  95 133 174 216 264 319 381
#     4  12  27  45  67  95 129 168 214 267 323 383
#     4  11  23  43  70  96 128 170 214 264 321 383
#
# _framework density 20.826250999999999
#
# number of rings (size 3 to 8) (size 9 to 14) (size 15 to 20)
#    0.000    1.000    2.000    4.200    2.800    6.400 
#    0.000    0.000    0.000    0.000    0.000    0.000 
#    0.000    0.000    0.000    0.000    0.000    0.000 
#
# Total GULP energy -248113.841300 kJ/mol
# GULP energy per Si atom -12405.692065 kJ/mol
# Density = 2.077885 g / cm^3
# Si number density = 20.826251 Si / 1000 Ang^3
#
#
#
# Elastic Constant Matrix: (Units=GPa)
#
#
# Indices 1 2 3 4 5 6 
#
# 1 121.1359 40.3095 16.4842 0.0000 -14.5822 0.0000
# 2 40.3095 66.8116 26.7214 0.0000 -2.3972 0.0000
# 3 16.4842 26.7214 63.7717 0.0000 -11.7761 0.0000
# 4 0.0000 0.0000 0.0000 39.3417 0.0000 -1.7125
# 5 -14.5822 -2.3972 -11.7761 0.0000 41.9187 0.0000
# 6 0.0000 0.0000 0.0000 -1.7125 0.0000 37.3908
#
#
#
# Elastic Compliance Matrix: (Units=1/GPa)
#
#
# Indices 1 2 3 4 5 6 
#
# 1 0.010810 -0.006655 0.000652 0.000000 0.003563 0.000000
# 2 -0.006655 0.022130 -0.008170 0.000000 -0.003345 0.000000
# 3 0.000652 -0.008170 0.019925 0.000000 0.005357 0.000000
# 4 0.000000 0.000000 0.000000 0.025469 0.000000 0.001167
# 5 0.003563 -0.003345 0.005357 0.000000 0.026409 0.000000
# 6 0.000000 0.000000 0.000000 0.001167 0.000000 0.026798
#
#
# Mechanical properties :
#
#
# Convention : Reuss Voigt Hill
#
# Bulk Modulus (GPa) = 40.78439 46.52770 43.65605
# Shear Modulus (GPa) = 29.75119 34.94385 32.34752
#
# Velocity S-wave (km/s) = 3.78371 4.10063 3.94535
# Velocity P-wave (km/s) = 6.22208 6.69400 6.46235
#
# Compressibility (1/GPa) = 0.02451919
#
# Stress axis : x y z
#
# Youngs Moduli (GPa) = 92.50811 45.18684 50.18788
#
# Poissons Ratio (x) = 0.30072 -0.03274
# Poissons Ratio (y) = 0.61564 0.41005
# Poissons Ratio (z) = -0.06034 0.36919
#
# Static dielectric constant tensor:
#      x y z
#    x 3.947460 0.000000 -0.170490 
#    y 0.000000 3.867490 0.000000 
#    z -0.170490 0.000000 4.384760 
# 
# 
# High freq. dielectric constant tensor:
#      x y z
#    x 1.830910 0.000000 -0.005780 
#    y 0.000000 1.821000 0.000000 
#    z -0.005780 0.000000 1.825640 
# 
# From -- ./inp_files/151637.got.cif
#   From: 2010.06.25/outbox.cif.g09.slc.cpg/sg12_76_cif.got.tgz:151637.got - 2010.06.28 00:19:55.
