data_PCOD8113764
_publ_section_title
;
Structure prediction by ZEFSAII (Michael W. Deem and Ramdas Pophale) SiO2 
 PCOD8113764
Probable space group: C 2/M
;
_chemical_formula_sum "Si O2"
_cell_formula_units_Z 48
_cell_length_a 20.235388
_cell_length_b 8.980554
_cell_length_c 19.791709
_cell_angle_alpha 90.000000
_cell_angle_beta 122.567168
_cell_angle_gamma 90.000000
_cell_volume 3031.114803
_symmetry_space_group_name_H-M "C 2/M"
_symmetry_group_IT_number 12
_symmetry_cell_setting 'monoclinic'
loop_
_space_group_symop_operation_xyz
x,y,z
-x,y,-z
-x,-y,-z
x,-y,z
1/2+x,1/2+y,z
1/2-x,1/2+y,-z
1/2-x,1/2-y,-z
1/2+x,1/2-y,z
loop_
_atom_site_type_symbol
_atom_site_label
_atom_site_fract_x
_atom_site_fract_y
_atom_site_fract_z
Si Si1 0.005660 0.324551 0.661409
Si Si2 0.650358 0.324405 0.670449
Si Si3 0.584686 0.163857 0.513428
Si Si4 0.190817 0.831315 0.236402
Si Si5 0.058901 0.324453 0.230228
Si Si6 0.465544 0.331041 0.911948
O O1 0.023476 0.500000 0.665028
O O2 0.082972 0.236901 0.682026
O O3 0.984362 0.275851 0.725228
O O4 0.931000 0.282791 0.572328
O O5 0.651495 0.500000 0.675675
O O6 0.638503 0.277060 0.585373
O O7 0.732476 0.259997 0.741932
O O8 0.500000 0.154477 0.500000
O O9 0.624426 0.000000 0.536785
O O10 0.130119 0.828943 0.139261
O O11 0.144946 0.753554 0.274274
O O12 0.213646 0.000000 0.268655
O O13 0.070555 0.500000 0.232816
O O14 0.006487 0.266782 0.137524
O O15 0.496678 0.500000 0.920093
O O16 0.500000 0.261546 0.000000
#
# Coordination Sequence:
#
# PCOD8113764 Si02
#       6
#     8   8   8   8   8   8
#     4   9  18  32  49  68  95 128 158 191 234 281
#     4  11  20  29  46  71  96 122 160 203 231 267
#     4   8  15  29  46  63  88 126 163 191 229 279
#     4   9  18  32  49  68  95 126 154 188 234 284
#     4   9  17  30  49  74  97 118 153 195 233 274
#     4   8  16  31  51  72  93 122 155 185 226 283
#
# _framework density 15.835756999999999
#
# number of rings (size 3 to 8) (size 9 to 14) (size 15 to 20)
#    1.000    2.000    0.000    3.000    0.000    4.667 
#    0.000    0.833    0.000    1.000    0.000    0.000 
#    0.000    0.000    0.000    0.000    0.000    0.000 
#
# Total GULP energy -297319.597073 kJ/mol
# GULP energy per Si atom -12388.316545 kJ/mol
# Density = 1.579971 g / cm^3
# Si number density = 15.835757 Si / 1000 Ang^3
#
#
#
# Elastic Constant Matrix: (Units=GPa)
#
#
# Indices 1 2 3 4 5 6 
#
# 1 71.5687 43.7969 42.5913 0.0000 -2.8544 0.0000
# 2 43.7969 89.1854 33.9856 0.0000 2.0368 0.0000
# 3 42.5913 33.9856 90.9949 0.0000 -7.4737 0.0000
# 4 0.0000 0.0000 0.0000 22.6013 0.0000 1.1756
# 5 -2.8544 2.0368 -7.4737 0.0000 22.9820 0.0000
# 6 0.0000 0.0000 0.0000 1.1756 0.0000 22.2139
#
#
#
# Elastic Compliance Matrix: (Units=1/GPa)
#
#
# Indices 1 2 3 4 5 6 
#
# 1 0.024150 -0.008882 -0.007886 0.000000 0.001222 0.000000
# 2 -0.008882 0.016521 -0.002285 0.000000 -0.003310 0.000000
# 3 -0.007886 -0.002285 0.015895 0.000000 0.004392 0.000000
# 4 0.000000 0.000000 0.000000 0.044367 0.000000 -0.002348
# 5 0.001222 -0.003310 0.004392 0.000000 0.045386 0.000000
# 6 0.000000 0.000000 0.000000 -0.002348 0.000000 0.045141
#
#
# Mechanical properties :
#
#
# Convention : Reuss Voigt Hill
#
# Bulk Modulus (GPa) = 54.17235 54.72184 54.44710
# Shear Modulus (GPa) = 21.21176 22.31780 21.76478
#
# Velocity S-wave (km/s) = 3.66387 3.75818 3.71132
# Velocity P-wave (km/s) = 7.22369 7.31182 7.26789
#
# Compressibility (1/GPa) = 0.01845960
#
# Stress axis : x y z
#
# Youngs Moduli (GPa) = 41.40814 60.52989 62.91409
#
# Poissons Ratio (x) = 0.53765 0.49613
# Poissons Ratio (y) = 0.36780 0.14374
# Poissons Ratio (z) = 0.32654 0.13829
#
# Static dielectric constant tensor:
#      x y z
#    x 2.739940 0.000000 -0.109600 
#    y 0.000000 2.987870 0.000000 
#    z -0.109600 0.000000 3.122420 
# 
# 
# High freq. dielectric constant tensor:
#      x y z
#    x 1.574700 0.000000 -0.001770 
#    y 0.000000 1.613600 0.000000 
#    z -0.001770 0.000000 1.597560 
# 
# From -- ./inp_files/319375.got.cif
#   From: 2010.06.25/outbox.cif.g09.slc.cpg/sg12_160_cif.got.tgz:319375.got - 2010.06.28 00:19:55.
