data_PCOD8113589
_publ_section_title
;
Structure prediction by ZEFSAII (Michael W. Deem and Ramdas Pophale) SiO2 
 PCOD8113589
Probable space group: C 2/M
;
_chemical_formula_sum "Si O2"
_cell_formula_units_Z 56
_cell_length_a 21.980239
_cell_length_b 13.976825
_cell_length_c 12.094561
_cell_angle_alpha 90.000000
_cell_angle_beta 56.436210
_cell_angle_gamma 90.000000
_cell_volume 3096.115938
_symmetry_space_group_name_H-M "C 2/M"
_symmetry_group_IT_number 12
_symmetry_cell_setting 'monoclinic'
loop_
_space_group_symop_operation_xyz
x,y,z
-x,y,-z
-x,-y,-z
x,-y,z
1/2+x,1/2+y,z
1/2-x,1/2+y,-z
1/2-x,1/2-y,-z
1/2+x,1/2-y,z
loop_
_atom_site_type_symbol
_atom_site_label
_atom_site_fract_x
_atom_site_fract_y
_atom_site_fract_z
Si Si1 0.852544 0.893612 0.723906
Si Si2 0.495245 0.113577 0.338298
Si Si3 0.456174 0.798031 0.933913
Si Si4 0.192853 0.389466 0.953563
Si Si5 0.396105 0.606690 0.934114
Si Si6 0.735219 0.889402 0.152431
Si Si7 0.609471 0.198233 0.393036
O O1 0.765500 0.875063 0.807715
O O2 0.879780 0.885824 0.821366
O O3 0.893983 0.814178 0.608649
O O4 0.870078 0.000000 0.659400
O O5 0.504780 0.142923 0.202179
O O6 0.563319 0.150861 0.340606
O O7 0.421130 0.162670 0.458788
O O8 0.489076 0.000000 0.355681
O O9 0.456792 0.684305 0.907328
O O10 0.500000 0.820351 0.000000
O O11 0.372806 0.830841 0.034807
O O12 0.170415 0.500000 0.981576
O O13 0.206612 0.349776 0.063310
O O14 0.425129 0.500000 0.933337
O O15 0.321610 0.627639 0.076617
O O16 0.693411 0.833736 0.292301
O O17 0.715926 0.000000 0.181599
#
# Coordination Sequence:
#
# PCOD8113589 Si02
#       7
#     8   8   8   8   8   8   8
#     4   9  17  31  55  82 106 130 165 216 268 303
#     4  11  23  35  48  74 107 140 173 204 252 315
#     4  12  23  35  52  73 104 147 179 205 246 304
#     4   9  17  30  50  79 106 129 166 215 261 303
#     4   9  18  33  52  79 105 130 174 222 258 295
#     4   9  15  27  54  81 101 127 162 216 273 306
#     4  11  18  31  53  76 109 136 160 209 264 310
#
# _framework density 18.087178000000002
#
# number of rings (size 3 to 8) (size 9 to 14) (size 15 to 20)
#    0.000    2.000    2.857    4.714    0.000    3.714 
#    0.000    2.143    0.000    3.429    0.000    4.000 
#    0.000    0.000    0.000    0.000    0.000    0.000 
#
# Total GULP energy -347140.524882 kJ/mol
# GULP energy per Si atom -12397.875889 kJ/mol
# Density = 1.804601 g / cm^3
# Si number density = 18.087178 Si / 1000 Ang^3
#
#
#
# Elastic Constant Matrix: (Units=GPa)
#
#
# Indices 1 2 3 4 5 6 
#
# 1 29.3059 25.6962 27.8963 0.0000 9.4711 0.0000
# 2 25.6962 137.1357 62.3275 0.0000 -11.1661 0.0000
# 3 27.8963 62.3275 66.4752 0.0000 -1.8774 0.0000
# 4 0.0000 0.0000 0.0000 26.9262 0.0000 -9.4984
# 5 9.4711 -11.1661 -1.8774 0.0000 17.5937 0.0000
# 6 0.0000 0.0000 0.0000 -9.4984 0.0000 16.2880
#
#
#
# Elastic Compliance Matrix: (Units=1/GPa)
#
#
# Indices 1 2 3 4 5 6 
#
# 1 0.088858 -0.006082 -0.033146 0.000000 -0.055231 0.000000
# 2 -0.006082 0.013993 -0.010255 0.000000 0.011061 0.000000
# 3 -0.033146 -0.010255 0.039006 0.000000 0.015497 0.000000
# 4 0.000000 0.000000 0.000000 0.046757 0.000000 0.027267
# 5 -0.055231 0.011061 0.015497 0.000000 0.095244 0.000000
# 6 0.000000 0.000000 0.000000 0.027267 0.000000 0.077295
#
#
# Mechanical properties :
#
#
# Convention : Reuss Voigt Hill
#
# Bulk Modulus (GPa) = 23.31582 51.63963 37.47773
# Shear Modulus (GPa) = 10.53922 19.96137 15.25029
#
# Velocity S-wave (km/s) = 2.41652 3.32568 2.90686
# Velocity P-wave (km/s) = 4.55026 6.58478 5.65969
#
# Compressibility (1/GPa) = 0.04288933
#
# Stress axis : x y z
#
# Youngs Moduli (GPa) = 11.25396 71.46208 25.63687
#
# Poissons Ratio (x) = 0.43465 0.84977
# Poissons Ratio (y) = 0.06845 0.26292
# Poissons Ratio (z) = 0.37303 0.73288
#
# Static dielectric constant tensor:
#      x y z
#    x 2.943650 0.000000 -0.299700 
#    y 0.000000 3.685840 0.000000 
#    z -0.299700 0.000000 3.204160 
# 
# 
# High freq. dielectric constant tensor:
#      x y z
#    x 1.650890 0.000000 -0.032840 
#    y 0.000000 1.727350 0.000000 
#    z -0.032840 0.000000 1.672180 
# 
# From -- ./inp_files/155986.got.cif
#   From: 2010.06.25/outbox.cif.g09.slc.cpg/sg12_78_cif.got.tgz:155986.got - 2010.06.28 00:19:55.
