data_PCOD8113268
_publ_section_title
;
Structure prediction by ZEFSAII (Michael W. Deem and Ramdas Pophale) SiO2 
 PCOD8113268
Probable space group: C 2/M
;
_chemical_formula_sum "Si O2"
_cell_formula_units_Z 28
_cell_length_a 11.845834
_cell_length_b 17.593390
_cell_length_c 9.202190
_cell_angle_alpha 90.000000
_cell_angle_beta 136.616975
_cell_angle_gamma 90.000000
_cell_volume 1317.292805
_symmetry_space_group_name_H-M "C 2/M"
_symmetry_group_IT_number 12
_symmetry_cell_setting 'monoclinic'
loop_
_space_group_symop_operation_xyz
x,y,z
-x,y,-z
-x,-y,-z
x,-y,z
1/2+x,1/2+y,z
1/2-x,1/2+y,-z
1/2-x,1/2-y,-z
1/2+x,1/2-y,z
loop_
_atom_site_type_symbol
_atom_site_label
_atom_site_fract_x
_atom_site_fract_y
_atom_site_fract_z
Si Si1 0.964657 0.000000 0.718648
Si Si2 0.239794 0.000000 0.736826
Si Si3 0.658587 0.196532 0.741042
Si Si4 0.000000 0.120007 0.000000
Si Si5 0.347388 0.839773 0.940891
O O1 0.991845 0.927060 0.843680
O O2 0.792460 0.000000 0.468709
O O3 0.085562 0.000000 0.697394
O O4 0.337461 0.076341 0.865168
O O5 0.500000 0.174817 0.500000
O O6 0.682288 0.288315 0.767651
O O7 0.615690 0.158228 0.853924
O O8 0.830557 0.166041 0.839667
O O9 0.500000 0.800018 0.000000
#
# Coordination Sequence:
#
# PCOD8113268 Si02
#       5
#     4   4   8   4   8
#     4  10  24  40  72  93 135 179 221 268 339 387
#     4  11  23  42  65 100 133 179 218 274 332 399
#     4  11  26  44  71  99 132 179 222 273 335 389
#     4  11  22  50  66 101 134 172 226 279 316 408
#     4  11  25  45  65 101 137 170 227 276 322 406
#
# _framework density 21.255714999999999
#
# number of rings (size 3 to 8) (size 9 to 14) (size 15 to 20)
#    0.000    1.143    4.286    0.429    8.000    1.143 
#    0.000    3.571    0.000    0.000    0.000    0.000 
#    0.000    0.000    0.000    0.000    0.000    0.000 
#
# Total GULP energy -173478.784463 kJ/mol
# GULP energy per Si atom -12391.341747 kJ/mol
# Density = 2.120734 g / cm^3
# Si number density = 21.255715 Si / 1000 Ang^3
#
#
#
# Elastic Constant Matrix: (Units=GPa)
#
#
# Indices 1 2 3 4 5 6 
#
# 1 97.8667 16.6241 62.5946 0.0000 7.4136 0.0000
# 2 16.6241 104.2842 64.1125 0.0000 4.5630 0.0000
# 3 62.5946 64.1125 189.6017 0.0000 0.7018 0.0000
# 4 0.0000 0.0000 0.0000 21.9669 0.0000 2.3829
# 5 7.4136 4.5630 0.7018 0.0000 35.2909 0.0000
# 6 0.0000 0.0000 0.0000 2.3829 0.0000 32.1792
#
#
#
# Elastic Compliance Matrix: (Units=1/GPa)
#
#
# Indices 1 2 3 4 5 6 
#
# 1 0.013266 0.000876 -0.004665 0.000000 -0.002807 0.000000
# 2 0.000876 0.012242 -0.004423 0.000000 -0.001679 0.000000
# 3 -0.004665 -0.004423 0.008305 0.000000 0.001387 0.000000
# 4 0.000000 0.000000 0.000000 0.045892 0.000000 -0.003398
# 5 -0.002807 -0.001679 0.001387 0.000000 0.029115 0.000000
# 6 0.000000 0.000000 0.000000 -0.003398 0.000000 0.031328
#
#
# Mechanical properties :
#
#
# Convention : Reuss Voigt Hill
#
# Bulk Modulus (GPa) = 57.50744 75.37944 66.44344
# Shear Modulus (GPa) = 30.79448 34.44882 32.62165
#
# Velocity S-wave (km/s) = 3.81039 4.03014 3.92181
# Velocity P-wave (km/s) = 6.81708 7.56282 7.19961
#
# Compressibility (1/GPa) = 0.01738905
#
# Stress axis : x y z
#
# Youngs Moduli (GPa) = 75.38198 81.68649 120.41200
#
# Poissons Ratio (x) = -0.07159 0.56178
# Poissons Ratio (y) = -0.06606 0.53254
# Poissons Ratio (z) = 0.35169 0.36127
#
# Static dielectric constant tensor:
#      x y z
#    x 3.859930 0.000000 -0.048300 
#    y 0.000000 3.935120 0.000000 
#    z -0.048300 0.000000 3.939740 
# 
# 
# High freq. dielectric constant tensor:
#      x y z
#    x 1.846050 0.000000 -0.006480 
#    y 0.000000 1.838220 0.000000 
#    z -0.006480 0.000000 1.830900 
# 
# From -- ./inp_files/48174.got.cif
#   From: 2010.06.25/outbox.cif.g09.slc.cpg/sg12_25_cif.got.tgz:48174.got - 2010.06.28 00:19:55.
