data_PCOD8113026
_publ_section_title
;
Structure prediction by ZEFSAII (Michael W. Deem and Ramdas Pophale) SiO2 
 PCOD8113026
Probable space group: C 2/M
;
_chemical_formula_sum "Si O2"
_cell_formula_units_Z 40
_cell_length_a 29.752029
_cell_length_b 8.596321
_cell_length_c 14.915563
_cell_angle_alpha 90.000000
_cell_angle_beta 149.700140
_cell_angle_gamma 90.000000
_cell_volume 1924.651035
_symmetry_space_group_name_H-M "C 2/M"
_symmetry_group_IT_number 12
_symmetry_cell_setting 'monoclinic'
loop_
_space_group_symop_operation_xyz
x,y,z
-x,y,-z
-x,-y,-z
x,-y,z
1/2+x,1/2+y,z
1/2-x,1/2+y,-z
1/2-x,1/2-y,-z
1/2+x,1/2-y,z
loop_
_atom_site_type_symbol
_atom_site_label
_atom_site_fract_x
_atom_site_fract_y
_atom_site_fract_z
Si Si1 0.958242 0.178288 0.201616
Si Si2 0.236317 0.182646 0.378647
Si Si3 0.276810 0.181793 0.951806
Si Si4 0.054253 0.316943 0.006720
Si Si5 0.347020 0.319288 0.421746
O O1 0.047348 0.202242 0.414631
O O2 0.927078 0.000000 0.148525
O O3 0.878664 0.279809 0.104288
O O4 0.983762 0.228645 0.144910
O O5 0.250000 0.250000 0.500000
O O6 0.156823 0.273340 0.193613
O O7 0.322633 0.217473 0.467071
O O8 0.217135 0.000000 0.351215
O O9 0.208820 0.245535 0.759098
O O10 0.265536 0.000000 0.938848
O O11 0.250000 0.250000 0.000000
O O12 0.043596 0.500000 0.973819
O O13 0.000000 0.259363 0.000000
O O14 0.324909 0.500000 0.402631
#
# Coordination Sequence:
#
# PCOD8113026 Si02
#       5
#     8   8   8   8   8
#     4  11  23  41  66  96 128 168 216 267 324 387
#     4  12  24  38  61  91 128 171 217 266 318 382
#     4  11  24  44  69  95 130 172 216 273 329 386
#     4  11  23  39  60  90 129 171 215 264 321 383
#     4  10  23  43  66  93 131 171 212 265 326 386
#
# _framework density 20.782986999999999
#
# number of rings (size 3 to 8) (size 9 to 14) (size 15 to 20)
#    0.000    1.000    2.000    4.800    0.000    8.000 
#    0.000    4.000    0.000    0.000    0.000    0.000 
#    0.000    0.000    0.000    0.000    0.000    0.000 
#
# Total GULP energy -248104.419764 kJ/mol
# GULP energy per Si atom -12405.220988 kJ/mol
# Density = 2.073568 g / cm^3
# Si number density = 20.782987 Si / 1000 Ang^3
#
#
#
# Elastic Constant Matrix: (Units=GPa)
#
#
# Indices 1 2 3 4 5 6 
#
# 1 128.3367 20.2527 50.4911 0.0000 -11.3526 0.0000
# 2 20.2527 43.6273 22.0518 0.0000 -8.3194 0.0000
# 3 50.4911 22.0518 125.9332 0.0000 0.5073 0.0000
# 4 0.0000 0.0000 0.0000 29.4882 0.0000 0.5945
# 5 -11.3526 -8.3194 0.5073 0.0000 32.0586 0.0000
# 6 0.0000 0.0000 0.0000 0.5945 0.0000 39.7790
#
#
#
# Elastic Compliance Matrix: (Units=1/GPa)
#
#
# Indices 1 2 3 4 5 6 
#
# 1 0.009798 -0.002186 -0.003558 0.000000 0.002959 0.000000
# 2 -0.002186 0.027111 -0.003896 0.000000 0.006323 0.000000
# 3 -0.003558 -0.003896 0.010059 0.000000 -0.002430 0.000000
# 4 0.000000 0.000000 0.000000 0.033922 0.000000 -0.000507
# 5 0.002959 0.006323 -0.002430 0.000000 0.033920 0.000000
# 6 0.000000 0.000000 0.000000 -0.000507 0.000000 0.025146
#
#
# Mechanical properties :
#
#
# Convention : Reuss Voigt Hill
#
# Bulk Modulus (GPa) = 36.11578 53.72093 44.91835
# Shear Modulus (GPa) = 29.67931 33.93860 31.80896
#
# Velocity S-wave (km/s) = 3.78307 4.04542 3.91644
# Velocity P-wave (km/s) = 6.04131 6.90834 6.48932
#
# Compressibility (1/GPa) = 0.02768873
#
# Stress axis : x y z
#
# Youngs Moduli (GPa) = 102.05748 36.88472 99.41180
#
# Poissons Ratio (x) = 0.08064 0.35367
# Poissons Ratio (y) = 0.22311 0.38734
# Poissons Ratio (z) = 0.36308 0.14372
#
# Static dielectric constant tensor:
#      x y z
#    x 3.722550 0.000000 0.091240 
#    y 0.000000 3.740590 0.000000 
#    z 0.091240 0.000000 3.324420 
# 
# 
# High freq. dielectric constant tensor:
#      x y z
#    x 1.811340 0.000000 0.002810 
#    y 0.000000 1.817120 0.000000 
#    z 0.002810 0.000000 1.826770 
# 
# From -- ./inp_files/211197.got.cif
#   From: 2010.06.25/outbox.cif.g09.slc.cpg/sg12_106_cif.got.tgz:211197.got - 2010.06.28 00:19:55.
