data_PCOD8113544
_publ_section_title
;
Structure prediction by ZEFSAII (Michael W. Deem and Ramdas Pophale) SiO2 
 PCOD8113544
Probable space group: C 2/M
;
_chemical_formula_sum "Si O2"
_cell_formula_units_Z 32
_cell_length_a 18.679374
_cell_length_b 15.144502
_cell_length_c 11.893477
_cell_angle_alpha 90.000000
_cell_angle_beta 154.430062
_cell_angle_gamma 90.000000
_cell_volume 1452.179095
_symmetry_space_group_name_H-M "C 2/M"
_symmetry_group_IT_number 12
_symmetry_cell_setting 'monoclinic'
loop_
_space_group_symop_operation_xyz
x,y,z
-x,y,-z
-x,-y,-z
x,-y,z
1/2+x,1/2+y,z
1/2-x,1/2+y,-z
1/2-x,1/2-y,-z
1/2+x,1/2-y,z
loop_
_atom_site_type_symbol
_atom_site_label
_atom_site_fract_x
_atom_site_fract_y
_atom_site_fract_z
Si Si1 0.044944 0.401372 0.235715
Si Si2 0.255287 0.643218 0.332886
Si Si3 0.488003 0.500000 0.349528
Si Si4 0.299348 0.000000 0.223132
Si Si5 0.876723 0.674250 0.426908
O O1 0.108914 0.500000 0.352154
O O2 0.183482 0.351108 0.357409
O O3 0.016771 0.349004 0.311537
O O4 0.871705 0.409403 0.925760
O O5 0.426635 0.588985 0.576659
O O6 0.267925 0.740480 0.298847
O O7 0.500000 0.500000 0.500000
O O8 0.297733 0.500000 0.034111
O O9 0.500000 0.000000 0.500000
O O10 0.254927 0.908854 0.225262
O O11 0.000000 0.696399 0.500000
#
# Coordination Sequence:
#
# PCOD8113544 Si02
#       5
#     8   8   4   4   8
#     4  11  22  46  71  94 142 187 228 278 348 412
#     4  11  24  43  67 104 136 180 233 283 339 408
#     4  12  26  42  72 106 139 175 236 289 334 412
#     4  10  26  47  64  99 143 181 223 280 357 405
#     4  11  25  43  69  98 138 184 228 283 348 409
#
# _framework density 22.035851000000001
#
# number of rings (size 3 to 8) (size 9 to 14) (size 15 to 20)
#    0.000    1.000    3.750    2.250   10.500    1.000 
#    0.000    1.250    0.000    0.000    0.000    0.000 
#    0.000    0.000    0.000    0.000    0.000    0.000 
#
# Total GULP energy -198382.118568 kJ/mol
# GULP energy per Si atom -12398.882411 kJ/mol
# Density = 2.198570 g / cm^3
# Si number density = 22.035851 Si / 1000 Ang^3
#
#
#
# Elastic Constant Matrix: (Units=GPa)
#
#
# Indices 1 2 3 4 5 6 
#
# 1 148.2311 48.3375 44.3806 0.0000 -12.6733 0.0000
# 2 48.3375 169.7604 23.1416 0.0000 9.2123 0.0000
# 3 44.3806 23.1416 113.1282 0.0000 -9.2718 0.0000
# 4 0.0000 0.0000 0.0000 23.4913 0.0000 0.1052
# 5 -12.6733 9.2123 -9.2718 0.0000 31.2551 0.0000
# 6 0.0000 0.0000 0.0000 0.1052 0.0000 38.4623
#
#
#
# Elastic Compliance Matrix: (Units=1/GPa)
#
#
# Indices 1 2 3 4 5 6 
#
# 1 0.008555 -0.002261 -0.002618 0.000000 0.003359 0.000000
# 2 -0.002261 0.006810 -0.000764 0.000000 -0.003151 0.000000
# 3 -0.002618 -0.000764 0.010202 0.000000 0.002190 0.000000
# 4 0.000000 0.000000 0.000000 0.042569 0.000000 -0.000116
# 5 0.003359 -0.003151 0.002190 0.000000 0.034935 0.000000
# 6 0.000000 0.000000 0.000000 -0.000116 0.000000 0.026000
#
#
# Mechanical properties :
#
#
# Convention : Reuss Voigt Hill
#
# Bulk Modulus (GPa) = 70.02952 73.64878 71.83915
# Shear Modulus (GPa) = 34.45478 39.65909 37.05694
#
# Velocity S-wave (km/s) = 3.95850 4.24695 4.10526
# Velocity P-wave (km/s) = 7.26235 7.58575 7.42581
#
# Compressibility (1/GPa) = 0.01427969
#
# Stress axis : x y z
#
# Youngs Moduli (GPa) = 116.89595 146.85048 98.01548
#
# Poissons Ratio (x) = 0.33206 0.25662
# Poissons Ratio (y) = 0.26432 0.07490
# Poissons Ratio (z) = 0.30606 0.11221
#
# Static dielectric constant tensor:
#      x y z
#    x 4.026850 0.000000 -0.124500 
#    y 0.000000 4.283130 0.000000 
#    z -0.124500 0.000000 3.708640 
# 
# 
# High freq. dielectric constant tensor:
#      x y z
#    x 1.870040 0.000000 -0.016710 
#    y 0.000000 1.884370 0.000000 
#    z -0.016710 0.000000 1.842390 
# 
# From -- ./inp_files/129490.got.cif
#   From: 2010.06.25/outbox.cif.g09.slc.cpg/sg12_65_cif.got.tgz:129490.got - 2010.06.28 00:19:55.
