data_PCOD8113980
_publ_section_title
;
Structure prediction by ZEFSAII (Michael W. Deem and Ramdas Pophale) SiO2 
 PCOD8113980
Probable space group: C 2/M
;
_chemical_formula_sum "Si O2"
_cell_formula_units_Z 56
_cell_length_a 12.938245
_cell_length_b 18.751524
_cell_length_c 11.652021
_cell_angle_alpha 90.000000
_cell_angle_beta 110.583654
_cell_angle_gamma 90.000000
_cell_volume 2646.447131
_symmetry_space_group_name_H-M "C 2/M"
_symmetry_group_IT_number 12
_symmetry_cell_setting 'monoclinic'
loop_
_space_group_symop_operation_xyz
x,y,z
-x,y,-z
-x,-y,-z
x,-y,z
1/2+x,1/2+y,z
1/2-x,1/2+y,-z
1/2-x,1/2-y,-z
1/2+x,1/2-y,z
loop_
_atom_site_type_symbol
_atom_site_label
_atom_site_fract_x
_atom_site_fract_y
_atom_site_fract_z
Si Si1 0.736837 0.919285 0.233916
Si Si2 0.731109 0.686605 0.342100
Si Si3 0.512718 0.267350 0.136154
Si Si4 0.868153 0.177137 0.451644
Si Si5 0.502269 0.896236 0.867787
Si Si6 0.279999 0.921103 0.174296
Si Si7 0.203005 0.172492 0.948666
O O1 0.824279 0.886920 0.356083
O O2 0.612958 0.919500 0.236914
O O3 0.723706 0.869114 0.115950
O O4 0.774658 0.000000 0.218131
O O5 0.634340 0.721304 0.229216
O O6 0.825622 0.745848 0.393427
O O7 0.678524 0.660918 0.440399
O O8 0.785390 0.619336 0.298867
O O9 0.475470 0.186871 0.139337
O O10 0.418254 0.317266 0.157394
O O11 0.500000 0.288930 0.000000
O O12 0.000000 0.178107 0.500000
O O13 0.600117 0.932547 0.835489
O O14 0.500000 0.920988 0.000000
O O15 0.230038 0.000000 0.175349
O O16 0.198757 0.876414 0.060213
O O17 0.250000 0.250000 0.000000
#
# Coordination Sequence:
#
# PCOD8113980 Si02
#       7
#     8   8   8   8   8   8   8
#     4  12  25  42  66 100 138 178 228 281 343 407
#     4  11  25  45  70 101 134 175 230 289 341 402
#     4  11  20  38  68 103 128 169 224 278 341 391
#     4  11  26  47  73  97 127 182 243 285 329 405
#     4  11  22  38  68 102 142 176 220 279 337 414
#     4  12  25  40  64 102 146 182 215 274 357 413
#     4  12  21  38  66  98 137 177 224 273 328 405
#
# _framework density 21.160446
#
# number of rings (size 3 to 8) (size 9 to 14) (size 15 to 20)
#    0.000    0.571    5.714    3.429    2.000    1.429 
#    0.000    3.571    0.000    2.143    0.000    0.000 
#    0.000    0.000    0.000    0.000    0.000    0.000 
#
# Total GULP energy -347166.424769 kJ/mol
# GULP energy per Si atom -12398.800885 kJ/mol
# Density = 2.111228 g / cm^3
# Si number density = 21.160446 Si / 1000 Ang^3
#
#
#
# Elastic Constant Matrix: (Units=GPa)
#
#
# Indices 1 2 3 4 5 6 
#
# 1 115.3233 50.3315 43.4518 0.0000 15.2383 0.0000
# 2 50.3315 158.4495 59.7591 0.0000 -10.2425 0.0000
# 3 43.4518 59.7591 109.9014 0.0000 0.9502 0.0000
# 4 0.0000 0.0000 0.0000 4.1422 0.0000 1.8678
# 5 15.2383 -10.2425 0.9502 0.0000 41.1337 0.0000
# 6 0.0000 0.0000 0.0000 1.8678 0.0000 14.7987
#
#
#
# Elastic Compliance Matrix: (Units=1/GPa)
#
#
# Indices 1 2 3 4 5 6 
#
# 1 0.011741 -0.002917 -0.003013 0.000000 -0.005006 0.000000
# 2 -0.002917 0.008845 -0.003686 0.000000 0.003368 0.000000
# 3 -0.003013 -0.003686 0.012295 0.000000 -0.000086 0.000000
# 4 0.000000 0.000000 0.000000 0.255987 0.000000 -0.032308
# 5 -0.005006 0.003368 -0.000086 0.000000 0.027006 0.000000
# 6 0.000000 0.000000 0.000000 -0.032308 0.000000 0.071651
#
#
# Mechanical properties :
#
#
# Convention : Reuss Voigt Hill
#
# Bulk Modulus (GPa) = 73.25447 76.75100 75.00273
# Shear Modulus (GPa) = 12.15640 27.35705 19.75672
#
# Velocity S-wave (km/s) = 2.39945 3.59951 3.05890
# Velocity P-wave (km/s) = 6.50924 7.32291 6.92803
#
# Compressibility (1/GPa) = 0.01365104
#
# Stress axis : x y z
#
# Youngs Moduli (GPa) = 85.17199 113.05217 81.33397
#
# Poissons Ratio (x) = 0.32976 0.24503
# Poissons Ratio (y) = 0.24844 0.29977
# Poissons Ratio (z) = 0.25659 0.41667
#
# Static dielectric constant tensor:
#      x y z
#    x 4.282960 0.000000 0.108920 
#    y 0.000000 3.798500 0.000000 
#    z 0.108920 0.000000 3.918500 
# 
# 
# High freq. dielectric constant tensor:
#      x y z
#    x 1.838790 0.000000 0.003640 
#    y 0.000000 1.829330 0.000000 
#    z 0.003640 0.000000 1.816480 
# 
# From -- ./inp_files/145673.got.cif
#   From: 2010.06.25/outbox.cif.g09.slc.cpg/sg12_73_cif.got.tgz:145673.got - 2010.06.28 00:19:55.
