data_PCOD8113184
_publ_section_title
;
Structure prediction by ZEFSAII (Michael W. Deem and Ramdas Pophale) SiO2 
 PCOD8113184
Probable space group: C 2/M
;
_chemical_formula_sum "Si O2"
_cell_formula_units_Z 40
_cell_length_a 8.868375
_cell_length_b 13.372038
_cell_length_c 14.596967
_cell_angle_alpha 90.000000
_cell_angle_beta 97.800223
_cell_angle_gamma 90.000000
_cell_volume 1715.012067
_symmetry_space_group_name_H-M "C 2/M"
_symmetry_group_IT_number 12
_symmetry_cell_setting 'monoclinic'
loop_
_space_group_symop_operation_xyz
x,y,z
-x,y,-z
-x,-y,-z
x,-y,z
1/2+x,1/2+y,z
1/2-x,1/2+y,-z
1/2-x,1/2-y,-z
1/2+x,1/2-y,z
loop_
_atom_site_type_symbol
_atom_site_label
_atom_site_fract_x
_atom_site_fract_y
_atom_site_fract_z
Si Si1 0.562365 0.795603 0.912183
Si Si2 0.607118 0.785049 0.432722
Si Si3 0.002978 0.888201 0.700804
Si Si4 0.158722 0.613460 0.251432
Si Si5 0.881744 0.114751 0.881301
O O1 0.456810 0.820255 0.816471
O O2 0.736253 0.825706 0.909707
O O3 0.535959 0.675030 0.923352
O O4 0.500000 0.849349 0.000000
O O5 0.500000 0.835875 0.500000
O O6 0.750000 0.750000 0.500000
O O7 0.530530 0.686609 0.383538
O O8 0.640527 0.866012 0.357850
O O9 0.874133 0.884066 0.769523
O O10 0.166906 0.862071 0.760738
O O11 0.011319 0.000000 0.659710
O O12 0.114303 0.500000 0.227092
O O13 0.887381 0.000000 0.917494
#
# Coordination Sequence:
#
# PCOD8113184 Si02
#       5
#     8   8   8   8   8
#     4  12  26  47  75 107 147 192 241 300 363 426
#     4  12  25  42  69 101 135 178 230 294 360 433
#     4  10  23  45  71  98 136 186 234 287 356 432
#     4  11  25  46  71 100 141 188 238 297 364 428
#     4  11  25  45  73 106 142 191 241 295 360 427
#
# _framework density 23.323450999999999
#
# number of rings (size 3 to 8) (size 9 to 14) (size 15 to 20)
#    0.000    0.800    4.000    2.400    2.800    3.600 
#    0.000    3.000    0.000    0.000    0.000    0.000 
#    0.000    0.000    0.000    0.000    0.000    0.000 
#
# Total GULP energy -247935.912757 kJ/mol
# GULP energy per Si atom -12396.795638 kJ/mol
# Density = 2.327037 g / cm^3
# Si number density = 23.323451 Si / 1000 Ang^3
#
#
#
# Elastic Constant Matrix: (Units=GPa)
#
#
# Indices 1 2 3 4 5 6 
#
# 1 123.5726 51.8802 28.8554 0.0000 -19.6449 0.0000
# 2 51.8802 129.0969 1.2966 0.0000 -2.8020 0.0000
# 3 28.8554 1.2966 94.1153 0.0000 -19.7840 0.0000
# 4 0.0000 0.0000 0.0000 16.0965 0.0000 -7.0451
# 5 -19.6449 -2.8020 -19.7840 0.0000 47.8495 0.0000
# 6 0.0000 0.0000 0.0000 -7.0451 0.0000 35.0753
#
#
#
# Elastic Compliance Matrix: (Units=1/GPa)
#
#
# Indices 1 2 3 4 5 6 
#
# 1 0.011041 -0.004341 -0.002657 0.000000 0.003180 0.000000
# 2 -0.004341 0.009463 0.001032 0.000000 -0.000801 0.000000
# 3 -0.002657 0.001032 0.012276 0.000000 0.004045 0.000000
# 4 0.000000 0.000000 0.000000 0.068113 0.000000 0.013681
# 5 0.003180 -0.000801 0.004045 0.000000 0.023830 0.000000
# 6 0.000000 0.000000 0.000000 0.013681 0.000000 0.031258
#
#
# Mechanical properties :
#
#
# Convention : Reuss Voigt Hill
#
# Bulk Modulus (GPa) = 47.96599 56.76103 52.36351
# Shear Modulus (GPa) = 28.59383 37.45442 33.02412
#
# Velocity S-wave (km/s) = 3.50518 4.01168 3.76695
# Velocity P-wave (km/s) = 6.08210 6.77107 6.43581
#
# Compressibility (1/GPa) = 0.02084810
#
# Stress axis : x y z
#
# Youngs Moduli (GPa) = 90.57118 105.67448 81.45988
#
# Poissons Ratio (x) = 0.45877 0.21642
# Poissons Ratio (y) = 0.39320 -0.08408
# Poissons Ratio (z) = 0.24063 -0.10908
#
# Static dielectric constant tensor:
#      x y z
#    x 3.669110 0.000000 0.068600 
#    y 0.000000 4.346470 0.000000 
#    z 0.068600 0.000000 4.095230 
# 
# 
# High freq. dielectric constant tensor:
#      x y z
#    x 1.922490 0.000000 -0.012160 
#    y 0.000000 1.921090 0.000000 
#    z -0.012160 0.000000 1.938190 
# 
# From -- ./inp_files/194531.got.cif
#   From: 2010.06.25/outbox.cif.g09.slc.cpg/sg12_98_cif.got.tgz:194531.got - 2010.06.28 00:19:55.
