data_PCOD8113337
_publ_section_title
;
Structure prediction by ZEFSAII (Michael W. Deem and Ramdas Pophale) SiO2 
 PCOD8113337
Probable space group: C 2/M
;
_chemical_formula_sum "Si O2"
_cell_formula_units_Z 48
_cell_length_a 15.803020
_cell_length_b 14.155364
_cell_length_c 15.892968
_cell_angle_alpha 90.000000
_cell_angle_beta 40.176748
_cell_angle_gamma 90.000000
_cell_volume 2293.640095
_symmetry_space_group_name_H-M "C 2/M"
_symmetry_group_IT_number 12
_symmetry_cell_setting 'monoclinic'
loop_
_space_group_symop_operation_xyz
x,y,z
-x,y,-z
-x,-y,-z
x,-y,z
1/2+x,1/2+y,z
1/2-x,1/2+y,-z
1/2-x,1/2-y,-z
1/2+x,1/2-y,z
loop_
_atom_site_type_symbol
_atom_site_label
_atom_site_fract_x
_atom_site_fract_y
_atom_site_fract_z
Si Si1 0.267876 0.639658 0.486580
Si Si2 0.499153 0.104934 0.764807
Si Si3 0.315394 0.213479 0.784405
Si Si4 0.044343 0.752514 0.058907
Si Si5 0.179781 0.106500 0.740137
Si Si6 0.034206 0.893578 0.379520
O O1 0.250000 0.750000 0.500000
O O2 0.257237 0.601842 0.399809
O O3 0.405907 0.609631 0.419688
O O4 0.153796 0.594885 0.629799
O O5 0.434548 0.156289 0.734221
O O6 0.473358 0.162580 0.868872
O O7 0.440091 0.000000 0.821289
O O8 0.278284 0.163087 0.725533
O O9 0.356382 0.321692 0.737238
O O10 0.194970 0.213884 0.941655
O O11 0.960376 0.840934 0.156649
O O12 0.000000 0.720919 0.000000
O O13 0.159006 0.000000 0.790031
O O14 0.000000 0.863327 0.500000
O O15 0.092320 0.000000 0.332477
#
# Coordination Sequence:
#
# PCOD8113337 Si02
#       6
#     8   8   8   8   8   8
#     4  12  22  43  68  93 130 167 208 266 321 375
#     4  12  25  41  65  95 129 168 210 263 318 374
#     4  11  24  42  65  96 132 165 213 261 314 379
#     4  10  24  43  64  92 126 171 215 259 315 375
#     4  11  23  42  69  97 128 168 211 262 319 379
#     4  11  24  41  65  93 126 170 214 260 316 378
#
# _framework density 20.927433000000001
#
# number of rings (size 3 to 8) (size 9 to 14) (size 15 to 20)
#    0.000    0.833    3.333    3.500    2.333    4.667 
#    0.000    1.667    0.000    0.000    0.000    0.000 
#    0.000    0.000    0.000    0.000    0.000    0.000 
#
# Total GULP energy -297728.500482 kJ/mol
# GULP energy per Si atom -12405.354187 kJ/mol
# Density = 2.087980 g / cm^3
# Si number density = 20.927433 Si / 1000 Ang^3
#
#
#
# Elastic Constant Matrix: (Units=GPa)
#
#
# Indices 1 2 3 4 5 6 
#
# 1 89.3079 35.7723 33.4796 0.0000 11.6947 0.0000
# 2 35.7723 163.4610 28.3783 0.0000 -1.4726 0.0000
# 3 33.4796 28.3783 78.3999 0.0000 4.8908 0.0000
# 4 0.0000 0.0000 0.0000 7.7472 0.0000 -1.1736
# 5 11.6947 -1.4726 4.8908 0.0000 33.7616 0.0000
# 6 0.0000 0.0000 0.0000 -1.1736 0.0000 20.4303
#
#
#
# Elastic Compliance Matrix: (Units=1/GPa)
#
#
# Indices 1 2 3 4 5 6 
#
# 1 0.014641 -0.002355 -0.005124 0.000000 -0.004432 0.000000
# 2 -0.002355 0.006920 -0.001583 0.000000 0.001347 0.000000
# 3 -0.005124 -0.001583 0.015550 0.000000 -0.000547 0.000000
# 4 0.000000 0.000000 0.000000 0.130212 0.000000 0.007480
# 5 -0.004432 0.001347 -0.000547 0.000000 0.031293 0.000000
# 6 0.000000 0.000000 0.000000 0.007480 0.000000 0.049377
#
#
# Mechanical properties :
#
#
# Convention : Reuss Voigt Hill
#
# Bulk Modulus (GPa) = 52.66316 58.49214 55.57765
# Shear Modulus (GPa) = 18.35225 27.95707 23.15466
#
# Velocity S-wave (km/s) = 2.96454 3.65897 3.32991
# Velocity P-wave (km/s) = 6.07761 6.77210 6.43423
#
# Compressibility (1/GPa) = 0.01898861
#
# Stress axis : x y z
#
# Youngs Moduli (GPa) = 68.29912 144.50931 64.30722
#
# Poissons Ratio (x) = 0.34026 0.32949
# Poissons Ratio (y) = 0.16082 0.10182
# Poissons Ratio (z) = 0.34994 0.22881
#
# Static dielectric constant tensor:
#      x y z
#    x 3.920600 0.000000 -0.058180 
#    y 0.000000 4.006730 0.000000 
#    z -0.058180 0.000000 3.920740 
# 
# 
# High freq. dielectric constant tensor:
#      x y z
#    x 1.827740 0.000000 0.002870 
#    y 0.000000 1.833430 0.000000 
#    z 0.002870 0.000000 1.817310 
# 
# From -- ./inp_files/143188.got.cif
#   From: 2010.06.25/outbox.cif.g09.slc.cpg/sg12_72_cif.got.tgz:143188.got - 2010.06.28 00:19:55.
