data_PCOD8113284
_publ_section_title
;
Structure prediction by ZEFSAII (Michael W. Deem and Ramdas Pophale) SiO2 
 PCOD8113284
Probable space group: C 2/M
;
_chemical_formula_sum "Si O2"
_cell_formula_units_Z 32
_cell_length_a 12.196492
_cell_length_b 26.120077
_cell_length_c 5.153906
_cell_angle_alpha 90.000000
_cell_angle_beta 111.417771
_cell_angle_gamma 90.000000
_cell_volume 1528.511764
_symmetry_space_group_name_H-M "C 2/M"
_symmetry_group_IT_number 12
_symmetry_cell_setting 'monoclinic'
loop_
_space_group_symop_operation_xyz
x,y,z
-x,y,-z
-x,-y,-z
x,-y,z
1/2+x,1/2+y,z
1/2-x,1/2+y,-z
1/2-x,1/2-y,-z
1/2+x,1/2-y,z
loop_
_atom_site_type_symbol
_atom_site_label
_atom_site_fract_x
_atom_site_fract_y
_atom_site_fract_z
Si Si1 0.316322 0.891176 0.137469
Si Si2 0.652261 0.167901 0.317905
Si Si3 0.000000 0.753796 0.000000
Si Si4 0.384396 0.335028 0.258244
Si Si5 0.918893 0.500000 0.183293
O O1 0.364871 0.868304 0.448269
O O2 0.333054 0.951521 0.127500
O O3 0.391136 0.863447 0.975006
O O4 0.176628 0.878916 0.973983
O O5 0.790969 0.182391 0.399333
O O6 0.577000 0.219776 0.266694
O O7 0.086273 0.786927 0.896833
O O8 0.500000 0.357309 0.500000
O O9 0.000000 0.500000 0.500000
O O10 0.000000 0.500000 0.000000
#
# Coordination Sequence:
#
# PCOD8113284 Si02
#       5
#     8   8   4   8   4
#     4  10  25  45  64 100 138 169 227 284 339 401
#     4  10  25  41  66  98 142 174 224 283 331 408
#     4  12  24  40  68 100 140 190 228 274 348 394
#     4  10  24  41  67  95 142 183 232 276 331 405
#     4  12  26  46  79 103 131 178 219 287 354 409
#
# _framework density 20.935395
#
# number of rings (size 3 to 8) (size 9 to 14) (size 15 to 20)
#    1.500    0.000    0.000    3.750    8.750    2.000 
#    0.000    0.625    0.000    2.250    0.000    0.000 
#    0.000    0.000    0.000    0.000    0.000    0.000 
#
# Total GULP energy -198305.517075 kJ/mol
# GULP energy per Si atom -12394.094817 kJ/mol
# Density = 2.088775 g / cm^3
# Si number density = 20.935395 Si / 1000 Ang^3
#
#
#
# Elastic Constant Matrix: (Units=GPa)
#
#
# Indices 1 2 3 4 5 6 
#
# 1 103.4497 76.0960 43.5217 0.0000 0.7547 0.0000
# 2 76.0960 173.7810 68.0613 0.0000 1.1199 0.0000
# 3 43.5217 68.0613 142.8666 0.0000 -21.7570 0.0000
# 4 0.0000 0.0000 0.0000 26.1737 0.0000 -4.7483
# 5 0.7547 1.1199 -21.7570 0.0000 29.7143 0.0000
# 6 0.0000 0.0000 0.0000 -4.7483 0.0000 17.1871
#
#
#
# Elastic Compliance Matrix: (Units=1/GPa)
#
#
# Indices 1 2 3 4 5 6 
#
# 1 0.014667 -0.005609 -0.002049 0.000000 -0.001661 0.000000
# 2 -0.005609 0.009479 -0.003196 0.000000 -0.002555 0.000000
# 3 -0.002049 -0.003196 0.010324 0.000000 0.007731 0.000000
# 4 0.000000 0.000000 0.000000 0.040222 0.000000 0.011112
# 5 -0.001661 -0.002555 0.007731 0.000000 0.039453 0.000000
# 6 0.000000 0.000000 0.000000 0.011112 0.000000 0.061253
#
#
# Mechanical properties :
#
#
# Convention : Reuss Voigt Hill
#
# Bulk Modulus (GPa) = 78.36258 88.38394 83.37326
# Shear Modulus (GPa) = 24.83124 30.10958 27.47041
#
# Velocity S-wave (km/s) = 3.44770 3.79649 3.62629
# Velocity P-wave (km/s) = 7.30485 7.84391 7.57917
#
# Compressibility (1/GPa) = 0.01276119
#
# Stress axis : x y z
#
# Youngs Moduli (GPa) = 68.18232 105.49956 96.86546
#
# Poissons Ratio (x) = 0.59177 0.19845
# Poissons Ratio (y) = 0.38245 0.30958
# Poissons Ratio (z) = 0.13968 0.33717
#
# Static dielectric constant tensor:
#      x y z
#    x 3.747200 0.000000 0.003130 
#    y 0.000000 3.749400 0.000000 
#    z 0.003130 0.000000 3.858350 
# 
# 
# High freq. dielectric constant tensor:
#      x y z
#    x 1.824170 0.000000 0.000550 
#    y 0.000000 1.796180 0.000000 
#    z 0.000550 0.000000 1.834800 
# 
# From -- ./inp_files/11177.got.cif
#   From: 2010.06.25/outbox.cif.g09.slc.cpg/sg12_6_cif.got.tgz:11177.got - 2010.06.28 00:19:55.
