data_PCOD8113725
_publ_section_title
;
Structure prediction by ZEFSAII (Michael W. Deem and Ramdas Pophale) SiO2 
 PCOD8113725
Probable space group: C 2/M
;
_chemical_formula_sum "Si O2"
_cell_formula_units_Z 40
_cell_length_a 16.616727
_cell_length_b 12.557491
_cell_length_c 17.148670
_cell_angle_alpha 90.000000
_cell_angle_beta 31.092697
_cell_angle_gamma 90.000000
_cell_volume 1847.929401
_symmetry_space_group_name_H-M "C 2/M"
_symmetry_group_IT_number 12
_symmetry_cell_setting 'monoclinic'
loop_
_space_group_symop_operation_xyz
x,y,z
-x,y,-z
-x,-y,-z
x,-y,z
1/2+x,1/2+y,z
1/2-x,1/2+y,-z
1/2-x,1/2-y,-z
1/2+x,1/2-y,z
loop_
_atom_site_type_symbol
_atom_site_label
_atom_site_fract_x
_atom_site_fract_y
_atom_site_fract_z
Si Si1 0.983437 0.000000 0.695277
Si Si2 0.468912 0.000000 0.268122
Si Si3 0.500000 0.826123 0.000000
Si Si4 0.221726 0.176539 0.736969
Si Si5 0.514291 0.500000 0.121736
Si Si6 0.137857 0.500000 0.985072
Si Si7 0.327613 0.000000 0.755848
Si Si8 0.779783 0.823320 0.547363
O O1 0.067127 0.105426 0.593885
O O2 0.809311 0.000000 0.805555
O O3 0.958705 0.000000 0.808538
O O4 0.371522 0.102550 0.322949
O O5 0.517209 0.000000 0.319195
O O6 0.630980 0.000000 0.085086
O O7 0.349387 0.756540 0.141905
O O8 0.457588 0.896664 0.961070
O O9 0.306162 0.247671 0.600676
O O10 0.339376 0.102502 0.689077
O O11 0.084150 0.105422 0.814660
O O12 0.669507 0.500000 0.939117
O O13 0.750000 0.750000 0.500000
#
# Coordination Sequence:
#
# PCOD8113725 Si02
#       8
#     4   4   4   8   4   4   4   8
#     4  11  24  42  67  99 134 172 231 284 324 409
#     4  11  24  42  70 103 133 175 231 286 329 401
#     4  11  22  41  66 100 130 179 224 277 346 394
#     4  11  21  41  67  96 139 181 213 277 347 407
#     4  11  19  38  69 101 131 167 223 286 342 386
#     4  11  24  41  68  99 133 172 234 288 325 393
#     4  11  23  39  70 112 135 162 234 298 332 387
#     4  11  24  44  67  93 138 189 219 265 352 417
#
# _framework density 21.645848999999998
#
# number of rings (size 3 to 8) (size 9 to 14) (size 15 to 20)
#    0.000    1.000    7.000    0.600    0.000    1.600 
#    0.000   10.000    0.000    0.000    0.000    0.000 
#    0.000    0.000    0.000    0.000    0.000    0.000 
#
# Total GULP energy -247915.381818 kJ/mol
# GULP energy per Si atom -12395.769091 kJ/mol
# Density = 2.159658 g / cm^3
# Si number density = 21.645849 Si / 1000 Ang^3
#
#
#
# Elastic Constant Matrix: (Units=GPa)
#
#
# Indices 1 2 3 4 5 6 
#
# 1 110.9907 50.2194 37.1832 0.0001 13.3049 0.0004
# 2 50.2194 147.6574 50.3704 0.0004 13.4903 0.0004
# 3 37.1832 50.3704 104.0547 -0.0001 11.6710 0.0008
# 4 0.0001 0.0004 -0.0001 -9.1391 0.0002 -34.5507
# 5 13.3049 13.4903 11.6710 0.0002 41.7432 -0.0002
# 6 0.0004 0.0004 0.0008 -34.5507 -0.0002 -100.8756
#
#
#
# Elastic Compliance Matrix: (Units=1/GPa)
#
#
# Indices 1 2 3 4 5 6 
#
# 1 0.011360 -0.002841 -0.002458 0.000000 -0.002015 0.000000
# 2 -0.002841 0.008924 -0.003182 -0.000001 -0.001089 0.000000
# 3 -0.002458 -0.003182 0.012209 0.000002 -0.001601 -0.000001
# 4 0.000000 -0.000001 0.000002 0.371087 -0.000003 -0.127100
# 5 -0.002015 -0.001089 -0.001601 -0.000003 0.025398 0.000001
# 6 0.000000 0.000000 -0.000001 -0.127100 0.000001 0.033620
#
#
# Mechanical properties :
#
#
# Convention : Reuss Voigt Hill
#
# Bulk Modulus (GPa) = 64.39288 70.91653 67.65471
# Shear Modulus (GPa) = 10.31484 1.34100 5.82792
#
# Velocity S-wave (km/s) = 2.18532 0.78795 1.64263
# Velocity P-wave (km/s) = 6.01502 5.80182 5.90938
#
# Compressibility (1/GPa) = 0.01552967
#
# Stress axis : x y z
#
# Youngs Moduli (GPa) = 88.02531 112.06005 81.90717
#
# Poissons Ratio (x) = 0.31837 0.20134
# Poissons Ratio (y) = 0.25008 0.26067
# Poissons Ratio (z) = 0.21638 0.35663
#
# Static dielectric constant tensor:
#      x y z
#    x 3.192600 0.000000 -0.320890 
#    y 0.000000 3.843840 0.000000 
#    z -0.320890 0.000000 3.346030 
# 
# 
# High freq. dielectric constant tensor:
#      x y z
#    x 1.842480 0.000000 0.017270 
#    y 0.000000 1.867150 0.000000 
#    z 0.017270 0.000000 1.851950 
# 
# From -- ./inp_files/277216.got.cif
#   From: 2010.06.25/outbox.cif.g09.slc.cpg/sg12_139_cif.got.tgz:277216.got - 2010.06.28 00:19:55.
