data_PCOD8113227
_publ_section_title
;
Structure prediction by ZEFSAII (Michael W. Deem and Ramdas Pophale) SiO2 
 PCOD8113227
Probable space group: C 2/M
;
_chemical_formula_sum "Si O2"
_cell_formula_units_Z 36
_cell_length_a 8.391055
_cell_length_b 18.031008
_cell_length_c 10.889634
_cell_angle_alpha 90.000000
_cell_angle_beta 100.847514
_cell_angle_gamma 90.000000
_cell_volume 1618.152719
_symmetry_space_group_name_H-M "C 2/M"
_symmetry_group_IT_number 12
_symmetry_cell_setting 'monoclinic'
loop_
_space_group_symop_operation_xyz
x,y,z
-x,y,-z
-x,-y,-z
x,-y,z
1/2+x,1/2+y,z
1/2-x,1/2+y,-z
1/2-x,1/2-y,-z
1/2+x,1/2-y,z
loop_
_atom_site_type_symbol
_atom_site_label
_atom_site_fract_x
_atom_site_fract_y
_atom_site_fract_z
Si Si1 0.740473 0.316444 0.339086
Si Si2 0.609481 0.122167 0.853512
Si Si3 0.500000 0.713745 0.500000
Si Si4 0.739739 0.918479 0.124633
Si Si5 0.037144 0.212958 0.869929
O O1 0.809189 0.387562 0.271262
O O2 0.629655 0.336588 0.442440
O O3 0.895616 0.265874 0.394128
O O4 0.625614 0.270765 0.230120
O O5 0.425420 0.094722 0.823440
O O6 0.630120 0.209133 0.892225
O O7 0.706453 0.079439 0.973182
O O8 0.863496 0.853718 0.181612
O O9 0.808453 0.000000 0.170246
O O10 0.000000 0.183326 0.000000
#
# Coordination Sequence:
#
# PCOD8113227 Si02
#       5
#     8   8   4   8   8
#     4  11  22  36  59  90 132 163 203 270 324 365
#     4  11  20  36  62  90 129 173 209 250 321 380
#     4  10  24  38  56  94 134 158 220 270 324 360
#     4  11  24  38  58  97 142 173 203 251 321 404
#     4  12  21  36  63  98 132 167 207 262 325 390
#
# _framework density 22.247592000000001
#
# number of rings (size 3 to 8) (size 9 to 14) (size 15 to 20)
#    0.000    0.889    6.667    3.333    0.000    0.444 
#    0.000    0.000    0.000    0.000    0.000   26.444 
#    0.000    0.000    0.000    0.000    0.000    0.000 
#
# Total GULP energy -223013.772960 kJ/mol
# GULP energy per Si atom -12389.654053 kJ/mol
# Density = 2.219696 g / cm^3
# Si number density = 22.247592 Si / 1000 Ang^3
#
#
#
# Elastic Constant Matrix: (Units=GPa)
#
#
# Indices 1 2 3 4 5 6 
#
# 1 116.9262 26.3402 42.8894 0.0000 -22.3745 0.0000
# 2 26.3402 117.0113 -1.9727 0.0000 2.5994 0.0000
# 3 42.8894 -1.9727 83.3503 0.0000 -11.1903 0.0000
# 4 0.0000 0.0000 0.0000 8.8280 0.0000 16.1735
# 5 -22.3745 2.5994 -11.1903 0.0000 55.9900 0.0000
# 6 0.0000 0.0000 0.0000 16.1735 0.0000 -16.8702
#
#
#
# Elastic Compliance Matrix: (Units=1/GPa)
#
#
# Indices 1 2 3 4 5 6 
#
# 1 0.012041 -0.002892 -0.005755 0.000000 0.003796 0.000000
# 2 -0.002892 0.009251 0.001535 0.000000 -0.001278 0.000000
# 3 -0.005755 0.001535 0.015082 0.000000 0.000643 0.000000
# 4 0.000000 0.000000 0.000000 0.041096 0.000000 0.039398
# 5 0.003796 -0.001278 0.000643 0.000000 0.019565 0.000000
# 6 0.000000 0.000000 0.000000 0.039398 0.000000 -0.021505
#
#
# Mechanical properties :
#
#
# Convention : Reuss Voigt Hill
#
# Bulk Modulus (GPa) = 45.14363 50.20018 47.67191
# Shear Modulus (GPa) = 51.47395 26.25827 38.86611
#
# Velocity S-wave (km/s) = 4.81530 3.43924 4.18422
# Velocity P-wave (km/s) = 7.15903 6.19552 6.69463
#
# Compressibility (1/GPa) = 0.02215152
#
# Stress axis : x y z
#
# Youngs Moduli (GPa) = 83.04855 108.09102 66.30639
#
# Poissons Ratio (x) = 0.31259 0.38158
# Poissons Ratio (y) = 0.24017 -0.10181
# Poissons Ratio (z) = 0.47793 -0.16597
#
# Static dielectric constant tensor:
#      x y z
#    x 4.538930 0.000000 -0.300140 
#    y 0.000000 3.535570 0.000000 
#    z -0.300140 0.000000 4.127670 
# 
# 
# High freq. dielectric constant tensor:
#      x y z
#    x 1.905500 0.000000 -0.009440 
#    y 0.000000 1.812820 0.000000 
#    z -0.009440 0.000000 1.860590 
# 
# From -- ./inp_files/119222.got.cif
#   From: 2010.06.25/outbox.cif.g09.slc.cpg/sg12_60_cif.got.tgz:119222.got - 2010.06.28 00:19:55.
