data_PCOD8113625
_publ_section_title
;
Structure prediction by ZEFSAII (Michael W. Deem and Ramdas Pophale) SiO2 
 PCOD8113625
Probable space group: C 2/M
;
_chemical_formula_sum "Si O2"
_cell_formula_units_Z 40
_cell_length_a 23.682515
_cell_length_b 10.915273
_cell_length_c 10.042703
_cell_angle_alpha 90.000000
_cell_angle_beta 126.854322
_cell_angle_gamma 90.000000
_cell_volume 2077.263310
_symmetry_space_group_name_H-M "C 2/M"
_symmetry_group_IT_number 12
_symmetry_cell_setting 'monoclinic'
loop_
_space_group_symop_operation_xyz
x,y,z
-x,y,-z
-x,-y,-z
x,-y,z
1/2+x,1/2+y,z
1/2-x,1/2+y,-z
1/2-x,1/2-y,-z
1/2+x,1/2-y,z
loop_
_atom_site_type_symbol
_atom_site_label
_atom_site_fract_x
_atom_site_fract_y
_atom_site_fract_z
Si Si1 0.393301 0.500000 0.339576
Si Si2 0.489309 0.500000 0.710221
Si Si3 0.673222 0.855228 0.026645
Si Si4 0.681553 0.256731 0.758379
Si Si5 0.553041 0.860320 0.463532
Si Si6 0.976903 0.256382 0.115514
O O1 0.412813 0.500000 0.526708
O O2 0.460841 0.500000 0.344424
O O3 0.347077 0.385318 0.229830
O O4 0.501696 0.617638 0.819794
O O5 0.740153 0.784498 0.188161
O O6 0.670655 0.000000 0.058515
O O7 0.680740 0.840608 0.877949
O O8 0.605738 0.783933 0.987399
O O9 0.628746 0.206978 0.570047
O O10 0.500000 0.801397 0.500000
O O11 0.518747 0.848410 0.270889
O O12 0.565964 0.000000 0.518993
O O13 0.000000 0.287481 0.000000
#
# Coordination Sequence:
#
# PCOD8113625 Si02
#       6
#     4   4   8   8   8   8
#     4  11  18  36  68  92 113 154 201 259 299 357
#     4  11  21  38  64  92 122 151 204 254 299 357
#     4  11  23  38  59  91 128 159 198 254 307 357
#     4  11  21  37  61  94 121 154 202 253 307 356
#     4  11  21  39  64  91 123 159 204 254 297 352
#     4  12  25  41  62  90 125 163 203 248 304 368
#
# _framework density 19.256104000000001
#
# number of rings (size 3 to 8) (size 9 to 14) (size 15 to 20)
#    0.000    0.800    7.000    1.500    0.000    1.600 
#    1.800    1.000    0.000    0.000    0.000    0.000 
#    0.000    0.000    0.000    0.000    0.000    0.000 
#
# Total GULP energy -247956.604246 kJ/mol
# GULP energy per Si atom -12397.830212 kJ/mol
# Density = 1.921228 g / cm^3
# Si number density = 19.256104 Si / 1000 Ang^3
#
#
#
# Elastic Constant Matrix: (Units=GPa)
#
#
# Indices 1 2 3 4 5 6 
#
# 1 90.7253 21.9002 61.1759 0.0000 18.6192 0.0000
# 2 21.9002 81.0438 19.3658 0.0000 9.4247 0.0000
# 3 61.1759 19.3658 106.2355 0.0000 10.9259 0.0000
# 4 0.0000 0.0000 0.0000 33.1093 0.0000 8.6196
# 5 18.6192 9.4247 10.9259 0.0000 38.7582 0.0000
# 6 0.0000 0.0000 0.0000 8.6196 0.0000 21.0212
#
#
#
# Elastic Compliance Matrix: (Units=1/GPa)
#
#
# Indices 1 2 3 4 5 6 
#
# 1 0.019782 -0.002163 -0.010375 0.000000 -0.006053 0.000000
# 2 -0.002163 0.013386 -0.000996 0.000000 -0.001935 0.000000
# 3 -0.010375 -0.000996 0.015480 0.000000 0.000862 0.000000
# 4 0.000000 0.000000 0.000000 0.033812 0.000000 -0.013865
# 5 -0.006053 -0.001935 0.000862 0.000000 0.028936 0.000000
# 6 0.000000 0.000000 0.000000 -0.013865 0.000000 0.053256
#
#
# Mechanical properties :
#
#
# Convention : Reuss Voigt Hill
#
# Bulk Modulus (GPa) = 46.33436 53.65426 49.99431
# Shear Modulus (GPa) = 25.13640 30.28193 27.70917
#
# Velocity S-wave (km/s) = 3.61691 3.96989 3.79751
# Velocity P-wave (km/s) = 6.44648 6.99552 6.72661
#
# Compressibility (1/GPa) = 0.02158225
#
# Stress axis : x y z
#
# Youngs Moduli (GPa) = 50.55016 74.70238 64.59814
#
# Poissons Ratio (x) = 0.16156 0.67020
# Poissons Ratio (y) = 0.10932 0.06433
# Poissons Ratio (z) = 0.52446 0.07439
#
# Static dielectric constant tensor:
#      x y z
#    x 3.411810 0.000000 0.402960 
#    y 0.000000 3.635860 0.000000 
#    z 0.402960 0.000000 3.549610 
# 
# 
# High freq. dielectric constant tensor:
#      x y z
#    x 1.721360 0.000000 0.036510 
#    y 0.000000 1.766310 0.000000 
#    z 0.036510 0.000000 1.740880 
# 
# From -- ./inp_files/83682.got.cif
#   From: 2010.06.25/outbox.cif.g09.slc.cpg/sg12_42_cif.got.tgz:83682.got - 2010.06.28 00:19:55.
