data_PCOD8113142
_publ_section_title
;
Structure prediction by ZEFSAII (Michael W. Deem and Ramdas Pophale) SiO2 
 PCOD8113142
Probable space group: C 2/M
;
_chemical_formula_sum "Si O2"
_cell_formula_units_Z 64
_cell_length_a 13.988936
_cell_length_b 24.588373
_cell_length_c 9.336068
_cell_angle_alpha 90.000000
_cell_angle_beta 111.183779
_cell_angle_gamma 90.000000
_cell_volume 2994.283547
_symmetry_space_group_name_H-M "C 2/M"
_symmetry_group_IT_number 12
_symmetry_cell_setting 'monoclinic'
loop_
_space_group_symop_operation_xyz
x,y,z
-x,y,-z
-x,-y,-z
x,-y,z
1/2+x,1/2+y,z
1/2-x,1/2+y,-z
1/2-x,1/2-y,-z
1/2+x,1/2-y,z
loop_
_atom_site_type_symbol
_atom_site_label
_atom_site_fract_x
_atom_site_fract_y
_atom_site_fract_z
Si Si1 0.997950 0.731283 0.661608
Si Si2 0.501588 0.360110 0.337658
Si Si3 0.284542 0.203675 0.626427
Si Si4 0.283698 0.796380 0.127592
Si Si5 0.775568 0.139940 0.150988
Si Si6 0.214846 0.137139 0.349480
Si Si7 0.097282 0.563345 0.149566
Si Si8 0.104577 0.436689 0.487969
O O1 0.984181 0.795535 0.659597
O O2 0.096535 0.709885 0.793547
O O3 0.000000 0.710473 0.500000
O O4 0.906974 0.702479 0.700296
O O5 0.500000 0.381500 0.500000
O O6 0.393876 0.378424 0.211404
O O7 0.596079 0.383722 0.291446
O O8 0.250000 0.250000 0.500000
O O9 0.236479 0.198217 0.761496
O O10 0.237980 0.150487 0.527696
O O11 0.228432 0.808357 0.252749
O O12 0.250000 0.750000 0.000000
O O13 0.257557 0.851813 0.030122
O O14 0.702431 0.093552 0.168813
O O15 0.300651 0.090924 0.371675
O O16 0.114891 0.500000 0.128682
O O17 0.085502 0.576087 0.310634
O O18 0.000000 0.583470 0.000000
O O19 0.122607 0.500000 0.524098
O O20 0.000000 0.415058 0.500000
#
# Coordination Sequence:
#
# PCOD8113142 Si02
#       8
#     8   8   8   8   8   8   8   8
#     4  11  22  37  60  86 123 168 215 265 311 370
#     4  11  21  40  64  87 125 171 217 262 316 380
#     4  12  21  38  62  90 122 171 218 257 315 382
#     4  12  27  42  58  95 136 172 218 267 317 382
#     4  12  25  41  61  93 129 170 218 265 323 381
#     4  12  24  40  66  91 127 174 217 263 326 384
#     4  10  23  44  69  98 130 165 210 274 342 393
#     4  10  23  44  70 100 128 160 213 278 336 392
#
# _framework density 21.374061000000001
#
# number of rings (size 3 to 8) (size 9 to 14) (size 15 to 20)
#    0.000    0.750    6.250    1.500    5.250    0.500 
#    0.000    0.625    0.000    2.250    0.000    1.750 
#    0.000    0.000    0.000    0.000    0.000    0.000 
#
# Total GULP energy -396417.669473 kJ/mol
# GULP energy per Si atom -12388.052171 kJ/mol
# Density = 2.132541 g / cm^3
# Si number density = 21.374061 Si / 1000 Ang^3
#
#
#
# Elastic Constant Matrix: (Units=GPa)
#
#
# Indices 1 2 3 4 5 6 
#
# 1 201.2239 32.2400 63.5814 0.0000 25.9786 0.0000
# 2 32.2400 32.6951 25.5431 0.0000 11.9870 0.0000
# 3 63.5814 25.5431 119.4524 0.0000 15.6885 0.0000
# 4 0.0000 0.0000 0.0000 26.3616 0.0000 7.5172
# 5 25.9786 11.9870 15.6885 0.0000 40.1845 0.0000
# 6 0.0000 0.0000 0.0000 7.5172 0.0000 20.7404
#
#
#
# Elastic Compliance Matrix: (Units=1/GPa)
#
#
# Indices 1 2 3 4 5 6 
#
# 1 0.006634 -0.003845 -0.002420 0.000000 -0.002197 0.000000
# 2 -0.003845 0.041788 -0.005880 0.000000 -0.007684 0.000000
# 3 -0.002420 -0.005880 0.011048 0.000000 -0.000995 0.000000
# 4 0.000000 0.000000 0.000000 0.042306 0.000000 -0.015334
# 5 -0.002197 -0.007684 -0.000995 0.000000 0.028986 0.000000
# 6 0.000000 0.000000 0.000000 -0.015334 0.000000 0.053773
#
#
# Mechanical properties :
#
#
# Convention : Reuss Voigt Hill
#
# Bulk Modulus (GPa) = 28.42611 66.23339 47.32975
# Shear Modulus (GPa) = 22.67036 32.92444 27.79740
#
# Velocity S-wave (km/s) = 3.26029 3.92904 3.61019
# Velocity P-wave (km/s) = 5.24413 7.18597 6.29043
#
# Compressibility (1/GPa) = 0.03517893
#
# Stress axis : x y z
#
# Youngs Moduli (GPa) = 150.73698 23.93018 90.51621
#
# Poissons Ratio (x) = 0.09202 0.21908
# Poissons Ratio (y) = 0.57965 0.53222
# Poissons Ratio (z) = 0.36483 0.14070
#
# Static dielectric constant tensor:
#      x y z
#    x 4.227230 0.000000 -0.166140 
#    y 0.000000 3.686920 0.000000 
#    z -0.166140 0.000000 3.344730 
# 
# 
# High freq. dielectric constant tensor:
#      x y z
#    x 1.849820 0.000000 0.003880 
#    y 0.000000 1.803640 0.000000 
#    z 0.003880 0.000000 1.848370 
# 
# From -- ./inp_files/67024.got.cif
#   From: 2010.06.25/outbox.cif.g09.slc.cpg/sg12_34_cif.got.tgz:67024.got - 2010.06.28 00:19:55.
