data_PCOD8113582
_publ_section_title
;
Structure prediction by ZEFSAII (Michael W. Deem and Ramdas Pophale) SiO2 
 PCOD8113582
Probable space group: C 2/M
;
_chemical_formula_sum "Si O2"
_cell_formula_units_Z 64
_cell_length_a 30.590241
_cell_length_b 13.837914
_cell_length_c 16.926088
_cell_angle_alpha 90.000000
_cell_angle_beta 148.314318
_cell_angle_gamma 90.000000
_cell_volume 3763.428240
_symmetry_space_group_name_H-M "C 2/M"
_symmetry_group_IT_number 12
_symmetry_cell_setting 'monoclinic'
loop_
_space_group_symop_operation_xyz
x,y,z
-x,y,-z
-x,-y,-z
x,-y,z
1/2+x,1/2+y,z
1/2-x,1/2+y,-z
1/2-x,1/2-y,-z
1/2+x,1/2-y,z
loop_
_atom_site_type_symbol
_atom_site_label
_atom_site_fract_x
_atom_site_fract_y
_atom_site_fract_z
Si Si1 0.090939 0.742801 0.618819
Si Si2 0.263851 0.386832 0.150566
Si Si3 0.693898 0.607563 0.112338
Si Si4 0.868006 0.610111 0.455650
Si Si5 0.880815 0.699467 0.966922
Si Si6 0.795854 0.388590 0.113927
Si Si7 0.058670 0.613733 0.266328
Si Si8 0.098106 0.393556 0.159771
O O1 0.151761 0.832561 0.695348
O O2 0.081599 0.678627 0.525788
O O3 0.124475 0.676417 0.742267
O O4 0.000000 0.783547 0.500000
O O5 0.280770 0.500000 0.183741
O O6 0.189582 0.356780 0.093463
O O7 0.240941 0.355941 0.026254
O O8 0.655337 0.500000 0.059473
O O9 0.769774 0.620213 0.290044
O O10 0.624034 0.685324 0.027175
O O11 0.725592 0.627888 0.072368
O O12 0.896969 0.500000 0.484782
O O13 0.887158 0.642077 0.574457
O O14 0.865646 0.678169 0.850580
O O15 0.970481 0.667168 0.135417
O O16 0.824810 0.500000 0.156697
O O17 0.039347 0.500000 0.231729
O O18 0.112614 0.645032 0.271815
O O19 0.138473 0.500000 0.209914
O O20 0.000000 0.402221 0.000000
#
# Coordination Sequence:
#
# PCOD8113582 Si02
#       8
#     8   8   8   8   8   8   8   8
#     4  11  22  33  49  69 101 135 161 196 249 289
#     4  11  22  34  50  72  97 128 171 206 235 285
#     4   9  18  33  51  70  99 134 162 197 240 288
#     4   9  18  34  51  72 100 128 163 201 244 291
#     4  11  18  30  54  77  97 124 162 204 248 285
#     4   9  19  35  51  71  98 125 162 210 247 279
#     4   9  18  31  52  79 102 123 156 203 250 295
#     4   8  15  29  47  74 105 125 150 195 253 296
#
# _framework density 17.005770999999999
#
# number of rings (size 3 to 8) (size 9 to 14) (size 15 to 20)
#    0.000    2.375    2.500    3.375    1.750    1.250 
#    0.000    0.625    0.000    4.125    0.000    0.000 
#    0.000    0.000    0.000    0.000    0.000    0.000 
#
# Total GULP energy -396725.594777 kJ/mol
# GULP energy per Si atom -12397.674837 kJ/mol
# Density = 1.696707 g / cm^3
# Si number density = 17.005771 Si / 1000 Ang^3
#
#
#
# Elastic Constant Matrix: (Units=GPa)
#
#
# Indices 1 2 3 4 5 6 
#
# 1 116.0617 54.0111 54.4020 0.0000 -19.4596 0.0000
# 2 54.0111 84.2564 34.1089 0.0000 -1.3882 0.0000
# 3 54.4020 34.1089 56.3616 0.0000 -14.5296 0.0000
# 4 0.0000 0.0000 0.0000 18.8968 0.0000 4.5329
# 5 -19.4596 -1.3882 -14.5296 0.0000 27.0135 0.0000
# 6 0.0000 0.0000 0.0000 4.5329 0.0000 23.7419
#
#
#
# Elastic Compliance Matrix: (Units=1/GPa)
#
#
# Indices 1 2 3 4 5 6 
#
# 1 0.018594 -0.006926 -0.012068 0.000000 0.006547 0.000000
# 2 -0.006926 0.018904 -0.006723 0.000000 -0.007634 0.000000
# 3 -0.012068 -0.006723 0.036141 0.000000 0.010400 0.000000
# 4 0.000000 0.000000 0.000000 0.055459 0.000000 -0.010588
# 5 0.006547 -0.007634 0.010400 0.000000 0.046937 0.000000
# 6 0.000000 0.000000 0.000000 -0.010588 0.000000 0.044141
#
#
# Mechanical properties :
#
#
# Convention : Reuss Voigt Hill
#
# Bulk Modulus (GPa) = 45.03613 60.19152 52.61382
# Shear Modulus (GPa) = 17.92047 21.54096 19.73071
#
# Velocity S-wave (km/s) = 3.24973 3.56291 3.40992
# Velocity P-wave (km/s) = 6.37349 7.23861 6.81978
#
# Compressibility (1/GPa) = 0.02220439
#
# Stress axis : x y z
#
# Youngs Moduli (GPa) = 53.78218 52.89817 27.66961
#
# Poissons Ratio (x) = 0.36637 0.33391
# Poissons Ratio (y) = 0.37249 0.18603
# Poissons Ratio (z) = 0.64903 0.35566
#
# Static dielectric constant tensor:
#      x y z
#    x 3.427390 0.000000 -0.367060 
#    y 0.000000 3.220070 0.000000 
#    z -0.367060 0.000000 3.026830 
# 
# 
# High freq. dielectric constant tensor:
#      x y z
#    x 1.654090 0.000000 -0.020980 
#    y 0.000000 1.652610 0.000000 
#    z -0.020980 0.000000 1.629790 
# 
# From -- ./inp_files/296697.got.cif
#   From: 2010.06.25/outbox.cif.g09.slc.cpg/sg12_149_cif.got.tgz:296697.got - 2010.06.28 00:19:55.
