data_PCOD8113640
_publ_section_title
;
Structure prediction by ZEFSAII (Michael W. Deem and Ramdas Pophale) SiO2 
 PCOD8113640
Probable space group: C 2/M
;
_chemical_formula_sum "Si O2"
_cell_formula_units_Z 48
_cell_length_a 24.410824
_cell_length_b 8.625930
_cell_length_c 21.822144
_cell_angle_alpha 90.000000
_cell_angle_beta 142.510583
_cell_angle_gamma 90.000000
_cell_volume 2796.587115
_symmetry_space_group_name_H-M "C 2/M"
_symmetry_group_IT_number 12
_symmetry_cell_setting 'monoclinic'
loop_
_space_group_symop_operation_xyz
x,y,z
-x,y,-z
-x,-y,-z
x,-y,z
1/2+x,1/2+y,z
1/2-x,1/2+y,-z
1/2-x,1/2-y,-z
1/2+x,1/2-y,z
loop_
_atom_site_type_symbol
_atom_site_label
_atom_site_fract_x
_atom_site_fract_y
_atom_site_fract_z
Si Si1 0.453312 0.328641 0.524314
Si Si2 0.860952 0.180750 0.270910
Si Si3 0.287545 0.821407 0.327821
Si Si4 0.894291 0.318872 0.849785
Si Si5 0.579767 0.682076 0.996465
Si Si6 0.272620 0.181644 0.954748
O O1 0.500000 0.329088 0.500000
O O2 0.418048 0.500000 0.509771
O O3 0.532452 0.276079 0.641706
O O4 0.366967 0.216270 0.447030
O O5 0.816549 0.282487 0.284535
O O6 0.812443 0.217523 0.164224
O O7 0.851216 0.000000 0.281154
O O8 0.198255 0.725383 0.266444
O O9 0.263168 0.000000 0.310719
O O10 0.913380 0.500000 0.860682
O O11 0.976173 0.225894 0.891216
O O12 0.884964 0.274214 0.912929
O O13 0.588317 0.500000 0.016348
O O14 0.638787 0.732152 0.990959
O O15 0.292519 0.000000 0.976741
O O16 0.250000 0.250000 0.000000
#
# Coordination Sequence:
#
# PCOD8113640 Si02
#       6
#     8   8   8   8   8   8
#     4   8  15  28  44  64  92 128 163 196 240 297
#     4   9  18  32  48  65  94 132 167 202 245 295
#     4  11  19  27  44  72 101 129 161 200 246 294
#     4  11  20  32  50  71  99 135 165 198 246 302
#     4  11  21  34  50  73  99 127 165 209 250 295
#     4  11  22  36  53  73  99 135 173 209 247 290
#
# _framework density 17.163779000000002
#
# number of rings (size 3 to 8) (size 9 to 14) (size 15 to 20)
#    0.000    1.833    1.667    7.000    0.000    3.667 
#    0.000    0.000    0.000    0.000    0.000    1.167 
#    0.000    0.000    0.000    0.000    0.000    0.000 
#
# Total GULP energy -297570.675970 kJ/mol
# GULP energy per Si atom -12398.778165 kJ/mol
# Density = 1.712471 g / cm^3
# Si number density = 17.163779 Si / 1000 Ang^3
#
#
#
# Elastic Constant Matrix: (Units=GPa)
#
#
# Indices 1 2 3 4 5 6 
#
# 1 77.2543 19.7268 40.7824 0.0000 10.3160 0.0000
# 2 19.7268 87.3778 28.0578 0.0000 6.3941 0.0000
# 3 40.7824 28.0578 106.0159 0.0000 22.9011 0.0000
# 4 0.0000 0.0000 0.0000 21.1798 0.0000 5.9229
# 5 10.3160 6.3941 22.9011 0.0000 24.4699 0.0000
# 6 0.0000 0.0000 0.0000 5.9229 0.0000 24.6643
#
#
#
# Elastic Compliance Matrix: (Units=1/GPa)
#
#
# Indices 1 2 3 4 5 6 
#
# 1 0.016541 -0.001843 -0.005606 0.000000 -0.001245 0.000000
# 2 -0.001843 0.012714 -0.002640 0.000000 -0.000075 0.000000
# 3 -0.005606 -0.002640 0.014575 0.000000 -0.010587 0.000000
# 4 0.000000 0.000000 0.000000 0.050614 0.000000 -0.012154
# 5 -0.001245 -0.000075 -0.010587 0.000000 0.051319 0.000000
# 6 0.000000 0.000000 0.000000 -0.012154 0.000000 0.043463
#
#
# Mechanical properties :
#
#
# Convention : Reuss Voigt Hill
#
# Bulk Modulus (GPa) = 42.28091 49.75357 46.01724
# Shear Modulus (GPa) = 23.01106 26.20153 24.60629
#
# Velocity S-wave (km/s) = 3.66550 3.91136 3.79042
# Velocity P-wave (km/s) = 6.52700 7.03198 6.78419
#
# Compressibility (1/GPa) = 0.02365134
#
# Stress axis : x y z
#
# Youngs Moduli (GPa) = 60.45736 78.65518 68.61189
#
# Poissons Ratio (x) = 0.14496 0.38465
# Poissons Ratio (y) = 0.11142 0.18111
# Poissons Ratio (z) = 0.33894 0.20762
#
# Static dielectric constant tensor:
#      x y z
#    x 2.769430 0.000000 0.427890 
#    y 0.000000 3.233820 0.000000 
#    z 0.427890 0.000000 3.548090 
# 
# 
# High freq. dielectric constant tensor:
#      x y z
#    x 1.610880 0.000000 0.038790 
#    y 0.000000 1.672740 0.000000 
#    z 0.038790 0.000000 1.665470 
# 
# From -- ./inp_files/323852.got.cif
#   From: 2010.06.25/outbox.cif.g09.slc.cpg/sg12_162_cif.got.tgz:323852.got - 2010.06.28 00:19:55.
