data_PCOD8113765
_publ_section_title
;
Structure prediction by ZEFSAII (Michael W. Deem and Ramdas Pophale) SiO2 
 PCOD8113765
Probable space group: C 2/M
;
_chemical_formula_sum "Si O2"
_cell_formula_units_Z 64
_cell_length_a 29.130829
_cell_length_b 9.067063
_cell_length_c 15.627947
_cell_angle_alpha 90.000000
_cell_angle_beta 62.390393
_cell_angle_gamma 90.000000
_cell_volume 3657.773672
_symmetry_space_group_name_H-M "C 2/M"
_symmetry_group_IT_number 12
_symmetry_cell_setting 'monoclinic'
loop_
_space_group_symop_operation_xyz
x,y,z
-x,y,-z
-x,-y,-z
x,-y,z
1/2+x,1/2+y,z
1/2-x,1/2+y,-z
1/2-x,1/2-y,-z
1/2+x,1/2-y,z
loop_
_atom_site_type_symbol
_atom_site_label
_atom_site_fract_x
_atom_site_fract_y
_atom_site_fract_z
Si Si1 0.657074 0.674873 0.063486
Si Si2 0.716117 0.326004 0.847707
Si Si3 0.320903 0.324643 0.765280
Si Si4 0.445262 0.669958 0.936244
Si Si5 0.081314 0.325353 0.394946
Si Si6 0.519997 0.174303 0.612405
Si Si7 0.042098 0.325501 0.781733
Si Si8 0.113946 0.168007 0.838415
O O1 0.656838 0.500000 0.059215
O O2 0.672078 0.734774 0.143718
O O3 0.599260 0.728703 0.089837
O O4 0.698102 0.731206 0.957199
O O5 0.727474 0.500000 0.838916
O O6 0.767029 0.237659 0.775854
O O7 0.671653 0.286888 0.817457
O O8 0.321038 0.500000 0.761112
O O9 0.366324 0.262340 0.667411
O O10 0.459542 0.500000 0.905396
O O11 0.495431 0.769366 0.880828
O O12 0.425815 0.689148 0.049435
O O13 0.091359 0.500000 0.379802
O O14 0.062606 0.277837 0.505765
O O15 0.037425 0.272230 0.365394
O O16 0.535338 0.239317 0.691577
O O17 0.518330 0.000000 0.616772
O O18 0.042573 0.500000 0.780782
O O19 0.096226 0.268740 0.774327
O O20 0.113368 0.000000 0.807668
#
# Coordination Sequence:
#
# PCOD8113765 Si02
#       8
#     8   8   8   8   8   8   8   8
#     4   8  16  30  47  68  96 128 159 192 227 270
#     4   9  18  34  51  65  88 129 172 195 218 270
#     4  11  20  29  46  75 103 121 148 195 245 279
#     4   9  17  31  48  66  94 131 164 189 220 272
#     4   9  17  34  55  70  92 127 160 185 221 282
#     4   8  17  33  52  73  95 122 156 192 228 274
#     4  11  20  29  46  73  99 120 151 197 243 278
#     4   9  19  34  49  65  90 128 169 198 222 267
#
# _framework density 17.496981000000002
#
# number of rings (size 3 to 8) (size 9 to 14) (size 15 to 20)
#    0.000    2.750    0.000    4.500    0.000    2.500 
#    0.000    6.250    0.000    0.750    0.000    0.000 
#    0.000    0.000    0.000    0.000    0.000    0.000 
#
# Total GULP energy -396746.480851 kJ/mol
# GULP energy per Si atom -12398.327527 kJ/mol
# Density = 1.745716 g / cm^3
# Si number density = 17.496981 Si / 1000 Ang^3
#
#
#
# Elastic Constant Matrix: (Units=GPa)
#
#
# Indices 1 2 3 4 5 6 
#
# 1 125.9708 45.4430 64.1969 0.0000 -4.4387 0.0000
# 2 45.4430 53.1054 33.5823 0.0000 -1.9323 0.0000
# 3 64.1969 33.5823 76.6445 0.0000 -6.0991 0.0000
# 4 0.0000 0.0000 0.0000 20.6790 0.0000 -0.1099
# 5 -4.4387 -1.9323 -6.0991 0.0000 29.5418 0.0000
# 6 0.0000 0.0000 0.0000 -0.1099 0.0000 26.0350
#
#
#
# Elastic Compliance Matrix: (Units=1/GPa)
#
#
# Indices 1 2 3 4 5 6 
#
# 1 0.015531 -0.007001 -0.009955 0.000000 -0.000180 0.000000
# 2 -0.007001 0.029217 -0.006984 0.000000 -0.000583 0.000000
# 3 -0.009955 -0.006984 0.024696 0.000000 0.003146 0.000000
# 4 0.000000 0.000000 0.000000 0.048359 0.000000 0.000204
# 5 -0.000180 -0.000583 0.003146 0.000000 0.034435 0.000000
# 6 0.000000 0.000000 0.000000 0.000204 0.000000 0.038411
#
#
# Mechanical properties :
#
#
# Convention : Reuss Voigt Hill
#
# Bulk Modulus (GPa) = 46.37523 60.24057 53.30790
# Shear Modulus (GPa) = 20.34864 22.75106 21.54985
#
# Velocity S-wave (km/s) = 3.41395 3.60986 3.51327
# Velocity P-wave (km/s) = 6.48863 7.20268 6.85496
#
# Compressibility (1/GPa) = 0.02156324
#
# Stress axis : x y z
#
# Youngs Moduli (GPa) = 64.38707 34.22720 40.49222
#
# Poissons Ratio (x) = 0.23963 0.40312
# Poissons Ratio (y) = 0.45079 0.28278
# Poissons Ratio (z) = 0.64100 0.23903
#
# Static dielectric constant tensor:
#      x y z
#    x 3.403060 0.000000 0.176150 
#    y 0.000000 2.949090 0.000000 
#    z 0.176150 0.000000 3.256480 
# 
# 
# High freq. dielectric constant tensor:
#      x y z
#    x 1.681950 0.000000 0.001220 
#    y 0.000000 1.652660 0.000000 
#    z 0.001220 0.000000 1.656310 
# 
# From -- ./inp_files/248962.got.cif
#   From: 2010.06.25/outbox.cif.g09.slc.cpg/sg12_125_cif.got.tgz:248962.got - 2010.06.28 00:19:55.
