data_PCOD8113152
_publ_section_title
;
Structure prediction by ZEFSAII (Michael W. Deem and Ramdas Pophale) SiO2 
 PCOD8113152
Probable space group: C 2/M
;
_chemical_formula_sum "Si O2"
_cell_formula_units_Z 40
_cell_length_a 16.894819
_cell_length_b 23.279053
_cell_length_c 9.361964
_cell_angle_alpha 90.000000
_cell_angle_beta 151.916922
_cell_angle_gamma 90.000000
_cell_volume 1733.314517
_symmetry_space_group_name_H-M "C 2/M"
_symmetry_group_IT_number 12
_symmetry_cell_setting 'monoclinic'
loop_
_space_group_symop_operation_xyz
x,y,z
-x,y,-z
-x,-y,-z
x,-y,z
1/2+x,1/2+y,z
1/2-x,1/2+y,-z
1/2-x,1/2-y,-z
1/2+x,1/2-y,z
loop_
_atom_site_type_symbol
_atom_site_label
_atom_site_fract_x
_atom_site_fract_y
_atom_site_fract_z
Si Si1 0.500673 0.935510 0.332603
Si Si2 0.913115 0.149022 0.712302
Si Si3 0.670976 0.261103 0.027310
Si Si4 0.640695 0.565726 0.620273
Si Si5 0.114522 0.318860 0.403551
O O1 0.500000 0.926598 0.500000
O O2 0.617919 0.886461 0.451683
O O3 0.566822 0.000000 0.399577
O O4 0.315987 0.926213 0.978061
O O5 0.859940 0.094329 0.536018
O O6 0.744761 0.186121 0.479393
O O7 0.037903 0.186919 0.815325
O O8 0.000000 0.130534 0.000000
O O9 0.573605 0.203926 0.931876
O O10 0.750000 0.250000 0.000000
O O11 0.826684 0.277285 0.375053
O O12 0.500000 0.593003 0.500000
O O13 0.597127 0.500000 0.520584
#
# Coordination Sequence:
#
# PCOD8113152 Si02
#       5
#     8   8   8   8   8
#     4  10  23  44  71 103 141 183 234 289 345 418
#     4  10  25  45  68 103 145 181 229 288 355 418
#     4  11  24  43  67  99 135 183 233 281 342 416
#     4  10  24  44  72 105 138 185 238 288 347 412
#     4  11  25  44  68 102 141 183 228 286 354 410
#
# _framework density 23.077175
#
# number of rings (size 3 to 8) (size 9 to 14) (size 15 to 20)
#    0.000    1.600    0.000    2.400   11.200    2.000 
#    0.000    2.000    0.000    0.000    0.000    0.000 
#    0.000    0.000    0.000    0.000    0.000    0.000 
#
# Total GULP energy -247978.319579 kJ/mol
# GULP energy per Si atom -12398.915979 kJ/mol
# Density = 2.302465 g / cm^3
# Si number density = 23.077175 Si / 1000 Ang^3
#
#
#
# Elastic Constant Matrix: (Units=GPa)
#
#
# Indices 1 2 3 4 5 6 
#
# 1 134.2797 34.6940 66.0424 0.0000 -5.4831 0.0000
# 2 34.6940 106.7852 66.8141 0.0000 -14.9235 0.0000
# 3 66.0424 66.8141 93.6906 0.0000 -10.6675 0.0000
# 4 0.0000 0.0000 0.0000 64.5911 0.0000 -2.8151
# 5 -5.4831 -14.9235 -10.6675 0.0000 34.6217 0.0000
# 6 0.0000 0.0000 0.0000 -2.8151 0.0000 39.1925
#
#
#
# Elastic Compliance Matrix: (Units=1/GPa)
#
#
# Indices 1 2 3 4 5 6 
#
# 1 0.011748 0.002442 -0.010043 0.000000 -0.000181 0.000000
# 2 0.002442 0.017888 -0.014049 0.000000 0.003769 0.000000
# 3 -0.010043 -0.014049 0.027879 0.000000 0.000944 0.000000
# 4 0.000000 0.000000 0.000000 0.015531 0.000000 0.001116
# 5 -0.000181 0.003769 0.000944 0.000000 0.030770 0.000000
# 6 0.000000 0.000000 0.000000 0.001116 0.000000 0.025595
#
#
# Mechanical properties :
#
#
# Convention : Reuss Voigt Hill
#
# Bulk Modulus (GPa) = 70.34901 74.42849 72.38875
# Shear Modulus (GPa) = 28.17689 38.82806 33.50247
#
# Velocity S-wave (km/s) = 3.49805 4.10632 3.81433
# Velocity P-wave (km/s) = 6.84584 7.40300 7.12987
#
# Compressibility (1/GPa) = 0.01421484
#
# Stress axis : x y z
#
# Youngs Moduli (GPa) = 85.11743 55.90335 35.86932
#
# Poissons Ratio (x) = -0.13649 0.36025
# Poissons Ratio (y) = -0.20782 0.50391
# Poissons Ratio (z) = 0.85486 0.78536
#
# Static dielectric constant tensor:
#      x y z
#    x 4.089540 0.000000 0.102090 
#    y 0.000000 4.318940 0.000000 
#    z 0.102090 0.000000 3.909220 
# 
# 
# High freq. dielectric constant tensor:
#      x y z
#    x 1.910080 0.000000 0.005070 
#    y 0.000000 1.915880 0.000000 
#    z 0.005070 0.000000 1.922130 
# 
# From -- ./inp_files/79308.got.cif
#   From: 2010.06.25/outbox.cif.g09.slc.cpg/sg12_40_cif.got.tgz:79308.got - 2010.06.28 00:19:55.
