data_PCOD8113563
_publ_section_title
;
Structure prediction by ZEFSAII (Michael W. Deem and Ramdas Pophale) SiO2 
 PCOD8113563
Probable space group: C 2/M
;
_chemical_formula_sum "Si O2"
_cell_formula_units_Z 48
_cell_length_a 22.287958
_cell_length_b 16.695029
_cell_length_c 8.766590
_cell_angle_alpha 90.000000
_cell_angle_beta 118.667054
_cell_angle_gamma 90.000000
_cell_volume 2862.178733
_symmetry_space_group_name_H-M "C 2/M"
_symmetry_group_IT_number 12
_symmetry_cell_setting 'monoclinic'
loop_
_space_group_symop_operation_xyz
x,y,z
-x,y,-z
-x,-y,-z
x,-y,z
1/2+x,1/2+y,z
1/2-x,1/2+y,-z
1/2-x,1/2-y,-z
1/2+x,1/2-y,z
loop_
_atom_site_type_symbol
_atom_site_label
_atom_site_fract_x
_atom_site_fract_y
_atom_site_fract_z
Si Si1 0.325249 0.261410 0.527126
Si Si2 0.306029 0.590449 0.299381
Si Si3 0.920250 0.262115 0.927490
Si Si4 0.164861 0.172472 0.949976
Si Si5 0.349600 0.090376 0.987282
Si Si6 0.309346 0.172212 0.216569
O O1 0.250000 0.250000 0.500000
O O2 0.331895 0.349527 0.461253
O O3 0.382911 0.252759 0.723067
O O4 0.339880 0.191002 0.420504
O O5 0.317822 0.500000 0.370980
O O6 0.348453 0.603082 0.192273
O O7 0.226286 0.608232 0.168599
O O8 0.899885 0.191742 0.021971
O O9 0.901769 0.349929 0.968314
O O10 0.000000 0.256510 0.000000
O O11 0.185126 0.249913 0.879871
O O12 0.229087 0.149309 0.136752
O O13 0.349571 0.102850 0.172185
O O14 0.372993 0.000000 0.980313
#
# Coordination Sequence:
#
# PCOD8113563 Si02
#       6
#     8   8   8   8   8   8
#     4  11  17  31  53  76 104 131 168 219 251 287
#     4   9  17  31  55  80  99 127 171 217 258 293
#     4  11  21  32  50  76 106 141 169 200 255 311
#     4   8  14  29  48  68  95 126 168 204 242 292
#     4   9  17  32  51  76 107 136 166 203 250 305
#     4   8  14  27  50  70  89 129 169 208 242 279
#
# _framework density 16.770440000000001
#
# number of rings (size 3 to 8) (size 9 to 14) (size 15 to 20)
#    0.000    2.667    3.333    2.000    0.000    0.333 
#    0.000   10.000    0.000    4.000    0.000    0.000 
#    0.000    0.000    0.000    0.000    0.000    0.000 
#
# Total GULP energy -297383.388573 kJ/mol
# GULP energy per Si atom -12390.974524 kJ/mol
# Density = 1.673227 g / cm^3
# Si number density = 16.770440 Si / 1000 Ang^3
#
#
#
# Elastic Constant Matrix: (Units=GPa)
#
#
# Indices 1 2 3 4 5 6 
#
# 1 112.8757 39.3360 59.8903 0.0000 -0.6031 0.0000
# 2 39.3360 74.2204 34.5969 0.0000 -5.1180 0.0000
# 3 59.8903 34.5969 99.6886 0.0000 -7.5608 0.0000
# 4 0.0000 0.0000 0.0000 16.1196 0.0000 -5.2808
# 5 -0.6031 -5.1180 -7.5608 0.0000 21.5449 0.0000
# 6 0.0000 0.0000 0.0000 -5.2808 0.0000 20.1698
#
#
#
# Elastic Compliance Matrix: (Units=1/GPa)
#
#
# Indices 1 2 3 4 5 6 
#
# 1 0.014222 -0.004369 -0.007270 0.000000 -0.003191 0.000000
# 2 -0.004369 0.017493 -0.003226 0.000000 0.002901 0.000000
# 3 -0.007270 -0.003226 0.015867 0.000000 0.004598 0.000000
# 4 0.000000 0.000000 0.000000 0.067857 0.000000 0.017766
# 5 -0.003191 0.002901 0.004598 0.000000 0.048628 0.000000
# 6 0.000000 0.000000 0.000000 0.017766 0.000000 0.054231
#
#
# Mechanical properties :
#
#
# Convention : Reuss Voigt Hill
#
# Bulk Modulus (GPa) = 56.01602 61.60346 58.80974
# Shear Modulus (GPa) = 19.68672 21.76430 20.72551
#
# Velocity S-wave (km/s) = 3.42993 3.60638 3.51926
# Velocity P-wave (km/s) = 7.01142 7.35897 7.18729
#
# Compressibility (1/GPa) = 0.01785204
#
# Stress axis : x y z
#
# Youngs Moduli (GPa) = 70.31283 57.16686 63.02251
#
# Poissons Ratio (x) = 0.24975 0.45818
# Poissons Ratio (y) = 0.30718 0.20332
# Poissons Ratio (z) = 0.51118 0.18443
#
# Static dielectric constant tensor:
#      x y z
#    x 3.099080 0.000000 -0.306050 
#    y 0.000000 3.375470 0.000000 
#    z -0.306050 0.000000 3.444130 
# 
# 
# High freq. dielectric constant tensor:
#      x y z
#    x 1.626160 0.000000 -0.027910 
#    y 0.000000 1.632600 0.000000 
#    z -0.027910 0.000000 1.626850 
# 
# From -- ./inp_files/74500.got.cif
#   From: 2010.06.25/outbox.cif.g09.slc.cpg/sg12_38_cif.got.tgz:74500.got - 2010.06.28 00:19:55.
