data_PCOD8113914
_publ_section_title
;
Structure prediction by ZEFSAII (Michael W. Deem and Ramdas Pophale) SiO2 
 PCOD8113914
Probable space group: C 2/M
;
_chemical_formula_sum "Si O2"
_cell_formula_units_Z 48
_cell_length_a 23.491792
_cell_length_b 13.447802
_cell_length_c 11.893442
_cell_angle_alpha 90.000000
_cell_angle_beta 32.979307
_cell_angle_gamma 90.000000
_cell_volume 2045.229993
_symmetry_space_group_name_H-M "C 2/M"
_symmetry_group_IT_number 12
_symmetry_cell_setting 'monoclinic'
loop_
_space_group_symop_operation_xyz
x,y,z
-x,y,-z
-x,-y,-z
x,-y,z
1/2+x,1/2+y,z
1/2-x,1/2+y,-z
1/2-x,1/2-y,-z
1/2+x,1/2-y,z
loop_
_atom_site_type_symbol
_atom_site_label
_atom_site_fract_x
_atom_site_fract_y
_atom_site_fract_z
Si Si1 0.822505 0.784708 0.602343
Si Si2 0.382150 0.885727 0.652380
Si Si3 0.670377 0.886161 0.703575
Si Si4 0.498581 0.110322 0.180759
Si Si5 0.344493 0.213670 0.934958
Si Si6 0.523920 0.385261 0.333258
O O1 0.858516 0.670286 0.571594
O O2 0.759639 0.805858 0.590119
O O3 0.921396 0.857590 0.431397
O O4 0.745812 0.818269 0.830346
O O5 0.500000 0.874430 0.500000
O O6 0.313010 0.829796 0.863926
O O7 0.348005 0.000000 0.696915
O O8 0.611728 0.846631 0.686741
O O9 0.713438 0.000000 0.615580
O O10 0.583355 0.890646 0.942883
O O11 0.542467 0.169568 0.214369
O O12 0.477398 0.000000 0.261896
O O13 0.371362 0.330985 0.884512
O O14 0.500000 0.350946 0.500000
O O15 0.548990 0.500000 0.280468
#
# Coordination Sequence:
#
# PCOD8113914 Si02
#       6
#     8   8   8   8   8   8
#     4  11  20  36  57  80 109 145 185 222 271 332
#     4  11  22  36  53  76 110 143 177 226 278 324
#     4   8  15  29  52  82 110 140 180 227 270 317
#     4   8  15  29  52  82 111 139 180 227 271 317
#     4  11  20  36  57  83 110 144 183 225 275 329
#     4  11  23  38  54  78 115 150 183 227 276 329
#
# _framework density 23.469242999999999
#
# number of rings (size 3 to 8) (size 9 to 14) (size 15 to 20)
#    0.000    2.000    3.333    2.500    0.000    2.667 
#    0.000    0.833    0.000    1.000    0.000    4.667 
#    0.000    0.000    0.000    0.000    0.000    0.000 
#
# Total GULP energy -297408.136733 kJ/mol
# GULP energy per Si atom -12392.005697 kJ/mol
# Density = 2.341583 g / cm^3
# Si number density = 23.469243 Si / 1000 Ang^3
#
#
#
# Elastic Constant Matrix: (Units=GPa)
#
#
# Indices 1 2 3 4 5 6 
#
# 1 129.5389 31.2414 0.5164 0.0000 -30.2815 0.0000
# 2 31.2414 110.2935 9.4203 0.0000 -24.8259 0.0000
# 3 0.5164 9.4203 56.2035 0.0000 -14.8196 0.0000
# 4 0.0000 0.0000 0.0000 19.4496 0.0000 -6.4257
# 5 -30.2815 -24.8259 -14.8196 0.0000 33.8543 0.0000
# 6 0.0000 0.0000 0.0000 -6.4257 0.0000 31.3560
#
#
#
# Elastic Compliance Matrix: (Units=1/GPa)
#
#
# Indices 1 2 3 4 5 6 
#
# 1 0.010165 -0.000957 0.002577 0.000000 0.009519 0.000000
# 2 -0.000957 0.010954 0.000074 0.000000 0.007209 0.000000
# 3 0.002577 0.000074 0.020777 0.000000 0.011454 0.000000
# 4 0.000000 0.000000 0.000000 0.055149 0.000000 0.011301
# 5 0.009519 0.007209 0.011454 0.000000 0.048353 0.000000
# 6 0.000000 0.000000 0.000000 0.011301 0.000000 0.034208
#
#
# Mechanical properties :
#
#
# Convention : Reuss Voigt Hill
#
# Bulk Modulus (GPa) = 22.08309 42.04355 32.06332
# Shear Modulus (GPa) = 26.13518 33.92250 30.02884
#
# Velocity S-wave (km/s) = 3.34067 3.80597 3.58089
# Velocity P-wave (km/s) = 4.93051 6.10468 5.54874
#
# Compressibility (1/GPa) = 0.04528353
#
# Stress axis : x y z
#
# Youngs Moduli (GPa) = 98.37333 91.28918 48.13104
#
# Poissons Ratio (x) = 0.08735 -0.12403
# Poissons Ratio (y) = 0.09413 -0.00355
# Poissons Ratio (z) = -0.25350 -0.00673
#
# Static dielectric constant tensor:
#      x y z
#    x 4.802810 0.000000 -0.348300 
#    y 0.000000 4.164180 0.000000 
#    z -0.348300 0.000000 4.061450 
# 
# 
# High freq. dielectric constant tensor:
#      x y z
#    x 1.939360 0.000000 -0.016440 
#    y 0.000000 1.917160 0.000000 
#    z -0.016440 0.000000 1.928830 
# 
# From -- ./inp_files/240768.got.cif
#   From: 2010.06.25/outbox.cif.g09.slc.cpg/sg12_121_cif.got.tgz:240768.got - 2010.06.28 00:19:55.
