data_PCOD8113439
_publ_section_title
;
Structure prediction by ZEFSAII (Michael W. Deem and Ramdas Pophale) SiO2 
 PCOD8113439
Probable space group: C 2/M
;
_chemical_formula_sum "Si O2"
_cell_formula_units_Z 40
_cell_length_a 9.687771
_cell_length_b 21.621988
_cell_length_c 8.971206
_cell_angle_alpha 90.000000
_cell_angle_beta 82.553270
_cell_angle_gamma 90.000000
_cell_volume 1863.338895
_symmetry_space_group_name_H-M "C 2/M"
_symmetry_group_IT_number 12
_symmetry_cell_setting 'monoclinic'
loop_
_space_group_symop_operation_xyz
x,y,z
-x,y,-z
-x,-y,-z
x,-y,z
1/2+x,1/2+y,z
1/2-x,1/2+y,-z
1/2-x,1/2-y,-z
1/2+x,1/2-y,z
loop_
_atom_site_type_symbol
_atom_site_label
_atom_site_fract_x
_atom_site_fract_y
_atom_site_fract_z
Si Si1 0.008403 0.380871 0.337879
Si Si2 0.231727 0.725066 0.335402
Si Si3 0.048810 0.862255 0.832983
Si Si4 0.208011 0.431240 0.081145
Si Si5 0.743996 0.646972 0.202361
O O1 0.093106 0.316312 0.337478
O O2 0.078275 0.427072 0.211201
O O3 0.000000 0.413259 0.500000
O O4 0.846968 0.370301 0.320872
O O5 0.250000 0.750000 0.500000
O O6 0.370279 0.687385 0.277000
O O7 0.219320 0.779293 0.213821
O O8 0.147932 0.921248 0.849106
O O9 0.910141 0.883998 0.762204
O O10 0.000000 0.833828 0.000000
O O11 0.208331 0.500000 0.010305
O O12 0.188261 0.377086 0.961719
#
# Coordination Sequence:
#
# PCOD8113439 Si02
#       5
#     8   8   8   8   8
#     4  11  23  40  62  99 128 169 208 259 324 379
#     4  11  22  40  61  93 139 170 197 256 319 390
#     4   9  22  39  62  94 122 168 210 259 319 375
#     4  10  24  46  65  87 126 170 220 270 314 372
#     4  11  22  37  66  95 124 165 214 257 316 379
#
# _framework density 21.466840999999999
#
# number of rings (size 3 to 8) (size 9 to 14) (size 15 to 20)
#    0.000    1.600    2.000    1.800    0.000   14.400 
#    0.000    0.000    0.000    1.200    0.000    0.000 
#    0.000    0.000    0.000    0.000    0.000    0.000 
#
# Total GULP energy -247877.810122 kJ/mol
# GULP energy per Si atom -12393.890506 kJ/mol
# Density = 2.141798 g / cm^3
# Si number density = 21.466841 Si / 1000 Ang^3
#
#
#
# Elastic Constant Matrix: (Units=GPa)
#
#
# Indices 1 2 3 4 5 6 
#
# 1 147.4314 7.7712 40.2699 0.0000 21.8718 0.0000
# 2 7.7712 91.2505 42.8792 0.0000 -1.6592 0.0000
# 3 40.2699 42.8792 102.4564 0.0000 -6.9863 0.0000
# 4 0.0000 0.0000 0.0000 18.2647 0.0000 -5.5470
# 5 21.8718 -1.6592 -6.9863 0.0000 40.2811 0.0000
# 6 0.0000 0.0000 0.0000 -5.5470 0.0000 10.9150
#
#
#
# Elastic Compliance Matrix: (Units=1/GPa)
#
#
# Indices 1 2 3 4 5 6 
#
# 1 0.008692 0.001170 -0.004275 0.000000 -0.005413 0.000000
# 2 0.001170 0.013807 -0.006317 0.000000 -0.001162 0.000000
# 3 -0.004275 -0.006317 0.014395 0.000000 0.004558 0.000000
# 4 0.000000 0.000000 0.000000 0.064743 0.000000 0.032902
# 5 -0.005413 -0.001162 0.004558 0.000000 0.028507 0.000000
# 6 0.000000 0.000000 0.000000 0.032902 0.000000 0.108338
#
#
# Mechanical properties :
#
#
# Convention : Reuss Voigt Hill
#
# Bulk Modulus (GPa) = 55.40440 58.10876 56.75658
# Shear Modulus (GPa) = 18.98667 30.57336 24.78002
#
# Velocity S-wave (km/s) = 2.97722 3.77797 3.40124
# Velocity P-wave (km/s) = 6.13871 6.79401 6.47466
#
# Compressibility (1/GPa) = 0.01804911
#
# Stress axis : x y z
#
# Youngs Moduli (GPa) = 115.05030 72.42876 69.46713
#
# Poissons Ratio (x) = -0.08476 0.29698
# Poissons Ratio (y) = -0.13464 0.43886
# Poissons Ratio (z) = 0.49186 0.45757
#
# Static dielectric constant tensor:
#      x y z
#    x 4.245160 0.000000 -0.005180 
#    y 0.000000 3.621360 0.000000 
#    z -0.005180 0.000000 3.905260 
# 
# 
# High freq. dielectric constant tensor:
#      x y z
#    x 1.868240 0.000000 -0.000720 
#    y 0.000000 1.806370 0.000000 
#    z -0.000720 0.000000 1.836220 
# 
# From -- ./inp_files/39315.got.cif
#   From: 2010.06.25/outbox.cif.g09.slc.cpg/sg12_20_cif.got.tgz:39315.got - 2010.06.28 00:19:55.
