data_PCOD8113755
_publ_section_title
;
Structure prediction by ZEFSAII (Michael W. Deem and Ramdas Pophale) SiO2 
 PCOD8113755
Probable space group: C 2/M
;
_chemical_formula_sum "Si O2"
_cell_formula_units_Z 48
_cell_length_a 27.950722
_cell_length_b 9.066462
_cell_length_c 19.914605
_cell_angle_alpha 90.000000
_cell_angle_beta 33.298649
_cell_angle_gamma 90.000000
_cell_volume 2770.622634
_symmetry_space_group_name_H-M "C 2/M"
_symmetry_group_IT_number 12
_symmetry_cell_setting 'monoclinic'
loop_
_space_group_symop_operation_xyz
x,y,z
-x,y,-z
-x,-y,-z
x,-y,z
1/2+x,1/2+y,z
1/2-x,1/2+y,-z
1/2-x,1/2-y,-z
1/2+x,1/2-y,z
loop_
_atom_site_type_symbol
_atom_site_label
_atom_site_fract_x
_atom_site_fract_y
_atom_site_fract_z
Si Si1 0.565718 0.837418 0.861256
Si Si2 0.302431 0.326205 0.210723
Si Si3 0.595512 0.173413 0.026763
Si Si4 0.157869 0.673496 0.099936
Si Si5 0.129001 0.830580 0.394379
Si Si6 0.440672 0.669455 0.669101
O O1 0.643575 0.725151 0.786690
O O2 0.506226 0.784692 0.867996
O O3 0.605754 0.000000 0.800810
O O4 0.500000 0.845277 0.000000
O O5 0.307554 0.500000 0.199983
O O6 0.203220 0.275137 0.336422
O O7 0.339638 0.258426 0.098676
O O8 0.616845 0.220593 0.077127
O O9 0.610235 0.000000 0.996758
O O10 0.171749 0.500000 0.088469
O O11 0.091571 0.723957 0.234861
O O12 0.250000 0.750000 0.000000
O O13 0.111321 0.791781 0.337575
O O14 0.042898 0.802127 0.539002
O O15 0.158845 0.000000 0.365663
O O16 0.423120 0.500000 0.709637
#
# Coordination Sequence:
#
# PCOD8113755 Si02
#       6
#     8   8   8   8   8   8
#     4   8  15  30  49  66  90 127 164 195 234 285
#     4  11  20  28  46  77 103 122 154 202 246 280
#     4   9  19  34  49  67  96 134 166 191 231 289
#     4  11  22  34  50  73 101 130 160 195 235 283
#     4   9  18  34  53  70  94 129 163 195 234 287
#     4   9  19  35  53  72  94 125 165 201 235 278
#
# _framework density 17.324625999999999
#
# number of rings (size 3 to 8) (size 9 to 14) (size 15 to 20)
#    0.000    2.500    0.000    5.000    0.000    9.667 
#    0.000    1.667    0.000    1.000    0.000    0.000 
#    0.000    0.000    0.000    0.000    0.000    0.000 
#
# Total GULP energy -297572.409924 kJ/mol
# GULP energy per Si atom -12398.850414 kJ/mol
# Density = 1.728519 g / cm^3
# Si number density = 17.324626 Si / 1000 Ang^3
#
#
#
# Elastic Constant Matrix: (Units=GPa)
#
#
# Indices 1 2 3 4 5 6 
#
# 1 137.2477 56.7578 57.0015 -0.0041 -13.8798 0.0013
# 2 56.7578 83.8215 44.2654 -0.0165 -9.0492 0.0082
# 3 57.0015 44.2654 77.2547 -0.0100 -8.3869 0.0045
# 4 -0.0041 -0.0165 -0.0100 28.3312 0.0021 0.3448
# 5 -13.8798 -9.0492 -8.3869 0.0021 27.7070 -0.0004
# 6 0.0013 0.0082 0.0045 0.3448 -0.0004 22.8712
#
#
#
# Elastic Compliance Matrix: (Units=1/GPa)
#
#
# Indices 1 2 3 4 5 6 
#
# 1 0.011916 -0.004718 -0.005798 -0.000003 0.002673 0.000002
# 2 -0.004718 0.019173 -0.007322 0.000008 0.001682 -0.000005
# 3 -0.005798 -0.007322 0.021551 0.000002 0.001227 -0.000001
# 4 -0.000003 0.000008 0.000002 0.035303 -0.000001 -0.000532
# 5 0.002673 0.001682 0.001227 -0.000001 0.038352 0.000000
# 6 0.000002 -0.000005 -0.000001 -0.000532 0.000000 0.043731
#
#
# Mechanical properties :
#
#
# Convention : Reuss Voigt Hill
#
# Bulk Modulus (GPa) = 58.95146 68.26369 63.60758
# Shear Modulus (GPa) = 23.65663 25.13517 24.39590
#
# Velocity S-wave (km/s) = 3.69926 3.81311 3.75662
# Velocity P-wave (km/s) = 7.23516 7.67298 7.45728
#
# Compressibility (1/GPa) = 0.01696311
#
# Stress axis : x y z
#
# Youngs Moduli (GPa) = 83.92371 52.15673 46.40105
#
# Poissons Ratio (x) = 0.24606 0.26905
# Poissons Ratio (y) = 0.39592 0.33976
# Poissons Ratio (z) = 0.48663 0.38190
#
# Static dielectric constant tensor:
#      x y z
#    x 3.611380 -0.000010 -0.192140 
#    y -0.000010 3.167140 0.000010 
#    z -0.192140 0.000010 3.007440 
# 
# 
# High freq. dielectric constant tensor:
#      x y z
#    x 1.673840 0.000000 -0.020180 
#    y 0.000000 1.665450 0.000000 
#    z -0.020180 0.000000 1.644790 
# 
# From -- ./inp_files/248794.got.cif
#   From: 2010.06.25/outbox.cif.g09.slc.cpg/sg12_125_cif.got.tgz:248794.got - 2010.06.28 00:19:55.
