data_PCOD8113997
_publ_section_title
;
Structure prediction by ZEFSAII (Michael W. Deem and Ramdas Pophale) SiO2 
 PCOD8113997
Probable space group: C 2/M
;
_chemical_formula_sum "Si O2"
_cell_formula_units_Z 32
_cell_length_a 10.575013
_cell_length_b 15.134493
_cell_length_c 12.986890
_cell_angle_alpha 90.000000
_cell_angle_beta 44.557321
_cell_angle_gamma 90.000000
_cell_volume 1458.335483
_symmetry_space_group_name_H-M "C 2/M"
_symmetry_group_IT_number 12
_symmetry_cell_setting 'monoclinic'
loop_
_space_group_symop_operation_xyz
x,y,z
-x,y,-z
-x,-y,-z
x,-y,z
1/2+x,1/2+y,z
1/2-x,1/2+y,-z
1/2-x,1/2-y,-z
1/2+x,1/2-y,z
loop_
_atom_site_type_symbol
_atom_site_label
_atom_site_fract_x
_atom_site_fract_y
_atom_site_fract_z
Si Si1 0.601318 0.901628 0.087686
Si Si2 0.697432 0.346708 0.832874
Si Si3 0.249441 0.151574 0.203200
Si Si4 0.215640 0.500000 0.370374
Si Si5 0.484894 0.500000 0.387379
O O1 0.652860 0.873780 0.171454
O O2 0.385549 0.899693 0.200388
O O3 0.672907 0.000000 0.023019
O O4 0.683203 0.837305 0.953845
O O5 0.763864 0.252301 0.749359
O O6 0.704643 0.414770 0.734616
O O7 0.500000 0.345384 0.000000
O O8 0.070565 0.093216 0.302218
O O9 0.289033 0.500000 0.445784
O O10 0.000000 0.500000 0.500000
O O11 0.500000 0.500000 0.500000
#
# Coordination Sequence:
#
# PCOD8113997 Si02
#       5
#     8   8   8   4   4
#     4  11  20  39  69 101 145 171 219 287 360 396
#     4  12  25  43  73 106 139 181 228 291 354 411
#     4  11  23  41  69 108 136 172 230 291 343 412
#     4  12  31  51  67  99 146 188 234 283 348 418
#     4  12  28  48  73  96 137 192 238 277 341 424
#
# _framework density 21.942824999999999
#
# number of rings (size 3 to 8) (size 9 to 14) (size 15 to 20)
#    0.000    0.500    6.250    3.375    7.000    1.000 
#    0.000    2.500    0.000    0.000    0.000    0.000 
#    0.000    0.000    0.000    0.000    0.000    0.000 
#
# Total GULP energy -198343.860340 kJ/mol
# GULP energy per Si atom -12396.491271 kJ/mol
# Density = 2.189288 g / cm^3
# Si number density = 21.942825 Si / 1000 Ang^3
#
#
#
# Elastic Constant Matrix: (Units=GPa)
#
#
# Indices 1 2 3 4 5 6 
#
# 1 167.0440 23.2782 43.1763 -0.0005 7.2561 0.0001
# 2 23.2782 170.9913 37.1999 -0.0003 0.0084 0.0001
# 3 43.1763 37.1999 57.6457 -0.0012 -8.5713 0.0006
# 4 -0.0005 -0.0003 -0.0012 12.1035 0.0007 1.9990
# 5 7.2561 0.0084 -8.5713 0.0007 35.9171 -0.0003
# 6 0.0001 0.0001 0.0006 1.9990 -0.0003 24.5020
#
#
#
# Elastic Compliance Matrix: (Units=1/GPa)
#
#
# Indices 1 2 3 4 5 6 
#
# 1 0.007752 0.000359 -0.006502 0.000000 -0.003118 0.000000
# 2 0.000359 0.006861 -0.004881 0.000000 -0.001239 0.000000
# 3 -0.006502 -0.004881 0.026503 0.000002 0.007639 -0.000001
# 4 0.000000 0.000000 0.000002 0.083749 -0.000001 -0.006833
# 5 -0.003118 -0.001239 0.007639 -0.000001 0.030295 0.000000
# 6 0.000000 0.000000 -0.000001 -0.006833 0.000000 0.041370
#
#
# Mechanical properties :
#
#
# Convention : Reuss Voigt Hill
#
# Bulk Modulus (GPa) = 52.44041 66.99885 59.71963
# Shear Modulus (GPa) = 22.22864 33.97296 28.10080
#
# Velocity S-wave (km/s) = 3.18626 3.93905 3.58248
# Velocity P-wave (km/s) = 6.12265 7.16155 6.66238
#
# Compressibility (1/GPa) = 0.01906926
#
# Stress axis : x y z
#
# Youngs Moduli (GPa) = 128.99251 145.74511 37.73155
#
# Poissons Ratio (x) = -0.05237 0.24533
# Poissons Ratio (y) = -0.04635 0.18417
# Poissons Ratio (z) = 0.83870 0.71139
#
# Static dielectric constant tensor:
#      x y z
#    x 4.106020 0.000000 -0.108340 
#    y 0.000000 5.340420 0.000000 
#    z -0.108340 0.000000 3.604030 
# 
# 
# High freq. dielectric constant tensor:
#      x y z
#    x 1.881530 0.000000 -0.002630 
#    y 0.000000 1.880230 0.000000 
#    z -0.002630 0.000000 1.816450 
# 
# From -- ./inp_files/204138.got.cif
#   From: 2010.06.25/outbox.cif.g09.slc.cpg/sg12_103_cif.got.tgz:204138.got - 2010.06.28 00:19:55.
