data_PCOD8113153
_publ_section_title
;
Structure prediction by ZEFSAII (Michael W. Deem and Ramdas Pophale) SiO2 
 PCOD8113153
Probable space group: C 2/M
;
_chemical_formula_sum "Si O2"
_cell_formula_units_Z 64
_cell_length_a 9.101819
_cell_length_b 28.419508
_cell_length_c 15.706007
_cell_angle_alpha 90.000000
_cell_angle_beta 46.306410
_cell_angle_gamma 90.000000
_cell_volume 2937.484097
_symmetry_space_group_name_H-M "C 2/M"
_symmetry_group_IT_number 12
_symmetry_cell_setting 'monoclinic'
loop_
_space_group_symop_operation_xyz
x,y,z
-x,y,-z
-x,-y,-z
x,-y,z
1/2+x,1/2+y,z
1/2-x,1/2+y,-z
1/2-x,1/2-y,-z
1/2+x,1/2-y,z
loop_
_atom_site_type_symbol
_atom_site_label
_atom_site_fract_x
_atom_site_fract_y
_atom_site_fract_z
Si Si1 0.234498 0.874703 0.923542
Si Si2 0.817916 0.269844 0.631010
Si Si3 0.794813 0.445081 0.038033
Si Si4 0.566214 0.697981 0.289028
Si Si5 0.620220 0.445420 0.700479
Si Si6 0.109904 0.110080 0.543810
Si Si7 0.416687 0.128796 0.667339
Si Si8 0.699728 0.203298 0.970530
O O1 0.263445 0.925376 0.955464
O O2 0.365065 0.872788 0.786735
O O3 0.330750 0.837834 0.950074
O O4 0.000000 0.862950 0.000000
O O5 0.630180 0.269096 0.642097
O O6 0.845663 0.322467 0.655049
O O7 0.000000 0.251398 0.500000
O O8 0.777578 0.231328 0.721448
O O9 0.821079 0.500000 0.015844
O O10 0.596270 0.431781 0.171979
O O11 0.000000 0.424344 0.000000
O O12 0.519110 0.650711 0.358641
O O13 0.635620 0.686513 0.165061
O O14 0.673591 0.500000 0.695043
O O15 0.603938 0.435876 0.606151
O O16 0.801028 0.413814 0.666724
O O17 0.342086 0.125271 0.438055
O O18 0.000000 0.096893 0.500000
O O19 0.500000 0.214655 0.000000
O O20 0.750000 0.250000 0.000000
#
# Coordination Sequence:
#
# PCOD8113153 Si02
#       8
#     8   8   8   8   8   8   8   8
#     4  12  24  42  70 100 137 181 229 282 350 415
#     4  12  23  42  65  97 134 178 231 279 343 408
#     4  10  23  44  72 105 140 178 227 287 354 424
#     4  12  25  43  69  96 140 179 230 286 352 410
#     4  11  24  49  76 101 140 189 232 289 358 423
#     4  12  28  44  68 103 140 179 238 292 350 419
#     4  12  25  45  67 102 141 182 233 289 341 428
#     4  12  26  45  67  99 139 183 235 288 350 420
#
# _framework density 21.787351999999998
#
# number of rings (size 3 to 8) (size 9 to 14) (size 15 to 20)
#    0.000    0.375    3.750    4.875    5.250    2.000 
#    0.000    0.000    0.000    0.000    0.000    0.000 
#    0.000    0.000    0.000    0.000    0.000    0.000 
#
# Total GULP energy -396902.630564 kJ/mol
# GULP energy per Si atom -12403.207205 kJ/mol
# Density = 2.173776 g / cm^3
# Si number density = 21.787352 Si / 1000 Ang^3
#
#
#
# Elastic Constant Matrix: (Units=GPa)
#
#
# Indices 1 2 3 4 5 6 
#
# 1 113.7373 35.6597 26.2176 0.0000 13.3392 0.0000
# 2 35.6597 91.1993 32.5164 0.0000 10.9537 0.0000
# 3 26.2176 32.5164 119.2267 0.0000 22.6397 0.0000
# 4 0.0000 0.0000 0.0000 -26.6170 0.0000 -29.1122
# 5 13.3392 10.9537 22.6397 0.0000 43.9733 0.0000
# 6 0.0000 0.0000 0.0000 -29.1122 0.0000 13.9259
#
#
#
# Elastic Compliance Matrix: (Units=1/GPa)
#
#
# Indices 1 2 3 4 5 6 
#
# 1 0.010314 -0.003469 -0.000988 0.000000 -0.001756 0.000000
# 2 -0.003469 0.013399 -0.002724 0.000000 -0.000883 0.000000
# 3 -0.000988 -0.002724 0.010155 0.000000 -0.004250 0.000000
# 4 0.000000 0.000000 0.000000 -0.011432 0.000000 -0.023898
# 5 -0.001756 -0.000883 -0.004250 0.000000 0.025682 0.000000
# 6 0.000000 0.000000 0.000000 -0.023898 0.000000 0.021850
#
#
# Mechanical properties :
#
#
# Convention : Reuss Voigt Hill
#
# Bulk Modulus (GPa) = 51.27167 56.99453 54.13310
# Shear Modulus (GPa) = 55.04741 21.57441 38.31091
#
# Velocity S-wave (km/s) = 5.03196 3.15020 4.19788
# Velocity P-wave (km/s) = 7.57263 6.28076 6.95675
#
# Compressibility (1/GPa) = 0.01950395
#
# Stress axis : x y z
#
# Youngs Moduli (GPa) = 96.95859 74.63403 98.47841
#
# Poissons Ratio (x) = 0.25894 0.09733
# Poissons Ratio (y) = 0.33640 0.26822
# Poissons Ratio (z) = 0.09583 0.20327
#
# Static dielectric constant tensor:
#      x y z
#    x 4.255410 0.000000 0.079960 
#    y 0.000000 4.132760 0.000000 
#    z 0.079960 0.000000 4.122210 
# 
# 
# High freq. dielectric constant tensor:
#      x y z
#    x 1.872160 0.000000 0.003410 
#    y 0.000000 1.854570 0.000000 
#    z 0.003410 0.000000 1.870560 
# 
# From -- ./inp_files/201252.got.cif
#   From: 2010.06.25/outbox.cif.g09.slc.cpg/sg12_101_cif.got.tgz:201252.got - 2010.06.28 00:19:55.
