data_PCOD8113309
_publ_section_title
;
Structure prediction by ZEFSAII (Michael W. Deem and Ramdas Pophale) SiO2 
 PCOD8113309
Probable space group: C 2/M
;
_chemical_formula_sum "Si O2"
_cell_formula_units_Z 32
_cell_length_a 13.759425
_cell_length_b 18.355552
_cell_length_c 10.171771
_cell_angle_alpha 90.000000
_cell_angle_beta 147.942896
_cell_angle_gamma 90.000000
_cell_volume 1363.533899
_symmetry_space_group_name_H-M "C 2/M"
_symmetry_group_IT_number 12
_symmetry_cell_setting 'monoclinic'
loop_
_space_group_symop_operation_xyz
x,y,z
-x,y,-z
-x,-y,-z
x,-y,z
1/2+x,1/2+y,z
1/2-x,1/2+y,-z
1/2-x,1/2-y,-z
1/2+x,1/2-y,z
loop_
_atom_site_type_symbol
_atom_site_label
_atom_site_fract_x
_atom_site_fract_y
_atom_site_fract_z
Si Si1 0.823045 0.649321 0.634209
Si Si2 0.102607 0.500000 0.406425
Si Si3 0.575162 0.656610 0.879825
Si Si4 0.297326 0.798937 0.895854
Si Si5 0.721219 0.500000 0.109390
O O1 0.849569 0.565494 0.633668
O O2 0.640515 0.677233 0.350207
O O3 0.792649 0.658767 0.754967
O O4 0.009864 0.688838 0.803899
O O5 0.223187 0.500000 0.675564
O O6 0.890244 0.500000 0.203389
O O7 0.630687 0.671419 0.791743
O O8 0.700106 0.709980 0.115362
O O9 0.601877 0.572382 0.947865
#
# Coordination Sequence:
#
# PCOD8113309 Si02
#       5
#     8   4   8   8   4
#     4  11  23  43  70  98 133 176 221 271 328 392
#     4  11  25  45  68  98 133 178 221 277 335 387
#     4  11  23  44  68 101 133 177 220 268 334 394
#     4  10  24  42  67 102 139 170 217 277 327 395
#     4  11  25  46  69  95 135 176 222 278 332 393
#
# _framework density 23.468430999999999
#
# number of rings (size 3 to 8) (size 9 to 14) (size 15 to 20)
#    0.000    1.250    2.500    2.250    0.000   11.000 
#    4.500    2.500    0.000    0.000    0.000    0.000 
#    0.000    0.000    0.000    0.000    0.000    0.000 
#
# Total GULP energy -198309.253313 kJ/mol
# GULP energy per Si atom -12394.328332 kJ/mol
# Density = 2.341502 g / cm^3
# Si number density = 23.468431 Si / 1000 Ang^3
#
#
#
# Elastic Constant Matrix: (Units=GPa)
#
#
# Indices 1 2 3 4 5 6 
#
# 1 100.5718 24.3068 11.0080 0.0000 -5.6347 0.0000
# 2 24.3068 127.9955 22.1218 0.0000 -10.9889 0.0000
# 3 11.0080 22.1218 86.4604 0.0000 15.7946 0.0000
# 4 0.0000 0.0000 0.0000 23.1497 0.0000 0.3539
# 5 -5.6347 -10.9889 15.7946 0.0000 31.8728 0.0000
# 6 0.0000 0.0000 0.0000 0.3539 0.0000 63.5500
#
#
#
# Elastic Compliance Matrix: (Units=1/GPa)
#
#
# Indices 1 2 3 4 5 6 
#
# 1 0.010585 -0.001620 -0.001290 0.000000 0.001952 0.000000
# 2 -0.001620 0.008978 -0.002863 0.000000 0.004228 0.000000
# 3 -0.001290 -0.002863 0.013947 0.000000 -0.008127 0.000000
# 4 0.000000 0.000000 0.000000 0.043201 0.000000 -0.000241
# 5 0.001952 0.004228 -0.008127 0.000000 0.037205 0.000000
# 6 0.000000 0.000000 0.000000 -0.000241 0.000000 0.015737
#
#
# Mechanical properties :
#
#
# Convention : Reuss Voigt Hill
#
# Bulk Modulus (GPa) = 45.52680 47.76677 46.64678
# Shear Modulus (GPa) = 33.66529 40.88724 37.27626
#
# Velocity S-wave (km/s) = 3.79158 4.17852 3.98974
# Velocity P-wave (km/s) = 6.21364 6.60892 6.41433
#
# Compressibility (1/GPa) = 0.02196509
#
# Stress axis : x y z
#
# Youngs Moduli (GPa) = 94.47207 111.38063 71.69761
#
# Poissons Ratio (x) = 0.18039 0.09248
# Poissons Ratio (y) = 0.15301 0.20530
# Poissons Ratio (z) = 0.12186 0.31892
#
# Static dielectric constant tensor:
#      x y z
#    x 4.144640 0.000000 0.383730 
#    y 0.000000 4.343260 0.000000 
#    z 0.383730 0.000000 4.416790 
# 
# 
# High freq. dielectric constant tensor:
#      x y z
#    x 1.932290 0.000000 0.022540 
#    y 0.000000 1.944120 0.000000 
#    z 0.022540 0.000000 1.923500 
# 
# From -- ./inp_files/146301.got.cif
#   From: 2010.06.25/outbox.cif.g09.slc.cpg/sg12_74_cif.got.tgz:146301.got - 2010.06.28 00:19:55.
