data_PCOD8113570
_publ_section_title
;
Structure prediction by ZEFSAII (Michael W. Deem and Ramdas Pophale) SiO2 
 PCOD8113570
Probable space group: C 2/M
;
_chemical_formula_sum "Si O2"
_cell_formula_units_Z 52
_cell_length_a 8.695485
_cell_length_b 17.685277
_cell_length_c 20.417326
_cell_angle_alpha 90.000000
_cell_angle_beta 62.082722
_cell_angle_gamma 90.000000
_cell_volume 2774.420469
_symmetry_space_group_name_H-M "C 2/M"
_symmetry_group_IT_number 12
_symmetry_cell_setting 'monoclinic'
loop_
_space_group_symop_operation_xyz
x,y,z
-x,y,-z
-x,-y,-z
x,-y,z
1/2+x,1/2+y,z
1/2-x,1/2+y,-z
1/2-x,1/2-y,-z
1/2+x,1/2-y,z
loop_
_atom_site_type_symbol
_atom_site_label
_atom_site_fract_x
_atom_site_fract_y
_atom_site_fract_z
Si Si1 0.937235 0.781676 0.947049
Si Si2 0.603506 0.412512 0.591607
Si Si3 0.500000 0.690405 0.500000
Si Si4 0.275564 0.695945 0.850410
Si Si5 0.747391 0.086862 0.739104
Si Si6 0.303901 0.198192 0.633689
Si Si7 0.002188 0.698129 0.274498
O O1 0.904940 0.826421 0.885361
O O2 0.076411 0.713357 0.910332
O O3 0.750000 0.750000 0.000000
O O4 0.000000 0.829055 0.000000
O O5 0.643180 0.500000 0.569049
O O6 0.616085 0.363946 0.522734
O O7 0.412255 0.400341 0.659457
O O8 0.751177 0.381220 0.611114
O O9 0.627948 0.742929 0.433380
O O10 0.284219 0.624542 0.801380
O O11 0.339007 0.773206 0.801991
O O12 0.577420 0.121616 0.738799
O O13 0.708710 0.000000 0.759868
O O14 0.445345 0.181458 0.661130
O O15 0.137082 0.234594 0.701325
#
# Coordination Sequence:
#
# PCOD8113570 Si02
#       7
#     8   8   4   8   8   8   8
#     4   9  19  31  55  95 117 143 190 236 270 327
#     4  11  24  40  57  83 117 151 193 242 300 352
#     4  12  21  38  63  78 110 160 194 240 295 356
#     4  11  17  34  61  84 115 152 188 237 278 329
#     4  11  23  38  58  88 119 152 191 242 297 341
#     4  12  22  36  60  85 110 146 203 241 290 342
#     4  12  20  37  60  87 111 148 197 248 280 334
#
# _framework density 18.742653000000001
#
# number of rings (size 3 to 8) (size 9 to 14) (size 15 to 20)
#    0.000    0.923    7.692    0.692    0.000    0.615 
#    0.000    0.385    0.000    4.615    0.000    0.000 
#    0.000    0.000    0.000    0.000    0.000    0.000 
#
# Total GULP energy -322299.669627 kJ/mol
# GULP energy per Si atom -12396.141140 kJ/mol
# Density = 1.869999 g / cm^3
# Si number density = 18.742653 Si / 1000 Ang^3
#
#
#
# Elastic Constant Matrix: (Units=GPa)
#
#
# Indices 1 2 3 4 5 6 
#
# 1 120.0821 56.0260 52.6996 0.0000 33.0820 0.0000
# 2 56.0260 118.7358 46.6197 0.0000 14.9450 0.0000
# 3 52.6996 46.6197 98.6283 0.0000 24.1844 0.0000
# 4 0.0000 0.0000 0.0000 13.7428 0.0000 3.0917
# 5 33.0820 14.9450 24.1844 0.0000 40.7972 0.0000
# 6 0.0000 0.0000 0.0000 3.0917 0.0000 30.3276
#
#
#
# Elastic Compliance Matrix: (Units=1/GPa)
#
#
# Indices 1 2 3 4 5 6 
#
# 1 0.013988 -0.004223 -0.003599 0.000000 -0.007662 0.000000
# 2 -0.004223 0.011654 -0.003563 0.000000 0.001267 0.000000
# 3 -0.003599 -0.003563 0.014873 0.000000 -0.004592 0.000000
# 4 0.000000 0.000000 0.000000 0.074474 0.000000 -0.007592
# 5 -0.007662 0.001267 -0.004592 0.000000 0.032983 0.000000
# 6 0.000000 0.000000 0.000000 -0.007592 0.000000 0.033747
#
#
# Mechanical properties :
#
#
# Convention : Reuss Voigt Hill
#
# Bulk Modulus (GPa) = 56.35524 72.01520 64.18522
# Shear Modulus (GPa) = 23.76375 29.11357 26.43866
#
# Velocity S-wave (km/s) = 3.56462 3.94551 3.75989
# Velocity P-wave (km/s) = 6.86114 7.69822 7.29170
#
# Compressibility (1/GPa) = 0.01774458
#
# Stress axis : x y z
#
# Youngs Moduli (GPa) = 71.48747 85.80696 67.23756
#
# Poissons Ratio (x) = 0.36234 0.24202
# Poissons Ratio (y) = 0.30188 0.23957
# Poissons Ratio (z) = 0.25732 0.30573
#
# Static dielectric constant tensor:
#      x y z
#    x 3.929890 0.000000 0.321720 
#    y 0.000000 3.164210 0.000000 
#    z 0.321720 0.000000 3.931660 
# 
# 
# High freq. dielectric constant tensor:
#      x y z
#    x 1.744590 0.000000 0.011090 
#    y 0.000000 1.683440 0.000000 
#    z 0.011090 0.000000 1.744260 
# 
# From -- ./inp_files/300416.got.cif
#   From: 2010.06.25/outbox.cif.g09.slc.cpg/sg12_151_cif.got.tgz:300416.got - 2010.06.28 00:19:55.
