data_PCOD8113040
_publ_section_title
;
Structure prediction by ZEFSAII (Michael W. Deem and Ramdas Pophale) SiO2 
 PCOD8113040
Probable space group: C 2/M
;
_chemical_formula_sum "Si O2"
_cell_formula_units_Z 56
_cell_length_a 24.558745
_cell_length_b 23.671964
_cell_length_c 19.338181
_cell_angle_alpha 90.000000
_cell_angle_beta 166.309493
_cell_angle_gamma 90.000000
_cell_volume 2660.801365
_symmetry_space_group_name_H-M "C 2/M"
_symmetry_group_IT_number 12
_symmetry_cell_setting 'monoclinic'
loop_
_space_group_symop_operation_xyz
x,y,z
-x,y,-z
-x,-y,-z
x,-y,z
1/2+x,1/2+y,z
1/2-x,1/2+y,-z
1/2-x,1/2-y,-z
1/2+x,1/2-y,z
loop_
_atom_site_type_symbol
_atom_site_label
_atom_site_fract_x
_atom_site_fract_y
_atom_site_fract_z
Si Si1 0.027770 0.163730 0.183412
Si Si2 0.299501 0.873315 0.640310
Si Si3 0.782710 0.125342 0.186042
Si Si4 0.220218 0.252076 0.318985
Si Si5 0.869229 0.934873 0.151082
Si Si6 0.240869 0.563227 0.836273
Si Si7 0.863503 0.256021 0.265044
O O1 0.219187 0.131900 0.463026
O O2 0.173811 0.200310 0.311420
O O3 0.885503 0.111430 0.974283
O O4 0.858534 0.204249 0.019722
O O5 0.254131 0.812704 0.616672
O O6 0.140810 0.919417 0.482666
O O7 0.565302 0.892128 0.965868
O O8 0.764117 0.098182 0.087027
O O9 0.777767 0.192630 0.171185
O O10 0.000000 0.105386 0.500000
O O11 0.463557 0.238009 0.584940
O O12 0.000000 0.256310 0.000000
O O13 0.843171 0.000000 0.136718
O O14 0.738772 0.920723 0.916746
O O15 0.348796 0.500000 0.962675
O O16 0.000000 0.563531 0.500000
O O17 0.000000 0.278572 0.500000
#
# Coordination Sequence:
#
# PCOD8113040 Si02
#       7
#     8   8   8   8   8   8   8
#     4  11  23  38  60  97 124 158 215 259 315 381
#     4  11  24  41  62  91 127 169 208 264 321 380
#     4  11  23  41  64  90 131 169 209 259 323 376
#     4  12  22  37  62  90 127 168 206 254 319 387
#     4  10  23  43  67  95 124 169 218 261 316 376
#     4   9  20  42  68  91 126 168 210 261 315 370
#     4  11  21  37  59  91 129 169 202 256 318 382
#
# _framework density 21.046289999999999
#
# number of rings (size 3 to 8) (size 9 to 14) (size 15 to 20)
#    0.000    1.286    4.286    1.714    0.000    3.714 
#    0.000    0.714    0.000    1.286    0.000    0.000 
#    0.000    0.000    0.000    0.000    0.000    0.000 
#
# Total GULP energy -346978.243367 kJ/mol
# GULP energy per Si atom -12392.080120 kJ/mol
# Density = 2.099839 g / cm^3
# Si number density = 21.046290 Si / 1000 Ang^3
#
#
#
# Elastic Constant Matrix: (Units=GPa)
#
#
# Indices 1 2 3 4 5 6 
#
# 1 76.5877 22.9355 30.7577 -0.0110 18.9544 -0.0245
# 2 22.9355 90.0747 22.8482 0.0027 -8.6735 0.0025
# 3 30.7577 22.8482 93.0943 -0.0370 17.6030 -0.0664
# 4 -0.0110 0.0027 -0.0370 30.9415 -0.0182 -1.7869
# 5 18.9544 -8.6735 17.6030 -0.0182 36.4192 -0.0218
# 6 -0.0245 0.0025 -0.0664 -1.7869 -0.0218 11.8356
#
#
#
# Elastic Compliance Matrix: (Units=1/GPa)
#
#
# Indices 1 2 3 4 5 6 
#
# 1 0.017892 -0.004632 -0.003087 -0.000002 -0.008923 0.000004
# 2 -0.004632 0.013799 -0.003229 -0.000003 0.007258 -0.000018
# 3 -0.003087 -0.003229 0.013643 0.000016 -0.005756 0.000063
# 4 -0.000002 -0.000003 0.000016 0.032603 0.000012 0.004922
# 5 -0.008923 0.007258 -0.005756 0.000012 0.036613 0.000017
# 6 0.000004 -0.000018 0.000063 0.004922 0.000017 0.085234
#
#
# Mechanical properties :
#
#
# Convention : Reuss Voigt Hill
#
# Bulk Modulus (GPa) = 42.66575 45.87105 44.26840
# Shear Modulus (GPa) = 21.78714 28.05363 24.92038
#
# Velocity S-wave (km/s) = 3.22094 3.65492 3.44477
# Velocity P-wave (km/s) = 5.84371 6.29713 6.07465
#
# Compressibility (1/GPa) = 0.02343800
#
# Stress axis : x y z
#
# Youngs Moduli (GPa) = 55.89019 72.46825 73.29892
#
# Poissons Ratio (x) = 0.33567 0.22631
# Poissons Ratio (y) = 0.25888 0.23666
# Poissons Ratio (z) = 0.17256 0.23398
#
# Static dielectric constant tensor:
#      x y z
#    x 3.828400 -0.000020 -0.080670 
#    y -0.000020 3.937000 -0.000010 
#    z -0.080670 -0.000010 4.105580 
# 
# 
# High freq. dielectric constant tensor:
#      x y z
#    x 1.814100 0.000000 -0.006770 
#    y 0.000000 1.825880 0.000000 
#    z -0.006770 0.000000 1.831890 
# 
# From -- ./inp_files/354550.got.cif
#   From: 2010.06.25/outbox.cif.g09.slc.cpg/sg12_178_cif.got.tgz:354550.got - 2010.06.28 00:19:55.
