data_PCOD8113050
_publ_section_title
;
Structure prediction by ZEFSAII (Michael W. Deem and Ramdas Pophale) SiO2 
 PCOD8113050
Probable space group: C 2/M
;
_chemical_formula_sum "Si O2"
_cell_formula_units_Z 32
_cell_length_a 22.506192
_cell_length_b 13.435956
_cell_length_c 5.139804
_cell_angle_alpha 90.000000
_cell_angle_beta 126.149875
_cell_angle_gamma 90.000000
_cell_volume 1255.009883
_symmetry_space_group_name_H-M "C 2/M"
_symmetry_group_IT_number 12
_symmetry_cell_setting 'monoclinic'
loop_
_space_group_symop_operation_xyz
x,y,z
-x,y,-z
-x,-y,-z
x,-y,z
1/2+x,1/2+y,z
1/2-x,1/2+y,-z
1/2-x,1/2-y,-z
1/2+x,1/2-y,z
loop_
_atom_site_type_symbol
_atom_site_label
_atom_site_fract_x
_atom_site_fract_y
_atom_site_fract_z
Si Si1 0.835540 0.315181 0.000044
Si Si2 0.535133 0.386993 0.338321
Si Si3 0.304566 0.390598 0.094993
Si Si4 0.582437 0.115928 0.295077
O O1 0.809329 0.199754 0.899185
O O2 0.896982 0.323763 0.389064
O O3 0.765741 0.381133 0.901480
O O4 0.862874 0.354747 0.795691
O O5 0.500000 0.333146 0.500000
O O6 0.505191 0.500000 0.261982
O O7 0.622694 0.382870 0.540433
O O8 0.500000 0.330128 0.000000
O O9 0.302081 0.500000 0.950674
O O10 0.591554 0.000000 0.382682
O O11 0.500000 0.141944 0.000000
#
# Coordination Sequence:
#
# PCOD8113050 Si02
#       4
#     8   8   8   8
#     4  11  25  43  68 101 133 174 226 274 330 401
#     4   9  19  35  56  84 119 162 207 250 306 375
#     4  10  23  43  67  97 137 179 220 273 333 395
#     4  11  24  45  72 100 133 173 221 280 336 389
#
# _framework density 25.497806000000001
#
# number of rings (size 3 to 8) (size 9 to 14) (size 15 to 20)
#    0.000    1.750    0.000    3.000    0.000   13.000 
#    0.000   11.250    0.000    0.750    0.000    0.000 
#    0.000    0.000    0.000    0.000    0.000    0.000 
#
# Total GULP energy -198364.964404 kJ/mol
# GULP energy per Si atom -12397.810275 kJ/mol
# Density = 2.543977 g / cm^3
# Si number density = 25.497806 Si / 1000 Ang^3
#
#
#
# Elastic Constant Matrix: (Units=GPa)
#
#
# Indices 1 2 3 4 5 6 
#
# 1 108.3280 19.0809 24.1855 0.0000 16.5695 0.0000
# 2 19.0809 161.7940 -4.4444 0.0000 -4.3010 0.0000
# 3 24.1855 -4.4444 86.5369 0.0000 -2.2661 0.0000
# 4 0.0000 0.0000 0.0000 57.9169 0.0000 50.6752
# 5 16.5695 -4.3010 -2.2661 0.0000 48.7168 0.0000
# 6 0.0000 0.0000 0.0000 50.6752 0.0000 98.7794
#
#
#
# Elastic Compliance Matrix: (Units=1/GPa)
#
#
# Indices 1 2 3 4 5 6 
#
# 1 0.010809 -0.001468 -0.003200 0.000000 -0.003955 0.000000
# 2 -0.001468 0.006404 0.000768 0.000000 0.001100 0.000000
# 3 -0.003200 0.000768 0.012535 0.000000 0.001739 0.000000
# 4 0.000000 0.000000 0.000000 0.031328 0.000000 -0.016072
# 5 -0.003955 0.001100 0.001739 0.000000 0.022050 0.000000
# 6 0.000000 0.000000 0.000000 -0.016072 0.000000 0.018369
#
#
# Mechanical properties :
#
#
# Convention : Reuss Voigt Hill
#
# Bulk Modulus (GPa) = 45.56049 48.25584 46.90817
# Shear Modulus (GPa) = 42.87756 62.27177 52.57466
#
# Velocity S-wave (km/s) = 4.10520 4.94726 4.54577
# Velocity P-wave (km/s) = 6.35432 7.18335 6.78152
#
# Compressibility (1/GPa) = 0.02194884
#
# Stress axis : x y z
#
# Youngs Moduli (GPa) = 92.51474 156.14893 79.77622
#
# Poissons Ratio (x) = 0.22919 0.25527
# Poissons Ratio (y) = 0.13579 -0.06126
# Poissons Ratio (z) = 0.29604 -0.11991
#
# Static dielectric constant tensor:
#      x y z
#    x 4.648040 0.000000 0.132230 
#    y 0.000000 4.961570 0.000000 
#    z 0.132230 0.000000 4.621600 
# 
# 
# High freq. dielectric constant tensor:
#      x y z
#    x 2.023030 0.000000 0.020670 
#    y 0.000000 2.038440 0.000000 
#    z 0.020670 0.000000 2.000500 
# 
# From -- ./inp_files/19765.got.cif
#   From: 2010.06.25/outbox.cif.g09.slc.cpg/sg12_10_cif.got.tgz:19765.got - 2010.06.28 00:19:55.
