data_PCOD8113917
_publ_section_title
;
Structure prediction by ZEFSAII (Michael W. Deem and Ramdas Pophale) SiO2 
 PCOD8113917
Probable space group: C 2/M
;
_chemical_formula_sum "Si O2"
_cell_formula_units_Z 32
_cell_length_a 32.186532
_cell_length_b 10.029145
_cell_length_c 5.091046
_cell_angle_alpha 90.000000
_cell_angle_beta 90.847962
_cell_angle_gamma 90.000000
_cell_volume 1643.226964
_symmetry_space_group_name_H-M "C 2/M"
_symmetry_group_IT_number 12
_symmetry_cell_setting 'monoclinic'
loop_
_space_group_symop_operation_xyz
x,y,z
-x,y,-z
-x,-y,-z
x,-y,z
1/2+x,1/2+y,z
1/2-x,1/2+y,-z
1/2-x,1/2-y,-z
1/2+x,1/2-y,z
loop_
_atom_site_type_symbol
_atom_site_label
_atom_site_fract_x
_atom_site_fract_y
_atom_site_fract_z
Si Si1 0.381643 0.154403 0.248953
Si Si2 0.475511 0.158837 0.246507
Si Si3 0.711302 0.500000 0.235152
Si Si4 0.266103 0.000000 0.740544
Si Si5 0.332075 0.773204 0.735662
O O1 0.428369 0.211624 0.243813
O O2 0.356360 0.237111 0.462978
O O3 0.381028 0.000000 0.334287
O O4 0.362041 0.168703 0.960566
O O5 0.500000 0.213329 0.500000
O O6 0.475114 0.000000 0.238232
O O7 0.500000 0.217333 0.000000
O O8 0.728236 0.500000 0.533024
O O9 0.682800 0.627735 0.181629
O O10 0.749522 0.500000 0.036060
O O11 0.292497 0.132405 0.694260
#
# Coordination Sequence:
#
# PCOD8113917 Si02
#       5
#     8   8   4   4   8
#     4  11  20  36  58  85 116 152 187 230 281 338
#     4   9  17  29  49  81 116 144 177 226 280 326
#     4  12  26  40  58  86 112 148 194 236 286 338
#     4  12  22  42  60  82 112 146 192 242 288 332
#     4  12  23  39  60  84 114 151 189 235 284 335
#
# _framework density 19.473875
#
# number of rings (size 3 to 8) (size 9 to 14) (size 15 to 20)
#    0.000    1.000    2.500    6.000    0.000    4.000 
#    0.000    0.000    0.000    0.000    0.000   17.500 
#    0.000    0.000    0.000    0.000    0.000    0.000 
#
# Total GULP energy -198513.858945 kJ/mol
# GULP energy per Si atom -12407.116184 kJ/mol
# Density = 1.942955 g / cm^3
# Si number density = 19.473875 Si / 1000 Ang^3
#
#
#
# Elastic Constant Matrix: (Units=GPa)
#
#
# Indices 1 2 3 4 5 6 
#
# 1 119.3489 30.8544 39.0624 0.0000 -7.4420 0.0000
# 2 30.8544 75.3934 3.1724 0.0000 -14.6895 0.0000
# 3 39.0624 3.1724 117.7050 0.0000 -4.9996 0.0000
# 4 0.0000 0.0000 0.0000 11.6015 0.0000 0.8419
# 5 -7.4420 -14.6895 -4.9996 0.0000 39.6649 0.0000
# 6 0.0000 0.0000 0.0000 0.8419 0.0000 0.0506
#
#
#
# Elastic Compliance Matrix: (Units=1/GPa)
#
#
# Indices 1 2 3 4 5 6 
#
# 1 0.010572 -0.004182 -0.003395 0.000000 0.000007 0.000000
# 2 -0.004182 0.015953 0.001182 0.000000 0.005272 0.000000
# 3 -0.003395 0.001182 0.009634 0.000000 0.001015 0.000000
# 4 0.000000 0.000000 0.000000 -0.415321 0.000000 6.910665
# 5 0.000007 0.005272 0.001015 0.000000 0.027293 0.000000
# 6 0.000000 0.000000 0.000000 6.910665 0.000000-95.225749
#
#
# Mechanical properties :
#
#
# Convention : Reuss Voigt Hill
#
# Bulk Modulus (GPa) = 42.79541 50.95841 46.87691
# Shear Modulus (GPa) = -0.05232 26.22061 13.08414
#
# Velocity S-wave (km/s) = -0.16410 3.67338 2.59488
# Velocity P-wave (km/s) = 4.68909 6.64951 5.75342
#
# Compressibility (1/GPa) = 0.02336699
#
# Stress axis : x y z
#
# Youngs Moduli (GPa) = 94.59200 62.68480 103.80021
#
# Poissons Ratio (x) = 0.26216 0.35244
# Poissons Ratio (y) = 0.39561 -0.12268
# Poissons Ratio (z) = 0.32118 -0.07409
#
# Static dielectric constant tensor:
#      x y z
#    x 3.700210 0.000000 -0.069410 
#    y 0.000000 3.216170 0.000000 
#    z -0.069410 0.000000 3.624950 
# 
# 
# High freq. dielectric constant tensor:
#      x y z
#    x 1.771470 0.000000 -0.002410 
#    y 0.000000 1.712300 0.000000 
#    z -0.002410 0.000000 1.778320 
# 
# From -- ./inp_files/23419.got.cif
#   From: 2010.06.25/outbox.cif.g09.slc.cpg/sg12_12_cif.got.tgz:23419.got - 2010.06.28 00:19:55.
