data_PCOD8113062
_publ_section_title
;
Structure prediction by ZEFSAII (Michael W. Deem and Ramdas Pophale) SiO2 
 PCOD8113062
Probable space group: C 2/M
;
_chemical_formula_sum "Si O2"
_cell_formula_units_Z 48
_cell_length_a 16.591569
_cell_length_b 26.372555
_cell_length_c 9.132765
_cell_angle_alpha 90.000000
_cell_angle_beta 34.802369
_cell_angle_gamma 90.000000
_cell_volume 2280.793567
_symmetry_space_group_name_H-M "C 2/M"
_symmetry_group_IT_number 12
_symmetry_cell_setting 'monoclinic'
loop_
_space_group_symop_operation_xyz
x,y,z
-x,y,-z
-x,-y,-z
x,-y,z
1/2+x,1/2+y,z
1/2-x,1/2+y,-z
1/2-x,1/2-y,-z
1/2+x,1/2-y,z
loop_
_atom_site_type_symbol
_atom_site_label
_atom_site_fract_x
_atom_site_fract_y
_atom_site_fract_z
Si Si1 0.253262 0.151877 0.223836
Si Si2 0.656999 0.558123 0.819012
Si Si3 0.727300 0.352579 0.916238
Si Si4 0.517633 0.279509 0.719597
Si Si5 0.000000 0.704126 0.500000
Si Si6 0.500000 0.212471 0.000000
Si Si7 0.666541 0.057456 0.731542
O O1 0.131561 0.186441 0.469968
O O2 0.398958 0.177161 0.055221
O O3 0.244758 0.094883 0.297800
O O4 0.234027 0.146598 0.080669
O O5 0.656775 0.500000 0.871683
O O6 0.699316 0.591477 0.895915
O O7 0.777558 0.567038 0.516409
O O8 0.500000 0.573592 0.000000
O O9 0.873372 0.331491 0.634156
O O10 0.607395 0.315051 0.035884
O O11 0.449545 0.239290 0.708798
O O12 0.581643 0.249022 0.762917
O O13 0.701713 0.000000 0.726943
O O14 0.500000 0.068186 0.000000
#
# Coordination Sequence:
#
# PCOD8113062 Si02
#       7
#     8   8   8   8   4   4   8
#     4  12  24  43  67  98 134 173 224 276 335 400
#     4  10  24  47  73 102 133 171 223 280 338 404
#     4  12  26  42  68  98 131 179 220 277 335 395
#     4  12  25  44  63  94 135 177 224 274 330 395
#     4  12  24  44  63  90 143 174 216 276 330 396
#     4  12  26  40  63 100 127 184 220 272 330 396
#     4  10  23  43  68  97 133 172 217 275 336 399
#
# _framework density 21.045307000000001
#
# number of rings (size 3 to 8) (size 9 to 14) (size 15 to 20)
#    0.000    0.667    4.167    3.000    8.167    0.667 
#    0.000    0.417    0.000    5.000    0.000    0.000 
#    0.000    0.000    0.000    0.000    0.000    0.000 
#
# Total GULP energy -297613.026174 kJ/mol
# GULP energy per Si atom -12400.542757 kJ/mol
# Density = 2.099741 g / cm^3
# Si number density = 21.045307 Si / 1000 Ang^3
#
#
#
# Elastic Constant Matrix: (Units=GPa)
#
#
# Indices 1 2 3 4 5 6 
#
# 1 79.5655 72.0503 39.3712 0.0000 9.8571 0.0000
# 2 72.0503 147.7454 46.3337 0.0000 7.0772 0.0000
# 3 39.3712 46.3337 117.3186 -0.0001 -6.0265 0.0000
# 4 0.0000 0.0000 -0.0001 31.6580 0.0000 7.1402
# 5 9.8571 7.0772 -6.0265 0.0000 34.4881 0.0000
# 6 0.0000 0.0000 0.0000 7.1402 0.0000 46.4698
#
#
#
# Elastic Compliance Matrix: (Units=1/GPa)
#
#
# Indices 1 2 3 4 5 6 
#
# 1 0.025065 -0.010516 -0.004556 0.000000 -0.005802 0.000000
# 2 -0.010516 0.012297 -0.001314 0.000000 0.000253 0.000000
# 3 -0.004556 -0.001314 0.010749 0.000000 0.003450 0.000000
# 4 0.000000 0.000000 0.000000 0.032722 0.000000 -0.005028
# 5 -0.005802 0.000253 0.003450 0.000000 0.031205 0.000000
# 6 0.000000 0.000000 0.000000 -0.005028 0.000000 0.022292
#
#
# Mechanical properties :
#
#
# Convention : Reuss Voigt Hill
#
# Bulk Modulus (GPa) = 65.20236 73.34887 69.27561
# Shear Modulus (GPa) = 29.03344 34.98147 32.00745
#
# Velocity S-wave (km/s) = 3.71828 4.08143 3.90408
# Velocity P-wave (km/s) = 7.03444 7.55905 7.30146
#
# Compressibility (1/GPa) = 0.01533687
#
# Stress axis : x y z
#
# Youngs Moduli (GPa) = 39.89686 81.32088 93.03061
#
# Poissons Ratio (x) = 0.85520 0.42387
# Poissons Ratio (y) = 0.41957 0.12228
# Poissons Ratio (z) = 0.18178 0.10689
#
# Static dielectric constant tensor:
#      x y z
#    x 4.473830 0.000000 -0.575040 
#    y 0.000000 4.062660 0.000000 
#    z -0.575040 0.000000 4.319910 
# 
# 
# High freq. dielectric constant tensor:
#      x y z
#    x 1.813320 0.000000 0.002870 
#    y 0.000000 1.840730 0.000000 
#    z 0.002870 0.000000 1.834770 
# 
# From -- ./inp_files/67367.got.cif
#   From: 2010.06.25/outbox.cif.g09.slc.cpg/sg12_34_cif.got.tgz:67367.got - 2010.06.28 00:19:55.
