data_PCOD8113808
_publ_section_title
;
Structure prediction by ZEFSAII (Michael W. Deem and Ramdas Pophale) SiO2 
 PCOD8113808
Probable space group: C 2/M
;
_chemical_formula_sum "Si O2"
_cell_formula_units_Z 48
_cell_length_a 30.023552
_cell_length_b 18.030788
_cell_length_c 9.916637
_cell_angle_alpha 90.000000
_cell_angle_beta 32.123679
_cell_angle_gamma 90.000000
_cell_volume 2854.615199
_symmetry_space_group_name_H-M "C 2/M"
_symmetry_group_IT_number 12
_symmetry_cell_setting 'monoclinic'
loop_
_space_group_symop_operation_xyz
x,y,z
-x,y,-z
-x,-y,-z
x,-y,z
1/2+x,1/2+y,z
1/2-x,1/2+y,-z
1/2-x,1/2-y,-z
1/2+x,1/2-y,z
loop_
_atom_site_type_symbol
_atom_site_label
_atom_site_fract_x
_atom_site_fract_y
_atom_site_fract_z
Si Si1 0.052498 0.801694 0.995548
Si Si2 0.309918 0.415992 0.457201
Si Si3 0.940600 0.825957 0.532485
Si Si4 0.188847 0.706356 0.752305
Si Si5 0.816933 0.712705 0.923791
Si Si6 0.791163 0.917178 0.814878
O O1 0.881518 0.867538 0.201470
O O2 0.989101 0.831775 0.268993
O O3 0.000000 0.779188 0.000000
O O4 0.095694 0.725434 0.938270
O O5 0.310381 0.500000 0.398693
O O6 0.217239 0.380024 0.669271
O O7 0.328852 0.416115 0.567641
O O8 0.908932 0.741062 0.642966
O O9 0.859504 0.879143 0.737033
O O10 0.000000 0.853666 0.500000
O O11 0.250000 0.750000 0.500000
O O12 0.198287 0.735301 0.881439
O O13 0.750000 0.750000 0.000000
O O14 0.799461 0.624660 0.949875
O O15 0.774588 0.000000 0.909210
#
# Coordination Sequence:
#
# PCOD8113808 Si02
#       6
#     8   8   8   8   8   8
#     4  11  20  32  51  77 102 130 167 205 247 293
#     4   9  18  33  53  74  98 130 168 205 241 293
#     4  11  20  32  50  74 106 132 158 205 255 291
#     4   9  18  32  51  73  95 128 174 203 235 292
#     4   9  18  32  51  71  97 133 167 201 242 291
#     4   9  18  33  52  73  99 133 166 199 245 298
#
# _framework density 16.814875000000001
#
# number of rings (size 3 to 8) (size 9 to 14) (size 15 to 20)
#    0.000    2.333    3.333    0.000    2.333    1.333 
#    0.000    0.000    0.000    2.000    0.000    0.000 
#    0.000    0.000    0.000    0.000    0.000    0.000 
#
# Total GULP energy -297332.901075 kJ/mol
# GULP energy per Si atom -12388.870878 kJ/mol
# Density = 1.677660 g / cm^3
# Si number density = 16.814875 Si / 1000 Ang^3
#
#
#
# Elastic Constant Matrix: (Units=GPa)
#
#
# Indices 1 2 3 4 5 6 
#
# 1 109.6206 44.6887 20.8611 0.0000 -6.6621 0.0000
# 2 44.6887 116.0358 48.1333 0.0000 -12.8788 0.0000
# 3 20.8611 48.1333 40.8702 0.0000 2.9177 0.0000
# 4 0.0000 0.0000 0.0000 19.9376 0.0000 4.7755
# 5 -6.6621 -12.8788 2.9177 0.0000 25.7102 0.0000
# 6 0.0000 0.0000 0.0000 4.7755 0.0000 9.8732
#
#
#
# Elastic Compliance Matrix: (Units=1/GPa)
#
#
# Indices 1 2 3 4 5 6 
#
# 1 0.010890 -0.003319 -0.001747 0.000000 0.001358 0.000000
# 2 -0.003319 0.021457 -0.024480 0.000000 0.012666 0.000000
# 3 -0.001747 -0.024480 0.055547 0.000000 -0.019019 0.000000
# 4 0.000000 0.000000 0.000000 0.056729 0.000000 -0.027438
# 5 0.001358 0.012666 -0.019019 0.000000 0.047750 0.000000
# 6 0.000000 0.000000 0.000000 -0.027438 0.000000 0.114556
#
#
# Mechanical properties :
#
#
# Convention : Reuss Voigt Hill
#
# Bulk Modulus (GPa) = 34.71875 54.87699 44.79787
# Shear Modulus (GPa) = 13.31127 21.29376 17.30252
#
# Velocity S-wave (km/s) = 2.81666 3.56246 3.21128
# Velocity P-wave (km/s) = 5.59201 7.04474 6.35999
#
# Compressibility (1/GPa) = 0.02880288
#
# Stress axis : x y z
#
# Youngs Moduli (GPa) = 91.82470 46.60564 18.00264
#
# Poissons Ratio (x) = 0.15467 0.03145
# Poissons Ratio (y) = 0.30475 0.44070
# Poissons Ratio (z) = 0.16042 1.14090
#
# Static dielectric constant tensor:
#      x y z
#    x 3.120370 0.000000 -0.477740 
#    y 0.000000 3.393000 0.000000 
#    z -0.477740 0.000000 3.467820 
# 
# 
# High freq. dielectric constant tensor:
#      x y z
#    x 1.655680 0.000000 0.002370 
#    y 0.000000 1.627850 0.000000 
#    z 0.002370 0.000000 1.636990 
# 
# From -- ./inp_files/189720.got.cif
#   From: 2010.06.25/outbox.cif.g09.slc.cpg/sg12_95_cif.got.tgz:189720.got - 2010.06.28 00:19:55.
