data_PCOD8113267
_publ_section_title
;
Structure prediction by ZEFSAII (Michael W. Deem and Ramdas Pophale) SiO2 
 PCOD8113267
Probable space group: C 2/M
;
_chemical_formula_sum "Si O2"
_cell_formula_units_Z 44
_cell_length_a 10.126209
_cell_length_b 13.959509
_cell_length_c 15.274219
_cell_angle_alpha 90.000000
_cell_angle_beta 102.443115
_cell_angle_gamma 90.000000
_cell_volume 2108.399585
_symmetry_space_group_name_H-M "C 2/M"
_symmetry_group_IT_number 12
_symmetry_cell_setting 'monoclinic'
loop_
_space_group_symop_operation_xyz
x,y,z
-x,y,-z
-x,-y,-z
x,-y,z
1/2+x,1/2+y,z
1/2-x,1/2+y,-z
1/2-x,1/2-y,-z
1/2+x,1/2-y,z
loop_
_atom_site_type_symbol
_atom_site_label
_atom_site_fract_x
_atom_site_fract_y
_atom_site_fract_z
Si Si1 0.155495 0.807281 0.547509
Si Si2 0.722790 0.500000 0.292800
Si Si3 0.682211 0.792857 0.729441
Si Si4 0.006959 0.500000 0.897682
Si Si5 0.500000 0.664260 0.000000
Si Si6 0.678424 0.500000 0.093816
Si Si7 0.353655 0.500000 0.519892
Si Si8 0.045323 0.709180 0.164263
O O1 0.250000 0.750000 0.500000
O O2 0.176205 0.782568 0.650687
O O3 0.218874 0.910120 0.533453
O O4 0.000000 0.794793 0.500000
O O5 0.811614 0.402707 0.303590
O O6 0.631446 0.500000 0.190188
O O7 0.639161 0.500000 0.372097
O O8 0.811986 0.763274 0.805038
O O9 0.544335 0.779322 0.762417
O O10 0.932912 0.596377 0.853374
O O11 0.159822 0.500000 0.883690
O O12 0.000000 0.500000 0.000000
O O13 0.627741 0.595224 0.037376
O O14 0.466552 0.734594 0.075867
O O15 0.500000 0.500000 0.500000
#
# Coordination Sequence:
#
# PCOD8113267 Si02
#       8
#     8   4   8   4   4   4   4   8
#     4  11  23  44  68  99 129 172 217 272 334 399
#     4  12  21  46  65  95 133 178 216 271 338 397
#     4  12  26  43  71  97 135 173 227 273 335 397
#     4  12  25  40  65  96 141 170 219 280 340 377
#     4  11  24  41  70  96 130 181 236 261 324 398
#     4  11  24  44  66  97 135 179 225 273 329 404
#     4  10  24  40  70  94 132 168 216 274 331 398
#     4  12  25  44  66  99 135 181 220 279 327 397
#
# _framework density 20.86891
#
# number of rings (size 3 to 8) (size 9 to 14) (size 15 to 20)
#    0.000    0.545    6.364    1.091    5.091    2.182 
#    0.000    5.455    0.000    0.000    0.000    0.000 
#    0.000    0.000    0.000    0.000    0.000    0.000 
#
# Total GULP energy -272654.548756 kJ/mol
# GULP energy per Si atom -12393.388580 kJ/mol
# Density = 2.082141 g / cm^3
# Si number density = 20.868910 Si / 1000 Ang^3
#
#
#
# Elastic Constant Matrix: (Units=GPa)
#
#
# Indices 1 2 3 4 5 6 
#
# 1 57.5347 23.1227 6.5924 0.0000 -9.8084 0.0000
# 2 23.1227 171.7510 48.8002 0.0000 -3.4443 0.0000
# 3 6.5924 48.8002 124.9231 0.0000 -18.2518 0.0000
# 4 0.0000 0.0000 0.0000 46.6334 0.0000 -1.9161
# 5 -9.8084 -3.4443 -18.2518 0.0000 38.0698 0.0000
# 6 0.0000 0.0000 0.0000 -1.9161 0.0000 19.6481
#
#
#
# Elastic Compliance Matrix: (Units=1/GPa)
#
#
# Indices 1 2 3 4 5 6 
#
# 1 0.019249 -0.002713 0.000788 0.000000 0.005092 0.000000
# 2 -0.002713 0.006948 -0.002776 0.000000 -0.001401 0.000000
# 3 0.000788 -0.002776 0.009722 0.000000 0.004613 0.000000
# 4 0.000000 0.000000 0.000000 0.021530 0.000000 0.002100
# 5 0.005092 -0.001401 0.004613 0.000000 0.029664 0.000000
# 6 0.000000 0.000000 0.000000 0.002100 0.000000 0.051100
#
#
# Mechanical properties :
#
#
# Convention : Reuss Voigt Hill
#
# Bulk Modulus (GPa) = 37.71203 56.80439 47.25821
# Shear Modulus (GPa) = 31.95818 39.24982 35.60400
#
# Velocity S-wave (km/s) = 3.91753 4.34150 4.13495
# Velocity P-wave (km/s) = 6.21070 7.23949 6.74474
#
# Compressibility (1/GPa) = 0.02651674
#
# Stress axis : x y z
#
# Youngs Moduli (GPa) = 51.95080 143.92060 102.86339
#
# Poissons Ratio (x) = 0.39050 -0.08106
# Poissons Ratio (y) = 0.14096 0.28553
# Poissons Ratio (z) = -0.04094 0.39950
#
# Static dielectric constant tensor:
#      x y z
#    x 3.567480 0.000000 -0.134930 
#    y 0.000000 4.127740 0.000000 
#    z -0.134930 0.000000 3.803850 
# 
# 
# High freq. dielectric constant tensor:
#      x y z
#    x 1.796420 0.000000 -0.019740 
#    y 0.000000 1.848730 0.000000 
#    z -0.019740 0.000000 1.826190 
# 
# From -- ./inp_files/255492.got.cif
#   From: 2010.06.25/outbox.cif.g09.slc.cpg/sg12_128_cif.got.tgz:255492.got - 2010.06.28 00:19:55.
