data_PCOD8113135
_publ_section_title
;
Structure prediction by ZEFSAII (Michael W. Deem and Ramdas Pophale) SiO2 
 PCOD8113135
Probable space group: C 2/M
;
_chemical_formula_sum "Si O2"
_cell_formula_units_Z 48
_cell_length_a 10.935448
_cell_length_b 21.542504
_cell_length_c 11.749214
_cell_angle_alpha 90.000000
_cell_angle_beta 128.644869
_cell_angle_gamma 90.000000
_cell_volume 2161.773645
_symmetry_space_group_name_H-M "C 2/M"
_symmetry_group_IT_number 12
_symmetry_cell_setting 'monoclinic'
loop_
_space_group_symop_operation_xyz
x,y,z
-x,y,-z
-x,-y,-z
x,-y,z
1/2+x,1/2+y,z
1/2-x,1/2+y,-z
1/2-x,1/2-y,-z
1/2+x,1/2-y,z
loop_
_atom_site_type_symbol
_atom_site_label
_atom_site_fract_x
_atom_site_fract_y
_atom_site_fract_z
Si Si1 0.178132 0.069838 0.885912
Si Si2 0.241795 0.429309 0.816657
Si Si3 0.359296 0.625653 0.661469
Si Si4 0.576783 0.866422 0.345958
Si Si5 0.522046 0.733884 0.641452
Si Si6 0.842933 0.674979 0.857454
O O1 0.311624 0.114582 0.916148
O O2 0.012492 0.083787 0.728915
O O3 0.229723 0.000000 0.887655
O O4 0.158572 0.079701 0.010203
O O5 0.259688 0.500000 0.781846
O O6 0.304180 0.380665 0.759795
O O7 0.059939 0.417026 0.739281
O O8 0.219957 0.602909 0.498530
O O9 0.403877 0.697111 0.657515
O O10 0.515474 0.806107 0.377014
O O11 0.636285 0.846991 0.258127
O O12 0.500000 0.708963 0.500000
O O13 0.700943 0.723599 0.785453
O O14 0.000000 0.706740 0.000000
#
# Coordination Sequence:
#
# PCOD8113135 Si02
#       6
#     8   8   8   8   8   8
#     4  10  23  44  69  95 133 182 221 267 330 394
#     4  11  24  43  67  98 137 179 220 272 336 392
#     4  11  23  41  68  98 131 170 223 274 325 397
#     4  12  25  42  68 100 134 175 221 276 335 394
#     4  11  24  44  69  95 132 179 219 270 339 399
#     4  11  24  45  66  98 132 171 228 274 327 394
#
# _framework density 22.203990000000001
#
# number of rings (size 3 to 8) (size 9 to 14) (size 15 to 20)
#    0.000    1.000    3.333    3.000    2.333    5.000 
#    0.000    0.833    0.000    0.000    0.000    0.000 
#    0.000    0.000    0.000    0.000    0.000    0.000 
#
# Total GULP energy -297714.329859 kJ/mol
# GULP energy per Si atom -12404.763744 kJ/mol
# Density = 2.215345 g / cm^3
# Si number density = 22.203990 Si / 1000 Ang^3
#
#
#
# Elastic Constant Matrix: (Units=GPa)
#
#
# Indices 1 2 3 4 5 6 
#
# 1 85.2357 24.9565 28.5587 0.0000 -5.3315 0.0000
# 2 24.9565 68.7087 39.3733 0.0000 -7.0944 0.0000
# 3 28.5587 39.3733 128.8474 0.0000 13.8432 0.0000
# 4 0.0000 0.0000 0.0000 23.7052 0.0000 -2.9709
# 5 -5.3315 -7.0944 13.8432 0.0000 44.9022 0.0000
# 6 0.0000 0.0000 0.0000 -2.9709 0.0000 9.6149
#
#
#
# Elastic Compliance Matrix: (Units=1/GPa)
#
#
# Indices 1 2 3 4 5 6 
#
# 1 0.013585 -0.003550 -0.002109 0.000000 0.001702 0.000000
# 2 -0.003550 0.019542 -0.005659 0.000000 0.004411 0.000000
# 3 -0.002109 -0.005659 0.010426 0.000000 -0.004359 0.000000
# 4 0.000000 0.000000 0.000000 0.043884 0.000000 0.013560
# 5 0.001702 0.004411 -0.004359 0.000000 0.024513 0.000000
# 6 0.000000 0.000000 0.000000 0.013560 0.000000 0.108195
#
#
# Mechanical properties :
#
#
# Convention : Reuss Voigt Hill
#
# Bulk Modulus (GPa) = 47.80750 52.06320 49.93535
# Shear Modulus (GPa) = 20.01985 28.30469 24.16227
#
# Velocity S-wave (km/s) = 3.00598 3.57425 3.30236
# Velocity P-wave (km/s) = 5.79876 6.36649 6.08925
#
# Compressibility (1/GPa) = 0.02091722
#
# Stress axis : x y z
#
# Youngs Moduli (GPa) = 73.61215 51.17282 95.91346
#
# Poissons Ratio (x) = 0.18166 0.20230
# Poissons Ratio (y) = 0.26131 0.54274
# Poissons Ratio (z) = 0.15526 0.28957
#
# Static dielectric constant tensor:
#      x y z
#    x 4.101030 0.000000 0.135070 
#    y 0.000000 3.770010 0.000000 
#    z 0.135070 0.000000 4.195120 
# 
# 
# High freq. dielectric constant tensor:
#      x y z
#    x 1.886150 0.000000 0.008650 
#    y 0.000000 1.852570 0.000000 
#    z 0.008650 0.000000 1.887540 
# 
# From -- ./inp_files/134088.got.cif
#   From: 2010.06.25/outbox.cif.g09.slc.cpg/sg12_68_cif.got.tgz:134088.got - 2010.06.28 00:19:55.
