data_PCOD8113006
_publ_section_title
;
Structure prediction by ZEFSAII (Michael W. Deem and Ramdas Pophale) SiO2 
 PCOD8113006
Probable space group: C 2/M
;
_chemical_formula_sum "Si O2"
_cell_formula_units_Z 40
_cell_length_a 9.715212
_cell_length_b 24.863167
_cell_length_c 8.449749
_cell_angle_alpha 90.000000
_cell_angle_beta 75.247827
_cell_angle_gamma 90.000000
_cell_volume 1973.764375
_symmetry_space_group_name_H-M "C 2/M"
_symmetry_group_IT_number 12
_symmetry_cell_setting 'monoclinic'
loop_
_space_group_symop_operation_xyz
x,y,z
-x,y,-z
-x,-y,-z
x,-y,z
1/2+x,1/2+y,z
1/2-x,1/2+y,-z
1/2-x,1/2-y,-z
1/2+x,1/2-y,z
loop_
_atom_site_type_symbol
_atom_site_label
_atom_site_fract_x
_atom_site_fract_y
_atom_site_fract_z
Si Si1 0.777815 0.500000 0.154102
Si Si2 0.351598 0.895443 0.596007
Si Si3 0.702704 0.699178 0.817060
Si Si4 0.913791 0.500000 0.782133
Si Si5 0.855315 0.907157 0.626402
Si Si6 0.612599 0.701349 0.194737
O O1 0.683355 0.447657 0.221033
O O2 0.924608 0.500000 0.206946
O O3 0.804772 0.500000 0.959751
O O4 0.500000 0.867963 0.500000
O O5 0.258360 0.855411 0.726461
O O6 0.385083 0.948108 0.686156
O O7 0.269341 0.911453 0.463098
O O8 0.552499 0.715107 0.783720
O O9 0.812650 0.747037 0.748742
O O10 0.689614 0.687734 0.007355
O O11 0.869897 0.847410 0.690062
O O12 0.000000 0.925625 0.500000
#
# Coordination Sequence:
#
# PCOD8113006 Si02
#       6
#     4   8   8   4   8   8
#     4  11  24  43  68  93 126 167 212 256 311 379
#     4  12  24  42  65  94 130 166 209 259 315 373
#     4  10  23  43  65  92 128 168 213 258 308 375
#     4  11  24  44  66  94 126 167 214 254 309 381
#     4  12  24  43  64  96 131 162 208 263 318 370
#     4  10  23  43  65  93 127 168 213 257 311 372
#
# _framework density 20.265843
#
# number of rings (size 3 to 8) (size 9 to 14) (size 15 to 20)
#    0.000    1.000    4.000    2.400    2.800    1.600 
#    0.000    1.000    0.000    0.000    0.000    0.000 
#    0.000    0.000    0.000    0.000    0.000    0.000 
#
# Total GULP energy -248109.209059 kJ/mol
# GULP energy per Si atom -12405.460453 kJ/mol
# Density = 2.021972 g / cm^3
# Si number density = 20.265843 Si / 1000 Ang^3
#
#
#
# Elastic Constant Matrix: (Units=GPa)
#
#
# Indices 1 2 3 4 5 6 
#
# 1 107.0900 20.7494 32.2428 0.0000 -9.7498 0.0000
# 2 20.7494 91.5772 28.6443 0.0000 -7.2622 0.0000
# 3 32.2428 28.6443 81.0752 0.0000 -5.7306 0.0000
# 4 0.0000 0.0000 0.0000 34.9403 0.0000 -3.3591
# 5 -9.7498 -7.2622 -5.7306 0.0000 38.3135 0.0000
# 6 0.0000 0.0000 0.0000 -3.3591 0.0000 37.7944
#
#
#
# Elastic Compliance Matrix: (Units=1/GPa)
#
#
# Indices 1 2 3 4 5 6 
#
# 1 0.010877 -0.001122 -0.003789 0.000000 0.001989 0.000000
# 2 -0.001122 0.012502 -0.003865 0.000000 0.001506 0.000000
# 3 -0.003789 -0.003865 0.015248 0.000000 0.000584 0.000000
# 4 0.000000 0.000000 0.000000 0.028867 0.000000 0.002566
# 5 0.001989 0.001506 0.000584 0.000000 0.026979 0.000000
# 6 0.000000 0.000000 0.000000 0.002566 0.000000 0.026687
#
#
# Mechanical properties :
#
#
# Convention : Reuss Voigt Hill
#
# Bulk Modulus (GPa) = 47.44569 49.22394 48.33482
# Shear Modulus (GPa) = 34.30865 35.41669 34.86267
#
# Velocity S-wave (km/s) = 4.11899 4.18497 4.15211
# Velocity P-wave (km/s) = 6.78851 6.90607 6.84754
#
# Compressibility (1/GPa) = 0.02107673
#
# Stress axis : x y z
#
# Youngs Moduli (GPa) = 91.93649 79.98635 65.58384
#
# Poissons Ratio (x) = 0.08972 0.24849
# Poissons Ratio (y) = 0.10312 0.25345
# Poissons Ratio (z) = 0.34833 0.30911
#
# Static dielectric constant tensor:
#      x y z
#    x 3.875230 0.000000 -0.115710 
#    y 0.000000 3.587400 0.000000 
#    z -0.115710 0.000000 3.810320 
# 
# 
# High freq. dielectric constant tensor:
#      x y z
#    x 1.805100 0.000000 -0.006940 
#    y 0.000000 1.794090 0.000000 
#    z -0.006940 0.000000 1.804210 
# 
# From -- ./inp_files/39266.got.cif
#   From: 2010.06.25/outbox.cif.g09.slc.cpg/sg12_20_cif.got.tgz:39266.got - 2010.06.28 00:19:55.
