data_PCOD8113890
_publ_section_title
;
Structure prediction by ZEFSAII (Michael W. Deem and Ramdas Pophale) SiO2 
 PCOD8113890
Probable space group: C 2/M
;
_chemical_formula_sum "Si O2"
_cell_formula_units_Z 60
_cell_length_a 17.932735
_cell_length_b 22.567202
_cell_length_c 11.994511
_cell_angle_alpha 90.000000
_cell_angle_beta 42.569255
_cell_angle_gamma 90.000000
_cell_volume 3283.691293
_symmetry_space_group_name_H-M "C 2/M"
_symmetry_group_IT_number 12
_symmetry_cell_setting 'monoclinic'
loop_
_space_group_symop_operation_xyz
x,y,z
-x,y,-z
-x,-y,-z
x,-y,z
1/2+x,1/2+y,z
1/2-x,1/2+y,-z
1/2-x,1/2-y,-z
1/2+x,1/2-y,z
loop_
_atom_site_type_symbol
_atom_site_label
_atom_site_fract_x
_atom_site_fract_y
_atom_site_fract_z
Si Si1 0.500000 0.224226 0.000000
Si Si2 0.300857 0.339922 0.909245
Si Si3 0.037738 0.151743 0.583938
Si Si4 0.933461 0.361780 0.258867
Si Si5 0.257683 0.568534 0.618990
Si Si6 0.720228 0.735174 0.854479
Si Si7 0.345979 0.932368 0.023494
Si Si8 0.085786 0.283237 0.505873
O O1 0.571286 0.186847 0.833394
O O2 0.591097 0.262830 0.965219
O O3 0.429234 0.355477 0.778746
O O4 0.269859 0.299715 0.834357
O O5 0.236757 0.401553 0.971291
O O6 0.259733 0.307707 0.064381
O O7 0.125718 0.101574 0.516975
O O8 0.082760 0.217261 0.559759
O O9 0.000000 0.142560 0.500000
O O10 0.823013 0.401054 0.381840
O O11 0.944681 0.330626 0.366274
O O12 0.035015 0.403845 0.119496
O O13 0.277287 0.500000 0.566675
O O14 0.200018 0.575206 0.801778
O O15 0.789920 0.707990 0.675656
O O16 0.355812 0.000000 0.977085
O O17 0.000000 0.290860 0.500000
#
# Coordination Sequence:
#
# PCOD8113890 Si02
#       8
#     4   8   8   8   8   8   8   8
#     4  12  22  34  57  92 117 158 184 234 300 360
#     4  11  20  38  59  83 119 156 189 244 287 345
#     4  11  20  35  55  87 119 149 188 237 295 348
#     4  12  22  37  59  85 124 154 190 241 290 356
#     4  11  23  38  58  85 119 156 194 241 294 347
#     4  11  22  36  58  85 119 154 196 233 291 349
#     4  11  21  36  59  87 117 154 198 241 291 346
#     4  11  22  37  59  88 118 155 194 239 293 344
#
# _framework density 18.272119
#
# number of rings (size 3 to 8) (size 9 to 14) (size 15 to 20)
#    0.000    0.800    6.667    2.800    0.000    5.067 
#    0.000    0.000    0.000    7.200    0.000    1.400 
#    0.000    0.000    0.000    0.000    0.000    0.000 
#
# Total GULP energy -372064.392617 kJ/mol
# GULP energy per Si atom -12402.146421 kJ/mol
# Density = 1.823053 g / cm^3
# Si number density = 18.272119 Si / 1000 Ang^3
#
#
#
# Elastic Constant Matrix: (Units=GPa)
#
#
# Indices 1 2 3 4 5 6 
#
# 1 78.9007 46.2017 30.3630 0.0000 -12.8230 0.0002
# 2 46.2017 90.6330 15.4169 0.0001 -3.2798 0.0001
# 3 30.3630 15.4169 48.3452 0.0003 -22.2261 0.0002
# 4 0.0000 0.0001 0.0003 6.2183 0.0000 -4.7832
# 5 -12.8230 -3.2798 -22.2261 0.0000 31.5034 -0.0002
# 6 0.0002 0.0001 0.0002 -4.7832 -0.0002 22.7058
#
#
#
# Elastic Compliance Matrix: (Units=1/GPa)
#
#
# Indices 1 2 3 4 5 6 
#
# 1 0.022593 -0.009649 -0.010873 0.000001 0.000520 0.000000
# 2 -0.009649 0.015880 -0.000074 -0.000001 -0.002326 0.000000
# 3 -0.010873 -0.000074 0.037740 -0.000002 0.022192 -0.000001
# 4 0.000001 -0.000001 -0.000002 0.191915 -0.000001 0.040429
# 5 0.000520 -0.002326 0.022192 -0.000001 0.047369 0.000000
# 6 0.000000 0.000000 -0.000001 0.040429 0.000000 0.052558
#
#
# Mechanical properties :
#
#
# Convention : Reuss Voigt Hill
#
# Bulk Modulus (GPa) = 28.55376 44.64912 36.60144
# Shear Modulus (GPa) = 11.87871 20.47865 16.17868
#
# Velocity S-wave (km/s) = 2.55247 3.35141 2.97885
# Velocity P-wave (km/s) = 4.93434 6.28209 5.64855
#
# Compressibility (1/GPa) = 0.03502166
#
# Stress axis : x y z
#
# Youngs Moduli (GPa) = 44.26128 62.97034 26.49737
#
# Poissons Ratio (x) = 0.60759 0.28811
# Poissons Ratio (y) = 0.42707 0.00195
# Poissons Ratio (z) = 0.48127 0.00464
#
# Static dielectric constant tensor:
#      x y z
#    x 3.420010 0.000000 -0.401020 
#    y 0.000000 3.354890 0.000000 
#    z -0.401020 0.000000 3.731960 
# 
# 
# High freq. dielectric constant tensor:
#      x y z
#    x 1.700520 0.000000 -0.022340 
#    y 0.000000 1.692700 0.000000 
#    z -0.022340 0.000000 1.708710 
# 
# From -- ./inp_files/160478.got.cif
#   From: 2010.06.25/outbox.cif.g09.slc.cpg/sg12_81_cif.got.tgz:160478.got - 2010.06.28 00:19:55.
