data_PCOD8113691
_publ_section_title
;
Structure prediction by ZEFSAII (Michael W. Deem and Ramdas Pophale) SiO2 
 PCOD8113691
Probable space group: C 2/M
;
_chemical_formula_sum "Si O2"
_cell_formula_units_Z 56
_cell_length_a 24.320888
_cell_length_b 18.767641
_cell_length_c 11.924922
_cell_angle_alpha 90.000000
_cell_angle_beta 27.623325
_cell_angle_gamma 90.000000
_cell_volume 2523.720562
_symmetry_space_group_name_H-M "C 2/M"
_symmetry_group_IT_number 12
_symmetry_cell_setting 'monoclinic'
loop_
_space_group_symop_operation_xyz
x,y,z
-x,y,-z
-x,-y,-z
x,-y,z
1/2+x,1/2+y,z
1/2-x,1/2+y,-z
1/2-x,1/2-y,-z
1/2+x,1/2-y,z
loop_
_atom_site_type_symbol
_atom_site_label
_atom_site_fract_x
_atom_site_fract_y
_atom_site_fract_z
Si Si1 0.091588 0.154670 0.515743
Si Si2 0.778037 0.329384 0.991649
Si Si3 0.691361 0.920332 0.448279
Si Si4 0.493818 0.803658 0.294220
Si Si5 0.313770 0.355122 0.422487
Si Si6 0.394796 0.762762 0.126618
Si Si7 0.155830 0.082572 0.037894
O O1 0.195558 0.137798 0.239965
O O2 0.113486 0.118428 0.599935
O O3 0.090444 0.241013 0.509677
O O4 0.964920 0.122840 0.708872
O O5 0.762810 0.383660 0.916349
O O6 0.750000 0.250000 0.000000
O O7 0.916653 0.334699 0.775100
O O8 0.584559 0.865855 0.618682
O O9 0.738629 0.914552 0.491669
O O10 0.641333 0.000000 0.521949
O O11 0.803670 0.906331 0.164088
O O12 0.576509 0.761116 0.055954
O O13 0.393767 0.315708 0.184984
O O14 0.231630 0.297207 0.630941
O O15 0.500000 0.806272 0.000000
O O16 0.139438 0.000000 0.096702
#
# Coordination Sequence:
#
# PCOD8113691 Si02
#       7
#     8   8   8   8   8   8   8
#     4  12  24  40  70 102 132 171 216 274 330 388
#     4  12  26  42  68 101 131 169 224 277 325 385
#     4  11  26  45  66  94 132 178 220 267 328 398
#     4  12  23  40  68 100 134 164 223 276 328 384
#     4  11  22  37  64  97 134 165 209 265 331 395
#     4  11  19  35  63  98 129 167 203 270 334 383
#     4  11  27  48  66  92 134 178 221 269 329 393
#
# _framework density 22.189461000000001
#
# number of rings (size 3 to 8) (size 9 to 14) (size 15 to 20)
#    0.000    0.571    5.714    3.000    0.000    4.000 
#    0.000    4.286    0.000    0.000    0.000    0.000 
#    0.000    0.000    0.000    0.000    0.000    0.000 
#
# Total GULP energy -347044.206370 kJ/mol
# GULP energy per Si atom -12394.435942 kJ/mol
# Density = 2.213896 g / cm^3
# Si number density = 22.189461 Si / 1000 Ang^3
#
#
#
# Elastic Constant Matrix: (Units=GPa)
#
#
# Indices 1 2 3 4 5 6 
#
# 1 121.5249 31.6269 12.6498 0.0000 -13.1328 0.0000
# 2 31.6269 87.8953 18.1442 0.0000 -2.1589 0.0000
# 3 12.6498 18.1442 62.2807 0.0000 -2.0285 0.0000
# 4 0.0000 0.0000 0.0000 25.1106 0.0000 -3.2537
# 5 -13.1328 -2.1589 -2.0285 0.0000 40.5779 0.0000
# 6 0.0000 0.0000 0.0000 -3.2537 0.0000 26.6080
#
#
#
# Elastic Compliance Matrix: (Units=1/GPa)
#
#
# Indices 1 2 3 4 5 6 
#
# 1 0.009449 -0.003142 -0.000911 0.000000 0.002845 0.000000
# 2 -0.003142 0.013159 -0.003211 0.000000 -0.000477 0.000000
# 3 -0.000911 -0.003211 0.017190 0.000000 0.000394 0.000000
# 4 0.000000 0.000000 0.000000 0.040465 0.000000 0.004948
# 5 0.002845 -0.000477 0.000394 0.000000 0.025559 0.000000
# 6 0.000000 0.000000 0.000000 0.004948 0.000000 0.038188
#
#
# Mechanical properties :
#
#
# Convention : Reuss Voigt Hill
#
# Bulk Modulus (GPa) = 39.57376 44.06029 41.81702
# Shear Modulus (GPa) = 29.94727 32.41132 31.17930
#
# Velocity S-wave (km/s) = 3.67770 3.82601 3.75259
# Velocity P-wave (km/s) = 5.99226 6.27832 6.13696
#
# Compressibility (1/GPa) = 0.02526927
#
# Stress axis : x y z
#
# Youngs Moduli (GPa) = 105.83375 75.99457 58.17447
#
# Poissons Ratio (x) = 0.23877 0.05300
# Poissons Ratio (y) = 0.33252 0.18680
# Poissons Ratio (z) = 0.09643 0.24401
#
# Static dielectric constant tensor:
#      x y z
#    x 4.266270 0.000000 0.020730 
#    y 0.000000 3.641660 0.000000 
#    z 0.020730 0.000000 4.003730 
# 
# 
# High freq. dielectric constant tensor:
#      x y z
#    x 1.889750 0.000000 -0.000500 
#    y 0.000000 1.834770 0.000000 
#    z -0.000500 0.000000 1.881700 
# 
# From -- ./inp_files/177893.got.cif
#   From: 2010.06.25/outbox.cif.g09.slc.cpg/sg12_89_cif.got.tgz:177893.got - 2010.06.28 00:19:55.
