data_PCOD8113532
_publ_section_title
;
Structure prediction by ZEFSAII (Michael W. Deem and Ramdas Pophale) SiO2 
 PCOD8113532
Probable space group: C 2/M
;
_chemical_formula_sum "Si O2"
_cell_formula_units_Z 48
_cell_length_a 10.883639
_cell_length_b 25.032053
_cell_length_c 8.751322
_cell_angle_alpha 90.000000
_cell_angle_beta 84.226936
_cell_angle_gamma 90.000000
_cell_volume 2372.116213
_symmetry_space_group_name_H-M "C 2/M"
_symmetry_group_IT_number 12
_symmetry_cell_setting 'monoclinic'
loop_
_space_group_symop_operation_xyz
x,y,z
-x,y,-z
-x,-y,-z
x,-y,z
1/2+x,1/2+y,z
1/2-x,1/2+y,-z
1/2-x,1/2-y,-z
1/2+x,1/2-y,z
loop_
_atom_site_type_symbol
_atom_site_label
_atom_site_fract_x
_atom_site_fract_y
_atom_site_fract_z
Si Si1 0.207733 0.855529 0.196009
Si Si2 0.358566 0.437706 0.562504
Si Si3 0.119759 0.357163 0.089879
Si Si4 0.650804 0.788840 0.586982
Si Si5 0.624312 0.890589 0.417222
Si Si6 0.544268 0.744150 0.165435
O O1 0.155467 0.910318 0.270981
O O2 0.315081 0.832436 0.289122
O O3 0.107745 0.809469 0.210083
O O4 0.258006 0.869557 0.022464
O O5 0.500000 0.425699 0.500000
O O6 0.333432 0.500000 0.582735
O O7 0.255205 0.414335 0.458836
O O8 0.119516 0.396896 0.234211
O O9 0.132229 0.295846 0.144683
O O10 0.000000 0.366533 0.000000
O O11 0.750000 0.750000 0.500000
O O12 0.608049 0.826999 0.453879
O O13 0.553154 0.751472 0.685019
O O14 0.500000 0.919687 0.500000
O O15 0.500000 0.733447 0.000000
#
# Coordination Sequence:
#
# PCOD8113532 Si02
#       6
#     8   8   8   8   8   8
#     4  11  23  37  60  87 125 174 213 259 321 388
#     4  10  25  49  70  93 127 168 224 289 338 381
#     4  11  20  39  58  93 140 173 203 262 325 393
#     4  11  23  34  55  90 132 175 215 255 307 386
#     4  11  22  40  69  97 127 170 219 274 324 388
#     4  11  22  35  56  91 138 177 207 254 317 397
#
# _framework density 20.235095999999999
#
# number of rings (size 3 to 8) (size 9 to 14) (size 15 to 20)
#    0.000    1.167    5.000    2.500    7.000    0.333 
#    0.000    0.833    0.000    4.500    0.000    0.000 
#    0.000    0.000    0.000    0.000    0.000    0.000 
#
# Total GULP energy -297360.734913 kJ/mol
# GULP energy per Si atom -12390.030621 kJ/mol
# Density = 2.018904 g / cm^3
# Si number density = 20.235096 Si / 1000 Ang^3
#
#
#
# Elastic Constant Matrix: (Units=GPa)
#
#
# Indices 1 2 3 4 5 6 
#
# 1 121.7221 56.2048 60.8669 0.0000 -19.2561 0.0000
# 2 56.2048 90.5085 57.8324 0.0000 -12.2389 0.0000
# 3 60.8669 57.8324 162.3035 0.0000 -25.7866 0.0000
# 4 0.0000 0.0000 0.0000 19.9703 0.0000 -3.5317
# 5 -19.2561 -12.2389 -25.7866 0.0000 40.2565 0.0000
# 6 0.0000 0.0000 0.0000 -3.5317 0.0000 21.8616
#
#
#
# Elastic Compliance Matrix: (Units=1/GPa)
#
#
# Indices 1 2 3 4 5 6 
#
# 1 0.012494 -0.006047 -0.002086 0.000000 0.002802 0.000000
# 2 -0.006047 0.017285 -0.003914 0.000000 -0.000145 0.000000
# 3 -0.002086 -0.003914 0.008896 0.000000 0.003511 0.000000
# 4 0.000000 0.000000 0.000000 0.051547 0.000000 0.008327
# 5 0.002802 -0.000145 0.003511 0.000000 0.028386 0.000000
# 6 0.000000 0.000000 0.000000 0.008327 0.000000 0.047088
#
#
# Mechanical properties :
#
#
# Convention : Reuss Voigt Hill
#
# Bulk Modulus (GPa) = 68.58150 80.48248 74.53199
# Shear Modulus (GPa) = 25.68712 29.72634 27.70673
#
# Velocity S-wave (km/s) = 3.56678 3.83698 3.70434
# Velocity P-wave (km/s) = 7.13642 7.71297 7.43029
#
# Compressibility (1/GPa) = 0.01458119
#
# Stress axis : x y z
#
# Youngs Moduli (GPa) = 80.04014 57.85216 112.40997
#
# Poissons Ratio (x) = 0.34983 0.23444
# Poissons Ratio (y) = 0.48400 0.44002
# Poissons Ratio (z) = 0.16693 0.22646
#
# Static dielectric constant tensor:
#      x y z
#    x 3.810280 0.000000 0.179390 
#    y 0.000000 3.368140 0.000000 
#    z 0.179390 0.000000 4.608110 
# 
# 
# High freq. dielectric constant tensor:
#      x y z
#    x 1.794520 0.000000 -0.006030 
#    y 0.000000 1.751850 0.000000 
#    z -0.006030 0.000000 1.812110 
# 
# From -- ./inp_files/50604.got.cif
#   From: 2010.06.25/outbox.cif.g09.slc.cpg/sg12_26_cif.got.tgz:50604.got - 2010.06.28 00:19:55.
