data_PCOD8113014
_publ_section_title
;
Structure prediction by ZEFSAII (Michael W. Deem and Ramdas Pophale) SiO2 
 PCOD8113014
Probable space group: C 2/M
;
_chemical_formula_sum "Si O2"
_cell_formula_units_Z 40
_cell_length_a 15.488738
_cell_length_b 24.440394
_cell_length_c 9.478610
_cell_angle_alpha 90.000000
_cell_angle_beta 33.927384
_cell_angle_gamma 90.000000
_cell_volume 2002.688456
_symmetry_space_group_name_H-M "C 2/M"
_symmetry_group_IT_number 12
_symmetry_cell_setting 'monoclinic'
loop_
_space_group_symop_operation_xyz
x,y,z
-x,y,-z
-x,-y,-z
x,-y,z
1/2+x,1/2+y,z
1/2-x,1/2+y,-z
1/2-x,1/2-y,-z
1/2+x,1/2-y,z
loop_
_atom_site_type_symbol
_atom_site_label
_atom_site_fract_x
_atom_site_fract_y
_atom_site_fract_z
Si Si1 0.152480 0.936949 0.881416
Si Si2 0.350161 0.563712 0.787988
Si Si3 0.318928 0.248722 0.250983
Si Si4 0.614399 0.155095 0.472199
Si Si5 0.602570 0.859844 0.985861
O O1 0.289950 0.900579 0.632989
O O2 0.201183 0.000000 0.796970
O O3 0.122907 0.922334 0.085042
O O4 0.000000 0.923292 0.000000
O O5 0.500000 0.583669 0.500000
O O6 0.319211 0.500000 0.805524
O O7 0.201602 0.594498 0.929238
O O8 0.250000 0.250000 0.500000
O O9 0.228138 0.294368 0.283132
O O10 0.500000 0.263515 0.000000
O O11 0.290613 0.189068 0.220173
O O12 0.500000 0.145060 0.500000
O O13 0.517402 0.168031 0.743669
O O14 0.500000 0.886869 0.000000
#
# Coordination Sequence:
#
# PCOD8113014 Si02
#       5
#     8   8   8   8   8
#     4  10  23  43  67  95 131 177 218 264 330 395
#     4  10  23  43  65  96 134 172 220 272 326 393
#     4  11  23  45  67  92 131 173 218 272 327 394
#     4  12  24  42  66  99 129 170 221 271 330 393
#     4  11  24  43  66  96 132 169 219 270 331 393
#
# _framework density 19.973151000000001
#
# number of rings (size 3 to 8) (size 9 to 14) (size 15 to 20)
#    0.000    1.200    6.000    0.600    2.800    4.800 
#    0.000    0.000    0.000    0.000    0.000    0.000 
#    0.000    0.000    0.000    0.000    0.000    0.000 
#
# Total GULP energy -248055.499410 kJ/mol
# GULP energy per Si atom -12402.774970 kJ/mol
# Density = 1.992769 g / cm^3
# Si number density = 19.973151 Si / 1000 Ang^3
#
#
#
# Elastic Constant Matrix: (Units=GPa)
#
#
# Indices 1 2 3 4 5 6 
#
# 1 152.7752 62.0828 39.7264 -0.0001 -7.3451 0.0001
# 2 62.0828 95.9449 43.0926 -0.0001 -10.4829 0.0001
# 3 39.7264 43.0926 117.2634 -0.0003 5.5628 0.0004
# 4 -0.0001 -0.0001 -0.0003 7.3195 0.0002 27.2390
# 5 -7.3451 -10.4829 5.5628 0.0002 35.6152 -0.0003
# 6 0.0001 0.0001 0.0004 27.2390 -0.0003 -5.5668
#
#
#
# Elastic Compliance Matrix: (Units=1/GPa)
#
#
# Indices 1 2 3 4 5 6 
#
# 1 0.009003 -0.005260 -0.001140 0.000000 0.000486 0.000000
# 2 -0.005260 0.016289 -0.004412 0.000000 0.004399 0.000000
# 3 -0.001140 -0.004412 0.010687 0.000000 -0.003203 0.000000
# 4 0.000000 0.000000 0.000000 0.007112 0.000000 0.034801
# 5 0.000486 0.004399 -0.003203 0.000000 0.029973 0.000000
# 6 0.000000 0.000000 0.000000 0.034801 0.000000 -0.009352
#
#
# Mechanical properties :
#
#
# Convention : Reuss Voigt Hill
#
# Bulk Modulus (GPa) = 69.66864 72.86524 71.26694
# Shear Modulus (GPa) = 55.47924 22.21237 38.84581
#
# Velocity S-wave (km/s) = 5.27610 3.33845 4.41489
# Velocity P-wave (km/s) = 8.48959 7.17085 7.85794
#
# Compressibility (1/GPa) = 0.01435366
#
# Stress axis : x y z
#
# Youngs Moduli (GPa) = 111.07353 61.39137 93.56727
#
# Poissons Ratio (x) = 0.32294 0.10667
# Poissons Ratio (y) = 0.58429 0.41287
# Poissons Ratio (z) = 0.12662 0.27089
#
# Static dielectric constant tensor:
#      x y z
#    x 6.847280 0.000000 2.115230 
#    y 0.000000 3.692540 0.000000 
#    z 2.115230 0.000000 5.157640 
# 
# 
# High freq. dielectric constant tensor:
#      x y z
#    x 1.788140 0.000000 0.003250 
#    y 0.000000 1.780540 0.000000 
#    z 0.003250 0.000000 1.786540 
# 
# From -- ./inp_files/65069.got.cif
#   From: 2010.06.25/outbox.cif.g09.slc.cpg/sg12_33_cif.got.tgz:65069.got - 2010.06.28 00:19:55.
