data_PCOD8113991
_publ_section_title
;
Structure prediction by ZEFSAII (Michael W. Deem and Ramdas Pophale) SiO2 
 PCOD8113991
Probable space group: C 2/M
;
_chemical_formula_sum "Si O2"
_cell_formula_units_Z 40
_cell_length_a 26.107064
_cell_length_b 17.962452
_cell_length_c 9.474404
_cell_angle_alpha 90.000000
_cell_angle_beta 27.284574
_cell_angle_gamma 90.000000
_cell_volume 2036.713365
_symmetry_space_group_name_H-M "C 2/M"
_symmetry_group_IT_number 12
_symmetry_cell_setting 'monoclinic'
loop_
_space_group_symop_operation_xyz
x,y,z
-x,y,-z
-x,-y,-z
x,-y,z
1/2+x,1/2+y,z
1/2-x,1/2+y,-z
1/2-x,1/2-y,-z
1/2+x,1/2-y,z
loop_
_atom_site_type_symbol
_atom_site_label
_atom_site_fract_x
_atom_site_fract_y
_atom_site_fract_z
Si Si1 0.510368 0.297426 0.641628
Si Si2 0.723176 0.724996 0.720209
Si Si3 0.013746 0.500000 0.797438
Si Si4 0.377213 0.000000 0.878583
Si Si5 0.619211 0.845077 0.469789
Si Si6 0.745899 0.648573 0.132390
O O1 0.500000 0.301775 0.500000
O O2 0.520784 0.211888 0.670915
O O3 0.610051 0.349674 0.458146
O O4 0.391589 0.323142 0.997280
O O5 0.750000 0.750000 0.500000
O O6 0.826335 0.673130 0.512772
O O7 0.710089 0.794767 0.857914
O O8 0.079357 0.429187 0.576729
O O9 0.895852 0.500000 0.003190
O O10 0.000000 0.500000 0.000000
O O11 0.500000 0.000000 0.500000
O O12 0.299639 0.930867 0.030874
O O13 0.713765 0.828212 0.121560
#
# Coordination Sequence:
#
# PCOD8113991 Si02
#       6
#     8   8   4   4   8   8
#     4  11  20  39  66  90 128 169 217 265 317 382
#     4  11  24  38  64  94 132 166 212 276 326 378
#     4  12  28  40  63  94 135 169 211 274 335 381
#     4  12  24  42  66  94 131 166 215 272 326 391
#     4  11  22  39  61  95 123 165 220 257 319 390
#     4  11  22  40  64  95 121 169 218 262 321 388
#
# _framework density 19.639485000000001
#
# number of rings (size 3 to 8) (size 9 to 14) (size 15 to 20)
#    0.000    0.800    6.000    2.400    5.600    2.400 
#    0.000    1.500    0.000    1.200    0.000    0.000 
#    0.000    0.000    0.000    0.000    0.000    0.000 
#
# Total GULP energy -247880.386107 kJ/mol
# GULP energy per Si atom -12394.019305 kJ/mol
# Density = 1.959479 g / cm^3
# Si number density = 19.639485 Si / 1000 Ang^3
#
#
#
# Elastic Constant Matrix: (Units=GPa)
#
#
# Indices 1 2 3 4 5 6 
#
# 1 146.9533 37.2191 57.5833 0.0000 -3.5133 0.0000
# 2 37.2191 106.7598 15.8561 0.0000 -12.0934 0.0000
# 3 57.5833 15.8561 88.7013 0.0000 -1.4803 0.0000
# 4 0.0000 0.0000 0.0000 25.0630 0.0000 -2.8342
# 5 -3.5133 -12.0934 -1.4803 0.0000 42.9624 0.0000
# 6 0.0000 0.0000 0.0000 -2.8342 0.0000 26.4591
#
#
#
# Elastic Compliance Matrix: (Units=1/GPa)
#
#
# Indices 1 2 3 4 5 6 
#
# 1 0.009748 -0.002539 -0.005876 0.000000 -0.000120 0.000000
# 2 -0.002539 0.010595 -0.000199 0.000000 0.002768 0.000000
# 3 -0.005876 -0.000199 0.015124 0.000000 -0.000016 0.000000
# 4 0.000000 0.000000 0.000000 0.040389 0.000000 0.004326
# 5 -0.000120 0.002768 -0.000016 0.000000 0.024045 0.000000
# 6 0.000000 0.000000 0.000000 0.004326 0.000000 0.038258
#
#
# Mechanical properties :
#
#
# Convention : Reuss Voigt Hill
#
# Bulk Modulus (GPa) = 54.83260 62.63684 58.73472
# Shear Modulus (GPa) = 30.96620 34.34729 32.65674
#
# Velocity S-wave (km/s) = 3.97512 4.18651 4.08218
# Velocity P-wave (km/s) = 7.00349 7.43853 7.22429
#
# Compressibility (1/GPa) = 0.01823732
#
# Stress axis : x y z
#
# Youngs Moduli (GPa) = 102.58897 94.38251 66.12080
#
# Poissons Ratio (x) = 0.23965 0.38853
# Poissons Ratio (y) = 0.26049 0.01319
# Poissons Ratio (z) = 0.60282 0.01882
#
# Static dielectric constant tensor:
#      x y z
#    x 4.466960 0.000000 -0.575280 
#    y 0.000000 3.427980 0.000000 
#    z -0.575280 0.000000 3.986430 
# 
# 
# High freq. dielectric constant tensor:
#      x y z
#    x 1.793260 0.000000 -0.006750 
#    y 0.000000 1.743890 0.000000 
#    z -0.006750 0.000000 1.756130 
# 
# From -- ./inp_files/48829.got.cif
#   From: 2010.06.25/outbox.cif.g09.slc.cpg/sg12_25_cif.got.tgz:48829.got - 2010.06.28 00:19:55.
