data_PCOD8113239
_publ_section_title
;
Structure prediction by ZEFSAII (Michael W. Deem and Ramdas Pophale) SiO2 
 PCOD8113239
Probable space group: C 2/M
;
_chemical_formula_sum "Si O2"
_cell_formula_units_Z 48
_cell_length_a 20.264973
_cell_length_b 13.911366
_cell_length_c 8.685387
_cell_angle_alpha 90.000000
_cell_angle_beta 68.978379
_cell_angle_gamma 90.000000
_cell_volume 2285.566035
_symmetry_space_group_name_H-M "C 2/M"
_symmetry_group_IT_number 12
_symmetry_cell_setting 'monoclinic'
loop_
_space_group_symop_operation_xyz
x,y,z
-x,y,-z
-x,-y,-z
x,-y,z
1/2+x,1/2+y,z
1/2-x,1/2+y,-z
1/2-x,1/2-y,-z
1/2+x,1/2-y,z
loop_
_atom_site_type_symbol
_atom_site_label
_atom_site_fract_x
_atom_site_fract_y
_atom_site_fract_z
Si Si1 0.427101 0.000000 0.466456
Si Si2 0.081100 0.500000 0.893044
Si Si3 0.425361 0.208340 0.482836
Si Si4 0.562829 0.500000 0.661593
Si Si5 0.099951 0.000000 0.284760
Si Si6 0.173177 0.808977 0.218410
Si Si7 0.067317 0.193557 0.832651
Si Si8 0.166023 0.685764 0.932811
O O1 0.500000 0.000000 0.500000
O O2 0.422320 0.000000 0.286789
O O3 0.392461 0.898278 0.542290
O O4 0.118945 0.592374 0.937774
O O5 0.000000 0.500000 0.000000
O O6 0.500000 0.227039 0.500000
O O7 0.367523 0.283657 0.589960
O O8 0.442737 0.224912 0.289141
O O9 0.605476 0.500000 0.465890
O O10 0.479827 0.500000 0.702699
O O11 0.583509 0.591603 0.744095
O O12 0.137744 0.906092 0.181789
O O13 0.254185 0.833044 0.188988
O O14 0.165030 0.716874 0.113019
O O15 0.136860 0.221522 0.868486
O O16 0.000000 0.192342 0.000000
#
# Coordination Sequence:
#
# PCOD8113239 Si02
#       8
#     4   4   8   4   4   8   8   8
#     4  10  24  39  63 104 136 169 223 276 332 398
#     4  12  25  43  70 101 134 176 225 281 340 391
#     4  11  22  40  67  96 132 174 221 273 332 401
#     4  11  23  38  65 103 127 167 218 270 333 383
#     4  11  21  42  68  94 129 170 220 271 324 398
#     4  11  25  45  67  93 134 180 223 269 335 408
#     4  12  23  40  65 100 133 168 220 279 331 389
#     4  11  26  44  65  96 135 178 220 276 335 398
#
# _framework density 21.001363000000001
#
# number of rings (size 3 to 8) (size 9 to 14) (size 15 to 20)
#    0.000    0.833    3.333    4.250    4.667    1.333 
#    0.000    2.500    0.000    0.000    0.000    0.000 
#    0.000    0.000    0.000    0.000    0.000    0.000 
#
# Total GULP energy -297472.882004 kJ/mol
# GULP energy per Si atom -12394.703417 kJ/mol
# Density = 2.095356 g / cm^3
# Si number density = 21.001363 Si / 1000 Ang^3
#
#
#
# Elastic Constant Matrix: (Units=GPa)
#
#
# Indices 1 2 3 4 5 6 
#
# 1 108.8281 42.8687 32.9389 0.0000 -6.6244 0.0000
# 2 42.8687 144.7646 20.8086 0.0000 -7.4105 0.0000
# 3 32.9389 20.8086 77.0130 0.0000 -3.8482 0.0000
# 4 0.0000 0.0000 0.0000 32.9452 0.0000 12.2072
# 5 -6.6244 -7.4105 -3.8482 0.0000 33.2051 0.0000
# 6 0.0000 0.0000 0.0000 12.2072 0.0000 29.8120
#
#
#
# Elastic Compliance Matrix: (Units=1/GPa)
#
#
# Indices 1 2 3 4 5 6 
#
# 1 0.011616 -0.002780 -0.004156 0.000000 0.001215 0.000000
# 2 -0.002780 0.007916 -0.000894 0.000000 0.001108 0.000000
# 3 -0.004156 -0.000894 0.015040 0.000000 0.000714 0.000000
# 4 0.000000 0.000000 0.000000 0.035783 0.000000 -0.014652
# 5 0.001215 0.001108 0.000714 0.000000 0.030688 0.000000
# 6 0.000000 0.000000 0.000000 -0.014652 0.000000 0.039543
#
#
# Mechanical properties :
#
#
# Convention : Reuss Voigt Hill
#
# Bulk Modulus (GPa) = 52.88132 58.20423 55.54278
# Shear Modulus (GPa) = 30.75948 34.79174 32.77561
#
# Velocity S-wave (km/s) = 3.83122 4.07460 3.95478
# Velocity P-wave (km/s) = 6.69370 7.06478 6.88174
#
# Compressibility (1/GPa) = 0.01891027
#
# Stress axis : x y z
#
# Youngs Moduli (GPa) = 86.08897 126.32069 66.48994
#
# Poissons Ratio (x) = 0.35119 0.27635
# Poissons Ratio (y) = 0.23934 0.05947
# Poissons Ratio (z) = 0.35781 0.11299
#
# Static dielectric constant tensor:
#      x y z
#    x 3.749090 0.000000 0.118250 
#    y 0.000000 4.184370 0.000000 
#    z 0.118250 0.000000 3.965160 
# 
# 
# High freq. dielectric constant tensor:
#      x y z
#    x 1.811440 0.000000 0.013190 
#    y 0.000000 1.846190 0.000000 
#    z 0.013190 0.000000 1.820730 
# 
# From -- ./inp_files/85763.got.cif
#   From: 2010.06.25/outbox.cif.g09.slc.cpg/sg12_43_cif.got.tgz:85763.got - 2010.06.28 00:19:55.
