data_PCOD8113670
_publ_section_title
;
Structure prediction by ZEFSAII (Michael W. Deem and Ramdas Pophale) SiO2 
 PCOD8113670
Probable space group: C 2/M
;
_chemical_formula_sum "Si O2"
_cell_formula_units_Z 56
_cell_length_a 17.395343
_cell_length_b 26.330983
_cell_length_c 21.176070
_cell_angle_alpha 90.000000
_cell_angle_beta 160.706654
_cell_angle_gamma 90.000000
_cell_volume 3204.732308
_symmetry_space_group_name_H-M "C 2/M"
_symmetry_group_IT_number 12
_symmetry_cell_setting 'monoclinic'
loop_
_space_group_symop_operation_xyz
x,y,z
-x,y,-z
-x,-y,-z
x,-y,z
1/2+x,1/2+y,z
1/2-x,1/2+y,-z
1/2-x,1/2-y,-z
1/2+x,1/2-y,z
loop_
_atom_site_type_symbol
_atom_site_label
_atom_site_fract_x
_atom_site_fract_y
_atom_site_fract_z
Si Si1 0.507944 0.864075 0.350262
Si Si2 0.314682 0.942966 0.411536
Si Si3 0.216172 0.798614 0.640593
Si Si4 0.760560 0.697118 0.969910
Si Si5 0.122018 0.202115 0.424954
Si Si6 0.577593 0.372707 0.934615
Si Si7 0.805781 0.691781 0.305418
O O1 0.589729 0.909658 0.457252
O O2 0.726714 0.846784 0.477723
O O3 0.398254 0.816387 0.305301
O O4 0.316258 0.886942 0.154210
O O5 0.500000 0.942914 0.500000
O O6 0.067615 0.922905 0.193770
O O7 0.273301 0.000000 0.404467
O O8 0.115833 0.787624 0.493971
O O9 0.224926 0.749365 0.693667
O O10 0.000000 0.833478 0.500000
O O11 0.474255 0.821719 0.837343
O O12 0.636397 0.700391 0.805663
O O13 0.625728 0.655850 0.906272
O O14 0.750000 0.750000 0.000000
O O15 0.250000 0.250000 0.500000
O O16 0.437529 0.336366 0.873898
O O17 0.000000 0.664216 0.500000
#
# Coordination Sequence:
#
# PCOD8113670 Si02
#       7
#     8   8   8   8   8   8   8
#     4  12  22  36  59  81 110 160 198 230 281 339
#     4  11  24  40  57  83 120 152 193 246 283 326
#     4  11  24  37  50  79 118 148 190 236 281 335
#     4  12  21  35  54  80 110 149 195 234 276 334
#     4  12  21  35  55  78 110 153 194 235 276 336
#     4  12  20  36  58  79 109 151 199 234 277 334
#     4  11  19  34  50  76 114 151 193 230 267 336
#
# _framework density 17.474159
#
# number of rings (size 3 to 8) (size 9 to 14) (size 15 to 20)
#    0.000    0.429    8.571    2.143    0.000    1.143 
#    5.143    1.429    0.000    0.000    0.000    0.000 
#    0.000    3.429    0.000    0.000    0.000    0.000 
#
# Total GULP energy -346925.235468 kJ/mol
# GULP energy per Si atom -12390.186981 kJ/mol
# Density = 1.743439 g / cm^3
# Si number density = 17.474159 Si / 1000 Ang^3
#
#
#
# Elastic Constant Matrix: (Units=GPa)
#
#
# Indices 1 2 3 4 5 6 
#
# 1 62.7408 15.6180 18.0398 0.0149 7.3190 -0.0003
# 2 15.6180 66.9204 15.6461 -0.0063 -1.9113 0.0047
# 3 18.0398 15.6461 131.5386 0.1419 -3.1045 0.0416
# 4 0.0149 -0.0063 0.1419 3.7428 0.0279 1.4324
# 5 7.3190 -1.9113 -3.1045 0.0279 39.4291 0.0065
# 6 -0.0003 0.0047 0.0416 1.4324 0.0065 16.0754
#
#
#
# Elastic Compliance Matrix: (Units=1/GPa)
#
#
# Indices 1 2 3 4 5 6 
#
# 1 0.017914 -0.003797 -0.002092 0.000027 -0.003674 0.000006
# 2 -0.003797 0.016190 -0.001373 0.000088 0.001381 -0.000010
# 3 -0.002092 -0.001373 0.008075 -0.000310 0.000958 0.000007
# 4 0.000027 0.000088 -0.000310 0.276623 -0.000217 -0.024647
# 5 -0.003674 0.001381 0.000958 -0.000217 0.026187 0.000006
# 6 0.000006 -0.000010 0.000007 -0.024647 0.000006 0.064403
#
#
# Mechanical properties :
#
#
# Convention : Reuss Voigt Hill
#
# Bulk Modulus (GPa) = 36.15762 39.97862 38.06812
# Shear Modulus (GPa) = 11.54382 25.97584 18.75983
#
# Velocity S-wave (km/s) = 2.57305 3.85974 3.28010
# Velocity P-wave (km/s) = 5.43731 6.54154 6.01482
#
# Compressibility (1/GPa) = 0.02765669
#
# Stress axis : x y z
#
# Youngs Moduli (GPa) = 55.82308 61.76829 123.83252
#
# Poissons Ratio (x) = 0.23451 0.25905
# Poissons Ratio (y) = 0.21194 0.16996
# Poissons Ratio (z) = 0.11678 0.08478
#
# Static dielectric constant tensor:
#      x y z
#    x 3.322800 0.000870 0.102320 
#    y 0.000870 3.354980 0.000530 
#    z 0.102320 0.000530 3.558350 
# 
# 
# High freq. dielectric constant tensor:
#      x y z
#    x 1.676480 0.000000 -0.000960 
#    y 0.000000 1.614970 -0.000010 
#    z -0.000960 -0.000010 1.701150 
# 
# From -- ./inp_files/219056.got.cif
#   From: 2010.06.25/outbox.cif.g09.slc.cpg/sg12_110_cif.got.tgz:219056.got - 2010.06.28 00:19:55.
