data_PCOD8113407
_publ_section_title
;
Structure prediction by ZEFSAII (Michael W. Deem and Ramdas Pophale) SiO2 
 PCOD8113407
Probable space group: C 2/M
;
_chemical_formula_sum "Si O2"
_cell_formula_units_Z 48
_cell_length_a 11.527255
_cell_length_b 21.075036
_cell_length_c 14.491555
_cell_angle_alpha 90.000000
_cell_angle_beta 38.814066
_cell_angle_gamma 90.000000
_cell_volume 2206.656941
_symmetry_space_group_name_H-M "C 2/M"
_symmetry_group_IT_number 12
_symmetry_cell_setting 'monoclinic'
loop_
_space_group_symop_operation_xyz
x,y,z
-x,y,-z
-x,-y,-z
x,-y,z
1/2+x,1/2+y,z
1/2-x,1/2+y,-z
1/2-x,1/2-y,-z
1/2+x,1/2-y,z
loop_
_atom_site_type_symbol
_atom_site_label
_atom_site_fract_x
_atom_site_fract_y
_atom_site_fract_z
Si Si1 0.795676 0.870745 0.433514
Si Si2 0.699085 0.784085 0.331363
Si Si3 0.415719 0.867384 0.764639
Si Si4 0.715591 0.500000 0.846772
Si Si5 0.392160 0.570129 0.660580
Si Si6 0.292340 0.000000 0.599744
Si Si7 0.929337 0.660485 0.147308
O O1 0.812760 0.824323 0.336140
O O2 0.632946 0.854726 0.606539
O O3 0.000678 0.874955 0.348754
O O4 0.743744 0.940749 0.439495
O O5 0.500000 0.771457 0.500000
O O6 0.696371 0.822405 0.236408
O O7 0.798764 0.718560 0.253973
O O8 0.403710 0.845757 0.880125
O O9 0.332478 0.938400 0.807561
O O10 0.675640 0.500000 0.763654
O O11 0.500000 0.500000 0.000000
O O12 0.500000 0.561115 0.500000
O O13 0.382400 0.500000 0.714679
O O14 0.184281 0.594806 0.775575
O O15 0.500000 0.000000 0.500000
O O16 0.000000 0.670354 0.000000
#
# Coordination Sequence:
#
# PCOD8113407 Si02
#       7
#     8   8   8   4   8   4   8
#     4  11  20  40  74 105 135 166 230 295 333 390
#     4  10  24  44  73 102 127 175 235 289 337 389
#     4  11  24  45  71 101 137 179 222 285 342 389
#     4  12  26  42  70 106 146 175 220 276 346 415
#     4  11  24  42  71 103 134 178 228 274 330 406
#     4  12  18  38  68 105 132 173 223 278 345 388
#     4  12  29  47  65  94 144 190 222 270 339 418
#
# _framework density 21.752361000000001
#
# number of rings (size 3 to 8) (size 9 to 14) (size 15 to 20)
#    0.000    0.833    5.833    1.000    3.500    4.333 
#    0.000    0.000    0.000    0.000    0.000    0.000 
#    0.000    0.000    0.000    0.000    0.000    0.000 
#
# Total GULP energy -297388.054747 kJ/mol
# GULP energy per Si atom -12391.168948 kJ/mol
# Density = 2.170285 g / cm^3
# Si number density = 21.752361 Si / 1000 Ang^3
#
#
#
# Elastic Constant Matrix: (Units=GPa)
#
#
# Indices 1 2 3 4 5 6 
#
# 1 125.3971 41.1303 31.2020 0.0001 20.0167 0.0004
# 2 41.1303 115.8654 23.1917 -0.0051 3.3747 0.0019
# 3 31.2020 23.1917 68.3743 -0.0214 13.4415 0.0034
# 4 0.0001 -0.0051 -0.0214 73.4211 0.0086 -16.8295
# 5 20.0167 3.3747 13.4415 0.0086 36.3355 -0.0010
# 6 0.0004 0.0019 0.0034 -16.8295 -0.0010 23.3915
#
#
#
# Elastic Compliance Matrix: (Units=1/GPa)
#
#
# Indices 1 2 3 4 5 6 
#
# 1 0.010361 -0.002979 -0.002858 -0.000001 -0.004374 0.000000
# 2 -0.002979 0.010119 -0.002384 0.000000 0.001583 -0.000001
# 3 -0.002858 -0.002384 0.017670 0.000006 -0.004741 0.000002
# 4 -0.000001 0.000000 0.000006 0.016310 -0.000005 0.011734
# 5 -0.004374 0.001583 -0.004741 -0.000005 0.031538 -0.000002
# 6 0.000000 -0.000001 0.000002 0.011734 -0.000002 0.051193
#
#
# Mechanical properties :
#
#
# Convention : Reuss Voigt Hill
#
# Bulk Modulus (GPa) = 46.06422 55.63163 50.84792
# Shear Modulus (GPa) = 31.08126 40.90382 35.99254
#
# Velocity S-wave (km/s) = 3.78414 4.34110 4.07215
# Velocity P-wave (km/s) = 6.34945 7.12442 6.74807
#
# Compressibility (1/GPa) = 0.02170882
#
# Stress axis : x y z
#
# Youngs Moduli (GPa) = 96.51634 98.82251 56.59210
#
# Poissons Ratio (x) = 0.29434 0.16174
# Poissons Ratio (y) = 0.28747 0.13493
# Poissons Ratio (z) = 0.27585 0.23562
#
# Static dielectric constant tensor:
#      x y z
#    x 4.036950 0.000000 0.277720 
#    y 0.000000 4.024930 0.000000 
#    z 0.277720 0.000000 3.328880 
# 
# 
# High freq. dielectric constant tensor:
#      x y z
#    x 1.870420 0.000000 0.010580 
#    y 0.000000 1.866980 0.000000 
#    z 0.010580 0.000000 1.829700 
# 
# From -- ./inp_files/207973.got.cif
#   From: 2010.06.25/outbox.cif.g09.slc.cpg/sg12_104_cif.got.tgz:207973.got - 2010.06.28 00:19:55.
