data_PCOD8113386
_publ_section_title
;
Structure prediction by ZEFSAII (Michael W. Deem and Ramdas Pophale) SiO2 
 PCOD8113386
Probable space group: C 2/M
;
_chemical_formula_sum "Si O2"
_cell_formula_units_Z 56
_cell_length_a 23.773654
_cell_length_b 8.668773
_cell_length_c 15.067904
_cell_angle_alpha 90.000000
_cell_angle_beta 61.189437
_cell_angle_gamma 90.000000
_cell_volume 2720.937142
_symmetry_space_group_name_H-M "C 2/M"
_symmetry_group_IT_number 12
_symmetry_cell_setting 'monoclinic'
loop_
_space_group_symop_operation_xyz
x,y,z
-x,y,-z
-x,-y,-z
x,-y,z
1/2+x,1/2+y,z
1/2-x,1/2+y,-z
1/2-x,1/2-y,-z
1/2+x,1/2-y,z
loop_
_atom_site_type_symbol
_atom_site_label
_atom_site_fract_x
_atom_site_fract_y
_atom_site_fract_z
Si Si1 0.241792 0.182557 0.783744
Si Si2 0.935044 0.319433 0.809613
Si Si3 0.127171 0.819073 0.307348
Si Si4 0.191224 0.682541 0.987711
Si Si5 0.292958 0.682729 0.387651
Si Si6 0.937452 0.672845 0.488579
Si Si7 0.936979 0.179148 0.305692
O O1 0.303559 0.265936 0.779514
O O2 0.186746 0.242325 0.892599
O O3 0.231739 0.236670 0.690057
O O4 0.248611 0.000000 0.785234
O O5 0.936481 0.500000 0.789789
O O6 0.925803 0.234746 0.722622
O O7 0.005286 0.264989 0.792039
O O8 0.877829 0.272466 0.918712
O O9 0.120404 0.733906 0.406957
O O10 0.122179 0.000000 0.324981
O O11 0.199844 0.500000 0.975568
O O12 0.250000 0.750000 0.000000
O O13 0.291043 0.500000 0.399298
O O14 0.250000 0.750000 0.500000
O O15 0.366354 0.743341 0.335091
O O16 0.921440 0.500000 0.466421
O O17 0.946933 0.790410 0.401772
O O18 0.000000 0.674156 0.500000
O O19 0.942093 0.000000 0.279411
#
# Coordination Sequence:
#
# PCOD8113386 Si02
#       7
#     8   8   8   8   8   8   8
#     4  11  23  41  64  90 125 164 208 257 313 373
#     4  11  23  39  59  88 124 161 200 249 313 374
#     4  12  23  35  57  88 122 158 202 252 307 367
#     4  11  23  39  63  93 127 164 209 259 315 374
#     4  10  24  44  66  93 124 164 210 259 309 369
#     4  11  22  35  54  82 120 158 197 244 306 371
#     4  11  23  40  62  89 122 160 209 259 309 370
#
# _framework density 20.581143999999998
#
# number of rings (size 3 to 8) (size 9 to 14) (size 15 to 20)
#    0.000    1.000    2.857    4.286    0.000    6.857 
#    0.000    0.714    0.000    4.286    0.000    0.000 
#    0.000    0.000    0.000    0.000    0.000    0.000 
#
# Total GULP energy -347177.018111 kJ/mol
# GULP energy per Si atom -12399.179218 kJ/mol
# Density = 2.053430 g / cm^3
# Si number density = 20.581144 Si / 1000 Ang^3
#
#
#
# Elastic Constant Matrix: (Units=GPa)
#
#
# Indices 1 2 3 4 5 6 
#
# 1 106.9575 34.7269 50.8884 0.0000 -22.0361 0.0000
# 2 34.7269 65.1731 28.5040 0.0001 -4.6833 0.0002
# 3 50.8884 28.5040 128.1799 0.0000 -11.4858 0.0000
# 4 0.0000 0.0001 0.0000 35.3012 0.0000 -5.7306
# 5 -22.0361 -4.6833 -11.4858 0.0000 36.0080 0.0000
# 6 0.0000 0.0002 0.0000 -5.7306 0.0000 27.6184
#
#
#
# Elastic Compliance Matrix: (Units=1/GPa)
#
#
# Indices 1 2 3 4 5 6 
#
# 1 0.014385 -0.005476 -0.003879 0.000000 0.006854 0.000000
# 2 -0.005476 0.019119 -0.002218 0.000000 -0.001572 0.000000
# 3 -0.003879 -0.002218 0.009879 0.000000 0.000489 0.000000
# 4 0.000000 0.000000 0.000000 0.029315 0.000000 0.006083
# 5 0.006854 -0.001572 0.000489 0.000000 0.031917 0.000000
# 6 0.000000 0.000000 0.000000 0.006083 0.000000 0.037470
#
#
# Mechanical properties :
#
#
# Convention : Reuss Voigt Hill
#
# Bulk Modulus (GPa) = 49.41774 58.72768 54.07271
# Shear Modulus (GPa) = 29.07365 32.19827 30.63596
#
# Velocity S-wave (km/s) = 3.76258 3.95961 3.86235
# Velocity P-wave (km/s) = 6.55281 7.03572 6.79855
#
# Compressibility (1/GPa) = 0.02023565
#
# Stress axis : x y z
#
# Youngs Moduli (GPa) = 69.51637 52.30451 101.22792
#
# Poissons Ratio (x) = 0.28641 0.39268
# Poissons Ratio (y) = 0.38066 0.22457
# Poissons Ratio (z) = 0.26966 0.11604
#
# Static dielectric constant tensor:
#      x y z
#    x 3.812290 0.000000 -0.245640 
#    y 0.000000 3.735810 0.000000 
#    z -0.245640 0.000000 3.963160 
# 
# 
# High freq. dielectric constant tensor:
#      x y z
#    x 1.793280 0.000000 -0.022000 
#    y 0.000000 1.808540 0.000000 
#    z -0.022000 0.000000 1.812240 
# 
# From -- ./inp_files/238407.got.cif
#   From: 2010.06.25/outbox.cif.g09.slc.cpg/sg12_120_cif.got.tgz:238407.got - 2010.06.28 00:19:55.
