data_PCOD8113252
_publ_section_title
;
Structure prediction by ZEFSAII (Michael W. Deem and Ramdas Pophale) SiO2 
 PCOD8113252
Probable space group: C 2/M
;
_chemical_formula_sum "Si O2"
_cell_formula_units_Z 48
_cell_length_a 22.303160
_cell_length_b 12.936629
_cell_length_c 8.062309
_cell_angle_alpha 90.000000
_cell_angle_beta 104.620625
_cell_angle_gamma 90.000000
_cell_volume 2250.873391
_symmetry_space_group_name_H-M "C 2/M"
_symmetry_group_IT_number 12
_symmetry_cell_setting 'monoclinic'
loop_
_space_group_symop_operation_xyz
x,y,z
-x,y,-z
-x,-y,-z
x,-y,z
1/2+x,1/2+y,z
1/2-x,1/2+y,-z
1/2-x,1/2-y,-z
1/2+x,1/2-y,z
loop_
_atom_site_type_symbol
_atom_site_label
_atom_site_fract_x
_atom_site_fract_y
_atom_site_fract_z
Si Si1 0.797210 0.116760 0.510022
Si Si2 0.071106 0.805815 0.382784
Si Si3 0.061584 0.381523 0.148476
Si Si4 0.352135 0.765949 0.025938
Si Si5 0.267331 0.790270 0.246850
Si Si6 0.942154 0.119703 0.260196
O O1 0.862307 0.155001 0.635823
O O2 0.742772 0.130012 0.608584
O O3 0.779833 0.177013 0.331200
O O4 0.803094 0.000000 0.457394
O O5 0.061553 0.687742 0.315193
O O6 0.070072 0.815447 0.580572
O O7 0.015343 0.874763 0.267309
O O8 0.067515 0.500000 0.209568
O O9 0.119928 0.353249 0.073294
O O10 0.000000 0.361910 0.000000
O O11 0.327399 0.820553 0.178527
O O12 0.402806 0.675913 0.090737
O O13 0.293762 0.708566 0.906466
O O14 0.922333 0.000000 0.266033
#
# Coordination Sequence:
#
# PCOD8113252 Si02
#       6
#     8   8   8   8   8   8
#     4  11  22  41  66  94 128 168 212 262 322 381
#     4  11  21  42  67  98 129 161 208 265 318 396
#     4  11  24  44  66  90 125 172 214 265 319 365
#     4  11  22  43  61  90 131 165 216 264 305 378
#     4  10  24  40  61  89 128 170 214 259 305 374
#     4  11  23  40  69 100 132 166 199 262 340 381
#
# _framework density 21.325056
#
# number of rings (size 3 to 8) (size 9 to 14) (size 15 to 20)
#    0.000    1.167    5.000    2.000    0.000    2.000 
#    0.000    6.667    0.000    0.000    0.000    0.000 
#    0.000    0.000    0.000    0.000    0.000    0.000 
#
# Total GULP energy -297564.942482 kJ/mol
# GULP energy per Si atom -12398.539270 kJ/mol
# Density = 2.127652 g / cm^3
# Si number density = 21.325056 Si / 1000 Ang^3
#
#
#
# Elastic Constant Matrix: (Units=GPa)
#
#
# Indices 1 2 3 4 5 6 
#
# 1 84.6159 22.5406 19.2994 0.0000 0.6345 0.0000
# 2 22.5406 139.0778 42.9162 0.0000 2.8557 0.0000
# 3 19.2994 42.9162 65.1548 0.0000 8.0629 0.0000
# 4 0.0000 0.0000 0.0000 27.6916 0.0000 1.2766
# 5 0.6345 2.8557 8.0629 0.0000 43.2541 0.0000
# 6 0.0000 0.0000 0.0000 1.2766 0.0000 16.5987
#
#
#
# Elastic Compliance Matrix: (Units=1/GPa)
#
#
# Indices 1 2 3 4 5 6 
#
# 1 0.012825 -0.001127 -0.003114 0.000000 0.000467 0.000000
# 2 -0.001127 0.009135 -0.005743 0.000000 0.000484 0.000000
# 3 -0.003114 -0.005743 0.020473 0.000000 -0.003392 0.000000
# 4 0.000000 0.000000 0.000000 0.036241 0.000000 -0.002787
# 5 0.000467 0.000484 -0.003392 0.000000 0.023713 0.000000
# 6 0.000000 0.000000 0.000000 -0.002787 0.000000 0.060460
#
#
# Mechanical properties :
#
#
# Convention : Reuss Voigt Hill
#
# Bulk Modulus (GPa) = 44.51507 50.92898 47.72203
# Shear Modulus (GPa) = 26.27377 31.11504 28.69441
#
# Velocity S-wave (km/s) = 3.51388 3.82394 3.67218
# Velocity P-wave (km/s) = 6.11416 6.59020 6.35664
#
# Compressibility (1/GPa) = 0.02246430
#
# Stress axis : x y z
#
# Youngs Moduli (GPa) = 77.97158 109.46690 48.84447
#
# Poissons Ratio (x) = 0.12339 0.15211
# Poissons Ratio (y) = 0.08789 0.28052
# Poissons Ratio (z) = 0.24282 0.62869
#
# Static dielectric constant tensor:
#      x y z
#    x 4.414810 0.000000 0.021940 
#    y 0.000000 3.527990 0.000000 
#    z 0.021940 0.000000 3.806310 
# 
# 
# High freq. dielectric constant tensor:
#      x y z
#    x 1.857590 0.000000 0.004050 
#    y 0.000000 1.807320 0.000000 
#    z 0.004050 0.000000 1.834680 
# 
# From -- ./inp_files/94990.got.cif
#   From: 2010.06.25/outbox.cif.g09.slc.cpg/sg12_48_cif.got.tgz:94990.got - 2010.06.28 00:19:55.
