data_PCOD8113463
_publ_section_title
;
Structure prediction by ZEFSAII (Michael W. Deem and Ramdas Pophale) SiO2 
 PCOD8113463
Probable space group: C 2/M
;
_chemical_formula_sum "Si O2"
_cell_formula_units_Z 64
_cell_length_a 9.007210
_cell_length_b 28.047901
_cell_length_c 14.086956
_cell_angle_alpha 90.000000
_cell_angle_beta 51.127541
_cell_angle_gamma 90.000000
_cell_volume 2770.712609
_symmetry_space_group_name_H-M "C 2/M"
_symmetry_group_IT_number 12
_symmetry_cell_setting 'monoclinic'
loop_
_space_group_symop_operation_xyz
x,y,z
-x,y,-z
-x,-y,-z
x,-y,z
1/2+x,1/2+y,z
1/2-x,1/2+y,-z
1/2-x,1/2-y,-z
1/2+x,1/2-y,z
loop_
_atom_site_type_symbol
_atom_site_label
_atom_site_fract_x
_atom_site_fract_y
_atom_site_fract_z
Si Si1 0.024400 0.247682 0.752588
Si Si2 0.952576 0.054070 0.124451
Si Si3 0.061969 0.406748 0.272654
Si Si4 0.334747 0.554951 0.490465
Si Si5 0.669838 0.810075 0.862324
Si Si6 0.466999 0.946252 0.120413
Si Si7 0.602129 0.190908 0.361174
Si Si8 0.400898 0.404036 0.755995
O O1 0.071956 0.288923 0.807823
O O2 0.183198 0.206469 0.697729
O O3 0.812510 0.226841 0.857802
O O4 0.016208 0.268338 0.647896
O O5 0.729813 0.058385 0.239680
O O6 0.075819 0.088949 0.140906
O O7 0.019856 0.000000 0.114368
O O8 0.000000 0.071310 0.000000
O O9 0.864131 0.425256 0.392903
O O10 0.063570 0.410146 0.156630
O O11 0.111620 0.353910 0.286923
O O12 0.500000 0.562132 0.500000
O O13 0.310511 0.500000 0.469805
O O14 0.395073 0.588040 0.376683
O O15 0.800591 0.853831 0.775108
O O16 0.500000 0.825685 0.000000
O O17 0.239147 0.945278 0.228892
O O18 0.544756 0.000000 0.105013
O O19 0.500000 0.927618 0.000000
O O20 0.500000 0.177711 0.500000
#
# Coordination Sequence:
#
# PCOD8113463 Si02
#       8
#     8   8   8   8   8   8   8   8
#     4  10  24  47  73 103 138 183 232 290 368 433
#     4  11  25  44  65  96 141 187 232 288 352 414
#     4  12  25  42  71 103 140 183 240 291 356 418
#     4  11  24  43  68  99 142 187 235 290 341 408
#     4  11  24  45  73 105 142 178 233 293 360 430
#     4  11  22  40  67  98 134 179 233 288 343 410
#     4  11  25  46  71 103 141 184 236 293 351 432
#     4  12  24  41  66  99 135 179 235 281 344 411
#
# _framework density 23.098749999999999
#
# number of rings (size 3 to 8) (size 9 to 14) (size 15 to 20)
#    0.000    0.875    1.250    5.625    3.500    3.000 
#    0.000    4.375    0.000    0.000    0.000    0.000 
#    0.000    0.000    0.000    0.000    0.000    0.000 
#
# Total GULP energy -396754.994472 kJ/mol
# GULP energy per Si atom -12398.593577 kJ/mol
# Density = 2.304618 g / cm^3
# Si number density = 23.098750 Si / 1000 Ang^3
#
#
#
# Elastic Constant Matrix: (Units=GPa)
#
#
# Indices 1 2 3 4 5 6 
#
# 1 135.8798 50.7451 43.3723 0.0000 0.0327 0.0000
# 2 50.7451 115.8665 54.1971 0.0000 7.8258 0.0000
# 3 43.3723 54.1971 101.8061 0.0000 2.6924 0.0000
# 4 0.0000 0.0000 0.0000 29.7498 0.0000 9.9189
# 5 0.0327 7.8258 2.6924 0.0000 44.5119 0.0000
# 6 0.0000 0.0000 0.0000 9.9189 0.0000 28.4858
#
#
#
# Elastic Compliance Matrix: (Units=1/GPa)
#
#
# Indices 1 2 3 4 5 6 
#
# 1 0.009226 -0.002981 -0.002361 0.000000 0.000660 0.000000
# 2 -0.002981 0.012578 -0.005376 0.000000 -0.001884 0.000000
# 3 -0.002361 -0.005376 0.013687 0.000000 0.000119 0.000000
# 4 0.000000 0.000000 0.000000 0.038029 0.000000 -0.013242
# 5 0.000660 -0.001884 0.000119 0.000000 0.022789 0.000000
# 6 0.000000 0.000000 0.000000 -0.013242 0.000000 0.039716
#
#
# Mechanical properties :
#
#
# Convention : Reuss Voigt Hill
#
# Bulk Modulus (GPa) = 71.14838 72.24236 71.69537
# Shear Modulus (GPa) = 30.83608 34.23203 32.53405
#
# Velocity S-wave (km/s) = 3.65768 3.85383 3.75704
# Velocity P-wave (km/s) = 6.97903 7.15165 7.06587
#
# Compressibility (1/GPa) = 0.01405513
#
# Stress axis : x y z
#
# Youngs Moduli (GPa) = 108.38715 79.50296 73.05937
#
# Poissons Ratio (x) = 0.23698 0.17251
# Poissons Ratio (y) = 0.32308 0.39279
# Poissons Ratio (z) = 0.25593 0.42743
#
# Static dielectric constant tensor:
#      x y z
#    x 4.494040 0.000000 -0.063850 
#    y 0.000000 3.980860 0.000000 
#    z -0.063850 0.000000 4.192810 
# 
# 
# High freq. dielectric constant tensor:
#      x y z
#    x 1.935940 0.000000 -0.004800 
#    y 0.000000 1.904090 0.000000 
#    z -0.004800 0.000000 1.910750 
# 
# From -- ./inp_files/201300.got.cif
#   From: 2010.06.25/outbox.cif.g09.slc.cpg/sg12_101_cif.got.tgz:201300.got - 2010.06.28 00:19:55.
