data_PCOD8113505
_publ_section_title
;
Structure prediction by ZEFSAII (Michael W. Deem and Ramdas Pophale) SiO2 
 PCOD8113505
Probable space group: C 2/M
;
_chemical_formula_sum "Si O2"
_cell_formula_units_Z 64
_cell_length_a 11.956969
_cell_length_b 21.579701
_cell_length_c 12.251732
_cell_angle_alpha 90.000000
_cell_angle_beta 76.886993
_cell_angle_gamma 90.000000
_cell_volume 3078.855458
_symmetry_space_group_name_H-M "C 2/M"
_symmetry_group_IT_number 12
_symmetry_cell_setting 'monoclinic'
loop_
_space_group_symop_operation_xyz
x,y,z
-x,y,-z
-x,-y,-z
x,-y,z
1/2+x,1/2+y,z
1/2-x,1/2+y,-z
1/2-x,1/2-y,-z
1/2+x,1/2-y,z
loop_
_atom_site_type_symbol
_atom_site_label
_atom_site_fract_x
_atom_site_fract_y
_atom_site_fract_z
Si Si1 0.164693 0.640927 0.187574
Si Si2 0.183266 0.071248 0.682479
Si Si3 0.628907 0.846453 0.951583
Si Si4 0.282962 0.279523 0.765406
Si Si5 0.495073 0.654553 0.623492
Si Si6 0.358231 0.772867 0.411127
Si Si7 0.884762 0.592478 0.469960
Si Si8 0.938966 0.569059 0.227787
O O1 0.267768 0.604094 0.220802
O O2 0.159957 0.712182 0.229874
O O3 0.044328 0.610613 0.248390
O O4 0.179151 0.630384 0.055228
O O5 0.273327 0.075278 0.564116
O O6 0.065956 0.107344 0.682262
O O7 0.153729 0.000000 0.714484
O O8 0.721306 0.795885 0.892953
O O9 0.623559 0.901843 0.863760
O O10 0.500000 0.818974 0.000000
O O11 0.370382 0.333372 0.705159
O O12 0.176167 0.280925 0.706718
O O13 0.500000 0.626114 0.500000
O O14 0.542984 0.723257 0.604183
O O15 0.250000 0.750000 0.500000
O O16 0.401907 0.834230 0.459599
O O17 0.859946 0.565436 0.353867
O O18 0.000000 0.563987 0.500000
O O19 0.978265 0.500000 0.185103
#
# Coordination Sequence:
#
# PCOD8113505 Si02
#       8
#     8   8   8   8   8   8   8   8
#     4  11  23  42  65  96 128 169 217 272 327 378
#     4  12  26  42  61  94 138 178 217 260 320 395
#     4  10  25  44  68  98 130 169 217 275 332 380
#     4  12  23  43  67  98 132 163 216 274 328 390
#     4  12  25  40  66  99 132 176 212 262 329 394
#     4  12  21  38  64  99 136 164 210 268 330 392
#     4  12  22  37  64  99 132 167 213 274 334 384
#     4  11  23  40  64  94 130 172 217 269 325 382
#
# _framework density 20.786944999999999
#
# number of rings (size 3 to 8) (size 9 to 14) (size 15 to 20)
#    0.000    0.500    6.250    2.250    1.750    3.500 
#    0.000    1.250    0.000    0.750    0.000    0.000 
#    0.000    0.000    0.000    0.000    0.000    0.000 
#
# Total GULP energy -396741.214298 kJ/mol
# GULP energy per Si atom -12398.162947 kJ/mol
# Density = 2.073963 g / cm^3
# Si number density = 20.786945 Si / 1000 Ang^3
#
#
#
# Elastic Constant Matrix: (Units=GPa)
#
#
# Indices 1 2 3 4 5 6 
#
# 1 75.6713 32.8666 38.9785 0.0000 11.5940 0.0000
# 2 32.8666 126.3643 23.5985 0.0000 5.3870 0.0000
# 3 38.9785 23.5985 125.0362 0.0000 10.5695 0.0000
# 4 0.0000 0.0000 0.0000 13.8022 0.0000 0.2020
# 5 11.5940 5.3870 10.5695 0.0000 41.3206 0.0000
# 6 0.0000 0.0000 0.0000 0.2020 0.0000 5.6713
#
#
#
# Elastic Compliance Matrix: (Units=1/GPa)
#
#
# Indices 1 2 3 4 5 6 
#
# 1 0.017620 -0.003595 -0.004534 0.000000 -0.003315 0.000000
# 2 -0.003595 0.008955 -0.000568 0.000000 -0.000013 0.000000
# 3 -0.004534 -0.000568 0.009612 0.000000 -0.001112 0.000000
# 4 0.000000 0.000000 0.000000 0.072490 0.000000 -0.002582
# 5 -0.003315 -0.000013 -0.001112 0.000000 0.025418 0.000000
# 6 0.000000 0.000000 0.000000 -0.002582 0.000000 0.176418
#
#
# Mechanical properties :
#
#
# Convention : Reuss Voigt Hill
#
# Bulk Modulus (GPa) = 53.21079 57.55099 55.38089
# Shear Modulus (GPa) = 14.96234 27.60069 21.28152
#
# Velocity S-wave (km/s) = 2.68581 3.64784 3.20315
# Velocity P-wave (km/s) = 5.93901 6.74452 6.35454
#
# Compressibility (1/GPa) = 0.01879318
#
# Stress axis : x y z
#
# Youngs Moduli (GPa) = 56.75417 111.66546 104.03183
#
# Poissons Ratio (x) = 0.40141 0.47169
# Poissons Ratio (y) = 0.20402 0.05913
# Poissons Ratio (z) = 0.25733 0.06347
#
# Static dielectric constant tensor:
#      x y z
#    x 3.483620 0.000000 0.027510 
#    y 0.000000 3.759570 0.000000 
#    z 0.027510 0.000000 3.931190 
# 
# 
# High freq. dielectric constant tensor:
#      x y z
#    x 1.802290 0.000000 0.011670 
#    y 0.000000 1.807740 0.000000 
#    z 0.011670 0.000000 1.823670 
# 
# From -- ./inp_files/135353.got.cif
#   From: 2010.06.25/outbox.cif.g09.slc.cpg/sg12_68_cif.got.tgz:135353.got - 2010.06.28 00:19:55.
