data_PCOD8113260
_publ_section_title
;
Structure prediction by ZEFSAII (Michael W. Deem and Ramdas Pophale) SiO2 
 PCOD8113260
Probable space group: C 2/M
;
_chemical_formula_sum "Si O2"
_cell_formula_units_Z 40
_cell_length_a 13.130604
_cell_length_b 26.598031
_cell_length_c 5.238424
_cell_angle_alpha 90.000000
_cell_angle_beta 101.751821
_cell_angle_gamma 90.000000
_cell_volume 1791.161853
_symmetry_space_group_name_H-M "C 2/M"
_symmetry_group_IT_number 12
_symmetry_cell_setting 'monoclinic'
loop_
_space_group_symop_operation_xyz
x,y,z
-x,y,-z
-x,-y,-z
x,-y,z
1/2+x,1/2+y,z
1/2-x,1/2+y,-z
1/2-x,1/2-y,-z
1/2+x,1/2-y,z
loop_
_atom_site_type_symbol
_atom_site_label
_atom_site_fract_x
_atom_site_fract_y
_atom_site_fract_z
Si Si1 0.210341 0.442266 0.046446
Si Si2 0.880489 0.393476 0.498148
Si Si3 0.395279 0.297812 0.099270
Si Si4 0.799984 0.288533 0.335065
Si Si5 0.064782 0.094862 0.771095
O O1 0.176106 0.500000 0.021223
O O2 0.146458 0.415994 0.240399
O O3 0.333201 0.438929 0.156036
O O4 0.186953 0.417670 0.761323
O O5 0.857792 0.334005 0.504414
O O6 0.000000 0.403904 0.500000
O O7 0.385737 0.244180 0.230861
O O8 0.405058 0.347159 0.283018
O O9 0.500000 0.291771 0.000000
O O10 0.291930 0.310248 0.885869
O O11 0.750000 0.250000 0.500000
O O12 0.000000 0.073092 0.500000
O O13 0.000000 0.091866 0.000000
#
# Coordination Sequence:
#
# PCOD8113260 Si02
#       5
#     8   8   8   8   8
#     4  12  27  50  74 103 138 180 239 299 354 415
#     4  12  28  47  73 103 141 186 235 295 351 411
#     4  10  24  40  66 100 138 188 221 277 338 418
#     4  11  25  42  66 102 143 180 235 274 342 412
#     4  11  24  43  72 105 144 183 227 282 353 425
#
# _framework density 22.331873000000002
#
# number of rings (size 3 to 8) (size 9 to 14) (size 15 to 20)
#    0.000    0.800    2.000    3.600   14.000    3.200 
#    0.000    0.000    0.000    0.000    0.000    0.000 
#    0.000    0.000    0.000    0.000    0.000    0.000 
#
# Total GULP energy -248032.909644 kJ/mol
# GULP energy per Si atom -12401.645482 kJ/mol
# Density = 2.228105 g / cm^3
# Si number density = 22.331873 Si / 1000 Ang^3
#
#
#
# Elastic Constant Matrix: (Units=GPa)
#
#
# Indices 1 2 3 4 5 6 
#
# 1 85.0676 11.5794 -4.3717 0.0000 -5.8763 0.0000
# 2 11.5794 109.1608 11.9470 0.0000 -8.7934 0.0000
# 3 -4.3717 11.9470 80.2754 0.0000 -0.6783 0.0000
# 4 0.0000 0.0000 0.0000 28.0901 0.0000 -5.1185
# 5 -5.8763 -8.7934 -0.6783 0.0000 34.5644 0.0000
# 6 0.0000 0.0000 0.0000 -5.1185 0.0000 26.9636
#
#
#
# Elastic Compliance Matrix: (Units=1/GPa)
#
#
# Indices 1 2 3 4 5 6 
#
# 1 0.012089 -0.001235 0.000857 0.000000 0.001758 0.000000
# 2 -0.001235 0.009632 -0.001482 0.000000 0.002212 0.000000
# 3 0.000857 -0.001482 0.012725 0.000000 0.000018 0.000000
# 4 0.000000 0.000000 0.000000 0.036875 0.000000 0.007000
# 5 0.001758 0.002212 0.000018 0.000000 0.029793 0.000000
# 6 0.000000 0.000000 0.000000 0.007000 0.000000 0.038416
#
#
# Mechanical properties :
#
#
# Convention : Reuss Voigt Hill
#
# Bulk Modulus (GPa) = 32.54550 34.75703 33.65127
# Shear Modulus (GPa) = 32.57514 34.94689 33.76102
#
# Velocity S-wave (km/s) = 3.82342 3.96016 3.89239
# Velocity P-wave (km/s) = 5.83922 6.04220 5.94158
#
# Compressibility (1/GPa) = 0.03072621
#
# Stress axis : x y z
#
# Youngs Moduli (GPa) = 82.72066 103.81956 78.58849
#
# Poissons Ratio (x) = 0.12817 -0.06734
# Poissons Ratio (y) = 0.10212 0.11647
# Poissons Ratio (z) = -0.07089 0.15386
#
# Static dielectric constant tensor:
#      x y z
#    x 4.120820 0.000000 0.107530 
#    y 0.000000 3.302800 0.000000 
#    z 0.107530 0.000000 3.749660 
# 
# 
# High freq. dielectric constant tensor:
#      x y z
#    x 1.896100 0.000000 0.000840 
#    y 0.000000 1.885670 0.000000 
#    z 0.000840 0.000000 1.879920 
# 
# From -- ./inp_files/7579.got.cif
#   From: 2010.06.25/outbox.cif.g09.slc.cpg/sg12_4_cif.got.tgz:7579.got - 2010.06.28 00:19:55.
