data_PCOD8113622
_publ_section_title
;
Structure prediction by ZEFSAII (Michael W. Deem and Ramdas Pophale) SiO2 
 PCOD8113622
Probable space group: C 2/M
;
_chemical_formula_sum "Si O2"
_cell_formula_units_Z 40
_cell_length_a 21.269110
_cell_length_b 10.213569
_cell_length_c 12.087757
_cell_angle_alpha 90.000000
_cell_angle_beta 57.395401
_cell_angle_gamma 90.000000
_cell_volume 2212.053569
_symmetry_space_group_name_H-M "C 2/M"
_symmetry_group_IT_number 12
_symmetry_cell_setting 'monoclinic'
loop_
_space_group_symop_operation_xyz
x,y,z
-x,y,-z
-x,-y,-z
x,-y,z
1/2+x,1/2+y,z
1/2-x,1/2+y,-z
1/2-x,1/2-y,-z
1/2+x,1/2-y,z
loop_
_atom_site_type_symbol
_atom_site_label
_atom_site_fract_x
_atom_site_fract_y
_atom_site_fract_z
Si Si1 0.877887 0.769555 0.630499
Si Si2 0.455249 0.267600 0.929913
Si Si3 0.124590 0.500000 0.047973
Si Si4 0.179409 0.500000 0.244106
Si Si5 0.844167 0.000000 0.007511
Si Si6 0.290026 0.500000 0.810945
Si Si7 0.986957 0.153954 0.349586
O O1 0.843820 0.625279 0.662669
O O2 0.909587 0.799637 0.478138
O O3 0.943669 0.775743 0.657740
O O4 0.812659 0.871191 0.721754
O O5 0.422826 0.124989 0.940605
O O6 0.513520 0.306845 0.778249
O O7 0.500000 0.271340 0.000000
O O8 0.388035 0.370153 0.999335
O O9 0.138935 0.500000 0.164650
O O10 0.201567 0.500000 0.907979
O O11 0.267788 0.500000 0.146525
O O12 0.832206 0.000000 0.887746
O O13 0.997131 0.000000 0.357242
#
# Coordination Sequence:
#
# PCOD8113622 Si02
#       7
#     8   8   4   4   4   4   8
#     4  11  19  34  57  87 115 146 180 238 288 333
#     4  12  23  39  59  82 117 153 194 231 267 337
#     4  11  23  37  55  88 118 151 186 227 295 330
#     4  11  22  34  58  89 123 140 176 249 288 338
#     4  11  21  37  57  88 112 149 194 227 289 330
#     4  11  18  36  62  81 119 146 182 239 286 346
#     4  11  20  35  58  84 114 149 195 224 282 340
#
# _framework density 18.082744999999999
#
# number of rings (size 3 to 8) (size 9 to 14) (size 15 to 20)
#    0.000    0.800    7.000    2.400    0.000    5.600 
#    0.000    0.000    0.000    7.200    0.000    0.000 
#    0.000    0.000    0.000    0.000    0.000    0.000 
#
# Total GULP energy -248094.825760 kJ/mol
# GULP energy per Si atom -12404.741288 kJ/mol
# Density = 1.804159 g / cm^3
# Si number density = 18.082745 Si / 1000 Ang^3
#
#
#
# Elastic Constant Matrix: (Units=GPa)
#
#
# Indices 1 2 3 4 5 6 
#
# 1 70.6661 45.1150 58.9323 0.0000 1.5894 0.0000
# 2 45.1150 161.8923 42.1588 0.0000 -18.1604 0.0000
# 3 58.9323 42.1588 102.5346 0.0000 -16.3491 0.0000
# 4 0.0000 0.0000 0.0000 -42.6700 0.0000 -23.4068
# 5 1.5894 -18.1604 -16.3491 0.0000 25.7096 0.0000
# 6 0.0000 0.0000 0.0000 -23.4068 0.0000 -4.3944
#
#
#
# Elastic Compliance Matrix: (Units=1/GPa)
#
#
# Indices 1 2 3 4 5 6 
#
# 1 0.037620 -0.007130 -0.022106 0.000000 -0.021420 0.000000
# 2 -0.007130 0.008551 0.001798 0.000000 0.007624 0.000000
# 3 -0.022106 0.001798 0.024638 0.000000 0.018304 0.000000
# 4 0.000000 0.000000 0.000000 0.012194 0.000000 -0.064952
# 5 -0.021420 0.007624 0.018304 0.000000 0.057245 0.000000
# 6 0.000000 0.000000 0.000000 -0.064952 0.000000 0.118406
#
#
# Mechanical properties :
#
#
# Convention : Reuss Voigt Hill
#
# Bulk Modulus (GPa) = 62.76530 69.72278 66.24404
# Shear Modulus (GPa) = 15.68176 8.32151 12.00163
#
# Velocity S-wave (km/s) = 2.94806 2.14753 2.57904
# Velocity P-wave (km/s) = 6.80981 6.69257 6.75144
#
# Compressibility (1/GPa) = 0.01593237
#
# Stress axis : x y z
#
# Youngs Moduli (GPa) = 26.58137 116.94653 40.58778
#
# Poissons Ratio (x) = 0.83380 0.89725
# Poissons Ratio (y) = 0.18952 -0.07296
# Poissons Ratio (z) = 0.58762 -0.21023
#
# Static dielectric constant tensor:
#      x y z
#    x 3.024940 0.000000 -0.168230 
#    y 0.000000 3.474490 0.000000 
#    z -0.168230 0.000000 3.648360 
# 
# 
# High freq. dielectric constant tensor:
#      x y z
#    x 1.663640 0.000000 -0.019560 
#    y 0.000000 1.719530 0.000000 
#    z -0.019560 0.000000 1.711030 
# 
# From -- ./inp_files/171907.got.cif
#   From: 2010.06.25/outbox.cif.g09.slc.cpg/sg12_86_cif.got.tgz:171907.got - 2010.06.28 00:19:55.
