data_PCOD8113993
_publ_section_title
;
Structure prediction by ZEFSAII (Michael W. Deem and Ramdas Pophale) SiO2 
 PCOD8113993
Probable space group: C 2/M
;
_chemical_formula_sum "Si O2"
_cell_formula_units_Z 40
_cell_length_a 14.205333
_cell_length_b 22.498947
_cell_length_c 11.941370
_cell_angle_alpha 90.000000
_cell_angle_beta 148.951730
_cell_angle_gamma 90.000000
_cell_volume 1968.409485
_symmetry_space_group_name_H-M "C 2/M"
_symmetry_group_IT_number 12
_symmetry_cell_setting 'monoclinic'
loop_
_space_group_symop_operation_xyz
x,y,z
-x,y,-z
-x,-y,-z
x,-y,z
1/2+x,1/2+y,z
1/2-x,1/2+y,-z
1/2-x,1/2-y,-z
1/2+x,1/2-y,z
loop_
_atom_site_type_symbol
_atom_site_label
_atom_site_fract_x
_atom_site_fract_y
_atom_site_fract_z
Si Si1 0.794183 0.856921 0.279959
Si Si2 0.641276 0.871752 0.365425
Si Si3 0.407536 0.765578 0.074510
Si Si4 0.770257 0.431538 0.994791
Si Si5 0.009337 0.135022 0.135598
O O1 0.719881 0.880834 0.321342
O O2 0.000000 0.833110 0.500000
O O3 0.671785 0.802385 0.111444
O O4 0.787927 0.912329 0.188986
O O5 0.558826 0.805318 0.292671
O O6 0.485294 0.920285 0.230914
O O7 0.798832 0.884015 0.615503
O O8 0.500853 0.706198 0.125829
O O9 0.250000 0.750000 0.000000
O O10 0.722705 0.500000 0.964855
O O11 0.659991 0.392155 0.970675
O O12 0.000000 0.110595 0.000000
#
# Coordination Sequence:
#
# PCOD8113993 Si02
#       5
#     8   8   8   8   8
#     4  11  21  41  69 103 133 163 208 270 333 391
#     4  11  23  43  66  96 133 168 211 271 331 383
#     4  11  20  39  66  98 136 166 205 263 327 395
#     4  11  25  45  67  95 129 171 223 269 319 381
#     4  12  25  43  65  95 129 175 222 261 321 385
#
# _framework density 20.320974
#
# number of rings (size 3 to 8) (size 9 to 14) (size 15 to 20)
#    0.000    0.800    6.000    4.200    0.000    5.600 
#    0.000    1.000    0.000    0.000    0.000    0.000 
#    0.000    0.000    0.000    0.000    0.000    0.000 
#
# Total GULP energy -248085.134321 kJ/mol
# GULP energy per Si atom -12404.256716 kJ/mol
# Density = 2.027472 g / cm^3
# Si number density = 20.320974 Si / 1000 Ang^3
#
#
#
# Elastic Constant Matrix: (Units=GPa)
#
#
# Indices 1 2 3 4 5 6 
#
# 1 122.6567 15.3311 60.0537 0.0000 -5.8079 0.0000
# 2 15.3311 97.6691 16.7249 0.0000 -4.1396 0.0000
# 3 60.0537 16.7249 141.0954 0.0000 -6.4124 0.0000
# 4 0.0000 0.0000 0.0000 12.6348 0.0000 2.4810
# 5 -5.8079 -4.1396 -6.4124 0.0000 38.5330 0.0000
# 6 0.0000 0.0000 0.0000 2.4810 0.0000 13.3233
#
#
#
# Elastic Compliance Matrix: (Units=1/GPa)
#
#
# Indices 1 2 3 4 5 6 
#
# 1 0.010396 -0.000865 -0.004288 0.000000 0.000760 0.000000
# 2 -0.000865 0.010556 -0.000844 0.000000 0.000863 0.000000
# 3 -0.004288 -0.000844 0.009047 0.000000 0.000769 0.000000
# 4 0.000000 0.000000 0.000000 0.082150 0.000000 -0.015297
# 5 0.000760 0.000863 0.000769 0.000000 0.026287 0.000000
# 6 0.000000 0.000000 0.000000 -0.015297 0.000000 0.077905
#
#
# Mechanical properties :
#
#
# Convention : Reuss Voigt Hill
#
# Bulk Modulus (GPa) = 55.53858 60.62672 58.08265
# Shear Modulus (GPa) = 21.33679 30.85233 26.09456
#
# Velocity S-wave (km/s) = 3.24387 3.90070 3.58735
# Velocity P-wave (km/s) = 6.43586 7.08425 6.76782
#
# Compressibility (1/GPa) = 0.01800550
#
# Stress axis : x y z
#
# Youngs Moduli (GPa) = 96.18754 94.73694 110.52979
#
# Poissons Ratio (x) = 0.08199 0.47393
# Poissons Ratio (y) = 0.08324 0.09325
# Poissons Ratio (z) = 0.41243 0.07992
#
# Static dielectric constant tensor:
#      x y z
#    x 3.789260 0.000000 0.132620 
#    y 0.000000 3.593760 0.000000 
#    z 0.132620 0.000000 3.872720 
# 
# 
# High freq. dielectric constant tensor:
#      x y z
#    x 1.807790 0.000000 0.013070 
#    y 0.000000 1.774660 0.000000 
#    z 0.013070 0.000000 1.799630 
# 
# From -- ./inp_files/148801.got.cif
#   From: 2010.06.25/outbox.cif.g09.slc.cpg/sg12_75_cif.got.tgz:148801.got - 2010.06.28 00:19:55.
