data_PCOD8113568
_publ_section_title
;
Structure prediction by ZEFSAII (Michael W. Deem and Ramdas Pophale) SiO2 
 PCOD8113568
Probable space group: C 2/M
;
_chemical_formula_sum "Si O2"
_cell_formula_units_Z 56
_cell_length_a 8.565332
_cell_length_b 17.921385
_cell_length_c 27.760586
_cell_angle_alpha 90.000000
_cell_angle_beta 134.138331
_cell_angle_gamma 90.000000
_cell_volume 3058.183115
_symmetry_space_group_name_H-M "C 2/M"
_symmetry_group_IT_number 12
_symmetry_cell_setting 'monoclinic'
loop_
_space_group_symop_operation_xyz
x,y,z
-x,y,-z
-x,-y,-z
x,-y,z
1/2+x,1/2+y,z
1/2-x,1/2+y,-z
1/2-x,1/2-y,-z
1/2+x,1/2-y,z
loop_
_atom_site_type_symbol
_atom_site_label
_atom_site_fract_x
_atom_site_fract_y
_atom_site_fract_z
Si Si1 0.995116 0.772702 0.049753
Si Si2 0.561491 0.804641 0.246255
Si Si3 0.256270 0.301775 0.455400
Si Si4 0.261071 0.084733 0.233840
Si Si5 0.426418 0.303077 0.138589
Si Si6 0.611600 0.914859 0.629540
Si Si7 0.546728 0.698565 0.330606
O O1 0.041537 0.812866 0.110444
O O2 0.163075 0.701867 0.080170
O O3 0.750000 0.750000 0.000000
O O4 0.000000 0.820050 0.000000
O O5 0.421845 0.877439 0.229593
O O6 0.504178 0.774368 0.180409
O O7 0.503733 0.738579 0.270666
O O8 0.816537 0.824831 0.304183
O O9 0.500000 0.330872 0.500000
O O10 0.250000 0.250000 0.500000
O O11 0.172452 0.256178 0.391525
O O12 0.109530 0.374191 0.433560
O O13 0.370999 0.090658 0.309336
O O14 0.024098 0.125064 0.186861
O O15 0.222247 0.000000 0.209452
O O16 0.814945 0.876228 0.646908
O O17 0.603308 0.000000 0.610046
#
# Coordination Sequence:
#
# PCOD8113568 Si02
#       7
#     8   8   8   8   8   8   8
#     4   9  19  31  53  90 116 145 195 243 266 313
#     4  12  19  34  63  88 110 148 197 238 292 341
#     4  12  22  37  62  84 105 153 200 236 279 357
#     4  11  23  37  57  90 124 148 184 247 308 346
#     4  11  17  33  59  86 110 152 192 236 278 342
#     4  11  24  41  58  86 121 147 185 250 306 343
#     4  12  20  37  59  86 113 145 194 245 291 349
#
# _framework density 18.311525
#
# number of rings (size 3 to 8) (size 9 to 14) (size 15 to 20)
#    0.000    0.857    8.571    0.000    0.000    0.857 
#    0.000    1.429    0.000    4.286    0.000    0.000 
#    0.000    0.000    0.000    0.000    0.000    0.000 
#
# Total GULP energy -346977.918188 kJ/mol
# GULP energy per Si atom -12392.068507 kJ/mol
# Density = 1.826985 g / cm^3
# Si number density = 18.311525 Si / 1000 Ang^3
#
#
#
# Elastic Constant Matrix: (Units=GPa)
#
#
# Indices 1 2 3 4 5 6 
#
# 1 93.4748 39.7141 33.9880 0.0000 23.0198 0.0000
# 2 39.7141 121.9790 34.6950 0.0000 16.0064 0.0000
# 3 33.9880 34.6950 79.6446 0.0000 15.1133 0.0000
# 4 0.0000 0.0000 0.0000 10.7253 0.0000 3.9220
# 5 23.0198 16.0064 15.1133 0.0000 47.2549 0.0000
# 6 0.0000 0.0000 0.0000 3.9220 0.0000 28.1403
#
#
#
# Elastic Compliance Matrix: (Units=1/GPa)
#
#
# Indices 1 2 3 4 5 6 
#
# 1 0.014615 -0.002981 -0.004023 0.000000 -0.004823 0.000000
# 2 -0.002981 0.010144 -0.002949 0.000000 -0.001041 0.000000
# 3 -0.004023 -0.002949 0.015965 0.000000 -0.002147 0.000000
# 4 0.000000 0.000000 0.000000 0.098244 0.000000 -0.013692
# 5 -0.004823 -0.001041 -0.002147 0.000000 0.024551 0.000000
# 6 0.000000 0.000000 0.000000 -0.013692 0.000000 0.037445
#
#
# Mechanical properties :
#
#
# Convention : Reuss Voigt Hill
#
# Bulk Modulus (GPa) = 48.03770 56.87698 52.45734
# Shear Modulus (GPa) = 21.94808 29.67086 25.80947
#
# Velocity S-wave (km/s) = 3.46583 4.02971 3.75836
# Velocity P-wave (km/s) = 6.50434 7.26496 6.89515
#
# Compressibility (1/GPa) = 0.02081698
#
# Stress axis : x y z
#
# Youngs Moduli (GPa) = 68.42136 98.57834 62.63756
#
# Poissons Ratio (x) = 0.29389 0.25200
# Poissons Ratio (y) = 0.20398 0.18474
# Poissons Ratio (z) = 0.27526 0.29074
#
# Static dielectric constant tensor:
#      x y z
#    x 3.452440 -0.000010 2.310580 
#    y -0.000010 3.295060 -0.000040 
#    z 2.310580 -0.000040 14.812290 
# 
# 
# High freq. dielectric constant tensor:
#      x y z
#    x 1.726980 0.000000 0.002930 
#    y 0.000000 1.660110 0.000000 
#    z 0.002930 0.000000 1.730030 
# 
# From -- ./inp_files/300124.got.cif
#   From: 2010.06.25/outbox.cif.g09.slc.cpg/sg12_151_cif.got.tgz:300124.got - 2010.06.28 00:19:55.
