data_PCOD8113460
_publ_section_title
;
Structure prediction by ZEFSAII (Michael W. Deem and Ramdas Pophale) SiO2 
 PCOD8113460
Probable space group: C 2/M
;
_chemical_formula_sum "Si O2"
_cell_formula_units_Z 48
_cell_length_a 21.142095
_cell_length_b 8.755270
_cell_length_c 20.201090
_cell_angle_alpha 90.000000
_cell_angle_beta 141.838250
_cell_angle_gamma 90.000000
_cell_volume 2310.463199
_symmetry_space_group_name_H-M "C 2/M"
_symmetry_group_IT_number 12
_symmetry_cell_setting 'monoclinic'
loop_
_space_group_symop_operation_xyz
x,y,z
-x,y,-z
-x,-y,-z
x,-y,z
1/2+x,1/2+y,z
1/2-x,1/2+y,-z
1/2-x,1/2-y,-z
1/2+x,1/2-y,z
loop_
_atom_site_type_symbol
_atom_site_label
_atom_site_fract_x
_atom_site_fract_y
_atom_site_fract_z
Si Si1 0.836871 0.177810 0.618812
Si Si2 0.881557 0.179702 0.912941
Si Si3 0.754237 0.678172 0.075869
Si Si4 0.041204 0.824627 0.709962
Si Si5 0.433199 0.165756 0.506399
Si Si6 0.776640 0.680606 0.700772
O O1 0.750000 0.250000 0.500000
O O2 0.844383 0.254792 0.696669
O O3 0.950594 0.206140 0.686669
O O4 0.811161 0.000000 0.603536
O O5 0.837910 0.229392 0.949722
O O6 0.817967 0.268419 0.805568
O O7 0.865151 0.000000 0.888793
O O8 0.000000 0.225306 0.000000
O O9 0.745574 0.500000 0.057792
O O10 0.862646 0.718183 0.196810
O O11 0.750000 0.750000 0.000000
O O12 0.997702 0.781137 0.603442
O O13 0.077159 0.000000 0.740188
O O14 0.500000 0.122317 0.500000
O O15 0.334757 0.253730 0.401262
O O16 0.406179 0.000000 0.518460
O O17 0.774177 0.500000 0.695343
#
# Coordination Sequence:
#
# PCOD8113460 Si02
#       6
#     8   8   8   8   8   8
#     4  11  23  40  64  95 132 173 219 265 321 390
#     4  10  24  47  71  95 128 173 222 270 325 391
#     4  11  25  45  70  99 132 172 219 273 331 392
#     4  11  24  41  64  94 129 169 214 267 326 389
#     4  11  23  39  62  91 125 168 213 262 324 392
#     4  12  25  40  63  96 132 169 213 269 328 388
#
# _framework density 20.775054999999998
#
# number of rings (size 3 to 8) (size 9 to 14) (size 15 to 20)
#    0.000    1.000    1.667    4.500    2.333    9.000 
#    0.000    0.000    0.000    0.000    0.000    0.000 
#    0.000    0.000    0.000    0.000    0.000    0.000 
#
# Total GULP energy -297552.943721 kJ/mol
# GULP energy per Si atom -12398.039322 kJ/mol
# Density = 2.072777 g / cm^3
# Si number density = 20.775055 Si / 1000 Ang^3
#
#
#
# Elastic Constant Matrix: (Units=GPa)
#
#
# Indices 1 2 3 4 5 6 
#
# 1 145.8694 50.6765 52.9317 0.0000 -5.1253 0.0000
# 2 50.6765 80.9967 33.4096 0.0000 -8.2342 0.0000
# 3 52.9317 33.4096 104.6459 0.0000 7.2771 0.0000
# 4 0.0000 0.0000 0.0000 42.3272 0.0000 -5.2905
# 5 -5.1253 -8.2342 7.2771 0.0000 30.5685 0.0000
# 6 0.0000 0.0000 0.0000 -5.2905 0.0000 31.3806
#
#
#
# Elastic Compliance Matrix: (Units=1/GPa)
#
#
# Indices 1 2 3 4 5 6 
#
# 1 0.009767 -0.004499 -0.003593 0.000000 0.001281 0.000000
# 2 -0.004499 0.017082 -0.003504 0.000000 0.004681 0.000000
# 3 -0.003593 -0.003504 0.012812 0.000000 -0.004596 0.000000
# 4 0.000000 0.000000 0.000000 0.024134 0.000000 0.004069
# 5 0.001281 0.004681 -0.004596 0.000000 0.035283 0.000000
# 6 0.000000 0.000000 0.000000 0.004069 0.000000 0.032553
#
#
# Mechanical properties :
#
#
# Convention : Reuss Voigt Hill
#
# Bulk Modulus (GPa) = 60.71722 67.28306 64.00014
# Shear Modulus (GPa) = 31.18919 33.82156 32.50537
#
# Velocity S-wave (km/s) = 3.87884 4.03921 3.95984
# Velocity P-wave (km/s) = 7.02496 7.36277 7.19585
#
# Compressibility (1/GPa) = 0.01646979
#
# Stress axis : x y z
#
# Youngs Moduli (GPa) = 102.38345 58.54171 78.05297
#
# Poissons Ratio (x) = 0.26335 0.28047
# Poissons Ratio (y) = 0.46058 0.27347
# Poissons Ratio (z) = 0.36790 0.20511
#
# Static dielectric constant tensor:
#      x y z
#    x 4.273080 0.000000 -0.052770 
#    y 0.000000 -81.361800 0.000000 
#    z -0.052770 0.000000 3.681910 
# 
# 
# High freq. dielectric constant tensor:
#      x y z
#    x 1.833680 0.000000 0.002080 
#    y 0.000000 1.825610 0.000000 
#    z 0.002080 0.000000 1.812600 
# 
# From -- ./inp_files/320302.got.cif
#   From: 2010.06.25/outbox.cif.g09.slc.cpg/sg12_161_cif.got.tgz:320302.got - 2010.06.28 00:19:55.
