data_PCOD8113295
_publ_section_title
;
Structure prediction by ZEFSAII (Michael W. Deem and Ramdas Pophale) SiO2 
 PCOD8113295
Probable space group: C 2/M
;
_chemical_formula_sum "Si O2"
_cell_formula_units_Z 52
_cell_length_a 17.453605
_cell_length_b 18.406443
_cell_length_c 8.016942
_cell_angle_alpha 90.000000
_cell_angle_beta 95.968432
_cell_angle_gamma 90.000000
_cell_volume 2561.552060
_symmetry_space_group_name_H-M "C 2/M"
_symmetry_group_IT_number 12
_symmetry_cell_setting 'monoclinic'
loop_
_space_group_symop_operation_xyz
x,y,z
-x,y,-z
-x,-y,-z
x,-y,z
1/2+x,1/2+y,z
1/2-x,1/2+y,-z
1/2-x,1/2-y,-z
1/2+x,1/2-y,z
loop_
_atom_site_type_symbol
_atom_site_label
_atom_site_fract_x
_atom_site_fract_y
_atom_site_fract_z
Si Si1 0.530158 0.276923 0.322612
Si Si2 0.721077 0.500000 0.228184
Si Si3 0.116228 0.153692 0.839545
Si Si4 0.318343 0.000000 0.582789
Si Si5 0.808195 0.000000 0.155690
Si Si6 0.426889 0.867898 0.574788
Si Si7 0.670086 0.654121 0.212065
Si Si8 0.807805 0.269715 0.367058
O O1 0.500000 0.287728 0.500000
O O2 0.473703 0.323683 0.192361
O O3 0.538956 0.189903 0.280227
O O4 0.616568 0.309233 0.339979
O O5 0.791387 0.500000 0.380990
O O6 0.667071 0.568629 0.248526
O O7 0.741670 0.500000 0.031091
O O8 0.167714 0.196635 0.719168
O O9 0.134360 0.068575 0.819109
O O10 0.137301 0.178460 0.028403
O O11 0.370303 0.070959 0.633992
O O12 0.248906 0.000000 0.698464
O O13 0.500000 0.905735 0.500000
O O14 0.382370 0.815450 0.435313
O O15 0.758713 0.679039 0.233155
O O16 0.750000 0.250000 0.500000
#
# Coordination Sequence:
#
# PCOD8113295 Si02
#       8
#     8   4   8   4   4   8   8   8
#     4  11  22  40  63  91 131 165 214 266 309 393
#     4  10  24  42  62 102 132 159 228 272 314 397
#     4  11  23  42  61  93 133 168 208 272 328 380
#     4  12  23  42  74  91 129 184 208 267 343 376
#     4  10  26  42  66 102 131 167 222 271 322 393
#     4  11  22  40  65  95 130 165 222 266 318 393
#     4  11  23  39  63  93 127 172 211 267 329 378
#     4  12  20  37  65  91 122 166 220 268 308 385
#
# _framework density 20.300191999999999
#
# number of rings (size 3 to 8) (size 9 to 14) (size 15 to 20)
#    0.000    0.923    6.154    2.077    2.154    0.615 
#    0.000    3.077    0.000    0.923    0.000    0.000 
#    0.000    0.000    0.000    0.000    0.000    0.000 
#
# Total GULP energy -322184.170087 kJ/mol
# GULP energy per Si atom -12391.698849 kJ/mol
# Density = 2.025399 g / cm^3
# Si number density = 20.300192 Si / 1000 Ang^3
#
#
#
# Elastic Constant Matrix: (Units=GPa)
#
#
# Indices 1 2 3 4 5 6 
#
# 1 108.0820 39.4678 30.0198 0.0000 7.4989 0.0000
# 2 39.4678 131.0137 31.3851 0.0000 -0.6460 0.0000
# 3 30.0198 31.3851 64.7370 0.0000 6.9319 0.0000
# 4 0.0000 0.0000 0.0000 26.1885 0.0000 3.1314
# 5 7.4989 -0.6460 6.9319 0.0000 30.8121 0.0000
# 6 0.0000 0.0000 0.0000 3.1314 0.0000 43.9166
#
#
#
# Elastic Compliance Matrix: (Units=1/GPa)
#
#
# Indices 1 2 3 4 5 6 
#
# 1 0.011374 -0.002515 -0.003846 0.000000 -0.001956 0.000000
# 2 -0.002515 0.009232 -0.003480 0.000000 0.001588 0.000000
# 3 -0.003846 -0.003480 0.019290 0.000000 -0.003477 0.000000
# 4 0.000000 0.000000 0.000000 0.038513 0.000000 -0.002746
# 5 -0.001956 0.001588 -0.003477 0.000000 0.033746 0.000000
# 6 0.000000 0.000000 0.000000 -0.002746 0.000000 0.022966
#
#
# Mechanical properties :
#
#
# Convention : Reuss Voigt Hill
#
# Bulk Modulus (GPa) = 49.46746 56.17536 52.82141
# Shear Modulus (GPa) = 30.95198 33.71410 32.33304
#
# Velocity S-wave (km/s) = 3.90899 4.07968 3.99525
# Velocity P-wave (km/s) = 6.69287 7.06570 6.88181
#
# Compressibility (1/GPa) = 0.02021531
#
# Stress axis : x y z
#
# Youngs Moduli (GPa) = 87.91610 108.32152 51.84110
#
# Poissons Ratio (x) = 0.27242 0.19938
# Poissons Ratio (y) = 0.22110 0.18038
# Poissons Ratio (z) = 0.33812 0.37691
#
# Static dielectric constant tensor:
#      x y z
#    x 4.262280 0.000000 0.328670 
#    y 0.000000 3.932120 0.000000 
#    z 0.328670 0.000000 3.760430 
# 
# 
# High freq. dielectric constant tensor:
#      x y z
#    x 1.802630 0.000000 0.008560 
#    y 0.000000 1.802300 0.000000 
#    z 0.008560 0.000000 1.779600 
# 
# From -- ./inp_files/75339.got.cif
#   From: 2010.06.25/outbox.cif.g09.slc.cpg/sg12_38_cif.got.tgz:75339.got - 2010.06.28 00:19:55.
