data_PCOD8113585
_publ_section_title
;
Structure prediction by ZEFSAII (Michael W. Deem and Ramdas Pophale) SiO2 
 PCOD8113585
Probable space group: C 2/M
;
_chemical_formula_sum "Si O2"
_cell_formula_units_Z 64
_cell_length_a 23.962135
_cell_length_b 22.352427
_cell_length_c 10.033987
_cell_angle_alpha 90.000000
_cell_angle_beta 130.819593
_cell_angle_gamma 90.000000
_cell_volume 4067.134511
_symmetry_space_group_name_H-M "C 2/M"
_symmetry_group_IT_number 12
_symmetry_cell_setting 'monoclinic'
loop_
_space_group_symop_operation_xyz
x,y,z
-x,y,-z
-x,-y,-z
x,-y,z
1/2+x,1/2+y,z
1/2-x,1/2+y,-z
1/2-x,1/2-y,-z
1/2+x,1/2-y,z
loop_
_atom_site_type_symbol
_atom_site_label
_atom_site_fract_x
_atom_site_fract_y
_atom_site_fract_z
Si Si1 0.943512 0.362729 0.303443
Si Si2 0.643102 0.752225 0.734884
Si Si3 0.325078 0.068793 0.511670
Si Si4 0.791025 0.828687 0.957727
Si Si5 0.283944 0.331635 0.651058
Si Si6 0.691057 0.067969 0.824090
Si Si7 0.458524 0.148408 0.797541
Si Si8 0.643210 0.747105 0.436612
O O1 0.920140 0.296458 0.313101
O O2 0.873982 0.407172 0.184048
O O3 0.000000 0.389155 0.500000
O O4 0.979759 0.361002 0.216704
O O5 0.719936 0.786523 0.848067
O O6 0.622855 0.727892 0.555867
O O7 0.647910 0.696581 0.845107
O O8 0.250108 0.103287 0.438254
O O9 0.335415 0.076310 0.369447
O O10 0.396496 0.097049 0.692972
O O11 0.317232 0.000000 0.543000
O O12 0.823426 0.831825 0.857934
O O13 0.766044 0.894803 0.965977
O O14 0.343719 0.311998 0.633397
O O15 0.216989 0.285549 0.552449
O O16 0.708283 0.000000 0.888565
O O17 0.422811 0.213975 0.728124
O O18 0.500000 0.142593 0.000000
#
# Coordination Sequence:
#
# PCOD8113585 Si02
#       8
#     8   8   8   8   8   8   8   8
#     4  11  18  31  45  64  89 121 157 180 213 264
#     4   9  16  27  45  62  85 110 140 187 225 260
#     4   9  17  32  48  63  88 122 156 187 216 254
#     4   8  15  27  43  66  83 105 145 186 224 256
#     4   8  15  27  45  63  81 109 146 183 224 263
#     4   9  17  30  49  67  87 118 156 189 213 252
#     4  11  22  31  42  64  93 123 153 185 216 257
#     4   9  16  29  43  61  84 113 144 180 227 265
#
# _framework density 15.735894999999999
#
# number of rings (size 3 to 8) (size 9 to 14) (size 15 to 20)
#    0.000    2.750    2.500    1.500    1.750    1.000 
#    6.750    0.000    0.000    0.000    0.000    0.000 
#    0.000    2.000    0.000    0.125    0.000    0.000 
#
# Total GULP energy -396677.317676 kJ/mol
# GULP energy per Si atom -12396.166177 kJ/mol
# Density = 1.570008 g / cm^3
# Si number density = 15.735895 Si / 1000 Ang^3
#
#
#
# Elastic Constant Matrix: (Units=GPa)
#
#
# Indices 1 2 3 4 5 6 
#
# 1 48.5257 47.3755 23.9261 0.0000 -21.8069 0.0000
# 2 47.3755 108.5492 43.3289 0.0000 -7.9570 0.0000
# 3 23.9261 43.3289 64.1208 0.0000 -19.6004 0.0000
# 4 0.0000 0.0000 0.0000 12.8078 0.0000 14.7939
# 5 -21.8069 -7.9570 -19.6004 0.0000 18.8754 0.0000
# 6 0.0000 0.0000 0.0000 14.7939 0.0000 -16.6645
#
#
#
# Elastic Compliance Matrix: (Units=1/GPa)
#
#
# Indices 1 2 3 4 5 6 
#
# 1 0.185585 -0.089437 0.066222 0.000000 0.245470 0.000000
# 2 -0.089437 0.056071 -0.042305 0.000000 -0.123620 0.000000
# 3 0.066222 -0.042305 0.054803 0.000000 0.115581 0.000000
# 4 0.000000 0.000000 0.000000 0.038549 0.000000 0.034222
# 5 0.245470 -0.123620 0.115581 0.000000 0.404480 0.000000
# 6 0.000000 0.000000 0.000000 0.034222 0.000000 -0.029627
#
#
# Mechanical properties :
#
#
# Convention : Reuss Voigt Hill
#
# Bulk Modulus (GPa) = 6.04524 50.05073 28.04799
# Shear Modulus (GPa) = 5.58010 10.10808 7.84409
#
# Velocity S-wave (km/s) = 1.88515 2.53723 2.23510
# Velocity P-wave (km/s) = 2.93060 6.36075 4.95215
#
# Compressibility (1/GPa) = 0.16541939
#
# Stress axis : x y z
#
# Youngs Moduli (GPa) = 5.38837 17.83438 18.24701
#
# Poissons Ratio (x) = 1.59505 -1.20835
# Poissons Ratio (y) = 0.48192 0.77194
# Poissons Ratio (z) = -0.35683 0.75449
#
# Static dielectric constant tensor:
#      x y z
#    x 2.814050 0.000000 -0.052360 
#    y 0.000000 3.035970 0.000000 
#    z -0.052360 0.000000 2.826300 
# 
# 
# High freq. dielectric constant tensor:
#      x y z
#    x 1.585570 0.000000 -0.016880 
#    y 0.000000 1.583330 0.000000 
#    z -0.016880 0.000000 1.586440 
# 
# From -- ./inp_files/89139.got.cif
#   From: 2010.06.25/outbox.cif.g09.slc.cpg/sg12_45_cif.got.tgz:89139.got - 2010.06.28 00:19:55.
