data_PCOD8113752
_publ_section_title
;
Structure prediction by ZEFSAII (Michael W. Deem and Ramdas Pophale) SiO2 
 PCOD8113752
Probable space group: C 2/M
;
_chemical_formula_sum "Si O2"
_cell_formula_units_Z 64
_cell_length_a 18.943874
_cell_length_b 9.285594
_cell_length_c 21.169493
_cell_angle_alpha 90.000000
_cell_angle_beta 90.428764
_cell_angle_gamma 90.000000
_cell_volume 3723.717997
_symmetry_space_group_name_H-M "C 2/M"
_symmetry_group_IT_number 12
_symmetry_cell_setting 'monoclinic'
loop_
_space_group_symop_operation_xyz
x,y,z
-x,y,-z
-x,-y,-z
x,-y,z
1/2+x,1/2+y,z
1/2-x,1/2+y,-z
1/2-x,1/2-y,-z
1/2+x,1/2-y,z
loop_
_atom_site_type_symbol
_atom_site_label
_atom_site_fract_x
_atom_site_fract_y
_atom_site_fract_z
Si Si1 0.711451 0.836115 0.946939
Si Si2 0.921515 0.668972 0.985481
Si Si3 0.508879 0.336329 0.352452
Si Si4 0.230679 0.170949 0.375268
Si Si5 0.886724 0.329004 0.405013
Si Si6 0.886527 0.835791 0.531533
Si Si7 0.633313 0.328984 0.265639
Si Si8 0.659115 0.330880 0.126368
O O1 0.755503 0.804370 0.882831
O O2 0.722166 0.000000 0.965978
O O3 0.750000 0.750000 0.000000
O O4 0.627274 0.801015 0.951594
O O5 0.924550 0.500000 0.969274
O O6 0.888880 0.749856 0.925083
O O7 0.000000 0.728414 0.000000
O O8 0.483517 0.500000 0.341374
O O9 0.441698 0.231529 0.354098
O O10 0.550380 0.325430 0.418357
O O11 0.557947 0.284236 0.294719
O O12 0.310020 0.227254 0.382758
O O13 0.185400 0.220146 0.435877
O O14 0.195997 0.233286 0.310616
O O15 0.227263 0.000000 0.372386
O O16 0.891305 0.500000 0.407148
O O17 0.904697 0.267429 0.473825
O O18 0.878880 0.000000 0.507043
O O19 0.639592 0.500000 0.264316
O O20 0.640648 0.266730 0.195096
O O21 0.641287 0.500000 0.121660
#
# Coordination Sequence:
#
# PCOD8113752 Si02
#       8
#     8   8   8   8   8   8   8   8
#     4   8  14  25  42  65  89 113 144 177 208 246
#     4   9  17  29  44  66 100 131 146 167 215 272
#     4   9  18  32  48  63  84 118 153 181 216 270
#     4   8  16  30  46  65  88 114 146 184 224 266
#     4  11  20  28  43  69  95 113 137 185 239 272
#     4   9  17  31  49  64  82 116 156 183 213 269
#     4   8  15  31  51  65  81 113 156 191 216 254
#     4   9  16  28  50  72  85 109 154 197 221 243
#
# _framework density 17.187121999999999
#
# number of rings (size 3 to 8) (size 9 to 14) (size 15 to 20)
#    0.000    3.125    0.000    2.625    0.000    2.250 
#    0.000    2.500    0.000    6.750    0.000    0.000 
#    0.000    0.000    0.000    0.000    0.000    0.000 
#
# Total GULP energy -396456.994368 kJ/mol
# GULP energy per Si atom -12389.281074 kJ/mol
# Density = 1.714800 g / cm^3
# Si number density = 17.187122 Si / 1000 Ang^3
#
#
#
# Elastic Constant Matrix: (Units=GPa)
#
#
# Indices 1 2 3 4 5 6 
#
# 1 123.0659 32.3103 51.5404 0.0000 -27.5644 0.0000
# 2 32.3103 38.3385 23.9173 0.0000 -8.1345 0.0000
# 3 51.5404 23.9173 103.5930 0.0000 -23.1262 0.0000
# 4 0.0000 0.0000 0.0000 15.9924 0.0000 -3.1080
# 5 -27.5644 -8.1345 -23.1262 0.0000 21.5291 0.0000
# 6 0.0000 0.0000 0.0000 -3.1080 0.0000 22.8637
#
#
#
# Elastic Compliance Matrix: (Units=1/GPa)
#
#
# Indices 1 2 3 4 5 6 
#
# 1 0.013886 -0.007587 -0.002405 0.000000 0.012329 0.000000
# 2 -0.007587 0.035067 -0.004646 0.000000 -0.001455 0.000000
# 3 -0.002405 -0.004646 0.014264 0.000000 0.010487 0.000000
# 4 0.000000 0.000000 0.000000 0.064226 0.000000 0.008731
# 5 0.012329 -0.001455 0.010487 0.000000 0.072950 0.000000
# 6 0.000000 0.000000 0.000000 0.008731 0.000000 0.044924
#
#
# Mechanical properties :
#
#
# Convention : Reuss Voigt Hill
#
# Bulk Modulus (GPa) = 29.46272 53.39260 41.42766
# Shear Modulus (GPa) = 17.48825 22.55902 20.02364
#
# Velocity S-wave (km/s) = 3.19332 3.62685 3.41697
# Velocity P-wave (km/s) = 5.54761 6.97650 6.30268
#
# Compressibility (1/GPa) = 0.03394120
#
# Stress axis : x y z
#
# Youngs Moduli (GPa) = 72.01392 28.51677 70.10887
#
# Poissons Ratio (x) = 0.21634 0.16860
# Poissons Ratio (y) = 0.54634 0.32575
# Poissons Ratio (z) = 0.17318 0.13250
#
# Static dielectric constant tensor:
#      x y z
#    x 3.588610 0.000000 -0.422050 
#    y 0.000000 3.065800 0.000000 
#    z -0.422050 0.000000 3.367860 
# 
# 
# High freq. dielectric constant tensor:
#      x y z
#    x 1.668130 0.000000 -0.025530 
#    y 0.000000 1.637790 0.000000 
#    z -0.025530 0.000000 1.645660 
# 
# From -- ./inp_files/319094.got.cif
#   From: 2010.06.25/outbox.cif.g09.slc.cpg/sg12_160_cif.got.tgz:319094.got - 2010.06.28 00:19:55.
