data_PCOD8113931
_publ_section_title
;
Structure prediction by ZEFSAII (Michael W. Deem and Ramdas Pophale) SiO2 
 PCOD8113931
Probable space group: C 2/M
;
_chemical_formula_sum "Si O2"
_cell_formula_units_Z 56
_cell_length_a 23.040602
_cell_length_b 18.164428
_cell_length_c 21.830144
_cell_angle_alpha 90.000000
_cell_angle_beta 18.653890
_cell_angle_gamma 90.000000
_cell_volume 2922.263123
_symmetry_space_group_name_H-M "C 2/M"
_symmetry_group_IT_number 12
_symmetry_cell_setting 'monoclinic'
loop_
_space_group_symop_operation_xyz
x,y,z
-x,y,-z
-x,-y,-z
x,-y,z
1/2+x,1/2+y,z
1/2-x,1/2+y,-z
1/2-x,1/2-y,-z
1/2+x,1/2-y,z
loop_
_atom_site_type_symbol
_atom_site_label
_atom_site_fract_x
_atom_site_fract_y
_atom_site_fract_z
Si Si1 0.210678 0.316391 0.681731
Si Si2 0.792187 0.835480 0.465183
Si Si3 0.214676 0.580807 0.785332
Si Si4 0.789427 0.683653 0.102990
Si Si5 0.792129 0.835477 0.950490
Si Si6 0.500022 0.800544 0.426766
Si Si7 0.499960 0.087385 0.324213
O O1 0.246163 0.354717 0.581204
O O2 0.282659 0.375886 0.658000
O O3 0.321769 0.241676 0.581134
O O4 0.000064 0.296253 0.901372
O O5 0.750000 0.750000 0.500000
O O6 0.676819 0.886052 0.535563
O O7 0.000033 0.851829 0.241745
O O8 0.303622 0.500000 0.696419
O O9 0.282628 0.624184 0.776693
O O10 0.000000 0.574455 0.000000
O O11 0.678393 0.758386 0.224519
O O12 0.753866 0.645308 0.073520
O O13 0.676684 0.886028 0.110915
O O14 0.750000 0.750000 0.000000
O O15 0.500000 0.811562 0.500000
O O16 0.499948 0.879382 0.392955
O O17 0.500064 0.000000 0.329872
#
# Coordination Sequence:
#
# PCOD8113931 Si02
#       7
#     8   8   8   8   8   8   8
#     4  11  20  36  64  94 127 168 214 264 319 391
#     4  12  21  39  70  98 125 168 216 268 326 398
#     4   9  20  35  53  85 130 168 200 250 320 385
#     4  11  20  36  64  94 127 168 214 264 319 391
#     4  12  21  39  70  98 125 168 216 268 326 398
#     4  12  24  41  68  94 121 167 235 273 319 385
#     4  12  28  45  64  97 138 172 217 283 341 383
#
# _framework density 19.163229000000001
#
# number of rings (size 3 to 8) (size 9 to 14) (size 15 to 20)
#    0.000    0.714    8.571    0.000    0.000    2.000 
#    0.000    1.429    0.000    0.000    0.000    4.000 
#    0.000    0.000    0.000    0.000    0.000    0.000 
#
# Total GULP energy -347255.935707 kJ/mol
# GULP energy per Si atom -12401.997704 kJ/mol
# Density = 1.911961 g / cm^3
# Si number density = 19.163229 Si / 1000 Ang^3
#
#
#
# Elastic Constant Matrix: (Units=GPa)
#
#
# Indices 1 2 3 4 5 6 
#
# 1 124.0233 51.0593 51.7412 -0.0196 13.4817 0.0131
# 2 51.0593 145.3064 45.7355 -0.0596 3.3493 0.0355
# 3 51.7412 45.7355 124.9398 -0.0943 -14.0662 0.0485
# 4 -0.0196 -0.0596 -0.0943 20.8886 0.0461 4.6052
# 5 13.4817 3.3493 -14.0662 0.0461 42.8117 -0.0263
# 6 0.0131 0.0355 0.0485 4.6052 -0.0263 28.1925
#
#
#
# Elastic Compliance Matrix: (Units=1/GPa)
#
#
# Indices 1 2 3 4 5 6 
#
# 1 0.011453 -0.002541 -0.004358 -0.000006 -0.004840 0.000002
# 2 -0.002541 0.008450 -0.002103 0.000015 -0.000552 -0.000009
# 3 -0.004358 -0.002103 0.011164 0.000032 0.005205 -0.000015
# 4 -0.000006 0.000015 0.000032 0.049662 -0.000047 -0.008112
# 5 -0.004840 -0.000552 0.005205 -0.000047 0.026635 0.000027
# 6 0.000002 -0.000009 -0.000015 -0.008112 0.000027 0.036796
#
#
# Mechanical properties :
#
#
# Convention : Reuss Voigt Hill
#
# Bulk Modulus (GPa) = 76.54901 76.81570 76.68236
# Shear Modulus (GPa) = 30.02676 34.76081 32.39378
#
# Velocity S-wave (km/s) = 3.96270 4.26365 4.11592
# Velocity P-wave (km/s) = 7.80831 8.02560 7.91770
#
# Compressibility (1/GPa) = 0.01306353
#
# Stress axis : x y z
#
# Youngs Moduli (GPa) = 87.31043 118.34894 89.57183
#
# Poissons Ratio (x) = 0.30078 0.39033
# Poissons Ratio (y) = 0.22190 0.18834
# Poissons Ratio (z) = 0.38048 0.24885
#
# Static dielectric constant tensor:
#      x y z
#    x 3.761210 0.000100 0.186220 
#    y 0.000100 3.380700 -0.000370 
#    z 0.186220 -0.000370 3.452980 
# 
# 
# High freq. dielectric constant tensor:
#      x y z
#    x 1.760980 -0.000010 0.000510 
#    y -0.000010 1.717020 0.000020 
#    z 0.000510 0.000020 1.760160 
# 
# From -- ./inp_files/325999.got.cif
#   From: 2010.06.25/outbox.cif.g09.slc.cpg/sg12_163_cif.got.tgz:325999.got - 2010.06.28 00:19:55.
