data_PCOD8113940
_publ_section_title
;
Structure prediction by ZEFSAII (Michael W. Deem and Ramdas Pophale) SiO2 
 PCOD8113940
Probable space group: C 2/M
;
_chemical_formula_sum "Si O2"
_cell_formula_units_Z 56
_cell_length_a 17.536724
_cell_length_b 19.031094
_cell_length_c 14.269627
_cell_angle_alpha 90.000000
_cell_angle_beta 39.985453
_cell_angle_gamma 90.000000
_cell_volume 3060.278120
_symmetry_space_group_name_H-M "C 2/M"
_symmetry_group_IT_number 12
_symmetry_cell_setting 'monoclinic'
loop_
_space_group_symop_operation_xyz
x,y,z
-x,y,-z
-x,-y,-z
x,-y,z
1/2+x,1/2+y,z
1/2-x,1/2+y,-z
1/2-x,1/2-y,-z
1/2+x,1/2-y,z
loop_
_atom_site_type_symbol
_atom_site_label
_atom_site_fract_x
_atom_site_fract_y
_atom_site_fract_z
Si Si1 0.865365 0.081202 0.961223
Si Si2 0.340769 0.665754 0.173044
Si Si3 0.132238 0.921364 0.675032
Si Si4 0.243248 0.683959 0.941940
Si Si5 0.019269 0.303695 0.885530
Si Si6 0.137442 0.232190 0.352186
Si Si7 0.246342 0.682852 0.571246
O O1 0.769842 0.114430 0.978843
O O2 0.991714 0.084290 0.791100
O O3 0.829412 0.000000 0.017277
O O4 0.884996 0.126643 0.037466
O O5 0.325122 0.607626 0.266111
O O6 0.429030 0.726726 0.129642
O O7 0.210238 0.695587 0.273048
O O8 0.197493 0.883459 0.529673
O O9 0.177745 0.000000 0.628574
O O10 0.334972 0.686546 0.767581
O O11 0.250000 0.750000 0.000000
O O12 0.108156 0.693500 0.039678
O O13 0.110430 0.336107 0.725357
O O14 0.000000 0.347853 0.000000
O O15 0.182206 0.191660 0.400770
O O16 0.000000 0.248775 0.500000
O O17 0.250000 0.750000 0.500000
#
# Coordination Sequence:
#
# PCOD8113940 Si02
#       7
#     8   8   8   8   8   8   8
#     4  11  24  39  61  92 128 163 197 245 308 368
#     4  11  20  37  62  92 125 152 199 252 304 357
#     4  11  22  38  61  89 121 159 199 246 302 363
#     4  12  22  36  62  88 121 158 202 250 293 361
#     4  11  20  37  60  91 115 154 201 252 303 340
#     4  11  23  35  57  92 118 152 195 254 303 341
#     4  11  22  36  60  86 121 153 198 250 296 358
#
# _framework density 18.298991000000001
#
# number of rings (size 3 to 8) (size 9 to 14) (size 15 to 20)
#    0.000    0.857    7.143    3.429    2.000    1.143 
#    0.000    1.429    0.000    4.286    0.000    0.000 
#    0.000    0.000    0.000    0.000    0.000    0.000 
#
# Total GULP energy -346891.428157 kJ/mol
# GULP energy per Si atom -12388.979577 kJ/mol
# Density = 1.825734 g / cm^3
# Si number density = 18.298991 Si / 1000 Ang^3
#
#
#
# Elastic Constant Matrix: (Units=GPa)
#
#
# Indices 1 2 3 4 5 6 
#
# 1 86.8495 31.0058 25.9898 0.0000 12.2323 0.0000
# 2 31.0058 95.0878 37.8126 0.0000 8.1114 0.0000
# 3 25.9898 37.8126 131.5174 0.0000 9.0241 0.0000
# 4 0.0000 0.0000 0.0000 28.1432 0.0000 1.5962
# 5 12.2323 8.1114 9.0241 0.0000 37.6359 0.0000
# 6 0.0000 0.0000 0.0000 1.5962 0.0000 21.3729
#
#
#
# Elastic Compliance Matrix: (Units=1/GPa)
#
#
# Indices 1 2 3 4 5 6 
#
# 1 0.013704 -0.003611 -0.001441 0.000000 -0.003330 0.000000
# 2 -0.003611 0.012943 -0.002945 0.000000 -0.000910 0.000000
# 3 -0.001441 -0.002945 0.008804 0.000000 -0.001008 0.000000
# 4 0.000000 0.000000 0.000000 0.035684 0.000000 -0.002665
# 5 -0.003330 -0.000910 -0.001008 0.000000 0.028090 0.000000
# 6 0.000000 0.000000 0.000000 -0.002665 0.000000 0.046987
#
#
# Mechanical properties :
#
#
# Convention : Reuss Voigt Hill
#
# Bulk Modulus (GPa) = 51.39930 55.89679 53.64805
# Shear Modulus (GPa) = 29.63966 32.00684 30.82325
#
# Velocity S-wave (km/s) = 4.02897 4.18677 4.10863
# Velocity P-wave (km/s) = 7.05642 7.34743 7.20339
#
# Compressibility (1/GPa) = 0.01945552
#
# Stress axis : x y z
#
# Youngs Moduli (GPa) = 72.97284 77.26250 113.58085
#
# Poissons Ratio (x) = 0.27901 0.16370
# Poissons Ratio (y) = 0.26352 0.33451
# Poissons Ratio (z) = 0.10518 0.22755
#
# Static dielectric constant tensor:
#      x y z
#    x 3.213650 0.000000 -0.057010 
#    y 0.000000 3.290170 0.000000 
#    z -0.057010 0.000000 3.081030 
# 
# 
# High freq. dielectric constant tensor:
#      x y z
#    x 1.720870 0.000000 0.009730 
#    y 0.000000 1.676850 0.000000 
#    z 0.009730 0.000000 1.728380 
# 
# From -- ./inp_files/226539.got.cif
#   From: 2010.06.25/outbox.cif.g09.slc.cpg/sg12_114_cif.got.tgz:226539.got - 2010.06.28 00:19:55.
