data_PCOD8113727
_publ_section_title
;
Structure prediction by ZEFSAII (Michael W. Deem and Ramdas Pophale) SiO2 
 PCOD8113727
Probable space group: C 2/M
;
_chemical_formula_sum "Si O2"
_cell_formula_units_Z 64
_cell_length_a 17.838302
_cell_length_b 32.459018
_cell_length_c 11.606082
_cell_angle_alpha 90.000000
_cell_angle_beta 29.045548
_cell_angle_gamma 90.000000
_cell_volume 3262.631411
_symmetry_space_group_name_H-M "C 2/M"
_symmetry_group_IT_number 12
_symmetry_cell_setting 'monoclinic'
loop_
_space_group_symop_operation_xyz
x,y,z
-x,y,-z
-x,-y,-z
x,-y,z
1/2+x,1/2+y,z
1/2-x,1/2+y,-z
1/2-x,1/2-y,-z
1/2+x,1/2-y,z
loop_
_atom_site_type_symbol
_atom_site_label
_atom_site_fract_x
_atom_site_fract_y
_atom_site_fract_z
Si Si1 0.917128 0.829825 0.349509
Si Si2 0.845243 0.668073 0.943736
Si Si3 0.921290 0.106226 0.716841
Si Si4 0.162342 0.225939 0.343137
Si Si5 0.616170 0.953396 0.512033
Si Si6 0.325136 0.866055 0.500477
Si Si7 0.245800 0.315961 0.187810
Si Si8 0.221528 0.454495 0.117355
O O1 0.837223 0.793355 0.529720
O O2 0.804207 0.845633 0.403302
O O3 0.950623 0.866812 0.391737
O O4 0.072506 0.813452 0.081403
O O5 0.849450 0.678430 0.802208
O O6 0.011000 0.651726 0.760993
O O7 0.719155 0.633589 0.140831
O O8 0.800519 0.708379 0.077789
O O9 0.000000 0.084892 0.500000
O O10 0.861770 0.073230 0.887600
O O11 0.190113 0.274294 0.323902
O O12 0.000000 0.216148 0.500000
O O13 0.679514 0.916234 0.507064
O O14 0.716093 0.953514 0.262034
O O15 0.440753 0.940616 0.719097
O O16 0.626245 0.000000 0.553655
O O17 0.291970 0.854390 0.678339
O O18 0.258874 0.500000 0.023276
#
# Coordination Sequence:
#
# PCOD8113727 Si02
#       8
#     8   8   8   8   8   8   8   8
#     4  11  25  42  57  87 126 160 199 251 305 362
#     4  11  21  39  63  88 112 161 210 249 288 361
#     4  11  19  39  62  82 116 160 202 250 295 355
#     4  12  22  43  65  85 115 165 215 252 297 351
#     4   9  18  35  61  92 122 153 196 249 304 362
#     4  12  24  39  61  94 124 161 197 249 314 362
#     4  11  25  39  64  87 121 159 205 254 302 360
#     4   9  18  32  59  93 119 147 196 255 300 352
#
# _framework density 19.616069
#
# number of rings (size 3 to 8) (size 9 to 14) (size 15 to 20)
#    0.000    1.250    5.000    4.125    3.500    1.250 
#    2.250    0.625    0.000    3.000    0.000    2.625 
#    0.000    0.000    0.000    0.000    0.000    0.000 
#
# Total GULP energy -396833.954048 kJ/mol
# GULP energy per Si atom -12401.061064 kJ/mol
# Density = 1.957142 g / cm^3
# Si number density = 19.616069 Si / 1000 Ang^3
#
#
#
# Elastic Constant Matrix: (Units=GPa)
#
#
# Indices 1 2 3 4 5 6 
#
# 1 50.1400 21.3422 23.5737 0.0002 -7.0084 -0.0002
# 2 21.3422 107.7382 34.3963 0.0001 2.2380 -0.0001
# 3 23.5737 34.3963 77.0895 0.0003 7.6459 -0.0002
# 4 0.0002 0.0001 0.0003 29.3794 -0.0002 8.3929
# 5 -7.0084 2.2380 7.6459 -0.0002 22.9428 0.0001
# 6 -0.0002 -0.0001 -0.0002 8.3929 0.0001 19.6478
#
#
#
# Elastic Compliance Matrix: (Units=1/GPa)
#
#
# Indices 1 2 3 4 5 6 
#
# 1 0.026429 -0.002957 -0.007851 0.000000 0.010978 0.000000
# 2 -0.002957 0.011162 -0.004011 0.000000 -0.000655 0.000000
# 3 -0.007851 -0.004011 0.017955 0.000000 -0.007991 0.000000
# 4 0.000000 0.000000 0.000000 0.038768 0.000001 -0.016561
# 5 0.010978 -0.000655 -0.007991 0.000001 0.049667 -0.000001
# 6 0.000000 0.000000 0.000000 -0.016561 -0.000001 0.057971
#
#
# Mechanical properties :
#
#
# Convention : Reuss Voigt Hill
#
# Bulk Modulus (GPa) = 38.59956 43.73245 41.16600
# Shear Modulus (GPa) = 20.81379 24.77102 22.79241
#
# Velocity S-wave (km/s) = 3.26092 3.55743 3.41240
# Velocity P-wave (km/s) = 5.82223 6.26230 6.04627
#
# Compressibility (1/GPa) = 0.02590703
#
# Stress axis : x y z
#
# Youngs Moduli (GPa) = 37.83785 89.59269 55.69462
#
# Poissons Ratio (x) = 0.26490 0.43728
# Poissons Ratio (y) = 0.11188 0.22339
# Poissons Ratio (z) = 0.29708 0.35936
#
# Static dielectric constant tensor:
#      x y z
#    x 3.227190 0.000000 0.023040 
#    y 0.000000 3.711720 0.000000 
#    z 0.023040 0.000000 3.637930 
# 
# 
# High freq. dielectric constant tensor:
#      x y z
#    x 1.726970 0.000000 0.003230 
#    y 0.000000 1.769890 0.000000 
#    z 0.003230 0.000000 1.772850 
# 
# From -- ./inp_files/161177.got.cif
#   From: 2010.06.25/outbox.cif.g09.slc.cpg/sg12_81_cif.got.tgz:161177.got - 2010.06.28 00:19:55.
