data_PCOD8113479
_publ_section_title
;
Structure prediction by ZEFSAII (Michael W. Deem and Ramdas Pophale) SiO2 
 PCOD8113479
Probable space group: C 2/M
;
_chemical_formula_sum "Si O2"
_cell_formula_units_Z 64
_cell_length_a 12.994432
_cell_length_b 21.600657
_cell_length_c 12.763694
_cell_angle_alpha 90.000000
_cell_angle_beta 118.711372
_cell_angle_gamma 90.000000
_cell_volume 3142.139124
_symmetry_space_group_name_H-M "C 2/M"
_symmetry_group_IT_number 12
_symmetry_cell_setting 'monoclinic'
loop_
_space_group_symop_operation_xyz
x,y,z
-x,y,-z
-x,-y,-z
x,-y,z
1/2+x,1/2+y,z
1/2-x,1/2+y,-z
1/2-x,1/2-y,-z
1/2+x,1/2-y,z
loop_
_atom_site_type_symbol
_atom_site_label
_atom_site_fract_x
_atom_site_fract_y
_atom_site_fract_z
Si Si1 0.557980 0.283783 0.288544
Si Si2 0.634524 0.381776 0.038846
Si Si3 0.329074 0.356146 0.164008
Si Si4 0.259009 0.625425 0.527646
Si Si5 0.313340 0.070591 0.288510
Si Si6 0.378148 0.570912 0.397471
Si Si7 0.627726 0.756097 0.100744
Si Si8 0.009316 0.331083 0.384192
O O1 0.457778 0.329497 0.200208
O O2 0.648139 0.319177 0.409270
O O3 0.629529 0.255406 0.226369
O O4 0.480953 0.231378 0.308677
O O5 0.709911 0.422238 0.155385
O O6 0.659970 0.308528 0.061835
O O7 0.500000 0.398001 0.000000
O O8 0.681304 0.399802 0.944534
O O9 0.330019 0.393096 0.273044
O O10 0.224864 0.306427 0.117943
O O11 0.236883 0.588457 0.623139
O O12 0.293881 0.576812 0.455618
O O13 0.142318 0.653743 0.421636
O O14 0.422877 0.113457 0.309500
O O15 0.357860 0.000000 0.312765
O O16 0.500000 0.599000 0.500000
O O17 0.392034 0.500000 0.370268
O O18 0.500000 0.780152 0.000000
O O19 0.000000 0.314890 0.500000
#
# Coordination Sequence:
#
# PCOD8113479 Si02
#       8
#     8   8   8   8   8   8   8   8
#     4  12  22  38  64  96 130 161 210 262 322 390
#     4  11  22  43  62  96 129 162 215 264 328 378
#     4  12  24  40  66  88 130 166 206 268 319 377
#     4  11  22  43  64  94 127 167 211 262 315 382
#     4  11  24  43  67  95 129 172 218 264 323 387
#     4  11  25  43  63  90 123 166 216 260 314 379
#     4  11  23  39  63  96 127 168 211 260 327 392
#     4  10  25  38  62  97 132 166 202 258 322 389
#
# _framework density 20.368289999999998
#
# number of rings (size 3 to 8) (size 9 to 14) (size 15 to 20)
#    0.000    0.875    5.000    2.625    5.250    3.500 
#    0.000    0.000    0.000    0.375    0.000    0.000 
#    0.000    0.000    0.000    0.000    0.000    0.000 
#
# Total GULP energy -396771.243198 kJ/mol
# GULP energy per Si atom -12399.101350 kJ/mol
# Density = 2.032193 g / cm^3
# Si number density = 20.368290 Si / 1000 Ang^3
#
#
#
# Elastic Constant Matrix: (Units=GPa)
#
#
# Indices 1 2 3 4 5 6 
#
# 1 88.5630 25.5749 25.2711 0.0000 4.5193 0.0000
# 2 25.5749 81.7914 30.3164 0.0000 3.2076 0.0000
# 3 25.2711 30.3164 96.7937 0.0000 -0.9990 0.0000
# 4 0.0000 0.0000 0.0000 14.5664 0.0000 -13.9081
# 5 4.5193 3.2076 -0.9990 0.0000 24.9581 0.0000
# 6 0.0000 0.0000 0.0000 -13.9081 0.0000 -31.6648
#
#
#
# Elastic Compliance Matrix: (Units=1/GPa)
#
#
# Indices 1 2 3 4 5 6 
#
# 1 0.012982 -0.003071 -0.002449 0.000000 -0.002054 0.000000
# 2 -0.003071 0.014654 -0.003803 0.000000 -0.001480 0.000000
# 3 -0.002449 -0.003803 0.012176 0.000000 0.001420 0.000000
# 4 0.000000 0.000000 0.000000 0.048367 0.000000 -0.021244
# 5 -0.002054 -0.001480 0.001420 0.000000 0.040686 0.000000
# 6 0.000000 0.000000 0.000000 -0.021244 0.000000 -0.022250
#
#
# Mechanical properties :
#
#
# Convention : Reuss Voigt Hill
#
# Bulk Modulus (GPa) = 47.24451 47.71922 47.48187
# Shear Modulus (GPa) = 37.78803 13.97099 25.87951
#
# Velocity S-wave (km/s) = 4.31192 2.62185 3.56838
# Velocity P-wave (km/s) = 6.93078 5.71354 6.35138
#
# Compressibility (1/GPa) = 0.02116648
#
# Stress axis : x y z
#
# Youngs Moduli (GPa) = 77.03109 68.23976 82.12609
#
# Poissons Ratio (x) = 0.20957 0.20110
# Poissons Ratio (y) = 0.23657 0.31235
# Poissons Ratio (z) = 0.18862 0.25953
#
# Static dielectric constant tensor:
#      x y z
#    x 1.947390 0.000000 -0.245620 
#    y 0.000000 3.465090 0.000000 
#    z -0.245620 0.000000 3.811630 
# 
# 
# High freq. dielectric constant tensor:
#      x y z
#    x 1.802260 0.000000 -0.002410 
#    y 0.000000 1.775230 0.000000 
#    z -0.002410 0.000000 1.811100 
# 
# From -- ./inp_files/135965.got.cif
#   From: 2010.06.25/outbox.cif.g09.slc.cpg/sg12_68_cif.got.tgz:135965.got - 2010.06.28 00:19:55.
