data_PCOD8113754
_publ_section_title
;
Structure prediction by ZEFSAII (Michael W. Deem and Ramdas Pophale) SiO2 
 PCOD8113754
Probable space group: C 2/M
;
_chemical_formula_sum "Si O2"
_cell_formula_units_Z 64
_cell_length_a 33.366562
_cell_length_b 14.533549
_cell_length_c 9.157023
_cell_angle_alpha 90.000000
_cell_angle_beta 123.196455
_cell_angle_gamma 90.000000
_cell_volume 3715.850025
_symmetry_space_group_name_H-M "C 2/M"
_symmetry_group_IT_number 12
_symmetry_cell_setting 'monoclinic'
loop_
_space_group_symop_operation_xyz
x,y,z
-x,y,-z
-x,-y,-z
x,-y,z
1/2+x,1/2+y,z
1/2-x,1/2+y,-z
1/2-x,1/2-y,-z
1/2+x,1/2-y,z
loop_
_atom_site_type_symbol
_atom_site_label
_atom_site_fract_x
_atom_site_fract_y
_atom_site_fract_z
Si Si1 0.947135 0.897075 0.720322
Si Si2 0.360180 0.724300 0.546009
Si Si3 0.783709 0.106002 0.233384
Si Si4 0.359694 0.275670 0.891352
Si Si5 0.283301 0.394002 0.898512
Si Si6 0.327341 0.103985 0.984580
Si Si7 0.672240 0.103980 0.675854
Si Si8 0.446638 0.397076 0.066313
O O1 0.907809 0.826287 0.580299
O O2 0.945116 0.898003 0.889762
O O3 0.935743 0.000000 0.639241
O O4 0.000325 0.866716 0.774093
O O5 0.313787 0.669180 0.400935
O O6 0.359509 0.728964 0.717828
O O7 0.360252 0.827371 0.483180
O O8 0.728277 0.124198 0.156905
O O9 0.796737 0.000000 0.288327
O O10 0.795200 0.132842 0.089149
O O11 0.313136 0.330804 0.849785
O O12 0.359620 0.172577 0.954024
O O13 0.407135 0.326303 0.048022
O O14 0.296267 0.500000 0.895128
O O15 0.227788 0.375834 0.754851
O O16 0.340145 0.000000 0.963264
O O17 0.339011 0.119226 0.177099
O O18 0.659305 0.000000 0.603492
O O19 0.435079 0.500000 0.101303
#
# Coordination Sequence:
#
# PCOD8113754 Si02
#       8
#     8   8   8   8   8   8   8   8
#     4   8  15  29  47  67  94 125 151 177 219 279
#     4  11  20  28  46  75  98 117 149 195 241 276
#     4   9  18  32  48  66  92 128 163 188 217 269
#     4  11  20  28  46  75  98 117 149 195 241 276
#     4   9  18  32  48  66  92 128 163 188 217 269
#     4   9  19  35  50  63  87 128 168 192 218 268
#     4   9  19  35  50  63  87 128 168 192 218 268
#     4   8  15  29  47  67  94 125 151 177 219 279
#
# _framework density 17.223514999999999
#
# number of rings (size 3 to 8) (size 9 to 14) (size 15 to 20)
#    0.000    2.750    0.000    4.500    0.000    6.000 
#    0.000    2.500    0.000    3.750    0.000   14.000 
#    0.000    0.000    0.000    0.000    0.000    0.000 
#
# Total GULP energy -396745.661116 kJ/mol
# GULP energy per Si atom -12398.301910 kJ/mol
# Density = 1.718431 g / cm^3
# Si number density = 17.223515 Si / 1000 Ang^3
#
#
#
# Elastic Constant Matrix: (Units=GPa)
#
#
# Indices 1 2 3 4 5 6 
#
# 1 63.3412 69.0722 48.8248 0.0000 13.5179 0.0000
# 2 69.0722 134.5864 59.2088 0.0000 13.8094 0.0000
# 3 48.8248 59.2088 52.1987 0.0000 3.7364 0.0000
# 4 0.0000 0.0000 0.0000 31.7412 0.0000 -0.7915
# 5 13.5179 13.8094 3.7364 0.0000 13.8485 0.0000
# 6 0.0000 0.0000 0.0000 -0.7915 0.0000 30.9357
#
#
#
# Elastic Compliance Matrix: (Units=1/GPa)
#
#
# Indices 1 2 3 4 5 6 
#
# 1 0.104696 -0.011434 -0.080006 0.000000 -0.069210 0.000000
# 2 -0.011434 0.017728 -0.009124 0.000000 -0.004056 0.000000
# 3 -0.080006 -0.009124 0.100032 0.000000 0.060205 0.000000
# 4 0.000000 0.000000 0.000000 0.031525 0.000000 0.000807
# 5 -0.069210 -0.004056 0.060205 0.000000 0.127568 0.000000
# 6 0.000000 0.000000 0.000000 0.000807 0.000000 0.032346
#
#
# Mechanical properties :
#
#
# Convention : Reuss Voigt Hill
#
# Bulk Modulus (GPa) = 46.88397 67.14865 57.01631
# Shear Modulus (GPa) = 8.03686 20.17311 14.10498
#
# Velocity S-wave (km/s) = 2.16249 3.42607 2.86481
# Velocity P-wave (km/s) = 5.78922 7.39742 6.64218
#
# Compressibility (1/GPa) = 0.02132925
#
# Stress axis : x y z
#
# Youngs Moduli (GPa) = 9.55142 56.40703 9.99676
#
# Poissons Ratio (x) = 0.64494 0.79980
# Poissons Ratio (y) = 0.10921 0.09121
# Poissons Ratio (z) = 0.76417 0.51467
#
# Static dielectric constant tensor:
#      x y z
#    x 3.156350 0.000000 0.154010 
#    y 0.000000 3.385940 0.000000 
#    z 0.154010 0.000000 3.026370 
# 
# 
# High freq. dielectric constant tensor:
#      x y z
#    x 1.644420 0.000000 0.002480 
#    y 0.000000 1.672100 0.000000 
#    z 0.002480 0.000000 1.642530 
# 
# From -- ./inp_files/111643.got.cif
#   From: 2010.06.25/outbox.cif.g09.slc.cpg/sg12_56_cif.got.tgz:111643.got - 2010.06.28 00:19:55.
