data_PCOD8113427
_publ_section_title
;
Structure prediction by ZEFSAII (Michael W. Deem and Ramdas Pophale) SiO2 
 PCOD8113427
Probable space group: C 2/M
;
_chemical_formula_sum "Si O2"
_cell_formula_units_Z 48
_cell_length_a 14.096362
_cell_length_b 17.216332
_cell_length_c 18.670965
_cell_angle_alpha 90.000000
_cell_angle_beta 30.922162
_cell_angle_gamma 90.000000
_cell_volume 2328.468317
_symmetry_space_group_name_H-M "C 2/M"
_symmetry_group_IT_number 12
_symmetry_cell_setting 'monoclinic'
loop_
_space_group_symop_operation_xyz
x,y,z
-x,y,-z
-x,-y,-z
x,-y,z
1/2+x,1/2+y,z
1/2-x,1/2+y,-z
1/2-x,1/2-y,-z
1/2+x,1/2-y,z
loop_
_atom_site_type_symbol
_atom_site_label
_atom_site_fract_x
_atom_site_fract_y
_atom_site_fract_z
Si Si1 0.817807 0.336282 0.657667
Si Si2 0.715253 0.591049 0.868965
Si Si3 0.685264 0.161827 0.045083
Si Si4 0.241982 0.340092 0.688775
Si Si5 0.442467 0.410263 0.433012
Si Si6 0.512082 0.409329 0.758455
O O1 0.824856 0.372166 0.731958
O O2 0.816095 0.243873 0.663284
O O3 0.636917 0.363402 0.733257
O O4 0.000000 0.366915 0.500000
O O5 0.755602 0.500000 0.846141
O O6 0.792089 0.630649 0.889855
O O7 0.500000 0.609117 0.000000
O O8 0.474330 0.152961 0.157513
O O9 0.750000 0.250000 0.000000
O O10 0.800913 0.110853 0.913795
O O11 0.293130 0.358604 0.572831
O O12 0.351898 0.400762 0.667605
O O13 0.385244 0.500000 0.475256
O O14 0.441300 0.381861 0.351803
O O15 0.546225 0.500000 0.747073
#
# Coordination Sequence:
#
# PCOD8113427 Si02
#       6
#     8   8   8   8   8   8
#     4  12  25  42  68  99 133 172 219 273 327 391
#     4  11  24  44  66  94 138 177 213 267 332 394
#     4  12  25  42  68  99 131 173 220 271 323 390
#     4  11  23  43  68  97 129 172 221 273 328 390
#     4  10  24  45  69  95 133 173 218 276 330 390
#     4  11  25  45  66  97 136 171 217 273 329 391
#
# _framework density 20.614411
#
# number of rings (size 3 to 8) (size 9 to 14) (size 15 to 20)
#    0.000    0.833    5.000    2.000    4.667    5.333 
#    0.000    1.667    0.000    0.000    0.000    0.000 
#    0.000    0.000    0.000    0.000    0.000    0.000 
#
# Total GULP energy -297739.079158 kJ/mol
# GULP energy per Si atom -12405.794965 kJ/mol
# Density = 2.056749 g / cm^3
# Si number density = 20.614411 Si / 1000 Ang^3
#
#
#
# Elastic Constant Matrix: (Units=GPa)
#
#
# Indices 1 2 3 4 5 6 
#
# 1 37.9052 18.6274 11.6911 -0.0192 12.5794 0.0156
# 2 18.6274 73.0442 30.5899 -0.0123 13.2400 0.0048
# 3 11.6911 30.5899 108.0330 -0.0116 0.7849 0.0226
# 4 -0.0192 -0.0123 -0.0116 37.6116 -0.0062 5.9354
# 5 12.5794 13.2400 0.7849 -0.0062 49.1362 -0.0059
# 6 0.0156 0.0048 0.0226 5.9354 -0.0059 24.2064
#
#
#
# Elastic Compliance Matrix: (Units=1/GPa)
#
#
# Indices 1 2 3 4 5 6 
#
# 1 0.032158 -0.006336 -0.001639 0.000016 -0.006499 -0.000024
# 2 -0.006336 0.017660 -0.004292 0.000000 -0.003068 0.000004
# 3 -0.001639 -0.004292 0.010639 0.000003 0.001406 -0.000008
# 4 0.000016 0.000000 0.000003 0.027658 -0.000002 -0.006782
# 5 -0.006499 -0.003068 0.001406 -0.000002 0.022820 0.000009
# 6 -0.000024 0.000004 -0.000008 -0.006782 0.000009 0.042974
#
#
# Mechanical properties :
#
#
# Convention : Reuss Voigt Hill
#
# Bulk Modulus (GPa) = 27.83841 37.86656 32.85249
# Shear Modulus (GPa) = 26.25815 32.72912 29.49363
#
# Velocity S-wave (km/s) = 3.57287 3.98889 3.78660
# Velocity P-wave (km/s) = 5.52759 6.29475 5.92360
#
# Compressibility (1/GPa) = 0.03592159
#
# Stress axis : x y z
#
# Youngs Moduli (GPa) = 31.09669 56.62545 93.99409
#
# Poissons Ratio (x) = 0.35880 0.15402
# Poissons Ratio (y) = 0.19704 0.40347
# Poissons Ratio (z) = 0.05096 0.24306
#
# Static dielectric constant tensor:
#      x y z
#    x 3.901240 -0.000180 -0.303550 
#    y -0.000180 3.793800 0.000310 
#    z -0.303550 0.000310 4.845710 
# 
# 
# High freq. dielectric constant tensor:
#      x y z
#    x 1.805390 0.000000 0.004960 
#    y 0.000000 1.816130 0.000000 
#    z 0.004960 0.000000 1.819190 
# 
# From -- ./inp_files/271591.got.cif
#   From: 2010.06.25/outbox.cif.g09.slc.cpg/sg12_136_cif.got.tgz:271591.got - 2010.06.28 00:19:55.
