data_PCOD8113685
_publ_section_title
;
Structure prediction by ZEFSAII (Michael W. Deem and Ramdas Pophale) SiO2 
 PCOD8113685
Probable space group: C 2/M
;
_chemical_formula_sum "Si O2"
_cell_formula_units_Z 52
_cell_length_a 15.381859
_cell_length_b 23.329673
_cell_length_c 8.235135
_cell_angle_alpha 90.000000
_cell_angle_beta 84.729358
_cell_angle_gamma 90.000000
_cell_volume 2942.714073
_symmetry_space_group_name_H-M "C 2/M"
_symmetry_group_IT_number 12
_symmetry_cell_setting 'monoclinic'
loop_
_space_group_symop_operation_xyz
x,y,z
-x,y,-z
-x,-y,-z
x,-y,z
1/2+x,1/2+y,z
1/2-x,1/2+y,-z
1/2-x,1/2-y,-z
1/2+x,1/2-y,z
loop_
_atom_site_type_symbol
_atom_site_label
_atom_site_fract_x
_atom_site_fract_y
_atom_site_fract_z
Si Si1 0.946521 0.192396 0.295412
Si Si2 0.321112 0.378788 0.110505
Si Si3 0.568649 0.500000 0.231914
Si Si4 0.500000 0.230655 0.000000
Si Si5 0.110993 0.877568 0.257619
Si Si6 0.330758 0.271960 0.587787
Si Si7 0.618674 0.500000 0.850770
Si Si8 0.320015 0.794411 0.910780
O O1 0.859473 0.165252 0.234733
O O2 0.916895 0.227462 0.460066
O O3 0.014503 0.142489 0.326116
O O4 0.997230 0.232725 0.163180
O O5 0.322105 0.443091 0.183191
O O6 0.222389 0.357712 0.093989
O O7 0.378470 0.373006 0.938012
O O8 0.614222 0.444634 0.307997
O O9 0.462471 0.500000 0.263055
O O10 0.585283 0.500000 0.038811
O O11 0.592021 0.196277 0.996590
O O12 0.181978 0.837371 0.338624
O O13 0.250000 0.250000 0.500000
O O14 0.348452 0.228259 0.729969
O O15 0.250000 0.750000 0.000000
#
# Coordination Sequence:
#
# PCOD8113685 Si02
#       8
#     8   8   4   4   8   8   4   8
#     4  12  19  32  53  78 109 144 179 221 269 327
#     4  11  19  35  56  78 109 146 184 226 270 331
#     4   9  18  30  54  79 110 143 185 224 263 334
#     4  12  22  34  56  78 108 146 184 222 278 338
#     4  11  20  34  52  81 110 148 185 222 272 327
#     4  12  23  33  50  76 111 150 182 228 272 324
#     4   9  18  30  55  83 103 142 189 225 269 326
#     4  12  21  37  55  78 108 147 185 227 282 330
#
# _framework density 17.670762
#
# number of rings (size 3 to 8) (size 9 to 14) (size 15 to 20)
#    0.000    0.769    9.231    0.462    0.000    0.000 
#    0.000    2.308    0.000    0.462    0.000    0.000 
#    0.000    1.231    0.000    0.077    0.000    0.000 
#
# Total GULP energy -322195.743241 kJ/mol
# GULP energy per Si atom -12392.143971 kJ/mol
# Density = 1.763054 g / cm^3
# Si number density = 17.670762 Si / 1000 Ang^3
#
#
#
# Elastic Constant Matrix: (Units=GPa)
#
#
# Indices 1 2 3 4 5 6 
#
# 1 105.3749 47.2915 5.1335 0.0000 8.6543 0.0000
# 2 47.2915 106.0103 13.9476 0.0000 2.9409 0.0000
# 3 5.1335 13.9476 69.1397 0.0000 -14.4302 0.0000
# 4 0.0000 0.0000 0.0000 17.8480 0.0000 2.8896
# 5 8.6543 2.9409 -14.4302 0.0000 28.5122 0.0000
# 6 0.0000 0.0000 0.0000 2.8896 0.0000 32.8382
#
#
#
# Elastic Compliance Matrix: (Units=1/GPa)
#
#
# Indices 1 2 3 4 5 6 
#
# 1 0.012157 -0.005255 -0.000559 0.000000 -0.003431 0.000000
# 2 -0.005255 0.012089 -0.002209 0.000000 -0.000770 0.000000
# 3 -0.000559 -0.002209 0.016809 0.000000 0.008905 0.000000
# 4 0.000000 0.000000 0.000000 0.056838 0.000000 -0.005001
# 5 -0.003431 -0.000770 0.008905 0.000000 0.040700 0.000000
# 6 0.000000 0.000000 0.000000 -0.005001 0.000000 0.030892
#
#
# Mechanical properties :
#
#
# Convention : Reuss Voigt Hill
#
# Bulk Modulus (GPa) = 39.98378 45.91889 42.95133
# Shear Modulus (GPa) = 25.79065 30.11650 27.95358
#
# Velocity S-wave (km/s) = 3.82450 4.13281 3.98164
# Velocity P-wave (km/s) = 6.49450 6.98682 6.74516
#
# Compressibility (1/GPa) = 0.02501014
#
# Stress axis : x y z
#
# Youngs Moduli (GPa) = 82.25600 82.71832 59.49142
#
# Poissons Ratio (x) = 0.43466 0.03324
# Poissons Ratio (y) = 0.43223 0.13144
# Poissons Ratio (z) = 0.04595 0.18275
#
# Static dielectric constant tensor:
#      x y z
#    x 3.289110 0.000000 0.052470 
#    y 0.000000 3.418090 0.000000 
#    z 0.052470 0.000000 3.415670 
# 
# 
# High freq. dielectric constant tensor:
#      x y z
#    x 1.662530 0.000000 0.005950 
#    y 0.000000 1.657390 0.000000 
#    z 0.005950 0.000000 1.689960 
# 
# From -- ./inp_files/64783.got.cif
#   From: 2010.06.25/outbox.cif.g09.slc.cpg/sg12_33_cif.got.tgz:64783.got - 2010.06.28 00:19:55.
