data_PCOD8113454
_publ_section_title
;
Structure prediction by ZEFSAII (Michael W. Deem and Ramdas Pophale) SiO2 
 PCOD8113454
Probable space group: C 2/M
;
_chemical_formula_sum "Si O2"
_cell_formula_units_Z 64
_cell_length_a 31.145253
_cell_length_b 20.555662
_cell_length_c 16.568127
_cell_angle_alpha 90.000000
_cell_angle_beta 162.772952
_cell_angle_gamma 90.000000
_cell_volume 3141.388533
_symmetry_space_group_name_H-M "C 2/M"
_symmetry_group_IT_number 12
_symmetry_cell_setting 'monoclinic'
loop_
_space_group_symop_operation_xyz
x,y,z
-x,y,-z
-x,-y,-z
x,-y,z
1/2+x,1/2+y,z
1/2-x,1/2+y,-z
1/2-x,1/2-y,-z
1/2+x,1/2-y,z
loop_
_atom_site_type_symbol
_atom_site_label
_atom_site_fract_x
_atom_site_fract_y
_atom_site_fract_z
Si Si1 0.421530 0.881026 0.735746
Si Si2 0.542947 0.925918 0.669344
Si Si3 0.696764 0.927458 0.314804
Si Si4 0.704689 0.122668 0.657616
Si Si5 0.529933 0.362539 0.248894
Si Si6 0.913174 0.247117 0.766228
Si Si7 0.886120 0.238981 0.465757
Si Si8 0.691678 0.795026 0.966939
O O1 0.321857 0.884935 0.637385
O O2 0.342460 0.908182 0.513621
O O3 0.446944 0.804524 0.762578
O O4 0.575490 0.914806 0.028430
O O5 0.500000 0.922651 0.500000
O O6 0.399411 0.908304 0.462522
O O7 0.594627 0.000000 0.784214
O O8 0.671485 0.872550 0.912350
O O9 0.852458 0.918964 0.552903
O O10 0.679636 0.000000 0.315638
O O11 0.702615 0.201560 0.653681
O O12 0.872277 0.104769 0.978441
O O13 0.530365 0.320267 0.168076
O O14 0.586232 0.319286 0.423419
O O15 0.750000 0.250000 0.500000
O O16 0.000000 0.266181 0.000000
O O17 0.797869 0.209266 0.233019
O O18 0.036156 0.266583 0.705282
O O19 0.750000 0.750000 0.000000
#
# Coordination Sequence:
#
# PCOD8113454 Si02
#       8
#     8   8   8   8   8   8   8   8
#     4  11  21  41  65  90 124 168 220 274 324 390
#     4  10  24  46  71  98 133 177 226 269 326 408
#     4  11  26  44  61  88 127 179 225 269 326 397
#     4  11  24  40  66  98 130 170 214 275 333 394
#     4  12  25  38  62  95 135 168 214 279 333 382
#     4  12  21  35  60  91 121 159 211 266 329 376
#     4  11  23  38  62 102 136 161 212 268 333 397
#     4  11  22  42  70 101 134 172 213 275 337 400
#
# _framework density 20.373156999999999
#
# number of rings (size 3 to 8) (size 9 to 14) (size 15 to 20)
#    0.000    0.875    5.000    3.375    5.250    1.500 
#    0.000    0.625    0.000    1.500    0.000    0.000 
#    0.000    0.000    0.000    0.000    0.000    0.000 
#
# Total GULP energy -396666.924163 kJ/mol
# GULP energy per Si atom -12395.841380 kJ/mol
# Density = 2.032679 g / cm^3
# Si number density = 20.373157 Si / 1000 Ang^3
#
#
#
# Elastic Constant Matrix: (Units=GPa)
#
#
# Indices 1 2 3 4 5 6 
#
# 1 91.6098 26.5062 56.4640 0.0000 -6.8318 0.0000
# 2 26.5062 114.6899 45.0640 0.0000 0.5035 0.0000
# 3 56.4640 45.0640 145.0854 0.0000 -2.7893 0.0000
# 4 0.0000 0.0000 0.0000 20.6018 0.0000 1.6886
# 5 -6.8318 0.5035 -2.7893 0.0000 36.7629 0.0000
# 6 0.0000 0.0000 0.0000 1.6886 0.0000 12.2840
#
#
#
# Elastic Compliance Matrix: (Units=1/GPa)
#
#
# Indices 1 2 3 4 5 6 
#
# 1 0.014728 -0.001344 -0.005269 0.000000 0.002356 0.000000
# 2 -0.001344 0.010059 -0.002613 0.000000 -0.000586 0.000000
# 3 -0.005269 -0.002613 0.009751 0.000000 -0.000204 0.000000
# 4 0.000000 0.000000 0.000000 0.049093 0.000000 -0.006748
# 5 0.002356 -0.000586 -0.000204 0.000000 0.027632 0.000000
# 6 0.000000 0.000000 0.000000 -0.006748 0.000000 0.082334
#
#
# Mechanical properties :
#
#
# Convention : Reuss Voigt Hill
#
# Bulk Modulus (GPa) = 62.16404 67.49482 64.82943
# Shear Modulus (GPa) = 22.99812 28.81981 25.90896
#
# Velocity S-wave (km/s) = 3.36347 3.76519 3.56999
# Velocity P-wave (km/s) = 6.75743 7.21827 6.99165
#
# Compressibility (1/GPa) = 0.01608647
#
# Stress axis : x y z
#
# Youngs Moduli (GPa) = 67.89793 99.41504 102.55697
#
# Poissons Ratio (x) = 0.13359 0.54039
# Poissons Ratio (y) = 0.09124 0.26794
# Poissons Ratio (z) = 0.35776 0.25973
#
# Static dielectric constant tensor:
#      x y z
#    x 3.720010 0.000000 0.032000 
#    y 0.000000 3.956770 0.000000 
#    z 0.032000 0.000000 3.808250 
# 
# 
# High freq. dielectric constant tensor:
#      x y z
#    x 1.797150 0.000000 -0.002590 
#    y 0.000000 1.789300 0.000000 
#    z -0.002590 0.000000 1.800460 
# 
# From -- ./inp_files/251962.got.cif
#   From: 2010.06.25/outbox.cif.g09.slc.cpg/sg12_126_cif.got.tgz:251962.got - 2010.06.28 00:19:55.
