data_PCOD8113248
_publ_section_title
;
Structure prediction by ZEFSAII (Michael W. Deem and Ramdas Pophale) SiO2 
 PCOD8113248
Probable space group: C 2/M
;
_chemical_formula_sum "Si O2"
_cell_formula_units_Z 56
_cell_length_a 9.153925
_cell_length_b 14.738694
_cell_length_c 24.067418
_cell_angle_alpha 90.000000
_cell_angle_beta 121.881788
_cell_angle_gamma 90.000000
_cell_volume 2757.242441
_symmetry_space_group_name_H-M "C 2/M"
_symmetry_group_IT_number 12
_symmetry_cell_setting 'monoclinic'
loop_
_space_group_symop_operation_xyz
x,y,z
-x,y,-z
-x,-y,-z
x,-y,z
1/2+x,1/2+y,z
1/2-x,1/2+y,-z
1/2-x,1/2-y,-z
1/2+x,1/2-y,z
loop_
_atom_site_type_symbol
_atom_site_label
_atom_site_fract_x
_atom_site_fract_y
_atom_site_fract_z
Si Si1 0.635615 0.102510 0.449095
Si Si2 0.857196 0.500000 0.049543
Si Si3 0.264935 0.759083 0.747621
Si Si4 0.734648 0.000000 0.096643
Si Si5 0.298535 0.690054 0.956865
Si Si6 0.363201 0.317474 0.164761
Si Si7 0.252195 0.396495 0.591751
Si Si8 0.895074 0.283545 0.659852
O O1 0.439692 0.121265 0.425815
O O2 0.757818 0.121427 0.526472
O O3 0.693020 0.165561 0.409407
O O4 0.658942 0.000000 0.433488
O O5 0.787363 0.591278 0.063493
O O6 0.062060 0.500000 0.098478
O O7 0.808127 0.500000 0.976011
O O8 0.433827 0.700285 0.793586
O O9 0.220781 0.823930 0.790720
O O10 0.300013 0.814926 0.697567
O O11 0.098564 0.693854 0.705234
O O12 0.848098 0.087127 0.131793
O O13 0.241195 0.740674 0.889480
O O14 0.500000 0.675297 0.000000
O O15 0.250000 0.750000 0.000000
O O16 0.310177 0.500000 0.616585
O O17 0.376823 0.325722 0.647762
#
# Coordination Sequence:
#
# PCOD8113248 Si02
#       8
#     8   4   8   4   8   8   8   8
#     4   9  18  34  59  91 121 149 196 249 310 361
#     4  11  23  38  64 108 120 154 198 247 326 372
#     4  10  24  40  59  81 118 163 212 239 288 353
#     4  11  22  40  68  92 128 154 202 247 305 386
#     4  12  23  40  69  94 128 160 196 260 313 364
#     4  11  23  44  62  89 121 162 202 248 300 356
#     4   9  18  34  61  91 117 155 196 247 306 371
#     4  11  19  40  60  86 118 160 202 254 294 355
#
# _framework density 20.310147000000001
#
# number of rings (size 3 to 8) (size 9 to 14) (size 15 to 20)
#    0.000    1.571    2.857    4.071    0.000    0.000 
#    7.714    0.000    3.143    1.714    0.000    0.000 
#    0.000    0.000    0.000    0.000    0.000    0.000 
#
# Total GULP energy -347158.590535 kJ/mol
# GULP energy per Si atom -12398.521091 kJ/mol
# Density = 2.026392 g / cm^3
# Si number density = 20.310147 Si / 1000 Ang^3
#
#
#
# Elastic Constant Matrix: (Units=GPa)
#
#
# Indices 1 2 3 4 5 6 
#
# 1 84.8771 15.7373 22.6687 0.0000 -3.1021 0.0000
# 2 15.7373 111.5269 31.6991 0.0000 -3.1167 0.0000
# 3 22.6687 31.6991 81.4846 0.0000 -9.5264 0.0000
# 4 0.0000 0.0000 0.0000 41.5407 0.0000 -6.1442
# 5 -3.1021 -3.1167 -9.5264 0.0000 37.4052 0.0000
# 6 0.0000 0.0000 0.0000 -6.1442 0.0000 22.1282
#
#
#
# Elastic Compliance Matrix: (Units=1/GPa)
#
#
# Indices 1 2 3 4 5 6 
#
# 1 0.012807 -0.000894 -0.003195 0.000000 0.000174 0.000000
# 2 -0.000894 0.010145 -0.003718 0.000000 -0.000176 0.000000
# 3 -0.003195 -0.003718 0.014986 0.000000 0.003242 0.000000
# 4 0.000000 0.000000 0.000000 0.025104 0.000000 0.006970
# 5 0.000174 -0.000176 0.003242 0.000000 0.027560 0.000000
# 6 0.000000 0.000000 0.000000 0.006970 0.000000 0.047126
#
#
# Mechanical properties :
#
#
# Convention : Reuss Voigt Hill
#
# Bulk Modulus (GPa) = 44.79518 46.45544 45.62531
# Shear Modulus (GPa) = 31.09769 34.06708 32.58239
#
# Velocity S-wave (km/s) = 3.91722 4.09998 4.00964
# Velocity P-wave (km/s) = 6.52403 6.73319 6.62943
#
# Compressibility (1/GPa) = 0.02232383
#
# Stress axis : x y z
#
# Youngs Moduli (GPa) = 78.08149 98.57518 66.72686
#
# Poissons Ratio (x) = 0.08816 0.21317
# Poissons Ratio (y) = 0.06983 0.24810
# Poissons Ratio (z) = 0.24944 0.36652
#
# Static dielectric constant tensor:
#      x y z
#    x 3.621930 0.000000 -0.077190 
#    y 0.000000 3.537590 0.000000 
#    z -0.077190 0.000000 3.934010 
# 
# 
# High freq. dielectric constant tensor:
#      x y z
#    x 1.792520 0.000000 -0.005050 
#    y 0.000000 1.774250 0.000000 
#    z -0.005050 0.000000 1.806120 
# 
# From -- ./inp_files/332885.got.cif
#   From: 2010.06.25/outbox.cif.g09.slc.cpg/sg12_167_cif.got.tgz:332885.got - 2010.06.28 00:19:55.
