data_PCOD8113172
_publ_section_title
;
Structure prediction by ZEFSAII (Michael W. Deem and Ramdas Pophale) SiO2 
 PCOD8113172
Probable space group: C 2/M
;
_chemical_formula_sum "Si O2"
_cell_formula_units_Z 56
_cell_length_a 30.240855
_cell_length_b 8.491538
_cell_length_c 11.871160
_cell_angle_alpha 90.000000
_cell_angle_beta 60.955973
_cell_angle_gamma 90.000000
_cell_volume 2665.064286
_symmetry_space_group_name_H-M "C 2/M"
_symmetry_group_IT_number 12
_symmetry_cell_setting 'monoclinic'
loop_
_space_group_symop_operation_xyz
x,y,z
-x,y,-z
-x,-y,-z
x,-y,z
1/2+x,1/2+y,z
1/2-x,1/2+y,-z
1/2-x,1/2-y,-z
1/2+x,1/2-y,z
loop_
_atom_site_type_symbol
_atom_site_label
_atom_site_fract_x
_atom_site_fract_y
_atom_site_fract_z
Si Si1 0.745121 0.312597 0.379120
Si Si2 0.358648 0.186733 0.514736
Si Si3 0.005318 0.677941 0.125706
Si Si4 0.404932 0.680758 0.860840
Si Si5 0.656530 0.184522 0.877124
Si Si6 0.942775 0.684781 0.583899
Si Si7 0.902332 0.815521 0.248601
O O1 0.742784 0.500000 0.385201
O O2 0.750000 0.250000 0.500000
O O3 0.696611 0.239920 0.373579
O O4 0.791978 0.254497 0.243879
O O5 0.403801 0.251176 0.538456
O O6 0.360008 0.273809 0.392462
O O7 0.361245 0.000000 0.496256
O O8 0.014754 0.500000 0.158509
O O9 0.049437 0.793112 0.109075
O O10 0.953314 0.744876 0.240557
O O11 0.000000 0.684632 0.000000
O O12 0.399759 0.500000 0.833224
O O13 0.417244 0.779161 0.734540
O O14 0.353491 0.736443 0.987877
O O15 0.610053 0.228710 0.852847
O O16 0.656790 0.000000 0.896616
O O17 0.947014 0.500000 0.563300
O O18 0.000000 0.757324 0.500000
O O19 0.906347 0.000000 0.220631
#
# Coordination Sequence:
#
# PCOD8113172 Si02
#       7
#     8   8   8   8   8   8   8
#     4  11  23  39  64  94 129 169 214 268 322 384
#     4  11  23  40  65  94 127 168 215 262 319 384
#     4  11  22  36  57  83 120 165 204 248 308 382
#     4  12  25  40  63  93 127 164 208 268 324 376
#     4  11  23  40  61  88 125 168 210 254 316 385
#     4  10  23  45  70  93 124 171 219 260 310 384
#     4  12  23  35  58  91 127 161 204 262 317 373
#
# _framework density 21.012626999999998
#
# number of rings (size 3 to 8) (size 9 to 14) (size 15 to 20)
#    0.000    0.857    2.857    5.143    0.000    4.857 
#    0.000    0.714    0.000    0.000    0.000    0.000 
#    0.000    0.000    0.000    0.000    0.000    0.000 
#
# Total GULP energy -347202.265872 kJ/mol
# GULP energy per Si atom -12400.080924 kJ/mol
# Density = 2.096480 g / cm^3
# Si number density = 21.012627 Si / 1000 Ang^3
#
#
#
# Elastic Constant Matrix: (Units=GPa)
#
#
# Indices 1 2 3 4 5 6 
#
# 1 101.5688 13.4149 36.9939 0.0000 -12.9676 0.0000
# 2 13.4149 39.0710 3.9193 0.0000 -3.1469 0.0000
# 3 36.9939 3.9193 124.5695 0.0000 -10.6611 0.0000
# 4 0.0000 0.0000 0.0000 25.6065 0.0000 -5.1938
# 5 -12.9676 -3.1469 -10.6611 0.0000 30.1342 0.0000
# 6 0.0000 0.0000 0.0000 -5.1938 0.0000 29.9874
#
#
#
# Elastic Compliance Matrix: (Units=1/GPa)
#
#
# Indices 1 2 3 4 5 6 
#
# 1 0.011906 -0.003481 -0.003113 0.000000 0.003659 0.000000
# 2 -0.003481 0.026873 0.000310 0.000000 0.001418 0.000000
# 3 -0.003113 0.000310 0.009106 0.000000 0.001914 0.000000
# 4 0.000000 0.000000 0.000000 0.040474 0.000000 0.007010
# 5 0.003659 0.001418 0.001914 0.000000 0.035585 0.000000
# 6 0.000000 0.000000 0.000000 0.007010 0.000000 0.034561
#
#
# Mechanical properties :
#
#
# Convention : Reuss Voigt Hill
#
# Bulk Modulus (GPa) = 28.31562 41.54059 34.92811
# Shear Modulus (GPa) = 27.34523 31.20439 29.27481
#
# Velocity S-wave (km/s) = 3.61137 3.85779 3.73661
# Velocity P-wave (km/s) = 5.55824 6.29727 5.93926
#
# Compressibility (1/GPa) = 0.03531619
#
# Stress axis : x y z
#
# Youngs Moduli (GPa) = 83.98889 37.21237 109.81433
#
# Poissons Ratio (x) = 0.12954 0.34188
# Poissons Ratio (y) = 0.29237 -0.03400
# Poissons Ratio (z) = 0.26148 -0.01152
#
# Static dielectric constant tensor:
#      x y z
#    x 3.972890 0.000000 -0.289240 
#    y 0.000000 3.696520 0.000000 
#    z -0.289240 0.000000 4.014430 
# 
# 
# High freq. dielectric constant tensor:
#      x y z
#    x 1.810870 0.000000 -0.018820 
#    y 0.000000 1.819780 0.000000 
#    z -0.018820 0.000000 1.832740 
# 
# From -- ./inp_files/187239.got.cif
#   From: 2010.06.25/outbox.cif.g09.slc.cpg/sg12_94_cif.got.tgz:187239.got - 2010.06.28 00:19:55.
