data_PCOD8113188
_publ_section_title
;
Structure prediction by ZEFSAII (Michael W. Deem and Ramdas Pophale) SiO2 
 PCOD8113188
Probable space group: C 2/M
;
_chemical_formula_sum "Si O2"
_cell_formula_units_Z 56
_cell_length_a 22.369766
_cell_length_b 8.482303
_cell_length_c 16.542438
_cell_angle_alpha 90.000000
_cell_angle_beta 124.297881
_cell_angle_gamma 90.000000
_cell_volume 2593.088986
_symmetry_space_group_name_H-M "C 2/M"
_symmetry_group_IT_number 12
_symmetry_cell_setting 'monoclinic'
loop_
_space_group_symop_operation_xyz
x,y,z
-x,y,-z
-x,-y,-z
x,-y,z
1/2+x,1/2+y,z
1/2-x,1/2+y,-z
1/2-x,1/2-y,-z
1/2+x,1/2-y,z
loop_
_atom_site_type_symbol
_atom_site_label
_atom_site_fract_x
_atom_site_fract_y
_atom_site_fract_z
Si Si1 0.104732 0.818974 0.388098
Si Si2 0.834204 0.182227 0.272161
Si Si3 0.354513 0.180558 0.731407
Si Si4 0.219860 0.184608 0.062214
Si Si5 0.414967 0.683303 0.936605
Si Si6 0.293777 0.181056 0.406716
Si Si7 0.984579 0.321841 0.394299
O O1 0.085397 0.726856 0.289532
O O2 0.171834 0.733143 0.482799
O O3 0.033933 0.805380 0.388201
O O4 0.123276 0.000000 0.386678
O O5 0.765490 0.240465 0.169391
O O6 0.820729 0.203733 0.356670
O O7 0.903648 0.286076 0.303308
O O8 0.848722 0.000000 0.263899
O O9 0.379861 0.211845 0.840763
O O10 0.291859 0.299351 0.654528
O O11 0.329883 0.000000 0.706905
O O12 0.133548 0.217590 0.018263
O O13 0.233588 0.000000 0.070746
O O14 0.250000 0.250000 0.000000
O O15 0.408017 0.500000 0.909153
O O16 0.500000 0.731512 0.000000
O O17 0.314707 0.000000 0.403185
O O18 0.004207 0.500000 0.383786
O O19 0.000000 0.297268 0.500000
#
# Coordination Sequence:
#
# PCOD8113188 Si02
#       7
#     8   8   8   8   8   8   8
#     4  12  25  41  63  94 133 175 221 270 324 389
#     4  12  24  40  66  97 129 170 218 264 325 395
#     4  12  25  42  65  95 131 172 219 271 329 393
#     4  11  24  44  71 100 135 173 221 280 340 405
#     4  10  23  45  72  99 131 174 223 277 341 403
#     4  12  23  40  64  93 129 170 218 268 322 383
#     4  11  23  40  63  91 129 173 218 268 323 382
#
# _framework density 21.595866000000001
#
# number of rings (size 3 to 8) (size 9 to 14) (size 15 to 20)
#    0.000    0.571    2.857    6.429    0.000    2.571 
#    0.000    4.286    0.000    0.000    0.000    0.000 
#    0.000    0.000    0.000    0.000    0.000    0.000 
#
# Total GULP energy -347108.910012 kJ/mol
# GULP energy per Si atom -12396.746786 kJ/mol
# Density = 2.154671 g / cm^3
# Si number density = 21.595866 Si / 1000 Ang^3
#
#
#
# Elastic Constant Matrix: (Units=GPa)
#
#
# Indices 1 2 3 4 5 6 
#
# 1 123.3314 36.4931 46.6303 0.0000 2.0320 0.0000
# 2 36.4931 111.2096 35.4428 0.0000 -6.8274 0.0000
# 3 46.6303 35.4428 75.5975 0.0000 -8.7153 0.0000
# 4 0.0000 0.0000 0.0000 360.5151 0.0000 151.9531
# 5 2.0320 -6.8274 -8.7153 0.0000 36.3024 0.0000
# 6 0.0000 0.0000 0.0000 151.9531 0.0000 107.8219
#
#
#
# Elastic Compliance Matrix: (Units=1/GPa)
#
#
# Indices 1 2 3 4 5 6 
#
# 1 0.011042 -0.001779 -0.006260 0.000000 -0.002456 0.000000
# 2 -0.001779 0.010882 -0.003864 0.000000 0.001219 0.000000
# 3 -0.006260 -0.003864 0.019394 0.000000 0.004280 0.000000
# 4 0.000000 0.000000 0.000000 0.006832 0.000000 -0.009628
# 5 -0.002456 0.001219 0.004280 0.000000 0.028940 0.000000
# 6 0.000000 0.000000 0.000000 -0.009628 0.000000 0.022844
#
#
# Mechanical properties :
#
#
# Convention : Reuss Voigt Hill
#
# Bulk Modulus (GPa) = 57.10320 60.80787 58.95554
# Shear Modulus (GPa) = 38.58674 113.69935 76.14305
#
# Velocity S-wave (km/s) = 4.23160 7.26381 5.94430
# Velocity P-wave (km/s) = 7.09749 9.92819 8.62970
#
# Compressibility (1/GPa) = 0.01751215
#
# Stress axis : x y z
#
# Youngs Moduli (GPa) = 90.56399 91.89382 51.56176
#
# Poissons Ratio (x) = 0.16349 0.32277
# Poissons Ratio (y) = 0.16112 0.19924
# Poissons Ratio (z) = 0.56692 0.35508
#
# Static dielectric constant tensor:
#      x y z
#    x 4.102940 0.000000 0.041900 
#    y 0.000000 3.838330 0.000000 
#    z 0.041900 0.000000 3.764350 
# 
# 
# High freq. dielectric constant tensor:
#      x y z
#    x 1.864690 0.000000 -0.006870 
#    y 0.000000 1.856830 0.000000 
#    z -0.006870 0.000000 1.831630 
# 
# From -- ./inp_files/238938.got.cif
#   From: 2010.06.25/outbox.cif.g09.slc.cpg/sg12_120_cif.got.tgz:238938.got - 2010.06.28 00:19:55.
