data_PCOD8113898
_publ_section_title
;
Structure prediction by ZEFSAII (Michael W. Deem and Ramdas Pophale) SiO2 
 PCOD8113898
Probable space group: C 2/M
;
_chemical_formula_sum "Si O2"
_cell_formula_units_Z 64
_cell_length_a 32.715175
_cell_length_b 8.767237
_cell_length_c 20.772092
_cell_angle_alpha 90.000000
_cell_angle_beta 35.996720
_cell_angle_gamma 90.000000
_cell_volume 3501.681935
_symmetry_space_group_name_H-M "C 2/M"
_symmetry_group_IT_number 12
_symmetry_cell_setting 'monoclinic'
loop_
_space_group_symop_operation_xyz
x,y,z
-x,y,-z
-x,-y,-z
x,-y,z
1/2+x,1/2+y,z
1/2-x,1/2+y,-z
1/2-x,1/2-y,-z
1/2+x,1/2-y,z
loop_
_atom_site_type_symbol
_atom_site_label
_atom_site_fract_x
_atom_site_fract_y
_atom_site_fract_z
Si Si1 0.780450 0.180076 0.397032
Si Si2 0.571024 0.819631 0.983368
Si Si3 0.711538 0.818806 0.858906
Si Si4 0.924516 0.677873 0.519016
Si Si5 0.295452 0.679732 0.627602
Si Si6 0.417756 0.180821 0.176654
Si Si7 0.417948 0.177615 0.675169
Si Si8 0.784394 0.179961 0.893852
O O1 0.750000 0.250000 0.500000
O O2 0.735919 0.238071 0.393860
O O3 0.860622 0.231078 0.290590
O O4 0.775826 0.000000 0.406480
O O5 0.631566 0.760306 0.954058
O O6 0.587858 0.762691 0.889915
O O7 0.571606 0.000000 0.978879
O O8 0.494408 0.769034 0.104915
O O9 0.755161 0.760272 0.742159
O O10 0.743819 0.752527 0.883338
O O11 0.714528 0.000000 0.856885
O O12 0.908216 0.500000 0.530889
O O13 0.876282 0.775656 0.532815
O O14 0.910500 0.727862 0.610420
O O15 0.004350 0.713099 0.399039
O O16 0.287328 0.500000 0.628259
O O17 0.405479 0.000000 0.198720
O O18 0.365055 0.273147 0.786410
O O19 0.401032 0.000000 0.704293
O O20 0.778170 0.000000 0.905676
O O21 0.750000 0.250000 0.000000
#
# Coordination Sequence:
#
# PCOD8113898 Si02
#       8
#     8   8   8   8   8   8   8   8
#     4  12  25  40  57  80 113 152 188 229 280 336
#     4   8  14  28  55  85 110 138 177 222 269 327
#     4   9  17  31  54  83 110 139 182 228 272 324
#     4   9  18  33  55  84 115 145 183 230 281 330
#     4  11  20  35  59  86 113 141 184 237 278 330
#     4   9  16  31  57  84 109 141 179 222 273 329
#     4   9  18  34  55  80 113 150 186 229 277 333
#     4  11  22  36  54  79 111 151 191 233 283 336
#
# _framework density 18.276931000000001
#
# number of rings (size 3 to 8) (size 9 to 14) (size 15 to 20)
#    0.000    2.250    2.500    3.375    0.000    0.500 
#    0.000    3.750    0.000    6.000    0.000    0.000 
#    0.000    0.000    0.000    0.000    0.000    0.000 
#
# Total GULP energy -396738.766883 kJ/mol
# GULP energy per Si atom -12398.086465 kJ/mol
# Density = 1.823533 g / cm^3
# Si number density = 18.276931 Si / 1000 Ang^3
#
#
#
# Elastic Constant Matrix: (Units=GPa)
#
#
# Indices 1 2 3 4 5 6 
#
# 1 120.4700 39.4969 76.4802 0.0016 -11.3693 0.0003
# 2 39.4969 73.6465 51.3451 0.0400 -0.9284 -0.0195
# 3 76.4802 51.3451 147.6402 0.0182 -7.7940 -0.0096
# 4 0.0016 0.0400 0.0182 30.2218 -0.0047 -3.0849
# 5 -11.3693 -0.9284 -7.7940 -0.0047 32.7367 0.0007
# 6 0.0003 -0.0195 -0.0096 -3.0849 0.0007 25.5250
#
#
#
# Elastic Compliance Matrix: (Units=1/GPa)
#
#
# Indices 1 2 3 4 5 6 
#
# 1 0.013156 -0.003143 -0.005555 0.000007 0.003157 -0.000004
# 2 -0.003143 0.018707 -0.004970 -0.000021 -0.001744 0.000010
# 3 -0.005555 -0.004970 0.011414 0.000000 0.000647 0.000001
# 4 0.000007 -0.000021 0.000000 0.033502 0.000007 0.004049
# 5 0.003157 -0.001744 0.000647 0.000007 0.031748 -0.000001
# 6 -0.000004 0.000010 0.000001 0.004049 -0.000001 0.039667
#
#
# Mechanical properties :
#
#
# Convention : Reuss Voigt Hill
#
# Bulk Modulus (GPa) = 62.73343 75.15568 68.94456
# Shear Modulus (GPa) = 27.64848 29.32569 28.48708
#
# Velocity S-wave (km/s) = 3.89363 4.00999 3.95224
# Velocity P-wave (km/s) = 7.39000 7.91516 7.65709
#
# Compressibility (1/GPa) = 0.01594047
#
# Stress axis : x y z
#
# Youngs Moduli (GPa) = 76.01107 53.45692 87.61532
#
# Poissons Ratio (x) = 0.16800 0.48674
# Poissons Ratio (y) = 0.23888 0.43543
# Poissons Ratio (z) = 0.42227 0.26567
#
# Static dielectric constant tensor:
#      x y z
#    x 2.746740 -0.000070 -0.283590 
#    y -0.000070 3.099320 0.000010 
#    z -0.283590 0.000010 3.376810 
# 
# 
# High freq. dielectric constant tensor:
#      x y z
#    x 1.707710 0.000000 -0.023330 
#    y 0.000000 1.685400 0.000000 
#    z -0.023330 0.000000 1.702760 
# 
# From -- ./inp_files/295444.got.cif
#   From: 2010.06.25/outbox.cif.g09.slc.cpg/sg12_148_cif.got.tgz:295444.got - 2010.06.28 00:19:55.
