data_PCOD8113717
_publ_section_title
;
Structure prediction by ZEFSAII (Michael W. Deem and Ramdas Pophale) SiO2 
 PCOD8113717
Probable space group: C 2/M
;
_chemical_formula_sum "Si O2"
_cell_formula_units_Z 44
_cell_length_a 21.257594
_cell_length_b 16.250194
_cell_length_c 6.571396
_cell_angle_alpha 90.000000
_cell_angle_beta 81.357420
_cell_angle_gamma 90.000000
_cell_volume 2244.247047
_symmetry_space_group_name_H-M "C 2/M"
_symmetry_group_IT_number 12
_symmetry_cell_setting 'monoclinic'
loop_
_space_group_symop_operation_xyz
x,y,z
-x,y,-z
-x,-y,-z
x,-y,z
1/2+x,1/2+y,z
1/2-x,1/2+y,-z
1/2-x,1/2-y,-z
1/2+x,1/2-y,z
loop_
_atom_site_type_symbol
_atom_site_label
_atom_site_fract_x
_atom_site_fract_y
_atom_site_fract_z
Si Si1 0.330337 0.657476 0.542872
Si Si2 0.195979 0.404028 0.482772
Si Si3 0.381895 0.782245 0.227875
Si Si4 0.000000 0.207681 0.000000
Si Si5 0.051145 0.093004 0.311171
Si Si6 0.809012 0.706307 0.869941
O O1 0.260325 0.618176 0.575439
O O2 0.348056 0.696061 0.313250
O O3 0.380792 0.592607 0.606543
O O4 0.336837 0.734423 0.687102
O O5 0.182159 0.500000 0.503177
O O6 0.135530 0.356654 0.610336
O O7 0.206612 0.378834 0.241064
O O8 0.457384 0.764721 0.170520
O O9 0.360524 0.811574 0.015975
O O10 0.953098 0.151167 0.885192
O O11 0.000000 0.123899 0.500000
O O12 0.037259 0.000000 0.246423
O O13 0.750000 0.750000 0.000000
#
# Coordination Sequence:
#
# PCOD8113717 Si02
#       6
#     8   8   8   4   8   8
#     4  11  20  38  63  90 122 159 196 241 303 367
#     4  11  24  39  61  94 125 152 195 260 312 347
#     4  11  22  39  63  87 120 160 210 244 290 362
#     4  12  23  40  63  86 118 176 212 236 287 358
#     4  11  23  37  56  89 129 158 194 246 296 354
#     4  11  19  38  62  86 118 158 198 241 295 366
#
# _framework density 19.605685000000001
#
# number of rings (size 3 to 8) (size 9 to 14) (size 15 to 20)
#    0.000    0.909    7.273    1.909    0.000    0.727 
#    0.000    2.273    0.000    1.091    0.000    0.000 
#    0.000    0.000    0.000    0.000    0.000    0.000 
#
# Total GULP energy -272711.037236 kJ/mol
# GULP energy per Si atom -12395.956238 kJ/mol
# Density = 1.956106 g / cm^3
# Si number density = 19.605685 Si / 1000 Ang^3
#
#
#
# Elastic Constant Matrix: (Units=GPa)
#
#
# Indices 1 2 3 4 5 6 
#
# 1 81.5956 40.1086 34.1562 0.0000 -8.1178 0.0000
# 2 40.1086 115.7053 46.5105 0.0000 -7.4522 0.0000
# 3 34.1562 46.5105 97.2316 0.0000 1.7904 0.0000
# 4 0.0000 0.0000 0.0000 27.3138 0.0000 0.9843
# 5 -8.1178 -7.4522 1.7904 0.0000 42.3463 0.0000
# 6 0.0000 0.0000 0.0000 0.9843 0.0000 23.1164
#
#
#
# Elastic Compliance Matrix: (Units=1/GPa)
#
#
# Indices 1 2 3 4 5 6 
#
# 1 0.016002 -0.003843 -0.003830 0.000000 0.002553 0.000000
# 2 -0.003843 0.011813 -0.004329 0.000000 0.001525 0.000000
# 3 -0.003830 -0.004329 0.013739 0.000000 -0.002077 0.000000
# 4 0.000000 0.000000 0.000000 0.036668 0.000000 -0.001561
# 5 0.002553 0.001525 -0.002077 0.000000 0.024460 0.000000
# 6 0.000000 0.000000 0.000000 -0.001561 0.000000 0.043326
#
#
# Mechanical properties :
#
#
# Convention : Reuss Voigt Hill
#
# Bulk Modulus (GPa) = 56.97867 59.56477 58.27172
# Shear Modulus (GPa) = 28.43140 30.13912 29.28526
#
# Velocity S-wave (km/s) = 3.81223 3.92505 3.86905
# Velocity P-wave (km/s) = 6.96440 7.14064 7.05307
#
# Compressibility (1/GPa) = 0.01755043
#
# Stress axis : x y z
#
# Youngs Moduli (GPa) = 62.49280 84.65166 72.78495
#
# Poissons Ratio (x) = 0.32531 0.27877
# Poissons Ratio (y) = 0.24016 0.31508
# Poissons Ratio (z) = 0.23935 0.36645
#
# Static dielectric constant tensor:
#      x y z
#    x 3.521890 0.000000 0.005920 
#    y 0.000000 3.392320 0.000000 
#    z 0.005920 0.000000 2.878080 
# 
# 
# High freq. dielectric constant tensor:
#      x y z
#    x 1.752410 0.000000 0.000180 
#    y 0.000000 1.738170 0.000000 
#    z 0.000180 0.000000 1.776950 
# 
# From -- ./inp_files/20430.got.cif
#   From: 2010.06.25/outbox.cif.g09.slc.cpg/sg12_11_cif.got.tgz:20430.got - 2010.06.28 00:19:55.
