data_PCOD8113031
_publ_section_title
;
Structure prediction by ZEFSAII (Michael W. Deem and Ramdas Pophale) SiO2 
 PCOD8113031
Probable space group: C 2/M
;
_chemical_formula_sum "Si O2"
_cell_formula_units_Z 56
_cell_length_a 23.264094
_cell_length_b 10.220213
_cell_length_c 12.915319
_cell_angle_alpha 90.000000
_cell_angle_beta 104.332568
_cell_angle_gamma 90.000000
_cell_volume 2975.219811
_symmetry_space_group_name_H-M "C 2/M"
_symmetry_group_IT_number 12
_symmetry_cell_setting 'monoclinic'
loop_
_space_group_symop_operation_xyz
x,y,z
-x,y,-z
-x,-y,-z
x,-y,z
1/2+x,1/2+y,z
1/2-x,1/2+y,-z
1/2-x,1/2-y,-z
1/2+x,1/2-y,z
loop_
_atom_site_type_symbol
_atom_site_label
_atom_site_fract_x
_atom_site_fract_y
_atom_site_fract_z
Si Si1 0.283920 0.149624 0.210832
Si Si2 0.805496 0.350429 0.914733
Si Si3 0.576319 0.500000 0.121205
Si Si4 0.775737 0.152967 0.596498
Si Si5 0.611105 0.229196 0.860866
Si Si6 0.553213 0.500000 0.872860
Si Si7 0.623651 0.747259 0.229338
Si Si8 0.007334 0.356367 0.116936
O O1 0.249565 0.250839 0.120679
O O2 0.265898 0.167366 0.321704
O O3 0.353546 0.186599 0.227137
O O4 0.272386 0.000000 0.169768
O O5 0.784666 0.500000 0.928892
O O6 0.841143 0.354768 0.821919
O O7 0.846530 0.294014 0.022880
O O8 0.518885 0.500000 0.174505
O O9 0.621316 0.618290 0.158839
O O10 0.557498 0.500000 0.996248
O O11 0.750000 0.250000 0.500000
O O12 0.841906 0.209116 0.649821
O O13 0.778151 0.000000 0.561247
O O14 0.585940 0.375715 0.838135
O O15 0.554106 0.136878 0.849503
O O16 0.555411 0.790380 0.214891
O O17 0.031090 0.500000 0.102187
O O18 0.000000 0.283222 0.000000
#
# Coordination Sequence:
#
# PCOD8113031 Si02
#       8
#     8   8   4   8   8   4   8   8
#     4  10  24  41  58  80 112 154 193 238 293 346
#     4  11  22  34  53  81 117 159 198 236 274 332
#     4  11  18  36  52  85 119 159 199 223 272 336
#     4  10  23  43  67  87 108 142 190 249 305 352
#     4  12  22  34  52  80 123 158 198 229 277 337
#     4  11  22  30  56  85 121 171 195 223 265 341
#     4  11  20  35  58  85 118 151 193 241 285 339
#     4  11  20  32  52  84 123 162 195 233 274 327
#
# _framework density 18.822137999999999
#
# number of rings (size 3 to 8) (size 9 to 14) (size 15 to 20)
#    0.000    1.143    5.000    2.143    3.000    2.857 
#    0.000    0.000    0.000    0.857    0.000    5.000 
#    0.000    0.000    0.000    0.000    0.000    0.000 
#
# Total GULP energy -346939.838889 kJ/mol
# GULP energy per Si atom -12390.708532 kJ/mol
# Density = 1.877930 g / cm^3
# Si number density = 18.822138 Si / 1000 Ang^3
#
#
#
# Elastic Constant Matrix: (Units=GPa)
#
#
# Indices 1 2 3 4 5 6 
#
# 1 117.0574 30.4429 38.1659 0.0000 10.9710 0.0000
# 2 30.4429 117.9632 37.5129 0.0000 7.6212 0.0000
# 3 38.1659 37.5129 77.4978 0.0000 17.5061 0.0000
# 4 0.0000 0.0000 0.0000 25.7241 0.0000 4.7525
# 5 10.9710 7.6212 17.5061 0.0000 20.9210 0.0000
# 6 0.0000 0.0000 0.0000 4.7525 0.0000 37.1962
#
#
#
# Elastic Compliance Matrix: (Units=1/GPa)
#
#
# Indices 1 2 3 4 5 6 
#
# 1 0.010366 -0.001256 -0.004158 0.000000 -0.001499 0.000000
# 2 -0.001256 0.010176 -0.004462 0.000000 0.000685 0.000000
# 3 -0.004158 -0.004462 0.020039 0.000000 -0.012962 0.000000
# 4 0.000000 0.000000 0.000000 0.039814 0.000000 -0.005087
# 5 -0.001499 0.000685 -0.012962 0.000000 0.059182 0.000000
# 6 0.000000 0.000000 0.000000 -0.005087 0.000000 0.027534
#
#
# Mechanical properties :
#
#
# Convention : Reuss Voigt Hill
#
# Bulk Modulus (GPa) = 48.01116 58.30687 53.15902
# Shear Modulus (GPa) = 25.79891 30.52804 28.16348
#
# Velocity S-wave (km/s) = 3.70627 4.03168 3.87239
# Velocity P-wave (km/s) = 6.62408 7.26069 6.94968
#
# Compressibility (1/GPa) = 0.02082849
#
# Stress axis : x y z
#
# Youngs Moduli (GPa) = 96.47173 98.27050 49.90147
#
# Poissons Ratio (x) = 0.12341 0.20751
# Poissons Ratio (y) = 0.12116 0.22266
# Poissons Ratio (z) = 0.40117 0.43849
#
# Static dielectric constant tensor:
#      x y z
#    x 3.788820 0.000000 0.137440 
#    y 0.000000 3.715760 0.000000 
#    z 0.137440 0.000000 2.989170 
# 
# 
# High freq. dielectric constant tensor:
#      x y z
#    x 1.740430 0.000000 0.015390 
#    y 0.000000 1.754940 0.000000 
#    z 0.015390 0.000000 1.664830 
# 
# From -- ./inp_files/165746.got.cif
#   From: 2010.06.25/outbox.cif.g09.slc.cpg/sg12_83_cif.got.tgz:165746.got - 2010.06.28 00:19:55.
