data_PCOD8113134
_publ_section_title
;
Structure prediction by ZEFSAII (Michael W. Deem and Ramdas Pophale) SiO2 
 PCOD8113134
Probable space group: C 2/M
;
_chemical_formula_sum "Si O2"
_cell_formula_units_Z 56
_cell_length_a 31.105090
_cell_length_b 8.397073
_cell_length_c 11.839312
_cell_angle_alpha 90.000000
_cell_angle_beta 56.586149
_cell_angle_gamma 90.000000
_cell_volume 2581.213638
_symmetry_space_group_name_H-M "C 2/M"
_symmetry_group_IT_number 12
_symmetry_cell_setting 'monoclinic'
loop_
_space_group_symop_operation_xyz
x,y,z
-x,y,-z
-x,-y,-z
x,-y,z
1/2+x,1/2+y,z
1/2-x,1/2+y,-z
1/2-x,1/2-y,-z
1/2+x,1/2-y,z
loop_
_atom_site_type_symbol
_atom_site_label
_atom_site_fract_x
_atom_site_fract_y
_atom_site_fract_z
Si Si1 0.876630 0.316414 0.180174
Si Si2 0.086897 0.315961 0.628692
Si Si3 0.233700 0.815551 0.643669
Si Si4 0.692239 0.812602 0.090673
Si Si5 0.492116 0.314240 0.635591
Si Si6 0.677392 0.686317 0.351422
Si Si7 0.398482 0.312181 0.918175
O O1 0.859225 0.500000 0.204571
O O2 0.910966 0.280685 0.240751
O O3 0.826675 0.205061 0.251096
O O4 0.909684 0.272516 0.021874
O O5 0.076193 0.500000 0.618882
O O6 0.141052 0.265312 0.497112
O O7 0.041484 0.213012 0.641810
O O8 0.250000 0.750000 0.500000
O O9 0.263857 0.718711 0.696993
O O10 0.248573 0.000000 0.631606
O O11 0.666533 0.765779 0.246635
O O12 0.658620 0.731810 0.041240
O O13 0.691881 0.000000 0.073457
O O14 0.750000 0.750000 0.000000
O O15 0.500000 0.235292 0.500000
O O16 0.483255 0.500000 0.632134
O O17 0.441156 0.243429 0.769280
O O18 0.666095 0.500000 0.358313
O O19 0.403690 0.500000 0.926444
#
# Coordination Sequence:
#
# PCOD8113134 Si02
#       7
#     8   8   8   8   8   8   8
#     4  11  24  42  63  92 132 173 216 265 322 386
#     4  11  24  41  65  95 127 165 215 269 319 381
#     4  12  23  38  61  92 129 171 215 262 318 379
#     4  12  25  43  66  94 130 169 214 264 319 386
#     4  10  23  44  69  95 126 165 211 267 328 390
#     4  12  24  40  64  93 129 170 214 268 324 381
#     4  11  24  43  67  96 130 170 216 267 325 386
#
# _framework density 21.695221
#
# number of rings (size 3 to 8) (size 9 to 14) (size 15 to 20)
#    0.000    0.714    1.429    6.857    0.000    4.857 
#    0.000    2.857    0.000    0.000    0.000    0.000 
#    0.000    0.000    0.000    0.000    0.000    0.000 
#
# Total GULP energy -347410.893687 kJ/mol
# GULP energy per Si atom -12407.531917 kJ/mol
# Density = 2.164584 g / cm^3
# Si number density = 21.695221 Si / 1000 Ang^3
#
#
#
# Elastic Constant Matrix: (Units=GPa)
#
#
# Indices 1 2 3 4 5 6 
#
# 1 109.4259 9.0857 49.8753 0.0000 11.7689 0.0000
# 2 9.0857 52.5033 25.9080 0.0000 10.2113 0.0000
# 3 49.8753 25.9080 141.2554 0.0000 9.2657 0.0000
# 4 0.0000 0.0000 0.0000 34.4098 0.0000 2.9445
# 5 11.7689 10.2113 9.2657 0.0000 36.2224 0.0000
# 6 0.0000 0.0000 0.0000 2.9445 0.0000 33.7655
#
#
#
# Elastic Compliance Matrix: (Units=1/GPa)
#
#
# Indices 1 2 3 4 5 6 
#
# 1 0.011149 0.000510 -0.003848 0.000000 -0.002782 0.000000
# 2 0.000510 0.021897 -0.003845 0.000000 -0.005355 0.000000
# 3 -0.003848 -0.003845 0.009144 0.000000 -0.000005 0.000000
# 4 0.000000 0.000000 0.000000 0.029280 0.000000 -0.002553
# 5 -0.002782 -0.005355 -0.000005 0.000000 0.030022 0.000000
# 6 0.000000 0.000000 0.000000 -0.002553 0.000000 0.029839
#
#
# Mechanical properties :
#
#
# Convention : Reuss Voigt Hill
#
# Bulk Modulus (GPa) = 35.93919 52.54695 44.24307
# Shear Modulus (GPa) = 32.26423 35.43389 33.84906
#
# Velocity S-wave (km/s) = 3.86055 4.04574 3.95423
# Velocity P-wave (km/s) = 6.03931 6.78949 6.42536
#
# Compressibility (1/GPa) = 0.02782478
#
# Stress axis : x y z
#
# Youngs Moduli (GPa) = 89.69240 45.66839 109.36705
#
# Poissons Ratio (x) = -0.02331 0.42082
# Poissons Ratio (y) = -0.04578 0.42053
# Poissons Ratio (z) = 0.34511 0.17560
#
# Static dielectric constant tensor:
#      x y z
#    x 3.818260 0.000000 0.141160 
#    y 0.000000 3.852990 0.000000 
#    z 0.141160 0.000000 4.273460 
# 
# 
# High freq. dielectric constant tensor:
#      x y z
#    x 1.853430 0.000000 0.011520 
#    y 0.000000 1.854560 0.000000 
#    z 0.011520 0.000000 1.865440 
# 
# From -- ./inp_files/187208.got.cif
#   From: 2010.06.25/outbox.cif.g09.slc.cpg/sg12_94_cif.got.tgz:187208.got - 2010.06.28 00:19:55.
