data_PCOD8113883
_publ_section_title
;
Structure prediction by ZEFSAII (Michael W. Deem and Ramdas Pophale) SiO2 
 PCOD8113883
Probable space group: C 2/M
;
_chemical_formula_sum "Si O2"
_cell_formula_units_Z 48
_cell_length_a 9.738503
_cell_length_b 26.197979
_cell_length_c 16.580907
_cell_angle_alpha 90.000000
_cell_angle_beta 146.031320
_cell_angle_gamma 90.000000
_cell_volume 2363.620549
_symmetry_space_group_name_H-M "C 2/M"
_symmetry_group_IT_number 12
_symmetry_cell_setting 'monoclinic'
loop_
_space_group_symop_operation_xyz
x,y,z
-x,y,-z
-x,-y,-z
x,-y,z
1/2+x,1/2+y,z
1/2-x,1/2+y,-z
1/2-x,1/2-y,-z
1/2+x,1/2-y,z
loop_
_atom_site_type_symbol
_atom_site_label
_atom_site_fract_x
_atom_site_fract_y
_atom_site_fract_z
Si Si1 0.222689 0.108555 0.383176
Si Si2 0.830831 0.398555 0.162304
Si Si3 0.216200 0.056314 0.544749
Si Si4 0.753190 0.783105 0.839533
Si Si5 0.766223 0.223398 0.654630
Si Si6 0.531484 0.441199 0.886896
O O1 0.500000 0.089493 0.500000
O O2 0.133442 0.085280 0.423863
O O3 0.214012 0.169632 0.382055
O O4 0.031155 0.089071 0.224201
O O5 0.754177 0.340253 0.131384
O O6 0.681607 0.433937 0.151581
O O7 0.110162 0.405710 0.321433
O O8 0.781444 0.417884 0.046965
O O9 0.000000 0.046861 0.500000
O O10 0.328170 0.000000 0.578210
O O11 0.779705 0.783376 0.756725
O O12 0.498870 0.756360 0.740214
O O13 0.000000 0.757715 0.000000
O O14 0.500000 0.248025 0.500000
O O15 0.568932 0.500000 0.883408
#
# Coordination Sequence:
#
# PCOD8113883 Si02
#       6
#     8   8   8   8   8   8
#     4  11  21  40  62  91 122 157 213 260 294 363
#     4  11  20  38  60  89 124 157 203 251 302 365
#     4  11  24  40  60  90 129 164 197 248 315 376
#     4  12  23  42  64  91 127 164 208 264 314 369
#     4  11  24  42  63  92 125 165 211 260 312 375
#     4  11  20  34  63  93 118 152 203 256 303 349
#
# _framework density 20.307829000000002
#
# number of rings (size 3 to 8) (size 9 to 14) (size 15 to 20)
#    0.000    0.833    5.000    4.500    0.000    2.667 
#    0.000    0.833    0.000    3.000    0.000    0.000 
#    0.000    0.000    0.000    0.000    0.000    0.000 
#
# Total GULP energy -297545.325450 kJ/mol
# GULP energy per Si atom -12397.721894 kJ/mol
# Density = 2.026161 g / cm^3
# Si number density = 20.307829 Si / 1000 Ang^3
#
#
#
# Elastic Constant Matrix: (Units=GPa)
#
#
# Indices 1 2 3 4 5 6 
#
# 1 73.3942 36.2735 40.5866 0.0001 -3.5452 0.0001
# 2 36.2735 80.5840 30.1434 0.0001 4.6179 0.0001
# 3 40.5866 30.1434 156.8760 0.0000 -13.6587 -0.0002
# 4 0.0001 0.0001 0.0000 34.5820 0.0001 -0.6995
# 5 -3.5452 4.6179 -13.6587 0.0001 27.7373 0.0001
# 6 0.0001 0.0001 -0.0002 -0.6995 0.0001 11.9701
#
#
#
# Elastic Compliance Matrix: (Units=1/GPa)
#
#
# Indices 1 2 3 4 5 6 
#
# 1 0.019321 -0.007556 -0.003367 0.000000 0.002070 0.000000
# 2 -0.007556 0.016688 -0.001648 0.000000 -0.004556 0.000000
# 3 -0.003367 -0.001648 0.007887 0.000000 0.003728 0.000000
# 4 0.000000 0.000000 0.000000 0.028951 0.000000 0.001692
# 5 0.002070 -0.004556 0.003728 0.000000 0.038911 0.000000
# 6 0.000000 0.000000 0.000000 0.001692 0.000000 0.083641
#
#
# Mechanical properties :
#
#
# Convention : Reuss Voigt Hill
#
# Bulk Modulus (GPa) = 53.32259 58.31791 55.82025
# Shear Modulus (GPa) = 22.04648 28.44791 25.24719
#
# Velocity S-wave (km/s) = 3.29844 3.74683 3.52976
# Velocity P-wave (km/s) = 6.38909 6.89185 6.64523
#
# Compressibility (1/GPa) = 0.01875378
#
# Stress axis : x y z
#
# Youngs Moduli (GPa) = 51.75610 59.92159 126.79482
#
# Poissons Ratio (x) = 0.45280 0.42687
# Poissons Ratio (y) = 0.39109 0.20900
# Poissons Ratio (z) = 0.17424 0.09877
#
# Static dielectric constant tensor:
#      x y z
#    x 3.536870 0.000000 0.000880 
#    y 0.000000 3.712090 0.000000 
#    z 0.000880 0.000000 4.622880 
# 
# 
# High freq. dielectric constant tensor:
#      x y z
#    x 1.765430 0.000000 -0.012480 
#    y 0.000000 1.795930 0.000000 
#    z -0.012480 0.000000 1.818410 
# 
# From -- ./inp_files/200233.got.cif
#   From: 2010.06.25/outbox.cif.g09.slc.cpg/sg12_101_cif.got.tgz:200233.got - 2010.06.28 00:19:55.
