data_PCOD8113766
_publ_section_title
;
Structure prediction by ZEFSAII (Michael W. Deem and Ramdas Pophale) SiO2 
 PCOD8113766
Probable space group: C 2/M
;
_chemical_formula_sum "Si O2"
_cell_formula_units_Z 40
_cell_length_a 19.150241
_cell_length_b 9.241547
_cell_length_c 26.837890
_cell_angle_alpha 90.000000
_cell_angle_beta 28.526958
_cell_angle_gamma 90.000000
_cell_volume 2268.330453
_symmetry_space_group_name_H-M "C 2/M"
_symmetry_group_IT_number 12
_symmetry_cell_setting 'monoclinic'
loop_
_space_group_symop_operation_xyz
x,y,z
-x,y,-z
-x,-y,-z
x,-y,z
1/2+x,1/2+y,z
1/2-x,1/2+y,-z
1/2-x,1/2-y,-z
1/2+x,1/2-y,z
loop_
_atom_site_type_symbol
_atom_site_label
_atom_site_fract_x
_atom_site_fract_y
_atom_site_fract_z
Si Si1 0.317896 0.166413 0.552999
Si Si2 0.508412 0.671453 0.712209
Si Si3 0.081377 0.171661 0.339969
Si Si4 0.613705 0.669968 0.108521
Si Si5 0.302097 0.664337 0.262767
O O1 0.453339 0.266243 0.454401
O O2 0.289772 0.182176 0.629180
O O3 0.176131 0.224958 0.611783
O O4 0.353897 0.000000 0.516808
O O5 0.513942 0.500000 0.713004
O O6 0.439702 0.725523 0.703629
O O7 0.411204 0.728312 0.819434
O O8 0.236814 0.230735 0.261526
O O9 0.079523 0.000000 0.344640
O O10 0.644937 0.500000 0.088830
O O11 0.470531 0.706789 0.165729
O O12 0.750000 0.750000 0.000000
O O13 0.289903 0.500000 0.251334
#
# Coordination Sequence:
#
# PCOD8113766 Si02
#       5
#     8   8   8   8   8
#     4   9  17  32  51  67  93 136 171 190 222 279
#     4   8  17  33  50  70  97 129 161 192 235 288
#     4  11  20  29  46  74 104 128 155 197 239 274
#     4   9  18  36  58  73  89 119 161 203 240 284
#     4   9  19  34  50  69  96 131 163 190 232 289
#
# _framework density 17.634115000000001
#
# number of rings (size 3 to 8) (size 9 to 14) (size 15 to 20)
#    0.000    2.800    0.000    4.200    0.000    4.000 
#    0.000    7.000    0.000    6.000    0.000    0.000 
#    0.000    0.000    0.000    0.000    0.000    0.000 
#
# Total GULP energy -247968.848408 kJ/mol
# GULP energy per Si atom -12398.442420 kJ/mol
# Density = 1.759398 g / cm^3
# Si number density = 17.634115 Si / 1000 Ang^3
#
#
#
# Elastic Constant Matrix: (Units=GPa)
#
#
# Indices 1 2 3 4 5 6 
#
# 1 121.2323 46.3479 43.9941 -0.0009 -17.9424 0.0003
# 2 46.3479 56.3872 36.8244 0.0002 -10.1432 0.0004
# 3 43.9941 36.8244 105.3635 0.0001 -14.7039 -0.0004
# 4 -0.0009 0.0002 0.0001 31.7557 -0.0004 -3.7632
# 5 -17.9424 -10.1432 -14.7039 -0.0004 14.5452 -0.0001
# 6 0.0003 0.0004 -0.0004 -3.7632 -0.0001 28.2964
#
#
#
# Elastic Compliance Matrix: (Units=1/GPa)
#
#
# Indices 1 2 3 4 5 6 
#
# 1 0.013312 -0.008416 -0.001332 0.000001 0.009205 0.000000
# 2 -0.008416 0.029410 -0.006230 0.000000 0.003829 0.000000
# 3 -0.001332 -0.006230 0.013260 0.000000 0.007416 0.000000
# 4 0.000001 0.000000 0.000000 0.031995 0.000001 0.004255
# 5 0.009205 0.003829 0.007416 0.000001 0.090274 0.000000
# 6 0.000000 0.000000 0.000000 0.004255 0.000000 0.035906
#
#
# Mechanical properties :
#
#
# Convention : Reuss Voigt Hill
#
# Bulk Modulus (GPa) = 41.62443 59.70177 50.66310
# Shear Modulus (GPa) = 19.67566 25.30722 22.49144
#
# Velocity S-wave (km/s) = 3.34394 3.79242 3.57522
# Velocity P-wave (km/s) = 6.21007 7.28738 6.77019
#
# Compressibility (1/GPa) = 0.02402435
#
# Stress axis : x y z
#
# Youngs Moduli (GPa) = 75.12040 34.00258 75.41666
#
# Poissons Ratio (x) = 0.28616 0.10048
# Poissons Ratio (y) = 0.63220 0.46986
# Poissons Ratio (z) = 0.10009 0.21184
#
# Static dielectric constant tensor:
#      x y z
#    x 3.527790 0.000000 -0.032970 
#    y 0.000000 3.038580 0.000000 
#    z -0.032970 0.000000 3.133930 
# 
# 
# High freq. dielectric constant tensor:
#      x y z
#    x 1.690040 0.000000 -0.008250 
#    y 0.000000 1.661340 0.000000 
#    z -0.008250 0.000000 1.668280 
# 
# From -- ./inp_files/151621.got.cif
#   From: 2010.06.25/outbox.cif.g09.slc.cpg/sg12_76_cif.got.tgz:151621.got - 2010.06.28 00:19:55.
