data_PCOD8113468
_publ_section_title
;
Structure prediction by ZEFSAII (Michael W. Deem and Ramdas Pophale) SiO2 
 PCOD8113468
Probable space group: C 2/M
;
_chemical_formula_sum "Si O2"
_cell_formula_units_Z 64
_cell_length_a 14.478272
_cell_length_b 24.240582
_cell_length_c 15.457054
_cell_angle_alpha 90.000000
_cell_angle_beta 35.262239
_cell_angle_gamma 90.000000
_cell_volume 3131.863430
_symmetry_space_group_name_H-M "C 2/M"
_symmetry_group_IT_number 12
_symmetry_cell_setting 'monoclinic'
loop_
_space_group_symop_operation_xyz
x,y,z
-x,y,-z
-x,-y,-z
x,-y,z
1/2+x,1/2+y,z
1/2-x,1/2+y,-z
1/2-x,1/2-y,-z
1/2+x,1/2-y,z
loop_
_atom_site_type_symbol
_atom_site_label
_atom_site_fract_x
_atom_site_fract_y
_atom_site_fract_z
Si Si1 0.867626 0.849893 0.671505
Si Si2 0.942780 0.655552 0.185467
Si Si3 0.010088 0.064006 0.890176
Si Si4 0.733241 0.350769 0.685800
Si Si5 0.801500 0.866097 0.915655
Si Si6 0.149875 0.305664 0.576196
Si Si7 0.340342 0.772684 0.737559
Si Si8 0.569485 0.276461 0.074431
O O1 0.682461 0.865831 0.790829
O O2 0.889450 0.872302 0.753998
O O3 0.882738 0.783816 0.656356
O O4 0.000000 0.872857 0.500000
O O5 0.836810 0.651812 0.354194
O O6 0.973400 0.720841 0.161182
O O7 0.109841 0.621922 0.054000
O O8 0.874657 0.093472 0.932595
O O9 0.190879 0.084418 0.728631
O O10 0.993403 0.000000 0.882253
O O11 0.000000 0.076666 0.000000
O O12 0.797214 0.343579 0.541890
O O13 0.857041 0.323902 0.658087
O O14 0.561663 0.323566 0.834969
O O15 0.818183 0.800809 0.932328
O O16 0.250000 0.250000 0.500000
O O17 0.966721 0.285753 0.715150
O O18 0.165001 0.769930 0.912214
#
# Coordination Sequence:
#
# PCOD8113468 Si02
#       8
#     8   8   8   8   8   8   8   8
#     4  12  25  35  56  88 136 182 211 248 301 386
#     4  12  22  36  53  85 134 176 209 251 302 380
#     4  10  24  47  75  99 119 155 221 289 338 380
#     4  11  22  35  60  89 124 168 208 259 324 377
#     4  11  23  40  62  92 121 167 216 267 324 374
#     4  12  23  34  51  85 135 177 213 250 305 383
#     4  12  21  35  52  84 133 178 217 255 305 381
#     4  11  20  34  53  81 124 171 216 253 299 377
#
# _framework density 20.435119
#
# number of rings (size 3 to 8) (size 9 to 14) (size 15 to 20)
#    0.000    0.625    5.000    5.250    5.250    0.000 
#    0.000    0.000    0.000    4.125    0.000    0.000 
#    0.000    0.000    0.000    0.000    0.000    0.000 
#
# Total GULP energy -396431.538865 kJ/mol
# GULP energy per Si atom -12388.485590 kJ/mol
# Density = 2.038861 g / cm^3
# Si number density = 20.435119 Si / 1000 Ang^3
#
#
#
# Elastic Constant Matrix: (Units=GPa)
#
#
# Indices 1 2 3 4 5 6 
#
# 1 106.9793 27.8489 32.6931 -0.0134 6.5919 0.0035
# 2 27.8489 50.3237 28.0732 0.0167 -0.2191 -0.0026
# 3 32.6931 28.0732 112.8249 -0.0373 23.4683 0.0003
# 4 -0.0134 0.0167 -0.0373 16.9021 0.0120 2.0238
# 5 6.5919 -0.2191 23.4683 0.0120 37.7706 0.0025
# 6 0.0035 -0.0026 0.0003 2.0238 0.0025 20.0177
#
#
#
# Elastic Compliance Matrix: (Units=1/GPa)
#
#
# Indices 1 2 3 4 5 6 
#
# 1 0.011320 -0.005275 -0.001780 0.000011 -0.000900 -0.000004
# 2 -0.005275 0.026142 -0.005971 -0.000048 0.004782 0.000009
# 3 -0.001780 -0.005971 0.012412 0.000038 -0.007436 -0.000004
# 4 0.000011 -0.000048 0.000038 0.059890 -0.000044 -0.006055
# 5 -0.000900 0.004782 -0.007436 -0.000044 0.031281 0.000001
# 6 -0.000004 0.000009 -0.000004 -0.006055 0.000001 0.050568
#
#
# Mechanical properties :
#
#
# Convention : Reuss Voigt Hill
#
# Bulk Modulus (GPa) = 41.97979 49.70648 45.84314
# Shear Modulus (GPa) = 22.16249 27.03891 24.60070
#
# Velocity S-wave (km/s) = 3.29679 3.64147 3.47341
# Velocity P-wave (km/s) = 5.92278 6.48516 6.21034
#
# Compressibility (1/GPa) = 0.02382098
#
# Stress axis : x y z
#
# Youngs Moduli (GPa) = 88.33561 38.25202 80.56994
#
# Poissons Ratio (x) = 0.20179 0.14345
# Poissons Ratio (y) = 0.46600 0.48107
# Poissons Ratio (z) = 0.15728 0.22840
#
# Static dielectric constant tensor:
#      x y z
#    x 4.185830 -0.000050 0.015010 
#    y -0.000050 3.209840 0.000000 
#    z 0.015010 0.000000 3.837990 
# 
# 
# High freq. dielectric constant tensor:
#      x y z
#    x 1.824880 0.000000 0.006620 
#    y 0.000000 1.713840 0.000000 
#    z 0.006620 0.000000 1.817640 
# 
# From -- ./inp_files/218921.got.cif
#   From: 2010.06.25/outbox.cif.g09.slc.cpg/sg12_110_cif.got.tgz:218921.got - 2010.06.28 00:19:55.
