data_PCOD8113437
_publ_section_title
;
Structure prediction by ZEFSAII (Michael W. Deem and Ramdas Pophale) SiO2 
 PCOD8113437
Probable space group: C 2/M
;
_chemical_formula_sum "Si O2"
_cell_formula_units_Z 32
_cell_length_a 13.817512
_cell_length_b 17.924899
_cell_length_c 5.495993
_cell_angle_alpha 90.000000
_cell_angle_beta 102.013344
_cell_angle_gamma 90.000000
_cell_volume 1331.421670
_symmetry_space_group_name_H-M "C 2/M"
_symmetry_group_IT_number 12
_symmetry_cell_setting 'monoclinic'
loop_
_space_group_symop_operation_xyz
x,y,z
-x,y,-z
-x,-y,-z
x,-y,z
1/2+x,1/2+y,z
1/2-x,1/2+y,-z
1/2-x,1/2-y,-z
1/2+x,1/2-y,z
loop_
_atom_site_type_symbol
_atom_site_label
_atom_site_fract_x
_atom_site_fract_y
_atom_site_fract_z
Si Si1 0.691158 0.311279 0.118676
Si Si2 0.939803 0.298828 0.718052
Si Si3 0.094129 0.916301 0.708746
Si Si4 0.707000 0.083457 0.494462
O O1 0.638313 0.269781 0.318145
O O2 0.772991 0.370509 0.248663
O O3 0.750000 0.250000 0.000000
O O4 0.605691 0.355203 0.926329
O O5 0.882618 0.377701 0.695244
O O6 0.000000 0.290483 0.500000
O O7 0.000000 0.295563 0.000000
O O8 0.193280 0.916395 0.605549
O O9 0.000000 0.892200 0.500000
O O10 0.077053 0.000000 0.807605
O O11 0.674281 0.000000 0.546815
#
# Coordination Sequence:
#
# PCOD8113437 Si02
#       4
#     8   8   8   8
#     4  12  25  45  76 108 151 200 252 317 380 448
#     4  12  29  48  77 115 154 202 255 315 381 452
#     4  10  24  45  73 109 148 197 251 312 386 455
#     4  11  26  48  73 106 151 199 252 314 381 456
#
# _framework density 24.034458000000001
#
# number of rings (size 3 to 8) (size 9 to 14) (size 15 to 20)
#    0.000    0.750    2.500    3.000    7.000    1.000 
#    0.000    3.750    0.000    2.250    0.000    0.000 
#    0.000    0.000    0.000    0.000    0.000    0.000 
#
# Total GULP energy -198438.811656 kJ/mol
# GULP energy per Si atom -12402.425728 kJ/mol
# Density = 2.397975 g / cm^3
# Si number density = 24.034458 Si / 1000 Ang^3
#
#
#
# Elastic Constant Matrix: (Units=GPa)
#
#
# Indices 1 2 3 4 5 6 
#
# 1 97.2696 45.1909 40.3528 0.0000 -11.3242 0.0000
# 2 45.1909 198.1676 66.7116 0.0000 2.7822 0.0000
# 3 40.3528 66.7116 119.8476 0.0000 0.6402 0.0000
# 4 0.0000 0.0000 0.0000 41.6818 0.0000 -10.9921
# 5 -11.3242 2.7822 0.6402 0.0000 39.2383 0.0000
# 6 0.0000 0.0000 0.0000 -10.9921 0.0000 -12.2695
#
#
#
# Elastic Compliance Matrix: (Units=1/GPa)
#
#
# Indices 1 2 3 4 5 6 
#
# 1 0.013008 -0.001895 -0.003346 0.000000 0.003943 0.000000
# 2 -0.001895 0.006492 -0.002970 0.000000 -0.000959 0.000000
# 3 -0.003346 -0.002970 0.011129 0.000000 -0.000937 0.000000
# 4 0.000000 0.000000 0.000000 0.019406 0.000000 -0.017386
# 5 0.003943 -0.000959 -0.000937 0.000000 0.026707 0.000000
# 6 0.000000 0.000000 0.000000 -0.017386 0.000000 -0.065927
#
#
# Mechanical properties :
#
#
# Convention : Reuss Voigt Hill
#
# Bulk Modulus (GPa) = 70.39361 79.97728 75.18545
# Shear Modulus (GPa) = 156.37788 31.26540 93.82164
#
# Velocity S-wave (km/s) = 8.07498 3.61065 6.25468
# Velocity P-wave (km/s) = 10.78390 7.12255 9.13847
#
# Compressibility (1/GPa) = 0.01420583
#
# Stress axis : x y z
#
# Youngs Moduli (GPa) = 76.87294 154.03870 89.85629
#
# Poissons Ratio (x) = 0.29198 0.30065
# Poissons Ratio (y) = 0.14571 0.26690
# Poissons Ratio (z) = 0.25721 0.45754
#
# Static dielectric constant tensor:
#      x y z
#    x 4.583130 0.000000 0.220630 
#    y 0.000000 5.006560 0.000000 
#    z 0.220630 0.000000 4.276280 
# 
# 
# High freq. dielectric constant tensor:
#      x y z
#    x 1.956410 0.000000 0.008130 
#    y 0.000000 1.977050 0.000000 
#    z 0.008130 0.000000 1.946600 
# 
# From -- ./inp_files/10149.got.cif
#   From: 2010.06.25/outbox.cif.g09.slc.cpg/sg12_6_cif.got.tgz:10149.got - 2010.06.28 00:19:55.
