data_PCOD8113859
_publ_section_title
;
Structure prediction by ZEFSAII (Michael W. Deem and Ramdas Pophale) SiO2 
 PCOD8113859
Probable space group: C 2/M
;
_chemical_formula_sum "Si O2"
_cell_formula_units_Z 64
_cell_length_a 9.081066
_cell_length_b 27.690294
_cell_length_c 14.447993
_cell_angle_alpha 90.000000
_cell_angle_beta 108.556496
_cell_angle_gamma 90.000000
_cell_volume 3444.173223
_symmetry_space_group_name_H-M "C 2/M"
_symmetry_group_IT_number 12
_symmetry_cell_setting 'monoclinic'
loop_
_space_group_symop_operation_xyz
x,y,z
-x,y,-z
-x,-y,-z
x,-y,z
1/2+x,1/2+y,z
1/2-x,1/2+y,-z
1/2-x,1/2-y,-z
1/2+x,1/2-y,z
loop_
_atom_site_type_symbol
_atom_site_label
_atom_site_fract_x
_atom_site_fract_y
_atom_site_fract_z
Si Si1 0.517994 0.802816 0.397864
Si Si2 0.480586 0.308355 0.890495
Si Si3 0.688634 0.351375 0.789941
Si Si4 0.012501 0.696686 0.106790
Si Si5 0.773715 0.446294 0.886843
Si Si6 0.873420 0.201350 0.399440
Si Si7 0.124871 0.553976 0.891705
Si Si8 0.823351 0.647284 0.208117
O O1 0.500000 0.820456 0.500000
O O2 0.699626 0.795815 0.407642
O O3 0.423431 0.752854 0.366464
O O4 0.435254 0.842853 0.317606
O O5 0.637623 0.317535 0.865449
O O6 0.438541 0.252084 0.877541
O O7 0.355959 0.340216 0.807778
O O8 0.500000 0.325687 0.000000
O O9 0.868534 0.337323 0.813844
O O10 0.666588 0.407798 0.810918
O O11 0.608363 0.338943 0.676688
O O12 0.854061 0.684615 0.128780
O O13 0.000000 0.678248 0.000000
O O14 0.705733 0.500000 0.856232
O O15 0.945769 0.442852 0.881768
O O16 0.773874 0.434396 0.996366
O O17 0.000000 0.185542 0.500000
O O18 0.164702 0.500000 0.863889
O O19 0.163294 0.591398 0.818005
#
# Coordination Sequence:
#
# PCOD8113859 Si02
#       8
#     8   8   8   8   8   8   8   8
#     4  11  23  38  59  83 111 147 190 239 285 335
#     4  11  24  34  48  80 118 155 182 220 278 339
#     4  12  22  35  56  80 111 150 190 228 282 335
#     4  11  20  34  52  76 112 147 184 220 260 339
#     4   9  17  32  56  83 109 142 188 236 277 327
#     4  11  23  38  59  83 111 147 190 239 285 335
#     4   9  17  32  56  83 109 142 188 236 277 327
#     4  12  22  35  56  80 111 150 190 228 282 335
#
# _framework density 18.582108000000002
#
# number of rings (size 3 to 8) (size 9 to 14) (size 15 to 20)
#    0.000    1.250    2.500    6.750    3.500    2.000 
#    0.000    0.625    0.000    3.000    0.000    0.000 
#    0.000    0.000    0.000    0.000    0.000    0.000 
#
# Total GULP energy -396728.401108 kJ/mol
# GULP energy per Si atom -12397.762535 kJ/mol
# Density = 1.853981 g / cm^3
# Si number density = 18.582108 Si / 1000 Ang^3
#
#
#
# Elastic Constant Matrix: (Units=GPa)
#
#
# Indices 1 2 3 4 5 6 
#
# 1 59.5916 22.3378 22.6753 0.0000 -0.9866 0.0000
# 2 22.3378 130.9015 69.8339 0.0000 1.3751 0.0000
# 3 22.6753 69.8339 111.6315 0.0000 -3.8860 0.0000
# 4 0.0000 0.0000 0.0000 33.2931 0.0000 -1.8066
# 5 -0.9866 1.3751 -3.8860 0.0000 27.1932 0.0000
# 6 0.0000 0.0000 0.0000 -1.8066 0.0000 15.4110
#
#
#
# Elastic Compliance Matrix: (Units=1/GPa)
#
#
# Indices 1 2 3 4 5 6 
#
# 1 0.018446 -0.001741 -0.002645 0.000000 0.000379 0.000000
# 2 -0.001741 0.011701 -0.007024 0.000000 -0.001659 0.000000
# 3 -0.002645 -0.007024 0.013968 0.000000 0.002255 0.000000
# 4 0.000000 0.000000 0.000000 0.030229 0.000000 0.003544
# 5 0.000379 -0.001659 0.002255 0.000000 0.037194 0.000000
# 6 0.000000 0.000000 0.000000 0.003544 0.000000 0.065304
#
#
# Mechanical properties :
#
#
# Convention : Reuss Voigt Hill
#
# Bulk Modulus (GPa) = 46.95744 59.09094 53.02419
# Shear Modulus (GPa) = 24.18275 27.66463 25.92369
#
# Velocity S-wave (km/s) = 3.61141 3.86265 3.73914
# Velocity P-wave (km/s) = 6.53565 7.19461 6.87303
#
# Compressibility (1/GPa) = 0.02129588
#
# Stress axis : x y z
#
# Youngs Moduli (GPa) = 54.21221 85.46270 71.59329
#
# Poissons Ratio (x) = 0.14878 0.18934
# Poissons Ratio (y) = 0.09437 0.50287
# Poissons Ratio (z) = 0.14337 0.60029
#
# Static dielectric constant tensor:
#      x y z
#    x 3.374130 0.000000 -0.030500 
#    y 0.000000 3.448710 0.000000 
#    z -0.030500 0.000000 3.366180 
# 
# 
# High freq. dielectric constant tensor:
#      x y z
#    x 1.723690 0.000000 -0.002780 
#    y 0.000000 1.703870 0.000000 
#    z -0.002780 0.000000 1.705570 
# 
# From -- ./inp_files/199903.got.cif
#   From: 2010.06.25/outbox.cif.g09.slc.cpg/sg12_100_cif.got.tgz:199903.got - 2010.06.28 00:19:55.
