data_PCOD8113055
_publ_section_title
;
Structure prediction by ZEFSAII (Michael W. Deem and Ramdas Pophale) SiO2 
 PCOD8113055
Probable space group: C 2/M
;
_chemical_formula_sum "Si O2"
_cell_formula_units_Z 56
_cell_length_a 29.011088
_cell_length_b 14.069158
_cell_length_c 6.410796
_cell_angle_alpha 90.000000
_cell_angle_beta 85.347839
_cell_angle_gamma 90.000000
_cell_volume 2608.019986
_symmetry_space_group_name_H-M "C 2/M"
_symmetry_group_IT_number 12
_symmetry_cell_setting 'monoclinic'
loop_
_space_group_symop_operation_xyz
x,y,z
-x,y,-z
-x,-y,-z
x,-y,z
1/2+x,1/2+y,z
1/2-x,1/2+y,-z
1/2-x,1/2-y,-z
1/2+x,1/2-y,z
loop_
_atom_site_type_symbol
_atom_site_label
_atom_site_fract_x
_atom_site_fract_y
_atom_site_fract_z
Si Si1 0.111270 0.342822 0.243996
Si Si2 0.547105 0.102915 0.598715
Si Si3 0.551938 0.748046 0.956708
Si Si4 0.213965 0.890397 0.187170
Si Si5 0.365520 0.389876 0.106828
Si Si6 0.168876 0.227880 0.524364
Si Si7 0.183029 0.393293 0.858072
O O1 0.090929 0.413042 0.426767
O O2 0.134172 0.254053 0.351829
O O3 0.063952 0.314018 0.146841
O O4 0.147547 0.384305 0.063186
O O5 0.500000 0.130191 0.500000
O O6 0.559933 0.188584 0.748183
O O7 0.541329 0.000000 0.715396
O O8 0.586230 0.659737 0.961862
O O9 0.500000 0.710240 0.000000
O O10 0.212823 0.819276 0.388392
O O11 0.265181 0.880412 0.069153
O O12 0.204763 0.000000 0.257736
O O13 0.176262 0.857644 0.029726
O O14 0.374961 0.500000 0.090146
O O15 0.352235 0.360288 0.343889
O O16 0.176820 0.318002 0.673069
O O17 0.177267 0.500000 0.766669
#
# Coordination Sequence:
#
# PCOD8113055 Si02
#       7
#     8   8   8   8   8   8   8
#     4  12  23  42  65  96 135 175 216 274 328 387
#     4  11  24  41  67  99 131 176 222 265 329 398
#     4  12  24  44  69  96 135 171 220 278 332 392
#     4  10  23  43  67  98 135 175 221 272 331 398
#     4  11  24  45  69  97 130 171 224 277 334 395
#     4  12  22  41  68  97 131 175 221 272 324 394
#     4  11  25  42  65 100 138 176 218 268 331 399
#
# _framework density 21.472225999999999
#
# number of rings (size 3 to 8) (size 9 to 14) (size 15 to 20)
#    0.000    0.714    5.714    1.286    0.000    7.429 
#    0.000    2.857    0.000    1.286    0.000    0.000 
#    0.000    0.000    0.000    0.000    0.000    0.000 
#
# Total GULP energy -346910.868305 kJ/mol
# GULP energy per Si atom -12389.673868 kJ/mol
# Density = 2.142335 g / cm^3
# Si number density = 21.472226 Si / 1000 Ang^3
#
#
#
# Elastic Constant Matrix: (Units=GPa)
#
#
# Indices 1 2 3 4 5 6 
#
# 1 154.7898 44.7596 50.1231 0.0000 -4.4350 0.0000
# 2 44.7596 90.2763 43.7674 0.0000 7.5078 0.0000
# 3 50.1231 43.7674 85.6333 0.0000 -1.9706 0.0000
# 4 0.0000 0.0000 0.0000 30.2090 0.0000 -1.2872
# 5 -4.4350 7.5078 -1.9706 0.0000 37.3468 0.0000
# 6 0.0000 0.0000 0.0000 -1.2872 0.0000 31.6696
#
#
#
# Elastic Compliance Matrix: (Units=1/GPa)
#
#
# Indices 1 2 3 4 5 6 
#
# 1 0.008392 -0.002530 -0.003588 0.000000 0.001316 0.000000
# 2 -0.002530 0.015923 -0.006746 0.000000 -0.003857 0.000000
# 3 -0.003588 -0.006746 0.017268 0.000000 0.001841 0.000000
# 4 0.000000 0.000000 0.000000 0.033160 0.000000 0.001348
# 5 0.001316 -0.003857 0.001841 0.000000 0.027805 0.000000
# 6 0.000000 0.000000 0.000000 0.001348 0.000000 0.031631
#
#
# Mechanical properties :
#
#
# Convention : Reuss Voigt Hill
#
# Bulk Modulus (GPa) = 63.07685 67.55550 65.31618
# Shear Modulus (GPa) = 30.26766 32.64838 31.45802
#
# Velocity S-wave (km/s) = 3.75856 3.90358 3.83176
# Velocity P-wave (km/s) = 6.94806 7.20051 7.07541
#
# Compressibility (1/GPa) = 0.01585368
#
# Stress axis : x y z
#
# Youngs Moduli (GPa) = 119.16505 62.80184 57.90978
#
# Poissons Ratio (x) = 0.15892 0.20779
# Poissons Ratio (y) = 0.30154 0.39066
# Poissons Ratio (z) = 0.42759 0.42366
#
# Static dielectric constant tensor:
#      x y z
#    x 4.019410 0.000000 0.014360 
#    y 0.000000 3.832800 0.000000 
#    z 0.014360 0.000000 3.921530 
# 
# 
# High freq. dielectric constant tensor:
#      x y z
#    x 1.854470 0.000000 -0.002370 
#    y 0.000000 1.842450 0.000000 
#    z -0.002370 0.000000 1.842330 
# 
# From -- ./inp_files/31511.got.cif
#   From: 2010.06.25/outbox.cif.g09.slc.cpg/sg12_16_cif.got.tgz:31511.got - 2010.06.28 00:19:55.
