data_PCOD8113558
_publ_section_title
;
Structure prediction by ZEFSAII (Michael W. Deem and Ramdas Pophale) SiO2 
 PCOD8113558
Probable space group: C 2/M
;
_chemical_formula_sum "Si O2"
_cell_formula_units_Z 40
_cell_length_a 11.316280
_cell_length_b 22.886184
_cell_length_c 7.511021
_cell_angle_alpha 90.000000
_cell_angle_beta 86.853440
_cell_angle_gamma 90.000000
_cell_volume 1942.320114
_symmetry_space_group_name_H-M "C 2/M"
_symmetry_group_IT_number 12
_symmetry_cell_setting 'monoclinic'
loop_
_space_group_symop_operation_xyz
x,y,z
-x,y,-z
-x,-y,-z
x,-y,z
1/2+x,1/2+y,z
1/2-x,1/2+y,-z
1/2-x,1/2-y,-z
1/2+x,1/2-y,z
loop_
_atom_site_type_symbol
_atom_site_label
_atom_site_fract_x
_atom_site_fract_y
_atom_site_fract_z
Si Si1 0.504263 0.124974 0.787816
Si Si2 0.636371 0.613940 0.005400
Si Si3 0.714762 0.000000 0.006118
Si Si4 0.236988 0.313342 0.286821
Si Si5 0.751622 0.178651 0.689633
Si Si6 0.970474 0.500000 0.234841
O O1 0.389665 0.158370 0.734005
O O2 0.614265 0.166407 0.737534
O O3 0.515445 0.063762 0.673454
O O4 0.500000 0.110611 0.000000
O O5 0.711363 0.556876 0.948537
O O6 0.665571 0.635763 0.202128
O O7 0.500000 0.597236 0.000000
O O8 0.667015 0.663924 0.861262
O O9 0.670360 0.000000 0.806319
O O10 0.584423 0.000000 0.097691
O O11 0.222537 0.244772 0.256213
O O12 0.283187 0.329522 0.479723
#
# Coordination Sequence:
#
# PCOD8113558 Si02
#       6
#     8   8   4   8   8   4
#     4  12  20  39  70  96 128 164 213 265 322 376
#     4  12  25  42  67  89 126 174 213 254 316 378
#     4  11  19  42  64  96 123 161 208 266 318 379
#     4  11  25  42  63  95 131 167 212 263 317 378
#     4  11  25  42  63  95 131 167 212 263 317 378
#     4  11  16  36  71  94 127 161 204 273 319 368
#
# _framework density 20.593927999999998
#
# number of rings (size 3 to 8) (size 9 to 14) (size 15 to 20)
#    0.000    0.600    8.000    1.500    2.800    0.800 
#    0.000    5.000    0.000    2.400    0.000    0.000 
#    0.000    0.000    0.000    0.000    0.000    0.000 
#
# Total GULP energy -247823.881094 kJ/mol
# GULP energy per Si atom -12391.194055 kJ/mol
# Density = 2.054706 g / cm^3
# Si number density = 20.593928 Si / 1000 Ang^3
#
#
#
# Elastic Constant Matrix: (Units=GPa)
#
#
# Indices 1 2 3 4 5 6 
#
# 1 127.6795 39.5802 13.2301 0.0000 8.4740 0.0000
# 2 39.5802 125.9623 18.4907 0.0000 20.2704 0.0000
# 3 13.2301 18.4907 76.6543 0.0000 16.5820 0.0000
# 4 0.0000 0.0000 0.0000 328.3139 0.0000 -73.9249
# 5 8.4740 20.2704 16.5820 0.0000 16.0335 0.0000
# 6 0.0000 0.0000 0.0000 -73.9249 0.0000 35.2160
#
#
#
# Elastic Compliance Matrix: (Units=1/GPa)
#
#
# Indices 1 2 3 4 5 6 
#
# 1 0.008738 -0.002533 -0.000761 0.000000 -0.000629 0.000000
# 2 -0.002533 0.010711 0.000635 0.000000 -0.012860 0.000000
# 3 -0.000761 0.000635 0.016889 0.000000 -0.017867 0.000000
# 4 0.000000 0.000000 0.000000 0.005776 0.000000 0.012125
# 5 -0.000629 -0.012860 -0.017867 0.000000 0.097439 0.000000
# 6 0.000000 0.000000 0.000000 0.012125 0.000000 0.053848
#
#
# Mechanical properties :
#
#
# Convention : Reuss Voigt Hill
#
# Bulk Modulus (GPa) = 32.23672 52.54424 42.39048
# Shear Modulus (GPa) = 23.91687 93.17902 58.54794
#
# Velocity S-wave (km/s) = 3.41156 6.73380 5.33774
# Velocity P-wave (km/s) = 5.58622 9.27516 7.65619
#
# Compressibility (1/GPa) = 0.03102053
#
# Stress axis : x y z
#
# Youngs Moduli (GPa) = 114.44472 93.36299 59.21077
#
# Poissons Ratio (x) = 0.23646 0.04506
# Poissons Ratio (y) = 0.28985 -0.03761
# Poissons Ratio (z) = 0.08710 -0.05931
#
# Static dielectric constant tensor:
#      x y z
#    x 3.738480 0.000000 0.118510 
#    y 0.000000 4.079250 0.000000 
#    z 0.118510 0.000000 3.809320 
# 
# 
# High freq. dielectric constant tensor:
#      x y z
#    x 1.806270 0.000000 0.007110 
#    y 0.000000 1.827350 0.000000 
#    z 0.007110 0.000000 1.787610 
# 
# From -- ./inp_files/49959.got.cif
#   From: 2010.06.25/outbox.cif.g09.slc.cpg/sg12_25_cif.got.tgz:49959.got - 2010.06.28 00:19:55.
