data_PCOD8113390
_publ_section_title
;
Structure prediction by ZEFSAII (Michael W. Deem and Ramdas Pophale) SiO2 
 PCOD8113390
Probable space group: C 2/M
;
_chemical_formula_sum "Si O2"
_cell_formula_units_Z 32
_cell_length_a 21.921059
_cell_length_b 14.097042
_cell_length_c 5.450979
_cell_angle_alpha 90.000000
_cell_angle_beta 125.407497
_cell_angle_gamma 90.000000
_cell_volume 1372.933008
_symmetry_space_group_name_H-M "C 2/M"
_symmetry_group_IT_number 12
_symmetry_cell_setting 'monoclinic'
loop_
_space_group_symop_operation_xyz
x,y,z
-x,y,-z
-x,-y,-z
x,-y,z
1/2+x,1/2+y,z
1/2-x,1/2+y,-z
1/2-x,1/2-y,-z
1/2+x,1/2-y,z
loop_
_atom_site_type_symbol
_atom_site_label
_atom_site_fract_x
_atom_site_fract_y
_atom_site_fract_z
Si Si1 0.955860 0.108405 0.150143
Si Si2 0.308533 0.107484 0.151727
Si Si3 0.190624 0.777347 0.161896
Si Si4 0.031299 0.392317 0.319326
O O1 0.000000 0.144123 0.500000
O O2 0.932426 0.000000 0.142241
O O3 0.882354 0.168707 0.918910
O O4 0.000000 0.118883 0.000000
O O5 0.231261 0.151066 0.068795
O O6 0.378615 0.109642 0.501298
O O7 0.293197 0.000000 0.024000
O O8 0.336040 0.175737 0.999688
O O9 0.250000 0.750000 0.500000
O O10 0.000505 0.500000 0.249480
O O11 0.000000 0.344417 0.500000
O O12 0.000000 0.340073 0.000000
#
# Coordination Sequence:
#
# PCOD8113390 Si02
#       4
#     8   8   8   8
#     4  10  24  48  79 109 143 193 249 308 367 430
#     4  10  24  44  67  98 141 191 234 292 371 439
#     4  11  26  45  68 108 141 186 242 311 364 435
#     4   9  19  37  61  92 128 172 225 270 330 420
#
# _framework density 23.307763999999999
#
# number of rings (size 3 to 8) (size 9 to 14) (size 15 to 20)
#    0.000    2.000    0.000    0.750   10.500    3.000 
#    0.000    0.000    0.000    0.750    0.000    0.000 
#    0.000    0.000    0.000    0.000    0.000    0.000 
#
# Total GULP energy -198239.213229 kJ/mol
# GULP energy per Si atom -12389.950827 kJ/mol
# Density = 2.325471 g / cm^3
# Si number density = 23.307764 Si / 1000 Ang^3
#
#
#
# Elastic Constant Matrix: (Units=GPa)
#
#
# Indices 1 2 3 4 5 6 
#
# 1 98.1526 49.8261 49.8926 0.0000 -3.2604 0.0000
# 2 49.8261 151.8037 49.9959 0.0000 16.9202 0.0000
# 3 49.8926 49.9959 161.8212 0.0000 -6.7465 0.0000
# 4 0.0000 0.0000 0.0000 28.2538 0.0000 19.3395
# 5 -3.2604 16.9202 -6.7465 0.0000 42.9617 0.0000
# 6 0.0000 0.0000 0.0000 19.3395 0.0000 18.0624
#
#
#
# Elastic Compliance Matrix: (Units=1/GPa)
#
#
# Indices 1 2 3 4 5 6 
#
# 1 0.013662 -0.003732 -0.002974 0.000000 0.002040 0.000000
# 2 -0.003732 0.008838 -0.001748 0.000000 -0.004039 0.000000
# 3 -0.002974 -0.001748 0.007707 0.000000 0.001673 0.000000
# 4 0.000000 0.000000 0.000000 0.132506 0.000000 -0.141876
# 5 0.002040 -0.004039 0.001673 0.000000 0.025285 0.000000
# 6 0.000000 0.000000 0.000000 -0.141876 0.000000 0.207271
#
#
# Mechanical properties :
#
#
# Convention : Reuss Voigt Hill
#
# Bulk Modulus (GPa) = 75.20015 79.02295 77.11155
# Shear Modulus (GPa) = 12.00158 35.32643 23.66401
#
# Velocity S-wave (km/s) = 2.27164 3.89736 3.18981
# Velocity P-wave (km/s) = 6.26215 7.36412 6.83538
#
# Compressibility (1/GPa) = 0.01329785
#
# Stress axis : x y z
#
# Youngs Moduli (GPa) = 73.19338 113.14209 129.75864
#
# Poissons Ratio (x) = 0.42226 0.38594
# Poissons Ratio (y) = 0.27317 0.22687
# Poissons Ratio (z) = 0.21770 0.19782
#
# Static dielectric constant tensor:
#      x y z
#    x 3.563520 0.000000 -0.252170 
#    y 0.000000 12.550000 0.000000 
#    z -0.252170 0.000000 4.146960 
# 
# 
# High freq. dielectric constant tensor:
#      x y z
#    x 1.920540 0.000000 0.008930 
#    y 0.000000 1.928860 0.000000 
#    z 0.008930 0.000000 1.920900 
# 
# From -- ./inp_files/14488.got.cif
#   From: 2010.06.25/outbox.cif.g09.slc.cpg/sg12_8_cif.got.tgz:14488.got - 2010.06.28 00:19:55.
