data_PCOD8113311
_publ_section_title
;
Structure prediction by ZEFSAII (Michael W. Deem and Ramdas Pophale) SiO2 
 PCOD8113311
Probable space group: C 2/M
;
_chemical_formula_sum "Si O2"
_cell_formula_units_Z 52
_cell_length_a 26.106340
_cell_length_b 11.381083
_cell_length_c 17.810435
_cell_angle_alpha 90.000000
_cell_angle_beta 152.204347
_cell_angle_gamma 90.000000
_cell_volume 2467.673563
_symmetry_space_group_name_H-M "C 2/M"
_symmetry_group_IT_number 12
_symmetry_cell_setting 'monoclinic'
loop_
_space_group_symop_operation_xyz
x,y,z
-x,y,-z
-x,-y,-z
x,-y,z
1/2+x,1/2+y,z
1/2-x,1/2+y,-z
1/2-x,1/2-y,-z
1/2+x,1/2-y,z
loop_
_atom_site_type_symbol
_atom_site_label
_atom_site_fract_x
_atom_site_fract_y
_atom_site_fract_z
Si Si1 0.795050 0.251837 0.975535
Si Si2 0.873925 0.365427 0.351472
Si Si3 0.517710 0.635478 0.239919
Si Si4 0.025980 0.500000 0.120872
Si Si5 0.843563 0.269591 0.682556
Si Si6 0.826592 0.500000 0.964159
Si Si7 0.886766 0.000000 0.399544
Si Si8 0.340029 0.277560 0.443892
O O1 0.697191 0.224489 0.790671
O O2 0.848573 0.380899 0.038314
O O3 0.750000 0.250000 0.000000
O O4 0.887999 0.155021 0.079321
O O5 0.842848 0.500000 0.292836
O O6 0.855305 0.340626 0.415545
O O7 0.000000 0.338236 0.500000
O O8 0.545414 0.500000 0.291116
O O9 0.563439 0.670844 0.215835
O O10 0.577496 0.717374 0.378969
O O11 0.094877 0.392502 0.242605
O O12 0.000000 0.500000 0.000000
O O13 0.903279 0.500000 0.991906
O O14 0.750000 0.250000 0.500000
O O15 0.786326 0.267993 0.690423
O O16 0.699977 0.500000 0.779004
O O17 0.867347 0.112564 0.426422
O O18 0.000000 0.000000 0.500000
#
# Coordination Sequence:
#
# PCOD8113311 Si02
#       8
#     8   8   8   4   8   4   4   8
#     4  12  27  44  66  98 135 177 227 285 349 416
#     4  11  25  46  66  94 134 178 225 281 348 416
#     4  11  24  43  67  98 137 176 224 284 346 410
#     4  12  24  46  74 102 146 183 231 306 353 426
#     4  10  24  42  68 103 136 180 234 282 355 422
#     4  12  26  44  70 104 132 179 233 280 353 421
#     4  12  24  40  72 104 136 169 236 290 342 416
#     4  11  22  43  68  99 131 178 226 279 337 413
#
# _framework density 21.072479000000001
#
# number of rings (size 3 to 8) (size 9 to 14) (size 15 to 20)
#    0.000    0.769    3.846    3.231    7.538    0.615 
#    5.538    0.000    0.000    2.308    0.000    0.000 
#    0.000    0.000    0.000    0.000    0.000    0.000 
#
# Total GULP energy -322275.664079 kJ/mol
# GULP energy per Si atom -12395.217849 kJ/mol
# Density = 2.102452 g / cm^3
# Si number density = 21.072479 Si / 1000 Ang^3
#
#
#
# Elastic Constant Matrix: (Units=GPa)
#
#
# Indices 1 2 3 4 5 6 
#
# 1 188.0705 51.4381 43.5380 0.0000 25.5763 0.0000
# 2 51.4381 102.3527 34.7330 0.0000 -1.3121 0.0000
# 3 43.5380 34.7330 87.9924 0.0000 9.8010 0.0000
# 4 0.0000 0.0000 0.0000 47.3627 0.0000 -91.6676
# 5 25.5763 -1.3121 9.8010 0.0000 35.7287 0.0000
# 6 0.0000 0.0000 0.0000 -91.6676 0.0000 546.2301
#
#
#
# Elastic Compliance Matrix: (Units=1/GPa)
#
#
# Indices 1 2 3 4 5 6 
#
# 1 0.007233 -0.003075 -0.001832 0.000000 -0.004788 0.000000
# 2 -0.003075 0.012688 -0.003903 0.000000 0.003738 0.000000
# 3 -0.001832 -0.003903 0.014113 0.000000 -0.002703 0.000000
# 4 0.000000 0.000000 0.000000 0.031270 0.000000 0.005248
# 5 -0.004788 0.003738 -0.002703 0.000000 0.032295 0.000000
# 6 0.000000 0.000000 0.000000 0.005248 0.000000 0.002711
#
#
# Mechanical properties :
#
#
# Convention : Reuss Voigt Hill
#
# Bulk Modulus (GPa) = 60.92303 70.87040 65.89671
# Shear Modulus (GPa) = 40.51774 142.44473 91.48124
#
# Velocity S-wave (km/s) = 4.38971 8.23069 6.59598
# Velocity P-wave (km/s) = 7.39369 11.13690 9.45244
#
# Compressibility (1/GPa) = 0.01641416
#
# Stress axis : x y z
#
# Youngs Moduli (GPa) = 138.24664 78.81528 70.85749
#
# Poissons Ratio (x) = 0.24235 0.12981
# Poissons Ratio (y) = 0.42510 0.27657
# Poissons Ratio (z) = 0.25326 0.30763
#
# Static dielectric constant tensor:
#      x y z
#    x 4.232050 0.000000 0.171460 
#    y 0.000000 4.037550 0.000000 
#    z 0.171460 0.000000 3.666650 
# 
# 
# High freq. dielectric constant tensor:
#      x y z
#    x 1.845810 0.000000 0.017050 
#    y 0.000000 1.827940 0.000000 
#    z 0.017050 0.000000 1.820280 
# 
# From -- ./inp_files/293188.got.cif
#   From: 2010.06.25/outbox.cif.g09.slc.cpg/sg12_147_cif.got.tgz:293188.got - 2010.06.28 00:19:55.
