data_PCOD8113478
_publ_section_title
;
Structure prediction by ZEFSAII (Michael W. Deem and Ramdas Pophale) SiO2 
 PCOD8113478
Probable space group: C 2/M
;
_chemical_formula_sum "Si O2"
_cell_formula_units_Z 40
_cell_length_a 9.325734
_cell_length_b 19.863964
_cell_length_c 19.024128
_cell_angle_alpha 90.000000
_cell_angle_beta 37.582165
_cell_angle_gamma 90.000000
_cell_volume 2149.370459
_symmetry_space_group_name_H-M "C 2/M"
_symmetry_group_IT_number 12
_symmetry_cell_setting 'monoclinic'
loop_
_space_group_symop_operation_xyz
x,y,z
-x,y,-z
-x,-y,-z
x,-y,z
1/2+x,1/2+y,z
1/2-x,1/2+y,-z
1/2-x,1/2-y,-z
1/2+x,1/2-y,z
loop_
_atom_site_type_symbol
_atom_site_label
_atom_site_fract_x
_atom_site_fract_y
_atom_site_fract_z
Si Si1 0.484128 0.761894 0.583929
Si Si2 0.920081 0.000000 0.221009
Si Si3 0.176145 0.000000 0.263400
Si Si4 0.000000 0.108912 0.000000
Si Si5 0.689399 0.384783 0.368668
Si Si6 0.210218 0.500000 0.037452
Si Si7 0.684189 0.872389 0.245096
O O1 0.500000 0.793913 0.500000
O O2 0.338569 0.692786 0.642505
O O3 0.353793 0.810250 0.688556
O O4 0.750000 0.750000 0.500000
O O5 0.773785 0.934446 0.256496
O O6 0.974495 0.000000 0.282559
O O7 0.168400 0.000000 0.085219
O O8 0.143557 0.067671 0.320462
O O9 0.434652 0.000000 0.129550
O O10 0.878081 0.150841 0.110833
O O11 0.786649 0.064619 0.052776
O O12 0.500000 0.405581 0.500000
O O13 0.946791 0.396275 0.299973
#
# Coordination Sequence:
#
# PCOD8113478 Si02
#       7
#     8   4   4   4   8   4   8
#     4  11  23  42  65  86 120 167 204 244 302 369
#     4  10  25  34  62  95 120 159 199 261 296 352
#     4  12  22  37  62  92 128 149 207 256 298 356
#     4   9  18  36  66  92 114 167 198 246 298 367
#     4  11  23  40  62  89 119 165 200 247 305 369
#     4   9  17  37  61  85 124 161 201 235 310 361
#     4  11  21  42  64  89 125 158 209 245 305 365
#
# _framework density 18.610101
#
# number of rings (size 3 to 8) (size 9 to 14) (size 15 to 20)
#    0.000    1.400    6.000    1.800    2.800    0.000 
#    0.000    2.500    4.400    0.000    0.000    0.000 
#    0.000    0.000    0.000    0.000    0.000    0.000 
#
# Total GULP energy -247970.654263 kJ/mol
# GULP energy per Si atom -12398.532713 kJ/mol
# Density = 1.856774 g / cm^3
# Si number density = 18.610101 Si / 1000 Ang^3
#
#
#
# Elastic Constant Matrix: (Units=GPa)
#
#
# Indices 1 2 3 4 5 6 
#
# 1 143.9315 52.2934 64.7936 -0.0029 7.6397 0.0070
# 2 52.2934 101.6211 71.5705 -0.0116 14.9331 -0.0030
# 3 64.7936 71.5705 147.3250 -0.0508 10.1110 -0.0244
# 4 -0.0029 -0.0116 -0.0508 27.3500 0.0127 -5.8942
# 5 7.6397 14.9331 10.1110 0.0127 37.2274 -0.0020
# 6 0.0070 -0.0030 -0.0244 -5.8942 -0.0020 19.5288
#
#
#
# Elastic Compliance Matrix: (Units=1/GPa)
#
#
# Indices 1 2 3 4 5 6 
#
# 1 0.009178 -0.002855 -0.002648 -0.000007 -0.000019 -0.000009
# 2 -0.002855 0.016488 -0.006461 -0.000005 -0.004273 -0.000006
# 3 -0.002648 -0.006461 0.011083 0.000022 0.000125 0.000020
# 4 -0.000007 -0.000005 0.000022 0.039107 -0.000015 0.011803
# 5 -0.000019 -0.004273 0.000125 -0.000015 0.028546 -0.000002
# 6 -0.000009 -0.000006 0.000020 0.011803 -0.000002 0.054769
#
#
# Mechanical properties :
#
#
# Convention : Reuss Voigt Hill
#
# Bulk Modulus (GPa) = 78.00212 85.57696 81.78954
# Shear Modulus (GPa) = 26.68479 30.43590 28.56035
#
# Velocity S-wave (km/s) = 3.79078 4.04846 3.92174
# Velocity P-wave (km/s) = 7.82080 8.24241 8.03437
#
# Compressibility (1/GPa) = 0.01282016
#
# Stress axis : x y z
#
# Youngs Moduli (GPa) = 108.95304 60.65031 90.23172
#
# Poissons Ratio (x) = 0.17316 0.23896
# Poissons Ratio (y) = 0.31107 0.58298
# Poissons Ratio (z) = 0.28854 0.39186
#
# Static dielectric constant tensor:
#      x y z
#    x 3.395800 -0.000250 0.000270 
#    y -0.000250 4.100060 -0.000200 
#    z 0.000270 -0.000200 3.515360 
# 
# 
# High freq. dielectric constant tensor:
#      x y z
#    x 1.732660 0.000000 0.001560 
#    y 0.000000 1.704740 0.000000 
#    z 0.001560 0.000000 1.735620 
# 
# From -- ./inp_files/120215.got.cif
#   From: 2010.06.25/outbox.cif.g09.slc.cpg/sg12_61_cif.got.tgz:120215.got - 2010.06.28 00:19:55.
