data_PCOD8113793
_publ_section_title
;
Structure prediction by ZEFSAII (Michael W. Deem and Ramdas Pophale) SiO2 
 PCOD8113793
Probable space group: C 2/M
;
_chemical_formula_sum "Si O2"
_cell_formula_units_Z 56
_cell_length_a 28.682828
_cell_length_b 8.757596
_cell_length_c 12.385325
_cell_angle_alpha 90.000000
_cell_angle_beta 96.639929
_cell_angle_gamma 90.000000
_cell_volume 3090.234283
_symmetry_space_group_name_H-M "C 2/M"
_symmetry_group_IT_number 12
_symmetry_cell_setting 'monoclinic'
loop_
_space_group_symop_operation_xyz
x,y,z
-x,y,-z
-x,-y,-z
x,-y,z
1/2+x,1/2+y,z
1/2-x,1/2+y,-z
1/2-x,1/2-y,-z
1/2+x,1/2-y,z
loop_
_atom_site_type_symbol
_atom_site_label
_atom_site_fract_x
_atom_site_fract_y
_atom_site_fract_z
Si Si1 0.635155 0.181923 0.641975
Si Si2 0.899285 0.681108 0.925849
Si Si3 0.974967 0.317815 0.777614
Si Si4 0.579865 0.182532 0.832515
Si Si5 0.824705 0.679628 0.736865
Si Si6 0.402839 0.180699 0.589240
Si Si7 0.261528 0.180170 0.387442
O O1 0.613614 0.246644 0.747445
O O2 0.603135 0.244111 0.533869
O O3 0.688215 0.240462 0.641316
O O4 0.634055 0.000000 0.642951
O O5 0.902444 0.500000 0.928029
O O6 0.944194 0.742467 0.870645
O O7 0.850584 0.729578 0.854975
O O8 0.900918 0.745945 0.047981
O O9 0.975931 0.500000 0.779358
O O10 0.950351 0.258664 0.659852
O O11 0.027462 0.252396 0.799169
O O12 0.579121 0.000000 0.831984
O O13 0.814333 0.500000 0.732350
O O14 0.857387 0.729203 0.645751
O O15 0.776034 0.769677 0.712861
O O16 0.405200 0.000000 0.587786
O O17 0.250000 0.250000 0.500000
O O18 0.262023 0.000000 0.400831
#
# Coordination Sequence:
#
# PCOD8113793 Si02
#       7
#     8   8   8   8   8   8   8
#     4   9  17  26  37  56  87 119 144 178 226 270
#     4   8  14  24  40  60  86 119 150 181 216 255
#     4   8  13  20  35  57  84 118 152 180 209 259
#     4   9  15  23  35  57  89 122 150 176 216 267
#     4   9  16  29  47  66  90 118 147 183 222 259
#     4   8  13  23  37  57  85 116 144 176 220 260
#     4  11  20  31  48  68  89 116 149 186 224 265
#
# _framework density 18.121601999999999
#
# number of rings (size 3 to 8) (size 9 to 14) (size 15 to 20)
#    0.000    3.143    1.429    2.571    0.000    2.286 
#    0.000    3.571    0.000    0.000    0.000    1.000 
#    0.000   22.857    0.000    0.000    0.000    0.000 
#
# Total GULP energy -346977.744418 kJ/mol
# GULP energy per Si atom -12392.062301 kJ/mol
# Density = 1.808036 g / cm^3
# Si number density = 18.121602 Si / 1000 Ang^3
#
#
#
# Elastic Constant Matrix: (Units=GPa)
#
#
# Indices 1 2 3 4 5 6 
#
# 1 142.1098 14.6272 104.5865 0.0000 12.2321 0.0000
# 2 14.6272 13.6099 10.2673 0.0000 1.0622 0.0000
# 3 104.5865 10.2673 175.4177 0.0000 7.1176 0.0000
# 4 0.0000 0.0000 0.0000 8.8932 0.0000 3.1376
# 5 12.2321 1.0622 7.1176 0.0000 28.7466 0.0000
# 6 0.0000 0.0000 0.0000 3.1376 0.0000 16.5212
#
#
#
# Elastic Compliance Matrix: (Units=1/GPa)
#
#
# Indices 1 2 3 4 5 6 
#
# 1 0.013855 -0.008875 -0.007591 0.000000 -0.003688 0.000000
# 2 -0.008875 0.082642 0.000430 0.000000 0.000617 0.000000
# 3 -0.007591 0.000430 0.010173 0.000000 0.000695 0.000000
# 4 0.000000 0.000000 0.000000 0.120521 0.000000 -0.022888
# 5 -0.003688 0.000617 0.000695 0.000000 0.036161 0.000000
# 6 0.000000 0.000000 0.000000 -0.022888 0.000000 0.064875
#
#
# Mechanical properties :
#
#
# Convention : Reuss Voigt Hill
#
# Bulk Modulus (GPa) = 13.40553 65.56658 39.48606
# Shear Modulus (GPa) = 12.98140 24.27598 18.62869
#
# Velocity S-wave (km/s) = 2.67937 3.66405 3.20969
# Velocity P-wave (km/s) = 4.12137 7.35937 5.96431
#
# Compressibility (1/GPa) = 0.07459606
#
# Stress axis : x y z
#
# Youngs Moduli (GPa) = 72.17865 12.10033 98.29692
#
# Poissons Ratio (x) = 0.10740 0.74619
# Poissons Ratio (y) = 0.64062 -0.04223
# Poissons Ratio (z) = 0.54792 -0.00520
#
# Static dielectric constant tensor:
#      x y z
#    x 3.578730 0.000000 0.219590 
#    y 0.000000 2.619960 0.000000 
#    z 0.219590 0.000000 3.809820 
# 
# 
# High freq. dielectric constant tensor:
#      x y z
#    x 1.703170 0.000000 0.017920 
#    y 0.000000 1.624030 0.000000 
#    z 0.017920 0.000000 1.706450 
# 
# From -- ./inp_files/181606.got.cif
#   From: 2010.06.25/outbox.cif.g09.slc.cpg/sg12_91_cif.got.tgz:181606.got - 2010.06.28 00:19:55.
