data_PCOD8113398
_publ_section_title
;
Structure prediction by ZEFSAII (Michael W. Deem and Ramdas Pophale) SiO2 
 PCOD8113398
Probable space group: C 2/M
;
_chemical_formula_sum "Si O2"
_cell_formula_units_Z 56
_cell_length_a 8.990206
_cell_length_b 20.356789
_cell_length_c 16.738296
_cell_angle_alpha 90.000000
_cell_angle_beta 125.160485
_cell_angle_gamma 90.000000
_cell_volume 2504.380814
_symmetry_space_group_name_H-M "C 2/M"
_symmetry_group_IT_number 12
_symmetry_cell_setting 'monoclinic'
loop_
_space_group_symop_operation_xyz
x,y,z
-x,y,-z
-x,-y,-z
x,-y,z
1/2+x,1/2+y,z
1/2-x,1/2+y,-z
1/2-x,1/2-y,-z
1/2+x,1/2-y,z
loop_
_atom_site_type_symbol
_atom_site_label
_atom_site_fract_x
_atom_site_fract_y
_atom_site_fract_z
Si Si1 0.673288 0.192664 0.608527
Si Si2 0.954866 0.733211 0.261124
Si Si3 0.342242 0.422182 0.570938
Si Si4 0.995195 0.607830 0.821835
Si Si5 0.343656 0.573505 0.009123
Si Si6 0.288929 0.572015 0.381088
Si Si7 0.809743 0.336613 0.903999
O O1 0.500000 0.214403 0.500000
O O2 0.625578 0.195661 0.687127
O O3 0.736915 0.118298 0.606666
O O4 0.848246 0.239659 0.650274
O O5 0.812442 0.785246 0.181868
O O6 0.975258 0.683056 0.194444
O O7 0.317933 0.500000 0.582762
O O8 0.553916 0.397493 0.628014
O O9 0.259725 0.397406 0.459974
O O10 0.902620 0.569584 0.721036
O O11 0.868018 0.606638 0.860674
O O12 0.173569 0.567959 0.897541
O O13 0.384784 0.500000 0.056050
O O14 0.500000 0.600191 0.000000
O O15 0.314194 0.627751 0.068140
O O16 0.364813 0.500000 0.422821
O O17 0.000000 0.306522 0.000000
#
# Coordination Sequence:
#
# PCOD8113398 Si02
#       7
#     8   8   8   8   8   8   8
#     4  12  26  45  67  98 139 184 231 287 338 398
#     4  12  26  45  66 101 135 183 233 277 333 403
#     4   9  20  40  67  97 133 174 225 287 343 393
#     4  11  22  40  67  97 132 175 226 269 330 405
#     4  10  24  44  69 102 136 169 212 278 346 398
#     4   9  18  37  67  98 129 174 226 277 332 405
#     4  10  24  45  70  97 132 178 223 273 331 412
#
# _framework density 22.360817000000001
#
# number of rings (size 3 to 8) (size 9 to 14) (size 15 to 20)
#    0.000    1.571    1.429    3.429    2.000    6.286 
#    0.000    2.143    0.000    0.000    0.000    0.000 
#    0.000    0.000    0.000    0.000    0.000    0.000 
#
# Total GULP energy -346914.466098 kJ/mol
# GULP energy per Si atom -12389.802361 kJ/mol
# Density = 2.230992 g / cm^3
# Si number density = 22.360817 Si / 1000 Ang^3
#
#
#
# Elastic Constant Matrix: (Units=GPa)
#
#
# Indices 1 2 3 4 5 6 
#
# 1 138.9818 50.4817 47.7810 0.0000 -17.5154 0.0000
# 2 50.4817 74.9738 28.5412 0.0000 -10.2679 0.0000
# 3 47.7810 28.5412 106.9526 0.0000 -3.8422 0.0000
# 4 0.0000 0.0000 0.0000 33.6763 0.0000 -1.4522
# 5 -17.5154 -10.2679 -3.8422 0.0000 33.1089 0.0000
# 6 0.0000 0.0000 0.0000 -1.4522 0.0000 33.4270
#
#
#
# Elastic Compliance Matrix: (Units=1/GPa)
#
#
# Indices 1 2 3 4 5 6 
#
# 1 0.010759 -0.005532 -0.003201 0.000000 0.003605 0.000000
# 2 -0.005532 0.018285 -0.002319 0.000000 0.002475 0.000000
# 3 -0.003201 -0.002319 0.011359 0.000000 -0.001094 0.000000
# 4 0.000000 0.000000 0.000000 0.029750 0.000000 0.001293
# 5 0.003605 0.002475 -0.001094 0.000000 0.032751 0.000000
# 6 0.000000 0.000000 0.000000 0.001293 0.000000 0.029972
#
#
# Mechanical properties :
#
#
# Convention : Reuss Voigt Hill
#
# Bulk Modulus (GPa) = 54.64721 63.83509 59.24115
# Shear Modulus (GPa) = 31.04028 32.98274 32.01151
#
# Velocity S-wave (km/s) = 3.72984 3.84477 3.78774
# Velocity P-wave (km/s) = 6.56055 6.95122 6.75871
#
# Compressibility (1/GPa) = 0.01829920
#
# Stress axis : x y z
#
# Youngs Moduli (GPa) = 92.94161 54.69030 88.03239
#
# Poissons Ratio (x) = 0.30257 0.28178
# Poissons Ratio (y) = 0.51419 0.20414
# Poissons Ratio (z) = 0.29750 0.12682
#
# Static dielectric constant tensor:
#      x y z
#    x 4.232800 0.000000 0.090900 
#    y 0.000000 3.809870 0.000000 
#    z 0.090900 0.000000 4.122060 
# 
# 
# High freq. dielectric constant tensor:
#      x y z
#    x 1.891210 0.000000 0.004210 
#    y 0.000000 1.864230 0.000000 
#    z 0.004210 0.000000 1.891220 
# 
# From -- ./inp_files/198974.got.cif
#   From: 2010.06.25/outbox.cif.g09.slc.cpg/sg12_100_cif.got.tgz:198974.got - 2010.06.28 00:19:55.
