data_PCOD8113374
_publ_section_title
;
Structure prediction by ZEFSAII (Michael W. Deem and Ramdas Pophale) SiO2 
 PCOD8113374
Probable space group: C 2/M
;
_chemical_formula_sum "Si O2"
_cell_formula_units_Z 48
_cell_length_a 20.206888
_cell_length_b 8.491679
_cell_length_c 20.775587
_cell_angle_alpha 90.000000
_cell_angle_beta 41.922044
_cell_angle_gamma 90.000000
_cell_volume 2381.771236
_symmetry_space_group_name_H-M "C 2/M"
_symmetry_group_IT_number 12
_symmetry_cell_setting 'monoclinic'
loop_
_space_group_symop_operation_xyz
x,y,z
-x,y,-z
-x,-y,-z
x,-y,z
1/2+x,1/2+y,z
1/2-x,1/2+y,-z
1/2-x,1/2-y,-z
1/2+x,1/2-y,z
loop_
_atom_site_type_symbol
_atom_site_label
_atom_site_fract_x
_atom_site_fract_y
_atom_site_fract_z
Si Si1 0.007252 0.318585 0.821644
Si Si2 0.719092 0.682302 0.688714
Si Si3 0.414802 0.682814 0.012487
Si Si4 0.232929 0.182020 0.210720
Si Si5 0.173175 0.814832 0.504241
Si Si6 0.532938 0.683403 0.283901
O O1 0.991023 0.500000 0.850987
O O2 0.123338 0.281158 0.737797
O O3 0.962139 0.283676 0.784624
O O4 0.949806 0.212957 0.914820
O O5 0.693645 0.500000 0.697363
O O6 0.749287 0.711168 0.740068
O O7 0.808960 0.733608 0.577581
O O8 0.390208 0.500000 0.039761
O O9 0.316875 0.783682 0.097128
O O10 0.500000 0.737903 0.000000
O O11 0.127580 0.228458 0.257619
O O12 0.236078 0.000000 0.228805
O O13 0.250000 0.750000 0.500000
O O14 0.062923 0.769610 0.605480
O O15 0.187256 0.000000 0.487012
O O16 0.531181 0.500000 0.266529
#
# Coordination Sequence:
#
# PCOD8113374 Si02
#       6
#     8   8   8   8   8   8
#     4  12  24  39  66  96 124 164 214 261 308 376
#     4  12  24  40  63  93 129 167 210 262 314 370
#     4  11  23  40  65  94 127 166 207 257 315 374
#     4  11  24  43  66  94 127 166 211 260 314 373
#     4  11  22  39  65  95 126 166 212 261 313 371
#     4  10  24  44  65  92 131 167 204 261 321 371
#
# _framework density 20.15307
#
# number of rings (size 3 to 8) (size 9 to 14) (size 15 to 20)
#    0.000    0.833    3.333    4.500    0.000    4.000 
#    0.000    3.333    0.000    0.000    0.000    0.000 
#    0.000    0.000    0.000    0.000    0.000    0.000 
#
# Total GULP energy -297811.353988 kJ/mol
# GULP energy per Si atom -12408.806416 kJ/mol
# Density = 2.010720 g / cm^3
# Si number density = 20.153070 Si / 1000 Ang^3
#
#
#
# Elastic Constant Matrix: (Units=GPa)
#
#
# Indices 1 2 3 4 5 6 
#
# 1 70.5758 24.7111 28.8901 -0.0005 -10.9570 0.0004
# 2 24.7111 66.0205 16.7323 -0.0012 -2.3575 0.0013
# 3 28.8901 16.7323 117.8391 -0.0004 -0.5192 0.0004
# 4 -0.0005 -0.0012 -0.0004 34.2792 0.0002 6.4217
# 5 -10.9570 -2.3575 -0.5192 0.0002 40.0840 -0.0002
# 6 0.0004 0.0013 0.0004 6.4217 -0.0002 30.9005
#
#
#
# Elastic Compliance Matrix: (Units=1/GPa)
#
#
# Indices 1 2 3 4 5 6 
#
# 1 0.018425 -0.005799 -0.003673 0.000000 0.004648 0.000000
# 2 -0.005799 0.017570 -0.001075 0.000001 -0.000566 -0.000001
# 3 -0.003673 -0.001075 0.009535 0.000000 -0.000944 0.000000
# 4 0.000000 0.000001 0.000000 0.030354 0.000000 -0.006308
# 5 0.004648 -0.000566 -0.000944 0.000000 0.026173 0.000000
# 6 0.000000 -0.000001 0.000000 -0.006308 0.000000 0.033673
#
#
# Mechanical properties :
#
#
# Convention : Reuss Voigt Hill
#
# Bulk Modulus (GPa) = 40.92687 43.90027 42.41357
# Shear Modulus (GPa) = 30.30844 33.32618 31.81731
#
# Velocity S-wave (km/s) = 3.88224 4.07092 3.97770
# Velocity P-wave (km/s) = 6.35986 6.62777 6.49519
#
# Compressibility (1/GPa) = 0.02443383
#
# Stress axis : x y z
#
# Youngs Moduli (GPa) = 54.27414 56.91557 104.87407
#
# Poissons Ratio (x) = 0.33008 0.38523
# Poissons Ratio (y) = 0.31476 0.11279
# Poissons Ratio (z) = 0.19936 0.06121
#
# Static dielectric constant tensor:
#      x y z
#    x 3.603560 0.000000 -0.022220 
#    y 0.000000 3.707910 0.000000 
#    z -0.022220 0.000000 3.919650 
# 
# 
# High freq. dielectric constant tensor:
#      x y z
#    x 1.781870 0.000000 0.005430 
#    y 0.000000 1.795110 0.000000 
#    z 0.005430 0.000000 1.801030 
# 
# From -- ./inp_files/319544.got.cif
#   From: 2010.06.25/outbox.cif.g09.slc.cpg/sg12_160_cif.got.tgz:319544.got - 2010.06.28 00:19:55.
