data_PCOD8113247
_publ_section_title
;
Structure prediction by ZEFSAII (Michael W. Deem and Ramdas Pophale) SiO2 
 PCOD8113247
Probable space group: C 2/M
;
_chemical_formula_sum "Si O2"
_cell_formula_units_Z 56
_cell_length_a 14.249731
_cell_length_b 28.107567
_cell_length_c 8.723716
_cell_angle_alpha 90.000000
_cell_angle_beta 125.328856
_cell_angle_gamma 90.000000
_cell_volume 2850.623573
_symmetry_space_group_name_H-M "C 2/M"
_symmetry_group_IT_number 12
_symmetry_cell_setting 'monoclinic'
loop_
_space_group_symop_operation_xyz
x,y,z
-x,y,-z
-x,-y,-z
x,-y,z
1/2+x,1/2+y,z
1/2-x,1/2+y,-z
1/2-x,1/2-y,-z
1/2+x,1/2-y,z
loop_
_atom_site_type_symbol
_atom_site_label
_atom_site_fract_x
_atom_site_fract_y
_atom_site_fract_z
Si Si1 0.395710 0.773928 0.295302
Si Si2 0.258767 0.357877 0.973450
Si Si3 0.931395 0.446528 0.673303
Si Si4 0.481295 0.699171 0.162683
Si Si5 0.297254 0.292279 0.446893
Si Si6 0.625016 0.136604 0.157452
Si Si7 0.672935 0.946197 0.747784
O O1 0.500000 0.792641 0.500000
O O2 0.311617 0.817627 0.185737
O O3 0.442015 0.752078 0.179427
O O4 0.331741 0.729092 0.314266
O O5 0.266274 0.406787 0.883835
O O6 0.388444 0.340726 0.118145
O O7 0.201535 0.370555 0.080202
O O8 0.930513 0.500000 0.736624
O O9 0.893995 0.413722 0.778284
O O10 0.843632 0.441802 0.449579
O O11 0.057213 0.432858 0.730556
O O12 0.595606 0.683801 0.363312
O O13 0.500000 0.701763 0.000000
O O14 0.250000 0.250000 0.500000
O O15 0.193439 0.329302 0.336888
O O16 0.500000 0.158827 0.000000
O O17 0.713056 0.000000 0.826415
#
# Coordination Sequence:
#
# PCOD8113247 Si02
#       7
#     8   8   8   8   8   8   8
#     4  10  24  40  58  87 128 165 206 260 308 370
#     4  12  24  38  64  94 126 164 215 262 308 375
#     4   9  20  39  62  92 129 163 198 256 326 384
#     4  11  25  43  63  87 123 173 217 261 306 368
#     4  11  26  42  61  87 127 175 209 259 314 366
#     4  12  26  37  61  98 128 162 205 257 314 384
#     4   9  20  39  62  91 127 163 206 257 316 380
#
# _framework density 19.644824
#
# number of rings (size 3 to 8) (size 9 to 14) (size 15 to 20)
#    0.000    1.429    2.857    2.143   12.000    0.857 
#    0.000    0.000    0.000    1.286    0.000    2.000 
#    0.000    0.000    0.000    0.000    0.000    0.000 
#
# Total GULP energy -347236.340368 kJ/mol
# GULP energy per Si atom -12401.297870 kJ/mol
# Density = 1.960011 g / cm^3
# Si number density = 19.644824 Si / 1000 Ang^3
#
#
#
# Elastic Constant Matrix: (Units=GPa)
#
#
# Indices 1 2 3 4 5 6 
#
# 1 95.4321 36.8628 55.7800 0.0000 -1.6323 0.0000
# 2 36.8628 114.3984 74.1283 0.0000 12.6675 0.0000
# 3 55.7800 74.1283 117.9899 0.0000 12.2257 0.0000
# 4 0.0000 0.0000 0.0000 26.8976 0.0000 -3.6900
# 5 -1.6323 12.6675 12.2257 0.0000 40.2776 0.0000
# 6 0.0000 0.0000 0.0000 -3.6900 0.0000 25.9195
#
#
#
# Elastic Compliance Matrix: (Units=1/GPa)
#
#
# Indices 1 2 3 4 5 6 
#
# 1 0.014806 -0.000610 -0.006916 0.000000 0.002891 0.000000
# 2 -0.000610 0.014908 -0.008869 0.000000 -0.002021 0.000000
# 3 -0.006916 -0.008869 0.017611 0.000000 -0.002837 0.000000
# 4 0.000000 0.000000 0.000000 0.037919 0.000000 0.005398
# 5 0.002891 -0.002021 -0.002837 0.000000 0.026442 0.000000
# 6 0.000000 0.000000 0.000000 0.005398 0.000000 0.039349
#
#
# Mechanical properties :
#
#
# Convention : Reuss Voigt Hill
#
# Bulk Modulus (GPa) = 68.79351 73.48476 71.13913
# Shear Modulus (GPa) = 26.50139 29.35557 27.92848
#
# Velocity S-wave (km/s) = 3.67689 3.86983 3.77460
# Velocity P-wave (km/s) = 7.28840 7.57993 7.43559
#
# Compressibility (1/GPa) = 0.01453626
#
# Stress axis : x y z
#
# Youngs Moduli (GPa) = 67.53987 67.07604 56.78342
#
# Poissons Ratio (x) = 0.04088 0.39273
# Poissons Ratio (y) = 0.04117 0.50360
# Poissons Ratio (z) = 0.46712 0.59488
#
# Static dielectric constant tensor:
#      x y z
#    x 5.803410 0.000000 2.580830 
#    y 0.000000 3.750290 0.000000 
#    z 2.580830 0.000000 6.221710 
# 
# 
# High freq. dielectric constant tensor:
#      x y z
#    x 1.757990 0.000000 -0.015020 
#    y 0.000000 1.754520 0.000000 
#    z -0.015020 0.000000 1.772920 
# 
# From -- ./inp_files/68319.got.cif
#   From: 2010.06.25/outbox.cif.g09.slc.cpg/sg12_35_cif.got.tgz:68319.got - 2010.06.28 00:19:55.
