data_PCOD8113791
_publ_section_title
;
Structure prediction by ZEFSAII (Michael W. Deem and Ramdas Pophale) SiO2 
 PCOD8113791
Probable space group: C 2/M
;
_chemical_formula_sum "Si O2"
_cell_formula_units_Z 40
_cell_length_a 19.439229
_cell_length_b 7.945116
_cell_length_c 15.306742
_cell_angle_alpha 90.000000
_cell_angle_beta 108.403998
_cell_angle_gamma 90.000000
_cell_volume 2243.166062
_symmetry_space_group_name_H-M "C 2/M"
_symmetry_group_IT_number 12
_symmetry_cell_setting 'monoclinic'
loop_
_space_group_symop_operation_xyz
x,y,z
-x,y,-z
-x,-y,-z
x,-y,z
1/2+x,1/2+y,z
1/2-x,1/2+y,-z
1/2-x,1/2-y,-z
1/2+x,1/2-y,z
loop_
_atom_site_type_symbol
_atom_site_label
_atom_site_fract_x
_atom_site_fract_y
_atom_site_fract_z
Si Si1 0.684147 0.809106 0.915235
Si Si2 0.135648 0.816399 0.718469
Si Si3 0.056666 0.500000 0.396076
Si Si4 0.108006 0.500000 0.605045
Si Si5 0.027399 0.813492 0.280867
Si Si6 0.464209 0.695964 0.074452
O O1 0.682865 0.703655 0.825135
O O2 0.610053 0.794762 0.939937
O O3 0.695375 0.000000 0.891374
O O4 0.750000 0.750000 0.000000
O O5 0.150297 0.667101 0.655049
O O6 0.052170 0.812750 0.711013
O O7 0.154704 0.000000 0.684967
O O8 0.108936 0.500000 0.500673
O O9 0.074357 0.667984 0.346742
O O10 0.973209 0.500000 0.390922
O O11 0.021443 0.771832 0.175562
O O12 0.062447 0.000000 0.309290
O O13 0.444316 0.500000 0.059774
O O14 0.500000 0.763919 0.000000
#
# Coordination Sequence:
#
# PCOD8113791 Si02
#       6
#     8   8   4   4   8   8
#     4  11  20  31  47  69  96 129 165 197 235 286
#     4   9  16  28  42  59  86 119 153 187 235 280
#     4   9  16  24  39  58  86 116 155 188 229 280
#     4   9  16  26  38  60  84 118 151 192 231 278
#     4   8  15  26  40  59  86 120 152 185 230 279
#     4   9  18  32  48  68  96 131 163 196 240 284
#
# _framework density 17.831938000000001
#
# number of rings (size 3 to 8) (size 9 to 14) (size 15 to 20)
#    0.000    2.800    1.000    3.000    4.200    1.200 
#    0.000    4.000    0.000    0.000    0.000    0.000 
#    0.000    1.600    0.800    0.000    0.000    0.000 
#
# Total GULP energy -247899.382408 kJ/mol
# GULP energy per Si atom -12394.969120 kJ/mol
# Density = 1.779135 g / cm^3
# Si number density = 17.831938 Si / 1000 Ang^3
#
#
#
# Elastic Constant Matrix: (Units=GPa)
#
#
# Indices 1 2 3 4 5 6 
#
# 1 17.2720 15.8199 26.5107 0.0000 -2.5758 0.0000
# 2 15.8199 154.1630 79.6920 0.0000 -4.1895 0.0000
# 3 26.5107 79.6920 139.6441 0.0000 -6.4376 0.0000
# 4 0.0000 0.0000 0.0000 31.4886 0.0000 -0.2151
# 5 -2.5758 -4.1895 -6.4376 0.0000 17.7596 0.0000
# 6 0.0000 0.0000 0.0000 -0.2151 0.0000 11.5816
#
#
#
# Elastic Compliance Matrix: (Units=1/GPa)
#
#
# Indices 1 2 3 4 5 6 
#
# 1 0.082439 -0.000494 -0.015075 0.000000 0.006376 0.000000
# 2 -0.000494 0.009205 -0.005149 0.000000 0.000234 0.000000
# 3 -0.015075 -0.005149 0.013022 0.000000 0.001319 0.000000
# 4 0.000000 0.000000 0.000000 0.031762 0.000000 0.000590
# 5 0.006376 0.000234 0.001319 0.000000 0.057766 0.000000
# 6 0.000000 0.000000 0.000000 0.000590 0.000000 0.086354
#
#
# Mechanical properties :
#
#
# Convention : Reuss Voigt Hill
#
# Bulk Modulus (GPa) = 15.81497 61.68049 38.74773
# Shear Modulus (GPa) = 14.57474 24.76972 19.67223
#
# Velocity S-wave (km/s) = 2.86202 3.73106 3.32505
# Velocity P-wave (km/s) = 4.45081 7.29562 6.04300
#
# Compressibility (1/GPa) = 0.06323122
#
# Stress axis : x y z
#
# Youngs Moduli (GPa) = 12.13025 108.63422 76.79288
#
# Poissons Ratio (x) = 0.05363 1.15764
# Poissons Ratio (y) = 0.00599 0.39539
# Poissons Ratio (z) = 0.18286 0.55933
#
# Static dielectric constant tensor:
#      x y z
#    x 2.649290 0.000000 -0.114550 
#    y 0.000000 3.700940 0.000000 
#    z -0.114550 0.000000 3.385690 
# 
# 
# High freq. dielectric constant tensor:
#      x y z
#    x 1.604510 0.000000 -0.006570 
#    y 0.000000 1.711340 0.000000 
#    z -0.006570 0.000000 1.691240 
# 
# From -- ./inp_files/229113.got.cif
#   From: 2010.06.25/outbox.cif.g09.slc.cpg/sg12_115_cif.got.tgz:229113.got - 2010.06.28 00:19:55.
