data_PCOD8113378
_publ_section_title
;
Structure prediction by ZEFSAII (Michael W. Deem and Ramdas Pophale) SiO2 
 PCOD8113378
Probable space group: C 2/M
;
_chemical_formula_sum "Si O2"
_cell_formula_units_Z 40
_cell_length_a 10.592035
_cell_length_b 23.627787
_cell_length_c 13.305425
_cell_angle_alpha 90.000000
_cell_angle_beta 145.472128
_cell_angle_gamma 90.000000
_cell_volume 1887.410933
_symmetry_space_group_name_H-M "C 2/M"
_symmetry_group_IT_number 12
_symmetry_cell_setting 'monoclinic'
loop_
_space_group_symop_operation_xyz
x,y,z
-x,y,-z
-x,-y,-z
x,-y,z
1/2+x,1/2+y,z
1/2-x,1/2+y,-z
1/2-x,1/2-y,-z
1/2+x,1/2-y,z
loop_
_atom_site_type_symbol
_atom_site_label
_atom_site_fract_x
_atom_site_fract_y
_atom_site_fract_z
Si Si1 0.492502 0.759818 0.614060
Si Si2 0.919739 0.934344 0.635182
Si Si3 0.116414 0.064924 0.975948
Si Si4 0.770443 0.347978 0.791792
Si Si5 0.464287 0.866845 0.712700
O O1 0.500000 0.767322 0.500000
O O2 0.250000 0.750000 0.500000
O O3 0.647387 0.708046 0.751598
O O4 0.578140 0.817805 0.720754
O O5 0.119674 0.903367 0.708240
O O6 0.680566 0.908145 0.452394
O O7 0.926676 0.000000 0.608189
O O8 0.949194 0.926360 0.773824
O O9 0.341972 0.099075 0.104087
O O10 0.185142 0.000000 0.034304
O O11 0.000000 0.088067 0.000000
O O12 0.806924 0.340601 0.696199
O O13 0.000000 0.355874 0.000000
#
# Coordination Sequence:
#
# PCOD8113378 Si02
#       5
#     8   8   8   8   8
#     4  12  25  46  70  99 138 182 229 286 343 410
#     4  11  24  43  71 102 136 180 226 279 351 418
#     4  10  24  44  66 102 142 179 231 287 341 415
#     4  12  25  46  69 101 139 177 233 290 345 414
#     4  12  25  44  72  99 139 181 231 286 350 409
#
# _framework density 21.193052999999999
#
# number of rings (size 3 to 8) (size 9 to 14) (size 15 to 20)
#    0.000    0.600    6.000    1.200    2.800    4.400 
#    0.000    3.000    0.000    0.000    0.000    0.000 
#    0.000    0.000    0.000    0.000    0.000    0.000 
#
# Total GULP energy -248123.408130 kJ/mol
# GULP energy per Si atom -12406.170407 kJ/mol
# Density = 2.114482 g / cm^3
# Si number density = 21.193053 Si / 1000 Ang^3
#
#
#
# Elastic Constant Matrix: (Units=GPa)
#
#
# Indices 1 2 3 4 5 6 
#
# 1 116.2376 43.0596 14.9911 -0.0002 -9.7031 -0.0001
# 2 43.0596 150.5758 56.1093 0.0000 3.7114 0.0000
# 3 14.9911 56.1093 95.8564 -0.0002 0.1157 -0.0001
# 4 -0.0002 0.0000 -0.0002 31.9778 -0.0002 1.2005
# 5 -9.7031 3.7114 0.1157 -0.0002 32.0896 -0.0001
# 6 -0.0001 0.0000 -0.0001 1.2005 -0.0001 33.2826
#
#
#
# Elastic Compliance Matrix: (Units=1/GPa)
#
#
# Indices 1 2 3 4 5 6 
#
# 1 0.009973 -0.003008 0.000197 0.000000 0.003363 0.000000
# 2 -0.003008 0.009431 -0.005048 0.000000 -0.001982 0.000000
# 3 0.000197 -0.005048 0.013355 0.000000 0.000595 0.000000
# 4 0.000000 0.000000 0.000000 0.031314 0.000000 -0.001130
# 5 0.003363 -0.001982 0.000595 0.000000 0.032407 0.000000
# 6 0.000000 0.000000 0.000000 -0.001130 0.000000 0.030087
#
#
# Mechanical properties :
#
#
# Convention : Reuss Voigt Hill
#
# Bulk Modulus (GPa) = 58.67927 65.66555 62.17241
# Shear Modulus (GPa) = 33.79186 36.03731 34.91458
#
# Velocity S-wave (km/s) = 3.99742 4.12810 4.06329
# Velocity P-wave (km/s) = 7.00385 7.33303 7.17033
#
# Compressibility (1/GPa) = 0.01704179
#
# Stress axis : x y z
#
# Youngs Moduli (GPa) = 100.27346 106.03098 74.87630
#
# Poissons Ratio (x) = 0.31896 -0.01476
# Poissons Ratio (y) = 0.30164 0.37795
# Poissons Ratio (z) = -0.01977 0.53521
#
# Static dielectric constant tensor:
#      x y z
#    x 3.971120 0.000000 -0.090780 
#    y 0.000000 4.173780 0.000000 
#    z -0.090780 0.000000 3.736670 
# 
# 
# High freq. dielectric constant tensor:
#      x y z
#    x 1.836240 0.000000 -0.006630 
#    y 0.000000 1.841770 0.000000 
#    z -0.006630 0.000000 1.834660 
# 
# From -- ./inp_files/208537.got.cif
#   From: 2010.06.25/outbox.cif.g09.slc.cpg/sg12_105_cif.got.tgz:208537.got - 2010.06.28 00:19:55.
