data_PCOD8113064
_publ_section_title
;
Structure prediction by ZEFSAII (Michael W. Deem and Ramdas Pophale) SiO2 
 PCOD8113064
Probable space group: C 2/M
;
_chemical_formula_sum "Si O2"
_cell_formula_units_Z 32
_cell_length_a 14.001618
_cell_length_b 20.210405
_cell_length_c 9.903168
_cell_angle_alpha 90.000000
_cell_angle_beta 149.931143
_cell_angle_gamma 90.000000
_cell_volume 1404.106803
_symmetry_space_group_name_H-M "C 2/M"
_symmetry_group_IT_number 12
_symmetry_cell_setting 'monoclinic'
loop_
_space_group_symop_operation_xyz
x,y,z
-x,y,-z
-x,-y,-z
x,-y,z
1/2+x,1/2+y,z
1/2-x,1/2+y,-z
1/2-x,1/2-y,-z
1/2+x,1/2-y,z
loop_
_atom_site_type_symbol
_atom_site_label
_atom_site_fract_x
_atom_site_fract_y
_atom_site_fract_z
Si Si1 0.014093 0.575096 0.864123
Si Si2 0.161221 0.200516 0.084333
Si Si3 0.656913 0.330818 0.785208
Si Si4 0.772125 0.072059 0.714035
O O1 0.090260 0.500000 0.956190
O O2 0.809762 0.580232 0.538393
O O3 0.165193 0.620933 0.971864
O O4 0.000000 0.601125 0.000000
O O5 0.289695 0.265468 0.235224
O O6 0.293550 0.135998 0.280641
O O7 0.069713 0.188791 0.824045
O O8 0.000000 0.211004 0.000000
O O9 0.500000 0.367532 0.500000
O O10 0.702259 0.000000 0.686425
O O11 0.000000 0.073269 0.000000
#
# Coordination Sequence:
#
# PCOD8113064 Si02
#       4
#     8   8   8   8
#     4  10  23  43  69 100 137 175 217 274 335 394
#     4  10  24  43  66  95 132 175 225 272 328 391
#     4  11  26  41  64 101 136 174 220 274 332 396
#     4   9  20  40  69  98 126 171 225 270 325 391
#
# _framework density 22.790289000000001
#
# number of rings (size 3 to 8) (size 9 to 14) (size 15 to 20)
#    0.000    2.000    0.000    0.750   14.000    2.500 
#    0.000    2.500    0.000    0.000    0.000    0.000 
#    0.000    0.000    0.000    0.000    0.000    0.000 
#
# Total GULP energy -198252.965616 kJ/mol
# GULP energy per Si atom -12390.810351 kJ/mol
# Density = 2.273842 g / cm^3
# Si number density = 22.790289 Si / 1000 Ang^3
#
#
#
# Elastic Constant Matrix: (Units=GPa)
#
#
# Indices 1 2 3 4 5 6 
#
# 1 129.0575 33.9264 47.4053 0.0000 -19.4700 0.0000
# 2 33.9264 137.6193 28.8305 0.0000 -7.1800 0.0000
# 3 47.4053 28.8305 164.0668 0.0000 -11.6296 0.0000
# 4 0.0000 0.0000 0.0000 25.1848 0.0000 -20.1388
# 5 -19.4700 -7.1800 -11.6296 0.0000 28.9655 0.0000
# 6 0.0000 0.0000 0.0000 -20.1388 0.0000 -34.0121
#
#
#
# Elastic Compliance Matrix: (Units=1/GPa)
#
#
# Indices 1 2 3 4 5 6 
#
# 1 0.009781 -0.001684 -0.002155 0.000000 0.005292 0.000000
# 2 -0.001684 0.007888 -0.000866 0.000000 0.000476 0.000000
# 3 -0.002155 -0.000866 0.006950 0.000000 0.001127 0.000000
# 4 0.000000 0.000000 0.000000 0.026948 0.000000 -0.015956
# 5 0.005292 0.000476 0.001127 0.000000 0.038651 0.000000
# 6 0.000000 0.000000 0.000000 -0.015956 0.000000 -0.019954
#
#
# Mechanical properties :
#
#
# Convention : Reuss Voigt Hill
#
# Bulk Modulus (GPa) = 65.74949 72.34090 69.04519
# Shear Modulus (GPa) = 59.00195 25.39975 42.20085
#
# Velocity S-wave (km/s) = 5.09365 3.34203 4.30781
# Velocity P-wave (km/s) = 7.96907 6.83397 7.42325
#
# Compressibility (1/GPa) = 0.01520924
#
# Stress axis : x y z
#
# Youngs Moduli (GPa) = 102.23824 126.77961 143.88842
#
# Poissons Ratio (x) = 0.21346 0.31010
# Poissons Ratio (y) = 0.17214 0.12459
# Poissons Ratio (z) = 0.22034 0.10977
#
# Static dielectric constant tensor:
#      x y z
#    x 3.716410 0.000000 -0.213080 
#    y 0.000000 4.768490 0.000000 
#    z -0.213080 0.000000 4.066640 
# 
# 
# High freq. dielectric constant tensor:
#      x y z
#    x 1.869480 0.000000 -0.018730 
#    y 0.000000 1.918770 0.000000 
#    z -0.018730 0.000000 1.904670 
# 
# From -- ./inp_files/38710.got.cif
#   From: 2010.06.25/outbox.cif.g09.slc.cpg/sg12_20_cif.got.tgz:38710.got - 2010.06.28 00:19:55.
