data_PCOD8113744
_publ_section_title
;
Structure prediction by ZEFSAII (Michael W. Deem and Ramdas Pophale) SiO2 
 PCOD8113744
Probable space group: C 2/M
;
_chemical_formula_sum "Si O2"
_cell_formula_units_Z 56
_cell_length_a 27.359105
_cell_length_b 9.385576
_cell_length_c 17.572505
_cell_angle_alpha 90.000000
_cell_angle_beta 126.922486
_cell_angle_gamma 90.000000
_cell_volume 3607.341299
_symmetry_space_group_name_H-M "C 2/M"
_symmetry_group_IT_number 12
_symmetry_cell_setting 'monoclinic'
loop_
_space_group_symop_operation_xyz
x,y,z
-x,y,-z
-x,-y,-z
x,-y,z
1/2+x,1/2+y,z
1/2-x,1/2+y,-z
1/2-x,1/2-y,-z
1/2+x,1/2-y,z
loop_
_atom_site_type_symbol
_atom_site_label
_atom_site_fract_x
_atom_site_fract_y
_atom_site_fract_z
Si Si1 0.762775 0.834464 0.900315
Si Si2 0.537072 0.332668 0.696410
Si Si3 0.215792 0.667677 0.533566
Si Si4 0.424451 0.839489 0.577763
Si Si5 0.908501 0.337143 0.388079
Si Si6 0.839804 0.835010 0.110778
Si Si7 0.725827 0.166892 0.708237
O O1 0.703526 0.752261 0.874064
O O2 0.774252 0.796032 0.821256
O O3 0.746005 0.000000 0.891251
O O4 0.822727 0.797724 0.006669
O O5 0.527815 0.500000 0.677884
O O6 0.473226 0.263692 0.665103
O O7 0.553924 0.265969 0.631194
O O8 0.589547 0.296732 0.807881
O O9 0.226222 0.500000 0.531925
O O10 0.250000 0.750000 0.500000
O O11 0.144091 0.706896 0.464309
O O12 0.243705 0.724282 0.640998
O O13 0.436044 0.829688 0.498302
O O14 0.436279 0.000000 0.617029
O O15 0.911664 0.500000 0.360436
O O16 0.839689 0.275349 0.325472
O O17 0.827291 0.000000 0.116342
O O18 0.716664 0.000000 0.687029
#
# Coordination Sequence:
#
# PCOD8113744 Si02
#       7
#     8   8   8   8   8   8   8
#     4   9  15  27  45  60  80 117 155 179 207 248
#     4  11  20  27  37  60  93 120 143 176 215 249
#     4   9  18  33  50  69  88 105 135 180 224 264
#     4   9  19  32  45  60  82 113 149 180 204 251
#     4   9  16  28  43  59  81 114 153 181 200 239
#     4   9  18  27  37  60  91 117 145 184 216 240
#     4   8  14  26  46  66  83 110 147 178 207 255
#
# _framework density 15.523899
#
# number of rings (size 3 to 8) (size 9 to 14) (size 15 to 20)
#    0.000    2.857    1.429    2.571    0.000    3.429 
#    0.000    2.857    0.000    0.000    0.000    1.000 
#    0.000    8.000    0.000    0.000    0.000    0.000 
#
# Total GULP energy -346932.362777 kJ/mol
# GULP energy per Si atom -12390.441528 kJ/mol
# Density = 1.548857 g / cm^3
# Si number density = 15.523899 Si / 1000 Ang^3
#
#
#
# Elastic Constant Matrix: (Units=GPa)
#
#
# Indices 1 2 3 4 5 6 
#
# 1 78.8028 39.0037 60.4630 0.0000 -4.6623 0.0000
# 2 39.0037 54.9064 45.9214 0.0000 3.7477 0.0000
# 3 60.4630 45.9214 121.6187 0.0000 0.4240 0.0000
# 4 0.0000 0.0000 0.0000 19.9077 0.0000 1.4400
# 5 -4.6623 3.7477 0.4240 0.0000 18.3446 0.0000
# 6 0.0000 0.0000 0.0000 1.4400 0.0000 23.8630
#
#
#
# Elastic Compliance Matrix: (Units=1/GPa)
#
#
# Indices 1 2 3 4 5 6 
#
# 1 0.025322 -0.011764 -0.008178 0.000000 0.009028 0.000000
# 2 -0.011764 0.032591 -0.006424 0.000000 -0.009499 0.000000
# 3 -0.008178 -0.006424 0.014718 0.000000 -0.001106 0.000000
# 4 0.000000 0.000000 0.000000 0.050452 0.000000 -0.003045
# 5 0.009028 -0.009499 -0.001106 0.000000 0.058773 0.000000
# 6 0.000000 0.000000 0.000000 -0.003045 0.000000 0.042090
#
#
# Mechanical properties :
#
#
# Convention : Reuss Voigt Hill
#
# Bulk Modulus (GPa) = 50.25777 60.67823 55.46800
# Shear Modulus (GPa) = 17.64854 19.75238 18.70046
#
# Velocity S-wave (km/s) = 3.37540 3.57092 3.47453
# Velocity P-wave (km/s) = 6.90187 7.49492 7.20450
#
# Compressibility (1/GPa) = 0.01989742
#
# Stress axis : x y z
#
# Youngs Moduli (GPa) = 39.49213 30.68354 67.94473
#
# Poissons Ratio (x) = 0.36095 0.55567
# Poissons Ratio (y) = 0.46458 0.43650
# Poissons Ratio (z) = 0.32298 0.19712
#
# Static dielectric constant tensor:
#      x y z
#    x 2.678070 0.000000 0.067220 
#    y 0.000000 2.869510 0.000000 
#    z 0.067220 0.000000 3.286850 
# 
# 
# High freq. dielectric constant tensor:
#      x y z
#    x 1.551380 0.000000 0.008970 
#    y 0.000000 1.585260 0.000000 
#    z 0.008970 0.000000 1.602100 
# 
# From -- ./inp_files/291662.got.cif
#   From: 2010.06.25/outbox.cif.g09.slc.cpg/sg12_146_cif.got.tgz:291662.got - 2010.06.28 00:19:55.
