data_PCOD8113080
_publ_section_title
;
Structure prediction by ZEFSAII (Michael W. Deem and Ramdas Pophale) SiO2 
 PCOD8113080
Probable space group: C 2/M
;
_chemical_formula_sum "Si O2"
_cell_formula_units_Z 40
_cell_length_a 8.989560
_cell_length_b 18.049140
_cell_length_c 10.846604
_cell_angle_alpha 90.000000
_cell_angle_beta 87.874440
_cell_angle_gamma 90.000000
_cell_volume 1758.692103
_symmetry_space_group_name_H-M "C 2/M"
_symmetry_group_IT_number 12
_symmetry_cell_setting 'monoclinic'
loop_
_space_group_symop_operation_xyz
x,y,z
-x,y,-z
-x,-y,-z
x,-y,z
1/2+x,1/2+y,z
1/2-x,1/2+y,-z
1/2-x,1/2-y,-z
1/2+x,1/2-y,z
loop_
_atom_site_type_symbol
_atom_site_label
_atom_site_fract_x
_atom_site_fract_y
_atom_site_fract_z
Si Si1 0.490774 0.221572 0.735538
Si Si2 0.869861 0.000000 0.725126
Si Si3 0.651636 0.126997 0.056646
Si Si4 0.000000 0.629021 0.500000
Si Si5 0.216956 0.500000 0.497361
Si Si6 0.205692 0.000000 0.788621
Si Si7 0.791260 0.842368 0.805356
O O1 0.397231 0.192959 0.854112
O O2 0.440276 0.182238 0.610646
O O3 0.665647 0.207879 0.743533
O O4 0.447471 0.309203 0.746328
O O5 0.868948 0.000000 0.574355
O O6 0.778184 0.071370 0.772340
O O7 0.028815 0.000000 0.784348
O O8 0.738986 0.069802 0.138046
O O9 0.500000 0.092982 0.000000
O O10 0.766871 0.160234 0.953423
O O11 0.868363 0.574839 0.458704
O O12 0.231926 0.500000 0.350917
#
# Coordination Sequence:
#
# PCOD8113080 Si02
#       7
#     8   4   8   4   4   4   8
#     4  11  24  45  70 107 139 192 234 301 353 426
#     4  12  27  48  68 106 145 186 235 309 350 424
#     4  10  23  43  71 106 142 189 235 293 353 431
#     4  11  22  42  78  99 138 186 252 287 354 424
#     4  11  23  45  72 102 143 191 238 294 352 434
#     4  12  24  43  73 105 146 186 243 287 368 417
#     4  11  26  46  72 101 151 183 241 289 363 421
#
# _framework density 22.744174000000001
#
# number of rings (size 3 to 8) (size 9 to 14) (size 15 to 20)
#    0.000    1.000    4.000    1.800    2.800    4.800 
#    3.600    0.000    0.000    0.000    0.000    0.000 
#    0.000    0.000    0.000    0.000    0.000    0.000 
#
# Total GULP energy -247892.166944 kJ/mol
# GULP energy per Si atom -12394.608347 kJ/mol
# Density = 2.269241 g / cm^3
# Si number density = 22.744174 Si / 1000 Ang^3
#
#
#
# Elastic Constant Matrix: (Units=GPa)
#
#
# Indices 1 2 3 4 5 6 
#
# 1 92.6764 38.8039 42.5464 0.0000 4.1497 0.0000
# 2 38.8039 117.5588 50.4506 0.0000 -9.2794 0.0000
# 3 42.5464 50.4506 146.9417 0.0000 2.1069 0.0000
# 4 0.0000 0.0000 0.0000 26.5268 0.0000 -9.0623
# 5 4.1497 -9.2794 2.1069 0.0000 40.0420 0.0000
# 6 0.0000 0.0000 0.0000 -9.0623 0.0000 28.9541
#
#
#
# Elastic Compliance Matrix: (Units=1/GPa)
#
#
# Indices 1 2 3 4 5 6 
#
# 1 0.013586 -0.003486 -0.002707 0.000000 -0.002073 0.000000
# 2 -0.003486 0.011126 -0.002855 0.000000 0.003090 0.000000
# 3 -0.002707 -0.002855 0.008581 0.000000 -0.000833 0.000000
# 4 0.000000 0.000000 0.000000 0.042211 0.000000 0.013212
# 5 -0.002073 0.003090 -0.000833 0.000000 0.025949 0.000000
# 6 0.000000 0.000000 0.000000 0.013212 0.000000 0.038672
#
#
# Mechanical properties :
#
#
# Convention : Reuss Voigt Hill
#
# Bulk Modulus (GPa) = 65.80329 68.97541 67.38935
# Shear Modulus (GPa) = 30.62090 34.12963 32.37526
#
# Velocity S-wave (km/s) = 3.67320 3.87794 3.77696
# Velocity P-wave (km/s) = 6.85453 7.10238 6.97955
#
# Compressibility (1/GPa) = 0.01519681
#
# Stress axis : x y z
#
# Youngs Moduli (GPa) = 73.60786 89.87771 116.53195
#
# Poissons Ratio (x) = 0.31334 0.31544
# Poissons Ratio (y) = 0.25662 0.33269
# Poissons Ratio (z) = 0.19925 0.25659
#
# Static dielectric constant tensor:
#      x y z
#    x 3.935710 0.000000 0.127030 
#    y 0.000000 1.305640 0.000000 
#    z 0.127030 0.000000 4.217950 
# 
# 
# High freq. dielectric constant tensor:
#      x y z
#    x 1.882790 0.000000 0.004110 
#    y 0.000000 1.898980 0.000000 
#    z 0.004110 0.000000 1.912470 
# 
# From -- ./inp_files/119193.got.cif
#   From: 2010.06.25/outbox.cif.g09.slc.cpg/sg12_60_cif.got.tgz:119193.got - 2010.06.28 00:19:55.
