data_PCOD8113850
_publ_section_title
;
Structure prediction by ZEFSAII (Michael W. Deem and Ramdas Pophale) SiO2 
 PCOD8113850
Probable space group: C 2/M
;
_chemical_formula_sum "Si O2"
_cell_formula_units_Z 44
_cell_length_a 20.409750
_cell_length_b 9.710661
_cell_length_c 13.050291
_cell_angle_alpha 90.000000
_cell_angle_beta 56.228682
_cell_angle_gamma 90.000000
_cell_volume 2150.032589
_symmetry_space_group_name_H-M "C 2/M"
_symmetry_group_IT_number 12
_symmetry_cell_setting 'monoclinic'
loop_
_space_group_symop_operation_xyz
x,y,z
-x,y,-z
-x,-y,-z
x,-y,z
1/2+x,1/2+y,z
1/2-x,1/2+y,-z
1/2-x,1/2-y,-z
1/2+x,1/2-y,z
loop_
_atom_site_type_symbol
_atom_site_label
_atom_site_fract_x
_atom_site_fract_y
_atom_site_fract_z
Si Si1 0.745768 0.263896 0.835018
Si Si2 0.796971 0.500000 0.662746
Si Si3 0.569716 0.500000 0.522067
Si Si4 0.859150 0.500000 0.376509
Si Si5 0.526084 0.759594 0.694039
Si Si6 0.950694 0.500000 0.641853
Si Si7 0.744678 0.500000 0.293930
Si Si8 0.366555 0.341073 0.889509
O O1 0.749836 0.362469 0.731257
O O2 0.722871 0.123097 0.801881
O O3 0.824702 0.249068 0.836234
O O4 0.673786 0.313888 0.966915
O O5 0.832164 0.500000 0.518532
O O6 0.859703 0.500000 0.699256
O O7 0.500000 0.500000 0.500000
O O8 0.567288 0.638421 0.592633
O O9 0.650506 0.500000 0.388533
O O10 0.908381 0.359100 0.310343
O O11 0.782150 0.500000 0.374381
O O12 0.471512 0.858548 0.676636
O O13 0.459888 0.691889 0.825391
O O14 0.000000 0.500000 0.500000
O O15 0.356886 0.500000 0.865794
#
# Coordination Sequence:
#
# PCOD8113850 Si02
#       8
#     8   4   4   4   8   4   4   8
#     4  11  24  38  67  96 133 171 205 271 331 392
#     4  12  21  38  62  96 131 176 217 258 323 388
#     4  12  24  36  68 101 130 166 204 273 335 383
#     4  11  28  45  64  90 128 186 224 256 311 393
#     4  11  22  38  63  95 131 169 216 267 323 381
#     4  11  20  33  56  95 138 166 210 268 324 380
#     4  12  27  47  63  93 135 173 219 263 322 388
#     4  11  21  40  65 102 132 161 209 272 340 387
#
# _framework density 20.464805999999999
#
# number of rings (size 3 to 8) (size 9 to 14) (size 15 to 20)
#    0.000    0.727    6.364    2.727    0.000    4.364 
#    0.000    1.818    0.000    1.091    0.000    0.000 
#    0.000    0.000    0.000    0.000    0.000    0.000 
#
# Total GULP energy -272577.286771 kJ/mol
# GULP energy per Si atom -12389.876671 kJ/mol
# Density = 2.041823 g / cm^3
# Si number density = 20.464806 Si / 1000 Ang^3
#
#
#
# Elastic Constant Matrix: (Units=GPa)
#
#
# Indices 1 2 3 4 5 6 
#
# 1 75.2226 12.1492 20.1327 0.0000 0.2124 0.0000
# 2 12.1492 123.0673 24.5049 0.0000 -5.7588 0.0000
# 3 20.1327 24.5049 89.3856 0.0000 -19.2061 0.0000
# 4 0.0000 0.0000 0.0000 35.7894 0.0000 -5.8960
# 5 0.2124 -5.7588 -19.2061 0.0000 19.3422 0.0000
# 6 0.0000 0.0000 0.0000 -5.8960 0.0000 -5.6290
#
#
#
# Elastic Compliance Matrix: (Units=1/GPa)
#
#
# Indices 1 2 3 4 5 6 
#
# 1 0.014505 -0.000845 -0.003971 0.000000 -0.004354 0.000000
# 2 -0.000845 0.008645 -0.002065 0.000000 0.000532 0.000000
# 3 -0.003971 -0.002065 0.015923 0.000000 0.015239 0.000000
# 4 0.000000 0.000000 0.000000 0.023829 0.000000 -0.024960
# 5 -0.004354 0.000532 0.015239 0.000000 0.067039 0.000000
# 6 0.000000 0.000000 0.000000 -0.024960 0.000000 -0.151507
#
#
# Mechanical properties :
#
#
# Convention : Reuss Voigt Hill
#
# Bulk Modulus (GPa) = 39.50930 44.58323 42.04626
# Shear Modulus (GPa) = 7895.33972 25.29310 3960.31641
#
# Velocity S-wave (km/s) = 62.18025 3.51940 44.03845
# Velocity P-wave (km/s) = 71.93418 6.19253 51.05328
#
# Compressibility (1/GPa) = 0.02531050
#
# Stress axis : x y z
#
# Youngs Moduli (GPa) = 68.93961 115.67086 62.80414
#
# Poissons Ratio (x) = 0.09774 0.24939
# Poissons Ratio (y) = 0.05826 0.12971
# Poissons Ratio (z) = 0.27376 0.23890
#
# Static dielectric constant tensor:
#      x y z
#    x 3.456240 0.000000 -0.224210 
#    y 0.000000 4.095000 0.000000 
#    z -0.224210 0.000000 3.677620 
# 
# 
# High freq. dielectric constant tensor:
#      x y z
#    x 1.761310 0.000000 -0.017680 
#    y 0.000000 1.827630 0.000000 
#    z -0.017680 0.000000 1.803990 
# 
# From -- ./inp_files/237207.got.cif
#   From: 2010.06.25/outbox.cif.g09.slc.cpg/sg12_119_cif.got.tgz:237207.got - 2010.06.28 00:19:55.
