data_PCOD8113547
_publ_section_title
;
Structure prediction by ZEFSAII (Michael W. Deem and Ramdas Pophale) SiO2 
 PCOD8113547
Probable space group: C 2/M
;
_chemical_formula_sum "Si O2"
_cell_formula_units_Z 32
_cell_length_a 14.545579
_cell_length_b 17.057524
_cell_length_c 6.258559
_cell_angle_alpha 90.000000
_cell_angle_beta 112.371032
_cell_angle_gamma 90.000000
_cell_volume 1435.953352
_symmetry_space_group_name_H-M "C 2/M"
_symmetry_group_IT_number 12
_symmetry_cell_setting 'monoclinic'
loop_
_space_group_symop_operation_xyz
x,y,z
-x,y,-z
-x,-y,-z
x,-y,z
1/2+x,1/2+y,z
1/2-x,1/2+y,-z
1/2-x,1/2-y,-z
1/2+x,1/2-y,z
loop_
_atom_site_type_symbol
_atom_site_label
_atom_site_fract_x
_atom_site_fract_y
_atom_site_fract_z
Si Si1 0.500000 0.639752 0.500000
Si Si2 0.243643 0.500000 0.331423
Si Si3 0.718597 0.126432 0.959913
Si Si4 0.564597 0.500000 0.270422
Si Si5 0.115726 0.500000 0.588274
Si Si6 0.400628 0.277361 0.055857
O O1 0.540484 0.582142 0.356653
O O2 0.577631 0.698848 0.679355
O O3 0.315452 0.500000 0.607897
O O4 0.136930 0.500000 0.351432
O O5 0.260068 0.575254 0.194919
O O6 0.656889 0.077189 0.736831
O O7 0.643739 0.190485 0.992564
O O8 0.811991 0.162775 0.910141
O O9 0.500000 0.500000 0.000000
O O10 0.000000 0.500000 0.500000
O O11 0.500000 0.284618 0.000000
#
# Coordination Sequence:
#
# PCOD8113547 Si02
#       6
#     4   4   8   4   4   8
#     4  11  24  40  68 103 142 176 222 281 354 416
#     4  11  24  47  73  98 141 182 232 299 338 415
#     4  10  26  48  68 107 138 186 243 280 350 425
#     4  11  24  40  69 104 141 177 223 281 355 415
#     4  11  28  44  73  99 138 191 239 287 345 410
#     4  11  25  44  74 102 144 183 230 290 351 419
#
# _framework density 22.284846999999999
#
# number of rings (size 3 to 8) (size 9 to 14) (size 15 to 20)
#    0.000    1.250    2.500    0.750   12.250    1.000 
#    0.000    7.500    0.000    0.000    0.000    0.000 
#    0.000    0.000    0.000    0.000    0.000    0.000 
#
# Total GULP energy -198221.498895 kJ/mol
# GULP energy per Si atom -12388.843681 kJ/mol
# Density = 2.223413 g / cm^3
# Si number density = 22.284847 Si / 1000 Ang^3
#
#
#
# Elastic Constant Matrix: (Units=GPa)
#
#
# Indices 1 2 3 4 5 6 
#
# 1 180.0632 72.2703 43.3141 0.0000 -4.4086 0.0000
# 2 72.2703 155.5953 62.2300 0.0000 10.0004 0.0000
# 3 43.3141 62.2300 108.8803 0.0000 8.2942 0.0000
# 4 0.0000 0.0000 0.0000 16.6430 0.0000 -1.7466
# 5 -4.4086 10.0004 8.2942 0.0000 37.0503 0.0000
# 6 0.0000 0.0000 0.0000 -1.7466 0.0000 21.6820
#
#
#
# Elastic Compliance Matrix: (Units=1/GPa)
#
#
# Indices 1 2 3 4 5 6 
#
# 1 0.007073 -0.002884 -0.001311 0.000000 0.001914 0.000000
# 2 -0.002884 0.009560 -0.004165 0.000000 -0.001991 0.000000
# 3 -0.001311 -0.004165 0.012221 0.000000 -0.001768 0.000000
# 4 0.000000 0.000000 0.000000 0.060598 0.000000 0.004881
# 5 0.001914 -0.001991 -0.001768 0.000000 0.028151 0.000000
# 6 0.000000 0.000000 0.000000 0.004881 0.000000 0.046514
#
#
# Mechanical properties :
#
#
# Convention : Reuss Voigt Hill
#
# Bulk Modulus (GPa) = 82.41285 88.90751 85.66018
# Shear Modulus (GPa) = 27.04399 32.85669 29.95034
#
# Velocity S-wave (km/s) = 3.48740 3.84395 3.67001
# Velocity P-wave (km/s) = 7.29916 7.72553 7.51537
#
# Compressibility (1/GPa) = 0.01213403
#
# Stress axis : x y z
#
# Youngs Moduli (GPa) = 141.37458 104.59953 81.82422
#
# Poissons Ratio (x) = 0.30166 0.10730
# Poissons Ratio (y) = 0.40772 0.34081
# Poissons Ratio (z) = 0.18540 0.43567
#
# Static dielectric constant tensor:
#      x y z
#    x 4.072730 0.000000 0.222730 
#    y 0.000000 4.223440 0.000000 
#    z 0.222730 0.000000 4.068910 
# 
# 
# High freq. dielectric constant tensor:
#      x y z
#    x 1.881190 0.000000 0.014560 
#    y 0.000000 1.895950 0.000000 
#    z 0.014560 0.000000 1.873090 
# 
# From -- ./inp_files/10301.got.cif
#   From: 2010.06.25/outbox.cif.g09.slc.cpg/sg12_6_cif.got.tgz:10301.got - 2010.06.28 00:19:55.
