data_PCOD8113333
_publ_section_title
;
Structure prediction by ZEFSAII (Michael W. Deem and Ramdas Pophale) SiO2 
 PCOD8113333
Probable space group: C 2/M
;
_chemical_formula_sum "Si O2"
_cell_formula_units_Z 48
_cell_length_a 22.285467
_cell_length_b 21.347188
_cell_length_c 6.922414
_cell_angle_alpha 90.000000
_cell_angle_beta 136.230059
_cell_angle_gamma 90.000000
_cell_volume 2278.128440
_symmetry_space_group_name_H-M "C 2/M"
_symmetry_group_IT_number 12
_symmetry_cell_setting 'monoclinic'
loop_
_space_group_symop_operation_xyz
x,y,z
-x,y,-z
-x,-y,-z
x,-y,z
1/2+x,1/2+y,z
1/2-x,1/2+y,-z
1/2-x,1/2-y,-z
1/2+x,1/2-y,z
loop_
_atom_site_type_symbol
_atom_site_label
_atom_site_fract_x
_atom_site_fract_y
_atom_site_fract_z
Si Si1 0.410824 0.350358 0.715487
Si Si2 0.907838 0.251247 0.377305
Si Si3 0.190489 0.630779 0.723555
Si Si4 0.240477 0.575028 0.243575
Si Si5 0.811436 0.787603 0.786271
Si Si6 0.593891 0.929323 0.192552
O O1 0.413987 0.312419 0.519549
O O2 0.333887 0.401353 0.535633
O O3 0.395846 0.301804 0.855770
O O4 0.500000 0.382830 0.000000
O O5 0.874269 0.309629 0.422770
O O6 0.000000 0.266808 0.500000
O O7 0.837061 0.248379 0.040783
O O8 0.267665 0.648113 0.756749
O O9 0.138891 0.573565 0.506296
O O10 0.227765 0.606490 0.008656
O O11 0.243224 0.500000 0.241326
O O12 0.159386 0.600184 0.184836
O O13 0.750000 0.750000 0.500000
O O14 0.576816 0.000000 0.088235
O O15 0.500000 0.895094 0.000000
#
# Coordination Sequence:
#
# PCOD8113333 Si02
#       6
#     8   8   8   8   8   8
#     4  12  24  44  69  96 138 179 220 279 335 397
#     4  12  26  40  63 102 138 172 217 271 338 409
#     4  12  24  39  68  95 133 172 220 268 336 397
#     4  11  25  45  69  97 131 179 231 277 331 389
#     4  12  23  40  64  93 132 177 215 268 334 396
#     4  10  24  43  63  93 132 173 223 278 327 387
#
# _framework density 21.069928999999998
#
# number of rings (size 3 to 8) (size 9 to 14) (size 15 to 20)
#    0.000    0.500    6.667    2.000    2.333    1.000 
#    0.000    2.500    0.000    1.500    0.000    0.000 
#    0.000    0.000    0.000    0.000    0.000    0.000 
#
# Total GULP energy -297380.076797 kJ/mol
# GULP energy per Si atom -12390.836533 kJ/mol
# Density = 2.102197 g / cm^3
# Si number density = 21.069929 Si / 1000 Ang^3
#
#
#
# Elastic Constant Matrix: (Units=GPa)
#
#
# Indices 1 2 3 4 5 6 
#
# 1 121.5940 20.0823 62.2433 0.0000 9.3173 0.0000
# 2 20.0823 47.5448 25.4724 0.0000 -0.2926 0.0000
# 3 62.2433 25.4724 146.9172 0.0000 1.6908 0.0000
# 4 0.0000 0.0000 0.0000 35.5492 0.0000 -1.7677
# 5 9.3173 -0.2926 1.6908 0.0000 36.5484 0.0000
# 6 0.0000 0.0000 0.0000 -1.7677 0.0000 27.0572
#
#
#
# Elastic Compliance Matrix: (Units=1/GPa)
#
#
# Indices 1 2 3 4 5 6 
#
# 1 0.010972 -0.002399 -0.004202 0.000000 -0.002622 0.000000
# 2 -0.002399 0.023716 -0.003106 0.000000 0.000945 0.000000
# 3 -0.004202 -0.003106 0.009118 0.000000 0.000625 0.000000
# 4 0.000000 0.000000 0.000000 0.028222 0.000000 0.001844
# 5 -0.002622 0.000945 0.000625 0.000000 0.028008 0.000000
# 6 0.000000 0.000000 0.000000 0.001844 0.000000 0.037079
#
#
# Mechanical properties :
#
#
# Convention : Reuss Voigt Hill
#
# Bulk Modulus (GPa) = 40.99870 59.07245 50.03557
# Shear Modulus (GPa) = 30.36513 33.71482 32.03998
#
# Velocity S-wave (km/s) = 3.80038 4.00451 3.90378
# Velocity P-wave (km/s) = 6.22558 7.03411 6.64216
#
# Compressibility (1/GPa) = 0.02439102
#
# Stress axis : x y z
#
# Youngs Moduli (GPa) = 91.13704 42.16513 109.66882
#
# Poissons Ratio (x) = 0.10117 0.46088
# Poissons Ratio (y) = 0.21866 0.34066
# Poissons Ratio (z) = 0.38300 0.13098
#
# Static dielectric constant tensor:
#      x y z
#    x 4.356170 0.000000 0.042750 
#    y 0.000000 3.585270 0.000000 
#    z 0.042750 0.000000 3.965040 
# 
# 
# High freq. dielectric constant tensor:
#      x y z
#    x 1.846890 0.000000 -0.002190 
#    y 0.000000 1.797740 0.000000 
#    z -0.002190 0.000000 1.840140 
# 
# From -- ./inp_files/21991.got.cif
#   From: 2010.06.25/outbox.cif.g09.slc.cpg/sg12_11_cif.got.tgz:21991.got - 2010.06.28 00:19:55.
