data_PCOD8113889
_publ_section_title
;
Structure prediction by ZEFSAII (Michael W. Deem and Ramdas Pophale) SiO2 
 PCOD8113889
Probable space group: C 2/M
;
_chemical_formula_sum "Si O2"
_cell_formula_units_Z 64
_cell_length_a 11.804902
_cell_length_b 24.809739
_cell_length_c 22.669352
_cell_angle_alpha 90.000000
_cell_angle_beta 150.223044
_cell_angle_gamma 90.000000
_cell_volume 3297.252361
_symmetry_space_group_name_H-M "C 2/M"
_symmetry_group_IT_number 12
_symmetry_cell_setting 'monoclinic'
loop_
_space_group_symop_operation_xyz
x,y,z
-x,y,-z
-x,-y,-z
x,-y,z
1/2+x,1/2+y,z
1/2-x,1/2+y,-z
1/2-x,1/2-y,-z
1/2+x,1/2-y,z
loop_
_atom_site_type_symbol
_atom_site_label
_atom_site_fract_x
_atom_site_fract_y
_atom_site_fract_z
Si Si1 0.835886 0.207898 0.371459
Si Si2 0.258367 0.939200 0.137378
Si Si3 0.460813 0.147831 0.148778
Si Si4 0.833079 0.364147 0.279920
Si Si5 0.512251 0.706660 0.940593
Si Si6 0.352744 0.173312 0.882835
Si Si7 0.672247 0.324274 0.321018
Si Si8 0.731417 0.686569 0.479259
O O1 0.588943 0.179495 0.260304
O O2 0.789465 0.271586 0.344327
O O3 0.000000 0.194670 0.500000
O O4 0.964677 0.179094 0.374284
O O5 0.393499 0.908777 0.146741
O O6 0.293622 0.915065 0.219351
O O7 0.351544 0.000000 0.182533
O O8 0.000000 0.937875 0.000000
O O9 0.627010 0.137852 0.167663
O O10 0.258355 0.185404 0.030407
O O11 0.690484 0.314087 0.191286
O O12 0.736277 0.372523 0.303887
O O13 0.100269 0.347828 0.402743
O O14 0.481106 0.770261 0.928168
O O15 0.500000 0.679945 0.000000
O O16 0.097311 0.181886 0.791166
O O17 0.500000 0.143447 0.000000
O O18 0.785022 0.331489 0.436497
O O19 0.750000 0.750000 0.500000
#
# Coordination Sequence:
#
# PCOD8113889 Si02
#       8
#     8   8   8   8   8   8   8   8
#     4  12  22  32  56  83 129 174 205 237 284 363
#     4  11  25  45  70  94 112 151 220 284 331 366
#     4  12  21  39  59  84 122 160 201 259 313 362
#     4  12  21  39  64  83 126 158 207 266 314 360
#     4  11  20  35  53  87 120 166 198 240 305 372
#     4  11  23  33  52  87 134 166 201 234 298 394
#     4  12  23  36  53  91 129 173 207 238 291 376
#     4  12  22  37  53  91 132 173 211 239 289 371
#
# _framework density 19.410101000000001
#
# number of rings (size 3 to 8) (size 9 to 14) (size 15 to 20)
#    0.000    0.375    6.250    5.250    0.000    0.000 
#    0.000    0.000    0.000    6.000    0.000    0.000 
#    0.000    0.000    0.000    0.000    0.000    0.000 
#
# Total GULP energy -396451.261155 kJ/mol
# GULP energy per Si atom -12389.101911 kJ/mol
# Density = 1.936592 g / cm^3
# Si number density = 19.410101 Si / 1000 Ang^3
#
#
#
# Elastic Constant Matrix: (Units=GPa)
#
#
# Indices 1 2 3 4 5 6 
#
# 1 122.5309 41.5065 37.5865 0.0028 -4.0783 0.0001
# 2 41.5065 81.7378 38.7526 -0.0008 -1.8786 0.0006
# 3 37.5865 38.7526 114.3422 0.0184 -3.1293 0.0072
# 4 0.0028 -0.0008 0.0184 17.0902 -0.0032 1.1293
# 5 -4.0783 -1.8786 -3.1293 -0.0032 34.6059 0.0011
# 6 0.0001 0.0006 0.0072 1.1293 0.0011 12.7212
#
#
#
# Elastic Compliance Matrix: (Units=1/GPa)
#
#
# Indices 1 2 3 4 5 6 
#
# 1 0.010215 -0.004274 -0.001887 0.000000 0.000801 0.000001
# 2 -0.004274 0.016369 -0.004143 0.000006 0.000010 0.000001
# 3 -0.001887 -0.004143 0.010785 -0.000011 0.000528 -0.000005
# 4 0.000000 0.000006 -0.000011 0.058858 0.000005 -0.005225
# 5 0.000801 0.000010 0.000528 0.000005 0.029039 -0.000003
# 6 0.000001 0.000001 -0.000005 -0.005225 -0.000003 0.079073
#
#
# Mechanical properties :
#
#
# Convention : Reuss Voigt Hill
#
# Bulk Modulus (GPa) = 59.66387 61.58913 60.62650
# Shear Modulus (GPa) = 21.68892 26.26781 23.97837
#
# Velocity S-wave (km/s) = 3.34639 3.68272 3.51857
# Velocity P-wave (km/s) = 6.76287 7.06276 6.91444
#
# Compressibility (1/GPa) = 0.01676056
#
# Stress axis : x y z
#
# Youngs Moduli (GPa) = 97.90003 61.09231 92.72565
#
# Poissons Ratio (x) = 0.26109 0.17501
# Poissons Ratio (y) = 0.41840 0.38412
# Poissons Ratio (z) = 0.18477 0.25308
#
# Static dielectric constant tensor:
#      x y z
#    x 4.792880 0.000020 0.005120 
#    y 0.000020 3.005150 -0.000010 
#    z 0.005120 -0.000010 4.057240 
# 
# 
# High freq. dielectric constant tensor:
#      x y z
#    x 1.780140 0.000000 -0.002300 
#    y 0.000000 1.664730 0.000000 
#    z -0.002300 0.000000 1.787880 
# 
# From -- ./inp_files/337215.got.cif
#   From: 2010.06.25/outbox.cif.g09.slc.cpg/sg12_169_cif.got.tgz:337215.got - 2010.06.28 00:19:55.
