data_PCOD8113425
_publ_section_title
;
Structure prediction by ZEFSAII (Michael W. Deem and Ramdas Pophale) SiO2 
 PCOD8113425
Probable space group: C 2/M
;
_chemical_formula_sum "Si O2"
_cell_formula_units_Z 56
_cell_length_a 27.339135
_cell_length_b 8.674065
_cell_length_c 17.837138
_cell_angle_alpha 90.000000
_cell_angle_beta 141.859434
_cell_angle_gamma 90.000000
_cell_volume 2612.371238
_symmetry_space_group_name_H-M "C 2/M"
_symmetry_group_IT_number 12
_symmetry_cell_setting 'monoclinic'
loop_
_space_group_symop_operation_xyz
x,y,z
-x,y,-z
-x,-y,-z
x,-y,z
1/2+x,1/2+y,z
1/2-x,1/2+y,-z
1/2-x,1/2-y,-z
1/2+x,1/2-y,z
loop_
_atom_site_type_symbol
_atom_site_label
_atom_site_fract_x
_atom_site_fract_y
_atom_site_fract_z
Si Si1 0.043814 0.181088 0.128429
Si Si2 0.354802 0.676719 0.442611
Si Si3 0.735197 0.178407 0.062491
Si Si4 0.873076 0.675299 0.309912
Si Si5 0.497160 0.824247 0.338049
Si Si6 0.287028 0.180709 0.620659
Si Si7 0.578635 0.679668 0.890329
O O1 0.128275 0.256026 0.250082
O O2 0.985711 0.224206 0.125664
O O3 0.058562 0.000000 0.138067
O O4 0.000000 0.243374 0.000000
O O5 0.355159 0.500000 0.416467
O O6 0.375756 0.794286 0.401378
O O7 0.428227 0.710662 0.586837
O O8 0.272798 0.718575 0.383702
O O9 0.812901 0.199503 0.205364
O O10 0.714067 0.000000 0.029476
O O11 0.750000 0.250000 0.000000
O O12 0.665231 0.267936 0.022418
O O13 0.844334 0.500000 0.260657
O O14 0.958347 0.699326 0.373550
O O15 0.432961 0.778060 0.198865
O O16 0.523923 0.000000 0.358400
O O17 0.250000 0.250000 0.500000
O O18 0.294816 0.000000 0.616199
O O19 0.577174 0.500000 0.869937
#
# Coordination Sequence:
#
# PCOD8113425 Si02
#       7
#     8   8   8   8   8   8   8
#     4  10  24  45  68  98 132 171 218 275 336 395
#     4  11  25  42  63  94 129 165 210 265 322 380
#     4  12  24  40  63  93 129 169 213 258 310 374
#     4  11  24  41  62  91 128 168 212 259 315 381
#     4  11  23  40  63  93 127 168 214 260 314 380
#     4  11  25  45  69  98 130 172 222 276 333 393
#     4  11  23  40  65  94 127 168 214 262 320 381
#
# _framework density 21.436464000000001
#
# number of rings (size 3 to 8) (size 9 to 14) (size 15 to 20)
#    0.000    1.000    1.429    4.714    2.000   10.571 
#    0.000    0.000    0.000    0.000    0.000    0.000 
#    0.000    0.000    0.000    0.000    0.000    0.000 
#
# Total GULP energy -347221.479837 kJ/mol
# GULP energy per Si atom -12400.767137 kJ/mol
# Density = 2.138767 g / cm^3
# Si number density = 21.436464 Si / 1000 Ang^3
#
#
#
# Elastic Constant Matrix: (Units=GPa)
#
#
# Indices 1 2 3 4 5 6 
#
# 1 122.9867 76.7741 47.5252 0.0000 18.4561 0.0000
# 2 76.7741 98.6324 42.1710 0.0000 9.8392 0.0000
# 3 47.5252 42.1710 112.5680 0.0000 15.6718 0.0000
# 4 0.0000 0.0000 0.0000 39.6534 0.0000 5.2387
# 5 18.4561 9.8392 15.6718 0.0000 41.7019 0.0000
# 6 0.0000 0.0000 0.0000 5.2387 0.0000 31.2489
#
#
#
# Elastic Compliance Matrix: (Units=1/GPa)
#
#
# Indices 1 2 3 4 5 6 
#
# 1 0.016985 -0.011905 -0.002169 0.000000 -0.003893 0.000000
# 2 -0.011905 0.020475 -0.002855 0.000000 0.001511 0.000000
# 3 -0.002169 -0.002855 0.011229 0.000000 -0.002586 0.000000
# 4 0.000000 0.000000 0.000000 0.025790 0.000000 -0.004324
# 5 -0.003893 0.001511 -0.002586 0.000000 0.026318 0.000000
# 6 0.000000 0.000000 0.000000 -0.004324 0.000000 0.032726
#
#
# Mechanical properties :
#
#
# Convention : Reuss Voigt Hill
#
# Bulk Modulus (GPa) = 67.42400 74.12530 70.77465
# Shear Modulus (GPa) = 29.01495 33.70196 31.35846
#
# Velocity S-wave (km/s) = 3.68303 3.96937 3.82888
# Velocity P-wave (km/s) = 7.04326 7.46070 7.25498
#
# Compressibility (1/GPa) = 0.01483151
#
# Stress axis : x y z
#
# Youngs Moduli (GPa) = 58.87478 48.83898 89.05727
#
# Poissons Ratio (x) = 0.58145 0.19316
# Poissons Ratio (y) = 0.70092 0.25423
# Poissons Ratio (z) = 0.12769 0.13942
#
# Static dielectric constant tensor:
#      x y z
#    x 3.918930 0.000000 0.052540 
#    y 0.000000 3.804180 0.000000 
#    z 0.052540 0.000000 4.540450 
# 
# 
# High freq. dielectric constant tensor:
#      x y z
#    x 1.847590 0.000000 0.009670 
#    y 0.000000 1.845240 0.000000 
#    z 0.009670 0.000000 1.852890 
# 
# From -- ./inp_files/292558.got.cif
#   From: 2010.06.25/outbox.cif.g09.slc.cpg/sg12_147_cif.got.tgz:292558.got - 2010.06.28 00:19:55.
