data_PCOD8113805
_publ_section_title
;
Structure prediction by ZEFSAII (Michael W. Deem and Ramdas Pophale) SiO2 
 PCOD8113805
Probable space group: C 2/M
;
_chemical_formula_sum "Si O2"
_cell_formula_units_Z 64
_cell_length_a 13.467777
_cell_length_b 18.292737
_cell_length_c 28.474526
_cell_angle_alpha 90.000000
_cell_angle_beta 144.922771
_cell_angle_gamma 90.000000
_cell_volume 4031.412440
_symmetry_space_group_name_H-M "C 2/M"
_symmetry_group_IT_number 12
_symmetry_cell_setting 'monoclinic'
loop_
_space_group_symop_operation_xyz
x,y,z
-x,y,-z
-x,-y,-z
x,-y,z
1/2+x,1/2+y,z
1/2-x,1/2+y,-z
1/2-x,1/2-y,-z
1/2+x,1/2-y,z
loop_
_atom_site_type_symbol
_atom_site_label
_atom_site_fract_x
_atom_site_fract_y
_atom_site_fract_z
Si Si1 0.776749 0.331711 0.823303
Si Si2 0.116908 0.187348 0.180516
Si Si3 0.810169 0.585594 0.322927
Si Si4 0.092610 0.152340 0.989129
Si Si5 0.755112 0.802743 0.081305
Si Si6 0.077723 0.914483 0.324019
Si Si7 0.115118 0.415290 0.499678
Si Si8 0.879736 0.585071 0.043305
O O1 0.782911 0.261684 0.792141
O O2 0.796464 0.305858 0.884574
O O3 0.598343 0.370984 0.744185
O O4 0.930389 0.386898 0.869971
O O5 0.251733 0.131288 0.255395
O O6 0.046380 0.149613 0.106189
O O7 0.960712 0.205586 0.155638
O O8 0.813994 0.500000 0.311198
O O9 0.677365 0.598923 0.313972
O O10 0.004382 0.614779 0.412379
O O11 0.158972 0.235244 0.019637
O O12 0.254002 0.100571 0.038870
O O13 0.000000 0.122664 0.000000
O O14 0.692509 0.876130 0.031385
O O15 0.193787 0.884405 0.413431
O O16 0.037852 0.000000 0.314627
O O17 0.139108 0.500000 0.499940
O O18 0.000000 0.400833 0.500000
O O19 0.886882 0.500000 0.034757
#
# Coordination Sequence:
#
# PCOD8113805 Si02
#       8
#     8   8   8   8   8   8   8   8
#     4  12  20  32  51  72  99 128 163 204 239 289
#     4  11  20  31  52  73  96 129 166 202 243 288
#     4   9  17  31  50  75  99 120 158 204 242 284
#     4  11  20  38  54  65  94 136 173 197 233 292
#     4  11  20  37  52  66  93 133 170 200 242 293
#     4   9  17  29  49  75 100 127 155 192 246 296
#     4   7  12  26  47  69  98 129 150 182 242 302
#     4  11  23  34  49  73  97 124 161 208 250 281
#
# _framework density 15.875329000000001
#
# number of rings (size 3 to 8) (size 9 to 14) (size 15 to 20)
#    0.000    1.875    5.000    3.000    0.000    3.750 
#    0.000    0.625    0.000    0.000    0.000    0.000 
#    0.000    0.000    0.000   13.250    0.000    0.000 
#
# Total GULP energy -396603.697785 kJ/mol
# GULP energy per Si atom -12393.865556 kJ/mol
# Density = 1.583920 g / cm^3
# Si number density = 15.875329 Si / 1000 Ang^3
#
#
#
# Elastic Constant Matrix: (Units=GPa)
#
#
# Indices 1 2 3 4 5 6 
#
# 1 57.8546 32.3407 32.2181 0.0000 0.2071 0.0000
# 2 32.3407 86.6983 57.4122 0.0000 -1.3226 0.0000
# 3 32.2181 57.4122 133.4210 0.0002 -0.3859 -0.0001
# 4 0.0000 0.0000 0.0002 25.1939 0.0000 2.0626
# 5 0.2071 -1.3226 -0.3859 0.0000 18.7418 0.0000
# 6 0.0000 0.0000 -0.0001 2.0626 0.0000 14.5017
#
#
#
# Elastic Compliance Matrix: (Units=1/GPa)
#
#
# Indices 1 2 3 4 5 6 
#
# 1 0.022449 -0.006705 -0.002538 0.000000 -0.000774 0.000000
# 2 -0.006705 0.018152 -0.006188 0.000000 0.001228 0.000000
# 3 -0.002538 -0.006188 0.010770 0.000000 -0.000187 0.000000
# 4 0.000000 0.000000 0.000000 0.040160 0.000000 -0.005712
# 5 -0.000774 0.001228 -0.000187 0.000000 0.053448 0.000000
# 6 0.000000 0.000000 0.000000 -0.005712 0.000000 0.069770
#
#
# Mechanical properties :
#
#
# Convention : Reuss Voigt Hill
#
# Bulk Modulus (GPa) = 48.76012 57.99067 53.37540
# Shear Modulus (GPa) = 19.80604 22.08766 20.94685
#
# Velocity S-wave (km/s) = 3.53597 3.73409 3.63638
# Velocity P-wave (km/s) = 6.88853 7.42962 7.16419
#
# Compressibility (1/GPa) = 0.02050856
#
# Stress axis : x y z
#
# Youngs Moduli (GPa) = 44.54547 55.08986 92.84845
#
# Poissons Ratio (x) = 0.36939 0.23563
# Poissons Ratio (y) = 0.29869 0.57457
# Poissons Ratio (z) = 0.11305 0.34091
#
# Static dielectric constant tensor:
#      x y z
#    x 2.966210 0.000000 0.112360 
#    y 0.000000 2.808480 0.000000 
#    z 0.112360 0.000000 3.281560 
# 
# 
# High freq. dielectric constant tensor:
#      x y z
#    x 1.590320 0.000000 0.009580 
#    y 0.000000 1.590130 0.000000 
#    z 0.009580 0.000000 1.617300 
# 
# From -- ./inp_files/376780.got.cif
#   From: 2010.06.25/outbox.cif.g09.slc.cpg/sg12_189_cif.got.tgz:376780.got - 2010.06.28 00:19:55.
