data_PCOD8113806
_publ_section_title
;
Structure prediction by ZEFSAII (Michael W. Deem and Ramdas Pophale) SiO2 
 PCOD8113806
Probable space group: C 2/M
;
_chemical_formula_sum "Si O2"
_cell_formula_units_Z 64
_cell_length_a 10.296871
_cell_length_b 22.586913
_cell_length_c 22.460995
_cell_angle_alpha 90.000000
_cell_angle_beta 44.681974
_cell_angle_gamma 90.000000
_cell_volume 3673.263801
_symmetry_space_group_name_H-M "C 2/M"
_symmetry_group_IT_number 12
_symmetry_cell_setting 'monoclinic'
loop_
_space_group_symop_operation_xyz
x,y,z
-x,y,-z
-x,-y,-z
x,-y,z
1/2+x,1/2+y,z
1/2-x,1/2+y,-z
1/2-x,1/2-y,-z
1/2+x,1/2-y,z
loop_
_atom_site_type_symbol
_atom_site_label
_atom_site_fract_x
_atom_site_fract_y
_atom_site_fract_z
Si Si1 0.962880 0.241695 0.943815
Si Si2 0.069737 0.170897 0.802667
Si Si3 0.436746 0.847640 0.454761
Si Si4 0.014444 0.866345 0.563657
Si Si5 0.250919 0.431832 0.317366
Si Si6 0.910286 0.066250 0.706335
Si Si7 0.231859 0.825484 0.189096
Si Si8 0.125929 0.754491 0.332514
O O1 0.051653 0.186955 0.878111
O O2 0.062530 0.301723 0.889050
O O3 0.750000 0.250000 0.000000
O O4 0.000000 0.227250 0.000000
O O5 0.169496 0.107130 0.763578
O O6 0.177399 0.221111 0.729218
O O7 0.864209 0.170469 0.843564
O O8 0.500000 0.826505 0.500000
O O9 0.220984 0.859276 0.520817
O O10 0.550560 0.907222 0.401630
O O11 0.472161 0.795226 0.395573
O O12 0.000000 0.885434 0.500000
O O13 0.927270 0.919202 0.630920
O O14 0.895250 0.806354 0.611653
O O15 0.230943 0.500000 0.303637
O O16 0.390537 0.424836 0.327242
O O17 0.757704 0.109105 0.785754
O O18 0.836390 0.000000 0.738251
O O19 0.107487 0.783739 0.273044
#
# Coordination Sequence:
#
# PCOD8113806 Si02
#       8
#     8   8   8   8   8   8   8   8
#     4  11  20  34  56  83 113 134 152 195 249 302
#     4   9  18  33  52  78 104 133 169 201 245 305
#     4  11  20  32  48  71  99 132 177 223 260 297
#     4  11  22  32  45  71 102 136 172 217 268 304
#     4   9  18  34  55  74  95 132 180 219 247 286
#     4   9  18  35  54  71  98 137 176 214 251 289
#     4   9  18  33  52  78 104 133 169 203 242 306
#     4   9  20  30  48  70 102 139 170 209 258 307
#
# _framework density 17.423196999999998
#
# number of rings (size 3 to 8) (size 9 to 14) (size 15 to 20)
#    0.000    2.250    2.500    0.750    3.500    1.000 
#    0.000    0.000    0.000    1.500    0.000    0.000 
#    0.000    0.000    0.000    0.000    0.000    0.000 
#
# Total GULP energy -396627.166844 kJ/mol
# GULP energy per Si atom -12394.598964 kJ/mol
# Density = 1.738354 g / cm^3
# Si number density = 17.423197 Si / 1000 Ang^3
#
#
#
# Elastic Constant Matrix: (Units=GPa)
#
#
# Indices 1 2 3 4 5 6 
#
# 1 73.1814 30.9121 43.1843 0.0004 10.8874 0.0001
# 2 30.9121 135.0861 57.8499 0.0002 7.1349 -0.0003
# 3 43.1843 57.8499 101.0971 0.0007 9.5801 -0.0005
# 4 0.0004 0.0002 0.0007 18.1630 -0.0004 -0.8295
# 5 10.8874 7.1349 9.5801 -0.0004 29.3071 0.0003
# 6 0.0001 -0.0003 -0.0005 -0.8295 0.0003 18.3565
#
#
#
# Elastic Compliance Matrix: (Units=1/GPa)
#
#
# Indices 1 2 3 4 5 6 
#
# 1 0.018947 -0.001080 -0.007052 0.000000 -0.004471 0.000000
# 2 -0.001080 0.009876 -0.005160 0.000000 -0.000317 0.000000
# 3 -0.007052 -0.005160 0.015984 0.000000 -0.001349 0.000000
# 4 0.000000 0.000000 0.000000 0.055171 0.000001 0.002493
# 5 -0.004471 -0.000317 -0.001349 0.000001 0.036300 -0.000001
# 6 0.000000 0.000000 0.000000 0.002493 -0.000001 0.054589
#
#
# Mechanical properties :
#
#
# Convention : Reuss Voigt Hill
#
# Bulk Modulus (GPa) = 54.87213 63.69526 59.28370
# Shear Modulus (GPa) = 22.36868 24.99322 23.68095
#
# Velocity S-wave (km/s) = 3.58697 3.79156 3.69068
# Velocity P-wave (km/s) = 6.97977 7.47028 7.22918
#
# Compressibility (1/GPa) = 0.01822419
#
# Stress axis : x y z
#
# Youngs Moduli (GPa) = 52.77815 101.25235 62.56080
#
# Poissons Ratio (x) = 0.10931 0.44118
# Poissons Ratio (y) = 0.05698 0.32283
# Poissons Ratio (z) = 0.37219 0.52249
#
# Static dielectric constant tensor:
#      x y z
#    x 2.962420 0.000000 0.042270 
#    y 0.000000 3.267160 0.000000 
#    z 0.042270 0.000000 3.278460 
# 
# 
# High freq. dielectric constant tensor:
#      x y z
#    x 1.651930 0.000000 0.003630 
#    y 0.000000 1.663610 0.000000 
#    z 0.003630 0.000000 1.670500 
# 
# From -- ./inp_files/208428.got.cif
#   From: 2010.06.25/outbox.cif.g09.slc.cpg/sg12_105_cif.got.tgz:208428.got - 2010.06.28 00:19:55.
