data_PCOD8113897
_publ_section_title
;
Structure prediction by ZEFSAII (Michael W. Deem and Ramdas Pophale) SiO2 
 PCOD8113897
Probable space group: C 2/M
;
_chemical_formula_sum "Si O2"
_cell_formula_units_Z 40
_cell_length_a 21.264943
_cell_length_b 20.945704
_cell_length_c 5.324742
_cell_angle_alpha 90.000000
_cell_angle_beta 126.166277
_cell_angle_gamma 90.000000
_cell_volume 1914.683071
_symmetry_space_group_name_H-M "C 2/M"
_symmetry_group_IT_number 12
_symmetry_cell_setting 'monoclinic'
loop_
_space_group_symop_operation_xyz
x,y,z
-x,y,-z
-x,-y,-z
x,-y,z
1/2+x,1/2+y,z
1/2-x,1/2+y,-z
1/2-x,1/2-y,-z
1/2+x,1/2-y,z
loop_
_atom_site_type_symbol
_atom_site_label
_atom_site_fract_x
_atom_site_fract_y
_atom_site_fract_z
Si Si1 0.580453 0.295742 0.064258
Si Si2 0.415889 0.835117 0.236822
Si Si3 0.221788 0.572920 0.133206
Si Si4 0.310292 0.229848 0.351763
Si Si5 0.708379 0.376086 0.225096
O O1 0.648463 0.291390 0.434050
O O2 0.617139 0.352857 0.979476
O O3 0.500000 0.317826 0.000000
O O4 0.572626 0.227155 0.912732
O O5 0.500000 0.865521 0.500000
O O6 0.380781 0.812741 0.415900
O O7 0.357755 0.888460 0.987904
O O8 0.198044 0.500000 0.032868
O O9 0.279086 0.575866 0.511671
O O10 0.264743 0.597047 0.981398
O O11 0.261006 0.186150 0.427030
O O12 0.250000 0.250000 0.000000
#
# Coordination Sequence:
#
# PCOD8113897 Si02
#       5
#     8   8   8   8   8
#     4  12  22  36  61  97 133 162 195 257 338 398
#     4  11  22  36  59  93 136 166 201 256 324 387
#     4  11  25  44  66  88 121 175 229 265 300 360
#     4  11  20  35  58  90 131 169 199 248 312 388
#     4  11  23  40  66  91 126 164 216 265 314 373
#
# _framework density 20.891188
#
# number of rings (size 3 to 8) (size 9 to 14) (size 15 to 20)
#    0.000    0.800    6.000    3.600    0.000    0.400 
#    0.000    0.000    0.000    7.800    0.000    0.000 
#    0.000    0.000    0.000    0.000    0.000    0.000 
#
# Total GULP energy -247783.810251 kJ/mol
# GULP energy per Si atom -12389.190513 kJ/mol
# Density = 2.084364 g / cm^3
# Si number density = 20.891188 Si / 1000 Ang^3
#
#
#
# Elastic Constant Matrix: (Units=GPa)
#
#
# Indices 1 2 3 4 5 6 
#
# 1 154.2343 40.5900 51.3259 0.0000 24.4840 0.0000
# 2 40.5900 85.4880 24.8796 0.0000 13.2202 0.0000
# 3 51.3259 24.8796 94.3000 0.0000 -2.6658 0.0000
# 4 0.0000 0.0000 0.0000 21.4046 0.0000 -4.2211
# 5 24.4840 13.2202 -2.6658 0.0000 29.7473 0.0000
# 6 0.0000 0.0000 0.0000 -4.2211 0.0000 19.6562
#
#
#
# Elastic Compliance Matrix: (Units=1/GPa)
#
#
# Indices 1 2 3 4 5 6 
#
# 1 0.009943 -0.002044 -0.005091 0.000000 -0.007732 0.000000
# 2 -0.002044 0.014234 -0.002781 0.000000 -0.004893 0.000000
# 3 -0.005091 -0.002781 0.014299 0.000000 0.006708 0.000000
# 4 0.000000 0.000000 0.000000 0.048785 0.000000 0.010476
# 5 -0.007732 -0.004893 0.006708 0.000000 0.042756 0.000000
# 6 0.000000 0.000000 0.000000 0.010476 0.000000 0.053124
#
#
# Mechanical properties :
#
#
# Convention : Reuss Voigt Hill
#
# Bulk Modulus (GPa) = 53.63799 63.06813 58.35306
# Shear Modulus (GPa) = 23.90187 28.64341 26.27264
#
# Velocity S-wave (km/s) = 3.38614 3.70682 3.55010
# Velocity P-wave (km/s) = 6.40458 6.96958 6.69305
#
# Compressibility (1/GPa) = 0.01864350
#
# Stress axis : x y z
#
# Youngs Moduli (GPa) = 100.57185 70.25417 69.93481
#
# Poissons Ratio (x) = 0.14357 0.35606
# Poissons Ratio (y) = 0.20553 0.19452
# Poissons Ratio (z) = 0.51204 0.19541
#
# Static dielectric constant tensor:
#      x y z
#    x 4.463390 0.000000 -0.037070 
#    y 0.000000 4.065560 0.000000 
#    z -0.037070 0.000000 3.743040 
# 
# 
# High freq. dielectric constant tensor:
#      x y z
#    x 1.838870 0.000000 -0.005780 
#    y 0.000000 1.779110 0.000000 
#    z -0.005780 0.000000 1.811270 
# 
# From -- ./inp_files/11307.got.cif
#   From: 2010.06.25/outbox.cif.g09.slc.cpg/sg12_6_cif.got.tgz:11307.got - 2010.06.28 00:19:55.
