data_PCOD8113998
_publ_section_title
;
Structure prediction by ZEFSAII (Michael W. Deem and Ramdas Pophale) SiO2 
 PCOD8113998
Probable space group: C 2/M
;
_chemical_formula_sum "Si O2"
_cell_formula_units_Z 48
_cell_length_a 20.366903
_cell_length_b 18.253150
_cell_length_c 11.520586
_cell_angle_alpha 90.000000
_cell_angle_beta 32.421415
_cell_angle_gamma 90.000000
_cell_volume 2296.241120
_symmetry_space_group_name_H-M "C 2/M"
_symmetry_group_IT_number 12
_symmetry_cell_setting 'monoclinic'
loop_
_space_group_symop_operation_xyz
x,y,z
-x,y,-z
-x,-y,-z
x,-y,z
1/2+x,1/2+y,z
1/2-x,1/2+y,-z
1/2-x,1/2-y,-z
1/2+x,1/2-y,z
loop_
_atom_site_type_symbol
_atom_site_label
_atom_site_fract_x
_atom_site_fract_y
_atom_site_fract_z
Si Si1 0.483504 0.701945 0.394096
Si Si2 0.861786 0.000000 0.164714
Si Si3 0.526596 0.000000 0.325419
Si Si4 0.866309 0.500000 0.357787
Si Si5 0.790261 0.705888 0.190724
Si Si6 0.500000 0.885741 0.000000
Si Si7 0.328856 0.642640 0.060415
Si Si8 0.634659 0.844924 0.158048
O O1 0.500000 0.672292 0.500000
O O2 0.344058 0.693694 0.555438
O O3 0.521393 0.788027 0.333039
O O4 0.560019 0.648681 0.196352
O O5 0.781041 0.000000 0.405237
O O6 0.835068 0.930577 0.124194
O O7 0.000000 0.000000 0.000000
O O8 0.500000 0.000000 0.500000
O O9 0.401477 0.000000 0.440972
O O10 0.597566 0.927317 0.179857
O O11 0.920425 0.569660 0.211162
O O12 0.898610 0.660078 0.084780
O O13 0.831732 0.789819 0.145713
O O14 0.775696 0.685845 0.075570
O O15 0.200874 0.650138 0.182832
#
# Coordination Sequence:
#
# PCOD8113998 Si02
#       8
#     8   4   4   4   8   4   8   8
#     4  11  20  39  70 101 135 171 213 294 351 393
#     4  12  31  49  60  95 144 189 233 274 346 420
#     4  12  23  37  70  98 128 175 221 277 342 400
#     4  11  26  50  71  96 136 180 232 292 331 396
#     4  11  23  41  69 100 133 170 232 283 343 407
#     4  11  26  48  74 101 132 186 238 281 344 412
#     4  11  24  43  66  98 138 180 225 281 350 418
#     4  11  21  40  64 104 134 167 224 282 346 411
#
# _framework density 20.903728999999998
#
# number of rings (size 3 to 8) (size 9 to 14) (size 15 to 20)
#    0.000    0.833    5.000    3.000    5.833    0.000 
#    0.000    5.417    0.000    0.000    0.000    0.000 
#    0.000    0.000    0.000    0.000    0.000    0.000 
#
# Total GULP energy -297536.384403 kJ/mol
# GULP energy per Si atom -12397.349350 kJ/mol
# Density = 2.085615 g / cm^3
# Si number density = 20.903729 Si / 1000 Ang^3
#
#
#
# Elastic Constant Matrix: (Units=GPa)
#
#
# Indices 1 2 3 4 5 6 
#
# 1 96.1741 41.9367 39.5928 -0.0002 -12.0764 0.0001
# 2 41.9367 141.6857 47.3887 -0.0002 -3.4242 0.0001
# 3 39.5928 47.3887 149.1416 -0.0004 -12.2799 0.0003
# 4 -0.0002 -0.0002 -0.0004 11.2628 0.0003 3.9242
# 5 -12.0764 -3.4242 -12.2799 0.0003 36.9706 -0.0002
# 6 0.0001 0.0001 0.0003 3.9242 -0.0002 30.9195
#
#
#
# Elastic Compliance Matrix: (Units=1/GPa)
#
#
# Indices 1 2 3 4 5 6 
#
# 1 0.013048 -0.003037 -0.002232 0.000000 0.003239 0.000000
# 2 -0.003037 0.008604 -0.001998 0.000000 -0.000859 0.000000
# 3 -0.002232 -0.001998 0.008078 0.000000 0.001769 0.000000
# 4 0.000000 0.000000 0.000000 0.092896 -0.000001 -0.011790
# 5 0.003239 -0.000859 0.001769 -0.000001 0.028615 0.000000
# 6 0.000000 0.000000 0.000000 -0.011790 0.000000 0.033838
#
#
# Mechanical properties :
#
#
# Convention : Reuss Voigt Hill
#
# Bulk Modulus (GPa) = 65.81022 71.64866 68.72944
# Shear Modulus (GPa) = 24.42841 33.03613 28.73227
#
# Velocity S-wave (km/s) = 3.42221 3.97973 3.71145
# Velocity P-wave (km/s) = 6.86777 7.44766 7.16358
#
# Compressibility (1/GPa) = 0.01519521
#
# Stress axis : x y z
#
# Youngs Moduli (GPa) = 76.64126 116.21863 123.78932
#
# Poissons Ratio (x) = 0.35297 0.27631
# Poissons Ratio (y) = 0.23277 0.24739
# Poissons Ratio (z) = 0.17107 0.23226
#
# Static dielectric constant tensor:
#      x y z
#    x 3.715320 0.000000 0.009620 
#    y 0.000000 4.670290 0.000000 
#    z 0.009620 0.000000 3.945150 
# 
# 
# High freq. dielectric constant tensor:
#      x y z
#    x 1.810290 0.000000 -0.004060 
#    y 0.000000 1.821440 0.000000 
#    z -0.004060 0.000000 1.831160 
# 
# From -- ./inp_files/169636.got.cif
#   From: 2010.06.25/outbox.cif.g09.slc.cpg/sg12_85_cif.got.tgz:169636.got - 2010.06.28 00:19:55.
