data_PCOD8113829
_publ_section_title
;
Structure prediction by ZEFSAII (Michael W. Deem and Ramdas Pophale) SiO2 
 PCOD8113829
Probable space group: C 2/M
;
_chemical_formula_sum "Si O2"
_cell_formula_units_Z 64
_cell_length_a 11.718550
_cell_length_b 18.837672
_cell_length_c 28.220128
_cell_angle_alpha 90.000000
_cell_angle_beta 150.073653
_cell_angle_gamma 90.000000
_cell_volume 3107.861703
_symmetry_space_group_name_H-M "C 2/M"
_symmetry_group_IT_number 12
_symmetry_cell_setting 'monoclinic'
loop_
_space_group_symop_operation_xyz
x,y,z
-x,y,-z
-x,-y,-z
x,-y,z
1/2+x,1/2+y,z
1/2-x,1/2+y,-z
1/2-x,1/2-y,-z
1/2+x,1/2-y,z
loop_
_atom_site_type_symbol
_atom_site_label
_atom_site_fract_x
_atom_site_fract_y
_atom_site_fract_z
Si Si1 0.398501 0.847988 0.022705
Si Si2 0.104868 0.844330 0.768934
Si Si3 0.815720 0.191001 0.965998
Si Si4 0.518521 0.691889 0.376082
Si Si5 0.216896 0.835226 0.543099
Si Si6 0.421374 0.083109 0.271832
Si Si7 0.473885 0.799065 0.763572
Si Si8 0.021882 0.917180 0.828876
O O1 0.643258 0.875837 0.128762
O O2 0.224137 0.858570 0.003418
O O3 0.429831 0.765262 0.022272
O O4 0.276446 0.887616 0.934846
O O5 0.946422 0.884277 0.750766
O O6 0.035208 0.858640 0.688903
O O7 0.083964 0.760072 0.769284
O O8 0.579518 0.204353 0.853931
O O9 0.000000 0.149994 0.000000
O O10 0.659938 0.759086 0.408233
O O11 0.658060 0.649025 0.466722
O O12 0.291592 0.715987 0.322573
O O13 0.387777 0.897289 0.620543
O O14 0.000000 0.834332 0.500000
O O15 0.473193 0.125708 0.242145
O O16 0.171282 0.103259 0.202377
O O17 0.438132 0.000000 0.266166
O O18 0.044629 0.000000 0.831005
#
# Coordination Sequence:
#
# PCOD8113829 Si02
#       8
#     8   8   8   8   8   8   8   8
#     4  11  22  34  58  96 122 169 213 254 307 368
#     4  12  22  37  64  96 131 168 211 259 316 372
#     4  11  20  32  56  92 124 155 209 261 309 355
#     4  11  23  39  64 101 128 158 208 267 331 365
#     4  11  22  41  66  97 130 163 205 266 329 383
#     4  11  25  44  67  91 122 174 217 256 321 388
#     4  12  21  39  63  94 131 164 207 274 311 372
#     4  11  25  44  62  90 134 176 214 253 312 388
#
# _framework density 20.592936999999999
#
# number of rings (size 3 to 8) (size 9 to 14) (size 15 to 20)
#    0.000    0.750    6.250    1.875    1.750    2.250 
#    0.000    1.875    0.000    3.750    0.000    0.000 
#    0.000    0.000    0.000    0.000    0.000    0.000 
#
# Total GULP energy -396665.640140 kJ/mol
# GULP energy per Si atom -12395.801254 kJ/mol
# Density = 2.054607 g / cm^3
# Si number density = 20.592937 Si / 1000 Ang^3
#
#
#
# Elastic Constant Matrix: (Units=GPa)
#
#
# Indices 1 2 3 4 5 6 
#
# 1 102.8237 17.4781 23.7182 0.0014 -16.7207 0.0004
# 2 17.4781 50.3580 6.9763 0.0011 0.5223 0.0003
# 3 23.7182 6.9763 99.7862 0.0021 -14.1031 0.0005
# 4 0.0014 0.0011 0.0021 10.9089 0.0015 -5.9451
# 5 -16.7207 0.5223 -14.1031 0.0015 43.5230 0.0005
# 6 0.0004 0.0003 0.0005 -5.9451 0.0005 22.3475
#
#
#
# Elastic Compliance Matrix: (Units=1/GPa)
#
#
# Indices 1 2 3 4 5 6 
#
# 1 0.011423 -0.003739 -0.001915 -0.000002 0.003813 -0.000001
# 2 -0.003739 0.021298 -0.000880 -0.000002 -0.001977 -0.000001
# 3 -0.001915 -0.000880 0.010936 -0.000003 0.002819 -0.000001
# 4 -0.000002 -0.000002 -0.000003 0.107213 -0.000005 0.028522
# 5 0.003813 -0.001977 0.002819 -0.000005 0.025378 -0.000002
# 6 -0.000001 -0.000001 -0.000001 0.028522 -0.000002 0.052335
#
#
# Mechanical properties :
#
#
# Convention : Reuss Voigt Hill
#
# Bulk Modulus (GPa) = 32.69015 38.81258 35.75136
# Shear Modulus (GPa) = 19.85337 29.00889 24.43113
#
# Velocity S-wave (km/s) = 3.10834 3.75731 3.44813
# Velocity P-wave (km/s) = 5.36575 6.14098 5.76641
#
# Compressibility (1/GPa) = 0.03059025
#
# Stress axis : x y z
#
# Youngs Moduli (GPa) = 87.54572 46.95305 91.43739
#
# Poissons Ratio (x) = 0.17555 0.17508
# Poissons Ratio (y) = 0.32732 0.08044
# Poissons Ratio (z) = 0.16763 0.04131
#
# Static dielectric constant tensor:
#      x y z
#    x 4.072770 0.000000 -0.075240 
#    y 0.000000 3.222110 0.000000 
#    z -0.075240 0.000000 4.045370 
# 
# 
# High freq. dielectric constant tensor:
#      x y z
#    x 1.831590 0.000000 -0.001130 
#    y 0.000000 1.749520 0.000000 
#    z -0.001130 0.000000 1.817680 
# 
# From -- ./inp_files/374496.got.cif
#   From: 2010.06.25/outbox.cif.g09.slc.cpg/sg12_188_cif.got.tgz:374496.got - 2010.06.28 00:19:55.
