data_PCOD8113518
_publ_section_title
;
Structure prediction by ZEFSAII (Michael W. Deem and Ramdas Pophale) SiO2 
 PCOD8113518
Probable space group: C 2/M
;
_chemical_formula_sum "Si O2"
_cell_formula_units_Z 48
_cell_length_a 18.563369
_cell_length_b 11.350644
_cell_length_c 12.011770
_cell_angle_alpha 90.000000
_cell_angle_beta 102.996131
_cell_angle_gamma 90.000000
_cell_volume 2466.124572
_symmetry_space_group_name_H-M "C 2/M"
_symmetry_group_IT_number 12
_symmetry_cell_setting 'monoclinic'
loop_
_space_group_symop_operation_xyz
x,y,z
-x,y,-z
-x,-y,-z
x,-y,z
1/2+x,1/2+y,z
1/2-x,1/2+y,-z
1/2-x,1/2-y,-z
1/2+x,1/2-y,z
loop_
_atom_site_type_symbol
_atom_site_label
_atom_site_fract_x
_atom_site_fract_y
_atom_site_fract_z
Si Si1 0.564115 0.500000 0.170103
Si Si2 0.369876 0.727535 0.721871
Si Si3 0.709615 0.138183 0.687601
Si Si4 0.923715 0.363695 0.527433
Si Si5 0.581883 0.136645 0.047761
Si Si6 0.175472 0.246133 0.907026
Si Si7 0.106995 0.000000 0.939899
O O1 0.581492 0.611463 0.251510
O O2 0.478896 0.500000 0.113291
O O3 0.616105 0.500000 0.077389
O O4 0.285110 0.693832 0.665840
O O5 0.406846 0.800654 0.636828
O O6 0.374472 0.798436 0.838967
O O7 0.645094 0.157691 0.576961
O O8 0.686092 0.212006 0.786037
O O9 0.721130 0.000000 0.719471
O O10 0.934538 0.500000 0.559698
O O11 0.000000 0.314505 0.500000
O O12 0.579666 0.000000 0.076541
O O13 0.500000 0.188517 0.000000
O O14 0.621193 0.160000 0.944658
O O15 0.144286 0.113847 0.898292
O O16 0.250000 0.250000 0.000000
#
# Coordination Sequence:
#
# PCOD8113518 Si02
#       7
#     4   8   8   8   8   8   4
#     4  11  22  40  68  91 131 175 210 258 319 388
#     4  12  22  43  68  93 127 172 216 261 317 383
#     4  11  24  44  67  95 128 172 213 264 322 378
#     4  10  25  46  70  94 125 166 216 272 324 374
#     4  11  24  38  62  96 130 167 213 265 315 377
#     4  12  24  39  65  95 134 169 212 257 318 387
#     4  11  24  40  59  98 136 174 207 255 325 377
#
# _framework density 19.463736999999998
#
# number of rings (size 3 to 8) (size 9 to 14) (size 15 to 20)
#    0.000    0.833    4.167    2.500    7.000    0.000 
#    1.500    1.250    0.000    0.000    0.000    0.000 
#    0.000    0.000    0.000    0.000    0.000    0.000 
#
# Total GULP energy -297681.609598 kJ/mol
# GULP energy per Si atom -12403.400400 kJ/mol
# Density = 1.941944 g / cm^3
# Si number density = 19.463737 Si / 1000 Ang^3
#
#
#
# Elastic Constant Matrix: (Units=GPa)
#
#
# Indices 1 2 3 4 5 6 
#
# 1 123.7364 38.5342 33.2439 0.0000 1.3574 0.0000
# 2 38.5342 95.4373 42.3415 0.0000 -2.8677 0.0000
# 3 33.2439 42.3415 81.3920 0.0000 -7.6545 0.0000
# 4 0.0000 0.0000 0.0000 40.9969 0.0000 -1.8038
# 5 1.3574 -2.8677 -7.6545 0.0000 38.2237 0.0000
# 6 0.0000 0.0000 0.0000 -1.8038 0.0000 37.8174
#
#
#
# Elastic Compliance Matrix: (Units=1/GPa)
#
#
# Indices 1 2 3 4 5 6 
#
# 1 0.009657 -0.002778 -0.002600 0.000000 -0.001072 0.000000
# 2 -0.002778 0.014427 -0.006380 0.000000 -0.000097 0.000000
# 3 -0.002600 -0.006380 0.016950 0.000000 0.003008 0.000000
# 4 0.000000 0.000000 0.000000 0.024443 0.000000 0.001166
# 5 -0.001072 -0.000097 0.003008 0.000000 0.026795 0.000000
# 6 0.000000 0.000000 0.000000 0.001166 0.000000 0.026498
#
#
# Mechanical properties :
#
#
# Convention : Reuss Voigt Hill
#
# Bulk Modulus (GPa) = 57.08141 58.75609 57.91875
# Shear Modulus (GPa) = 33.75502 35.83735 34.79618
#
# Velocity S-wave (km/s) = 4.16895 4.29562 4.23276
# Velocity P-wave (km/s) = 7.25012 7.40649 7.32872
#
# Compressibility (1/GPa) = 0.01751884
#
# Stress axis : x y z
#
# Youngs Moduli (GPa) = 103.55073 69.31345 58.99716
#
# Poissons Ratio (x) = 0.19254 0.15340
# Poissons Ratio (y) = 0.28765 0.37639
# Poissons Ratio (z) = 0.26924 0.44220
#
# Static dielectric constant tensor:
#      x y z
#    x 3.805780 0.000000 0.177970 
#    y 0.000000 3.491040 0.000000 
#    z 0.177970 0.000000 2.969670 
# 
# 
# High freq. dielectric constant tensor:
#      x y z
#    x 1.777290 0.000000 0.009260 
#    y 0.000000 1.767150 0.000000 
#    z 0.009260 0.000000 1.754490 
# 
# From -- ./inp_files/153585.got.cif
#   From: 2010.06.25/outbox.cif.g09.slc.cpg/sg12_77_cif.got.tgz:153585.got - 2010.06.28 00:19:55.
