data_PCOD8113861
_publ_section_title
;
Structure prediction by ZEFSAII (Michael W. Deem and Ramdas Pophale) SiO2 
 PCOD8113861
Probable space group: C 2/M
;
_chemical_formula_sum "Si O2"
_cell_formula_units_Z 56
_cell_length_a 30.077496
_cell_length_b 8.408555
_cell_length_c 22.017942
_cell_angle_alpha 90.000000
_cell_angle_beta 33.465312
_cell_angle_gamma 90.000000
_cell_volume 3070.660210
_symmetry_space_group_name_H-M "C 2/M"
_symmetry_group_IT_number 12
_symmetry_cell_setting 'monoclinic'
loop_
_space_group_symop_operation_xyz
x,y,z
-x,y,-z
-x,-y,-z
x,-y,z
1/2+x,1/2+y,z
1/2-x,1/2+y,-z
1/2-x,1/2-y,-z
1/2+x,1/2-y,z
loop_
_atom_site_type_symbol
_atom_site_label
_atom_site_fract_x
_atom_site_fract_y
_atom_site_fract_z
Si Si1 0.013072 0.311461 0.578956
Si Si2 0.548574 0.684764 0.003859
Si Si3 0.871315 0.311767 0.660164
Si Si4 0.716807 0.817246 0.787538
Si Si5 0.728729 0.314957 0.643192
Si Si6 0.098534 0.310997 0.598777
Si Si7 0.928769 0.314685 0.235130
O O1 0.015150 0.500000 0.576597
O O2 0.923792 0.256796 0.659267
O O3 0.080634 0.254090 0.454406
O O4 0.035441 0.244332 0.620266
O O5 0.569428 0.500000 0.974084
O O6 0.630776 0.782693 0.915954
O O7 0.500000 0.744529 0.000000
O O8 0.496029 0.714876 0.123457
O O9 0.857485 0.500000 0.676123
O O10 0.785352 0.223854 0.759141
O O11 0.730726 0.706982 0.713187
O O12 0.721545 0.000000 0.762730
O O13 0.713243 0.500000 0.646694
O O14 0.811601 0.251570 0.519433
O O15 0.658329 0.210026 0.694971
O O16 0.099252 0.500000 0.596573
O O17 0.072026 0.249287 0.694963
O O18 0.950790 0.500000 0.207016
#
# Coordination Sequence:
#
# PCOD8113861 Si02
#       7
#     8   8   8   8   8   8   8
#     4   8  14  28  53  81 106 139 179 213 249 306
#     4  11  23  39  58  75  98 138 183 223 261 311
#     4   9  16  30  55  80 105 139 179 215 253 310
#     4  12  23  34  53  80 111 138 170 222 274 312
#     4  11  20  34  54  76 108 147 182 211 248 313
#     4   9  18  32  53  80 111 144 177 213 256 309
#     4  11  22  35  53  79 110 141 175 219 267 309
#
# _framework density 18.237120000000001
#
# number of rings (size 3 to 8) (size 9 to 14) (size 15 to 20)
#    0.000    1.857    2.857    3.857    0.000    0.571 
#    0.000    3.571    0.000    0.857    0.000    0.000 
#    0.000    0.000    0.000    0.000    0.000    0.000 
#
# Total GULP energy -347207.883552 kJ/mol
# GULP energy per Si atom -12400.281555 kJ/mol
# Density = 1.819561 g / cm^3
# Si number density = 18.237120 Si / 1000 Ang^3
#
#
#
# Elastic Constant Matrix: (Units=GPa)
#
#
# Indices 1 2 3 4 5 6 
#
# 1 113.5629 14.4470 68.7562 0.0293 -15.8660 -0.0094
# 2 14.4470 39.8019 14.0059 0.0598 -6.2755 -0.0209
# 3 68.7562 14.0059 113.7138 0.0261 -3.3263 -0.0119
# 4 0.0293 0.0598 0.0261 15.0778 -0.0093 -0.8280
# 5 -15.8660 -6.2755 -3.3263 -0.0093 32.1183 -0.0049
# 6 -0.0094 -0.0209 -0.0119 -0.8280 -0.0049 16.4663
#
#
#
# Elastic Compliance Matrix: (Units=1/GPa)
#
#
# Indices 1 2 3 4 5 6 
#
# 1 0.015226 -0.001416 -0.008847 -0.000005 0.006329 0.000002
# 2 -0.001416 0.027157 -0.002361 -0.000097 0.004362 0.000028
# 3 -0.008847 -0.002361 0.014336 0.000000 -0.003347 0.000001
# 4 -0.000005 -0.000097 0.000000 0.066507 -0.000001 0.003344
# 5 0.006329 0.004362 -0.003347 -0.000001 0.034767 0.000017
# 6 0.000002 0.000028 0.000001 0.003344 0.000017 0.060898
#
#
# Mechanical properties :
#
#
# Convention : Reuss Voigt Hill
#
# Bulk Modulus (GPa) = 31.77455 51.27743 41.52599
# Shear Modulus (GPa) = 19.63630 24.05710 21.84670
#
# Velocity S-wave (km/s) = 3.28490 3.63592 3.46486
# Velocity P-wave (km/s) = 5.64343 6.76791 6.23109
#
# Compressibility (1/GPa) = 0.03147173
#
# Stress axis : x y z
#
# Youngs Moduli (GPa) = 65.67536 36.82276 69.75331
#
# Poissons Ratio (x) = 0.05213 0.61711
# Poissons Ratio (y) = 0.09298 0.16470
# Poissons Ratio (z) = 0.58103 0.08695
#
# Static dielectric constant tensor:
#      x y z
#    x 3.742150 -0.000030 -0.043190 
#    y -0.000030 3.039790 0.000020 
#    z -0.043190 0.000020 3.275370 
# 
# 
# High freq. dielectric constant tensor:
#      x y z
#    x 1.707700 0.000000 -0.012110 
#    y 0.000000 1.686810 0.000000 
#    z -0.012110 0.000000 1.688800 
# 
# From -- ./inp_files/295104.got.cif
#   From: 2010.06.25/outbox.cif.g09.slc.cpg/sg12_148_cif.got.tgz:295104.got - 2010.06.28 00:19:55.
