data_PCOD8113281
_publ_section_title
;
Structure prediction by ZEFSAII (Michael W. Deem and Ramdas Pophale) SiO2 
 PCOD8113281
Probable space group: C 2/M
;
_chemical_formula_sum "Si O2"
_cell_formula_units_Z 44
_cell_length_a 25.648776
_cell_length_b 7.548168
_cell_length_c 13.312272
_cell_angle_alpha 90.000000
_cell_angle_beta 58.074239
_cell_angle_gamma 90.000000
_cell_volume 2187.419048
_symmetry_space_group_name_H-M "C 2/M"
_symmetry_group_IT_number 12
_symmetry_cell_setting 'monoclinic'
loop_
_space_group_symop_operation_xyz
x,y,z
-x,y,-z
-x,-y,-z
x,-y,z
1/2+x,1/2+y,z
1/2-x,1/2+y,-z
1/2-x,1/2-y,-z
1/2+x,1/2-y,z
loop_
_atom_site_type_symbol
_atom_site_label
_atom_site_fract_x
_atom_site_fract_y
_atom_site_fract_z
Si Si1 0.887087 0.299981 0.291065
Si Si2 0.022220 0.000000 0.864445
Si Si3 0.691039 0.801553 0.996137
Si Si4 0.071512 0.000000 0.406372
Si Si5 0.219802 0.207037 0.744248
Si Si6 0.858716 0.705603 0.546683
Si Si7 0.402134 0.500000 0.854261
O O1 0.912506 0.500000 0.262762
O O2 0.824374 0.291392 0.293043
O O3 0.873056 0.239179 0.418347
O O4 0.938296 0.175808 0.191402
O O5 0.966202 0.000000 0.845552
O O6 0.000000 0.000000 0.000000
O O7 0.634620 0.674794 0.077730
O O8 0.670690 0.000000 0.045923
O O9 0.750000 0.750000 0.000000
O O10 0.708312 0.797823 0.862150
O O11 0.099454 0.178392 0.423505
O O12 0.085294 0.000000 0.275492
O O13 0.000000 0.000000 0.500000
O O14 0.288222 0.249614 0.639701
O O15 0.206361 0.000000 0.767899
O O16 0.873358 0.500000 0.552718
#
# Coordination Sequence:
#
# PCOD8113281 Si02
#       7
#     8   4   8   4   8   8   4
#     4  11  23  42  66  97 132 172 218 272 330 389
#     4  12  26  46  68  92 136 178 223 276 321 394
#     4  12  24  42  65  96 135 171 216 271 328 391
#     4  12  26  44  68  94 128 177 223 270 331 388
#     4  11  21  39  66  99 135 171 213 267 331 394
#     4  10  24  41  65  98 133 169 216 270 329 394
#     4  12  26  44  68  98 130 177 224 270 328 390
#
# _framework density 20.115029
#
# number of rings (size 3 to 8) (size 9 to 14) (size 15 to 20)
#    0.000    0.727    2.727    4.909    2.545    3.636 
#    0.000    0.000    0.000    0.000    0.000    0.000 
#    0.000    0.000    0.000    0.000    0.000    0.000 
#
# Total GULP energy -272953.295997 kJ/mol
# GULP energy per Si atom -12406.968000 kJ/mol
# Density = 2.006925 g / cm^3
# Si number density = 20.115029 Si / 1000 Ang^3
#
#
#
# Elastic Constant Matrix: (Units=GPa)
#
#
# Indices 1 2 3 4 5 6 
#
# 1 146.2724 60.3279 72.4147 0.0000 4.6355 0.0000
# 2 60.3279 142.2620 70.4151 0.0000 -8.8513 0.0000
# 3 72.4147 70.4151 170.2010 -0.0001 6.7889 0.0000
# 4 0.0000 0.0000 -0.0001 103.0723 0.0000 21.4550
# 5 4.6355 -8.8513 6.7889 0.0000 42.3320 0.0000
# 6 0.0000 0.0000 0.0000 21.4550 0.0000 42.0093
#
#
#
# Elastic Compliance Matrix: (Units=1/GPa)
#
#
# Indices 1 2 3 4 5 6 
#
# 1 0.009370 -0.002630 -0.002854 0.000000 -0.001118 0.000000
# 2 -0.002630 0.009838 -0.003064 0.000000 0.002836 0.000000
# 3 -0.002854 -0.003064 0.008424 0.000000 -0.001679 0.000000
# 4 0.000000 0.000000 0.000000 0.010856 0.000000 -0.005544
# 5 -0.001118 0.002836 -0.001679 0.000000 0.024608 0.000000
# 6 0.000000 0.000000 0.000000 -0.005544 0.000000 0.026636
#
#
# Mechanical properties :
#
#
# Convention : Reuss Voigt Hill
#
# Bulk Modulus (GPa) = 94.91789 96.11676 95.51732
# Shear Modulus (GPa) = 45.31484 54.52122 49.91803
#
# Velocity S-wave (km/s) = 4.75150 5.21187 4.98700
# Velocity P-wave (km/s) = 8.79729 9.17090 8.98604
#
# Compressibility (1/GPa) = 0.01053542
#
# Stress axis : x y z
#
# Youngs Moduli (GPa) = 106.72811 101.64828 118.70651
#
# Poissons Ratio (x) = 0.26738 0.33874
# Poissons Ratio (y) = 0.28074 0.36372
# Poissons Ratio (z) = 0.30456 0.31146
#
# Static dielectric constant tensor:
#      x y z
#    x 3.836440 0.000000 0.244260 
#    y 0.000000 3.805900 0.000000 
#    z 0.244260 0.000000 4.083460 
# 
# 
# High freq. dielectric constant tensor:
#      x y z
#    x 1.792140 0.000000 0.008950 
#    y 0.000000 1.804020 0.000000 
#    z 0.008950 0.000000 1.800640 
# 
# From -- ./inp_files/172842.got.cif
#   From: 2010.06.25/outbox.cif.g09.slc.cpg/sg12_87_cif.got.tgz:172842.got - 2010.06.28 00:19:55.
