data_PCOD8113771
_publ_section_title
;
Structure prediction by ZEFSAII (Michael W. Deem and Ramdas Pophale) SiO2 
 PCOD8113771
Probable space group: C 2/M
;
_chemical_formula_sum "Si O2"
_cell_formula_units_Z 56
_cell_length_a 13.527894
_cell_length_b 25.567785
_cell_length_c 12.407865
_cell_angle_alpha 90.000000
_cell_angle_beta 124.048660
_cell_angle_gamma 90.000000
_cell_volume 3555.867413
_symmetry_space_group_name_H-M "C 2/M"
_symmetry_group_IT_number 12
_symmetry_cell_setting 'monoclinic'
loop_
_space_group_symop_operation_xyz
x,y,z
-x,y,-z
-x,-y,-z
x,-y,z
1/2+x,1/2+y,z
1/2-x,1/2+y,-z
1/2-x,1/2-y,-z
1/2+x,1/2-y,z
loop_
_atom_site_type_symbol
_atom_site_label
_atom_site_fract_x
_atom_site_fract_y
_atom_site_fract_z
Si Si1 0.387459 0.319321 0.862945
Si Si2 0.941997 0.216173 0.366614
Si Si3 0.576662 0.441847 0.654336
Si Si4 0.685124 0.216159 0.871129
Si Si5 0.903377 0.862625 0.647054
Si Si6 0.270890 0.634204 0.357957
Si Si7 0.453083 0.199590 0.856115
O O1 0.275991 0.326232 0.877423
O O2 0.362743 0.357566 0.746718
O O3 0.406628 0.258905 0.837840
O O4 0.500000 0.339195 0.000000
O O5 0.839089 0.246935 0.244965
O O6 0.885337 0.167851 0.395460
O O7 0.000000 0.250648 0.500000
O O8 0.039328 0.194530 0.341921
O O9 0.500000 0.443923 0.500000
O O10 0.596626 0.500000 0.714144
O O11 0.504605 0.407609 0.698796
O O12 0.707366 0.418405 0.699962
O O13 0.562694 0.192492 0.840171
O O14 0.750000 0.250000 0.000000
O O15 0.788706 0.874047 0.498738
O O16 0.146736 0.661038 0.252259
O O17 0.500000 0.179230 0.000000
#
# Coordination Sequence:
#
# PCOD8113771 Si02
#       7
#     8   8   8   8   8   8   8
#     4  11  20  30  44  63  92 131 163 195 226 277
#     4   9  16  25  40  61  85 115 147 183 220 265
#     4   8  15  30  54  79  96 114 151 203 247 286
#     4  12  19  29  41  60  87 123 170 189 213 266
#     4   9  17  29  45  68  95 120 152 194 243 282
#     4   9  17  29  45  68  95 120 152 194 243 282
#     4  11  20  30  44  63  92 131 163 195 226 277
#
# _framework density 15.748619
#
# number of rings (size 3 to 8) (size 9 to 14) (size 15 to 20)
#    0.000    2.143    5.714    1.714    0.000    2.857 
#    0.000    0.000    0.000    0.857    0.000    1.000 
#    0.000    4.571    0.000    0.000    0.000    0.000 
#
# Total GULP energy -346884.343927 kJ/mol
# GULP energy per Si atom -12388.726569 kJ/mol
# Density = 1.571277 g / cm^3
# Si number density = 15.748619 Si / 1000 Ang^3
#
#
#
# Elastic Constant Matrix: (Units=GPa)
#
#
# Indices 1 2 3 4 5 6 
#
# 1 103.1303 27.4494 33.7931 0.0000 -3.7669 0.0000
# 2 27.4494 49.1576 35.8578 0.0000 -0.0309 0.0000
# 3 33.7931 35.8578 103.9809 0.0000 -4.1897 0.0000
# 4 0.0000 0.0000 0.0000 10.9377 0.0000 0.3558
# 5 -3.7669 -0.0309 -4.1897 0.0000 27.4322 0.0000
# 6 0.0000 0.0000 0.0000 0.3558 0.0000 14.1634
#
#
#
# Elastic Compliance Matrix: (Units=1/GPa)
#
#
# Indices 1 2 3 4 5 6 
#
# 1 0.011760 -0.005099 -0.002011 0.000000 0.001302 0.000000
# 2 -0.005099 0.029445 -0.008577 0.000000 -0.001977 0.000000
# 3 -0.002011 -0.008577 0.013299 0.000000 0.001745 0.000000
# 4 0.000000 0.000000 0.000000 0.091502 0.000000 -0.002299
# 5 0.001302 -0.001977 0.001745 0.000000 0.036897 0.000000
# 6 0.000000 0.000000 0.000000 -0.002299 0.000000 0.070662
#
#
# Mechanical properties :
#
#
# Convention : Reuss Voigt Hill
#
# Bulk Modulus (GPa) = 43.23322 50.05218 46.64270
# Shear Modulus (GPa) = 17.08534 21.11786 19.10160
#
# Velocity S-wave (km/s) = 3.29732 3.66585 3.48646
# Velocity P-wave (km/s) = 6.48137 7.05471 6.77411
#
# Compressibility (1/GPa) = 0.02313036
#
# Stress axis : x y z
#
# Youngs Moduli (GPa) = 85.03259 33.96165 75.19522
#
# Poissons Ratio (x) = 0.17317 0.15123
# Poissons Ratio (y) = 0.43358 0.64492
# Poissons Ratio (z) = 0.17101 0.29128
#
# Static dielectric constant tensor:
#      x y z
#    x 3.151810 0.000000 -0.069990 
#    y 0.000000 2.766190 0.000000 
#    z -0.069990 0.000000 3.046620 
# 
# 
# High freq. dielectric constant tensor:
#      x y z
#    x 1.599330 0.000000 -0.004920 
#    y 0.000000 1.544090 0.000000 
#    z -0.004920 0.000000 1.610360 
# 
# From -- ./inp_files/136724.got.cif
#   From: 2010.06.25/outbox.cif.g09.slc.cpg/sg12_69_cif.got.tgz:136724.got - 2010.06.28 00:19:55.
