data_PCOD8113419
_publ_section_title
;
Structure prediction by ZEFSAII (Michael W. Deem and Ramdas Pophale) SiO2 
 PCOD8113419
Probable space group: C 2/M
;
_chemical_formula_sum "Si O2"
_cell_formula_units_Z 64
_cell_length_a 22.649895
_cell_length_b 28.560222
_cell_length_c 8.715070
_cell_angle_alpha 90.000000
_cell_angle_beta 147.551138
_cell_angle_gamma 90.000000
_cell_volume 3024.865966
_symmetry_space_group_name_H-M "C 2/M"
_symmetry_group_IT_number 12
_symmetry_cell_setting 'monoclinic'
loop_
_space_group_symop_operation_xyz
x,y,z
-x,y,-z
-x,-y,-z
x,-y,z
1/2+x,1/2+y,z
1/2-x,1/2+y,-z
1/2-x,1/2-y,-z
1/2+x,1/2-y,z
loop_
_atom_site_type_symbol
_atom_site_label
_atom_site_fract_x
_atom_site_fract_y
_atom_site_fract_z
Si Si1 0.763190 0.238487 0.278625
Si Si2 0.722426 0.102220 0.821163
Si Si3 0.602576 0.710929 0.148866
Si Si4 0.389998 0.944879 0.690508
Si Si5 0.876014 0.304016 0.289486
Si Si6 0.572109 0.615967 0.926899
Si Si7 0.383197 0.445847 0.402959
Si Si8 0.824012 0.947262 0.616779
O O1 0.662580 0.265394 0.138235
O O2 0.814846 0.205033 0.524374
O O3 0.851934 0.273478 0.391410
O O4 0.712562 0.207122 0.035268
O O5 0.634968 0.071455 0.536076
O O6 0.646946 0.141635 0.731595
O O7 0.814350 0.125319 0.913351
O O8 0.785577 0.067889 0.075145
O O9 0.500000 0.739761 0.000000
O O10 0.543772 0.664660 0.948391
O O11 0.294090 0.927473 0.592853
O O12 0.402896 0.000000 0.716547
O O13 0.500000 0.921323 0.000000
O O14 0.000000 0.295477 0.500000
O O15 0.483065 0.592385 0.614526
O O16 0.580662 0.579314 0.084184
O O17 0.421942 0.500000 0.455678
O O18 0.329366 0.441114 0.449399
O O19 0.838519 0.000000 0.704482
#
# Coordination Sequence:
#
# PCOD8113419 Si02
#       8
#     8   8   8   8   8   8   8   8
#     4  10  24  45  67  94 130 168 219 270 331 401
#     4  11  24  40  59  95 128 169 216 267 312 392
#     4  11  22  40  68 100 126 167 216 267 324 392
#     4   9  19  39  63  86 118 166 214 265 323 375
#     4  11  24  46  66  93 130 174 214 271 337 387
#     4  11  22  38  60  93 129 169 212 259 320 390
#     4  11  23  39  62  96 136 175 213 265 330 393
#     4   9  19  35  57  86 123 163 210 259 314 385
#
# _framework density 21.157962000000001
#
# number of rings (size 3 to 8) (size 9 to 14) (size 15 to 20)
#    0.000    1.625    1.250    3.000    3.500    4.000 
#    2.250    0.625    0.000    3.750    0.000    0.000 
#    0.000    0.000    0.000    0.000    0.000    0.000 
#
# Total GULP energy -396517.398449 kJ/mol
# GULP energy per Si atom -12391.168702 kJ/mol
# Density = 2.110981 g / cm^3
# Si number density = 21.157962 Si / 1000 Ang^3
#
#
#
# Elastic Constant Matrix: (Units=GPa)
#
#
# Indices 1 2 3 4 5 6 
#
# 1 112.0408 21.8424 24.4053 0.0000 6.8555 0.0000
# 2 21.8424 43.9341 26.3495 0.0000 1.9209 0.0000
# 3 24.4053 26.3495 120.9853 0.0000 -9.8660 0.0000
# 4 0.0000 0.0000 0.0000 23.0714 0.0000 -0.4229
# 5 6.8555 1.9209 -9.8660 0.0000 39.3977 0.0000
# 6 0.0000 0.0000 0.0000 -0.4229 0.0000 14.8577
#
#
#
# Elastic Compliance Matrix: (Units=1/GPa)
#
#
# Indices 1 2 3 4 5 6 
#
# 1 0.010137 -0.004186 -0.001287 0.000000 -0.001882 0.000000
# 2 -0.004186 0.028207 -0.005463 0.000000 -0.002015 0.000000
# 3 -0.001287 -0.005463 0.009958 0.000000 0.002984 0.000000
# 4 0.000000 0.000000 0.000000 0.043366 0.000000 0.001234
# 5 -0.001882 -0.002015 0.002984 0.000000 0.026555 0.000000
# 6 0.000000 0.000000 0.000000 0.001234 0.000000 0.067340
#
#
# Mechanical properties :
#
#
# Convention : Reuss Voigt Hill
#
# Bulk Modulus (GPa) = 37.83458 46.90607 42.37032
# Shear Modulus (GPa) = 23.12194 29.08958 26.10576
#
# Velocity S-wave (km/s) = 3.30938 3.71196 3.51643
# Velocity P-wave (km/s) = 5.70293 6.37096 6.04618
#
# Compressibility (1/GPa) = 0.02643085
#
# Stress axis : x y z
#
# Youngs Moduli (GPa) = 98.65110 35.45224 100.41988
#
# Poissons Ratio (x) = 0.14839 0.12921
# Poissons Ratio (y) = 0.41292 0.54861
# Poissons Ratio (z) = 0.12693 0.19368
#
# Static dielectric constant tensor:
#      x y z
#    x 4.082230 0.000000 0.044210 
#    y 0.000000 3.654610 0.000000 
#    z 0.044210 0.000000 3.971510 
# 
# 
# High freq. dielectric constant tensor:
#      x y z
#    x 1.848340 0.000000 -0.005700 
#    y 0.000000 1.810870 0.000000 
#    z -0.005700 0.000000 1.831230 
# 
# From -- ./inp_files/100230.got.cif
#   From: 2010.06.25/outbox.cif.g09.slc.cpg/sg12_51_cif.got.tgz:100230.got - 2010.06.28 00:19:55.
