data_PCOD8113415
_publ_section_title
;
Structure prediction by ZEFSAII (Michael W. Deem and Ramdas Pophale) SiO2 
 PCOD8113415
Probable space group: C 2/M
;
_chemical_formula_sum "Si O2"
_cell_formula_units_Z 56
_cell_length_a 8.722518
_cell_length_b 22.422147
_cell_length_c 13.734017
_cell_angle_alpha 90.000000
_cell_angle_beta 71.808538
_cell_angle_gamma 90.000000
_cell_volume 2551.812446
_symmetry_space_group_name_H-M "C 2/M"
_symmetry_group_IT_number 12
_symmetry_cell_setting 'monoclinic'
loop_
_space_group_symop_operation_xyz
x,y,z
-x,y,-z
-x,-y,-z
x,-y,z
1/2+x,1/2+y,z
1/2-x,1/2+y,-z
1/2-x,1/2-y,-z
1/2+x,1/2-y,z
loop_
_atom_site_type_symbol
_atom_site_label
_atom_site_fract_x
_atom_site_fract_y
_atom_site_fract_z
Si Si1 0.115339 0.888864 0.688787
Si Si2 0.590875 0.268828 0.140535
Si Si3 0.831210 0.433200 0.489747
Si Si4 0.164202 0.344448 0.009378
Si Si5 0.855088 0.844185 0.603098
Si Si6 0.756193 0.228427 0.286445
Si Si7 0.649360 0.567531 0.898619
O O1 0.192997 0.936684 0.600466
O O2 0.243728 0.833307 0.654148
O O3 0.098294 0.915624 0.799532
O O4 0.937399 0.867858 0.687369
O O5 0.616933 0.220844 0.053234
O O6 0.607586 0.240029 0.244511
O O7 0.401650 0.282953 0.179535
O O8 0.694157 0.329734 0.098283
O O9 0.855980 0.500000 0.443995
O O10 0.769547 0.392976 0.412741
O O11 0.000000 0.409084 0.500000
O O12 0.216253 0.387647 0.086718
O O13 0.000000 0.374005 0.000000
O O14 0.745053 0.785317 0.641214
O O15 0.000000 0.829515 0.500000
O O16 0.717179 0.500000 0.885699
O O17 0.500000 0.573021 0.000000
#
# Coordination Sequence:
#
# PCOD8113415 Si02
#       7
#     8   8   8   8   8   8   8
#     4  11  23  41  66  92 127 168 210 258 320 378
#     4  11  23  37  62  95 126 169 207 261 315 380
#     4  10  24  45  67  92 122 165 217 265 313 374
#     4  11  23  39  62  91 129 168 216 262 313 369
#     4  10  25  42  65  97 128 166 207 262 321 380
#     4  12  22  39  61  97 131 158 207 257 321 384
#     4  11  25  42  63  92 127 170 218 264 312 372
#
# _framework density 21.945186
#
# number of rings (size 3 to 8) (size 9 to 14) (size 15 to 20)
#    0.000    1.143    4.286    1.286    2.000    6.286 
#    0.000    0.000    0.000    0.000    0.000    0.000 
#    0.000    0.000    0.000    0.000    0.000    0.000 
#
# Total GULP energy -346988.952120 kJ/mol
# GULP energy per Si atom -12392.462576 kJ/mol
# Density = 2.189524 g / cm^3
# Si number density = 21.945186 Si / 1000 Ang^3
#
#
#
# Elastic Constant Matrix: (Units=GPa)
#
#
# Indices 1 2 3 4 5 6 
#
# 1 81.4463 31.3689 24.0167 0.0000 12.2644 0.0000
# 2 31.3689 84.7693 23.5659 0.0000 4.7229 0.0000
# 3 24.0167 23.5659 78.4949 0.0000 10.0379 0.0000
# 4 0.0000 0.0000 0.0000 30.0545 0.0000 2.6728
# 5 12.2644 4.7229 10.0379 0.0000 43.3239 0.0000
# 6 0.0000 0.0000 0.0000 2.6728 0.0000 26.0223
#
#
#
# Elastic Compliance Matrix: (Units=1/GPa)
#
#
# Indices 1 2 3 4 5 6 
#
# 1 0.015432 -0.004728 -0.002895 0.000000 -0.003182 0.000000
# 2 -0.004728 0.014331 -0.002914 0.000000 0.000451 0.000000
# 3 -0.002895 -0.002914 0.014793 0.000000 -0.002290 0.000000
# 4 0.000000 0.000000 0.000000 0.033580 0.000000 -0.003449
# 5 -0.003182 0.000451 -0.002290 0.000000 0.024464 0.000000
# 6 0.000000 0.000000 0.000000 -0.003449 0.000000 0.038783
#
#
# Mechanical properties :
#
#
# Convention : Reuss Voigt Hill
#
# Bulk Modulus (GPa) = 42.58548 44.73483 43.66016
# Shear Modulus (GPa) = 29.36254 30.93074 30.14664
#
# Velocity S-wave (km/s) = 3.66183 3.75834 3.71040
# Velocity P-wave (km/s) = 6.10951 6.26599 6.18825
#
# Compressibility (1/GPa) = 0.02348218
#
# Stress axis : x y z
#
# Youngs Moduli (GPa) = 64.79991 69.77725 67.59912
#
# Poissons Ratio (x) = 0.32994 0.19571
# Poissons Ratio (y) = 0.30641 0.19695
# Poissons Ratio (z) = 0.18760 0.20330
#
# Static dielectric constant tensor:
#      x y z
#    x 4.020460 0.000000 0.055760 
#    y 0.000000 4.008230 0.000000 
#    z 0.055760 0.000000 3.906360 
# 
# 
# High freq. dielectric constant tensor:
#      x y z
#    x 1.863490 0.000000 0.008420 
#    y 0.000000 1.855550 0.000000 
#    z 0.008420 0.000000 1.862620 
# 
# From -- ./inp_files/198357.got.cif
#   From: 2010.06.25/outbox.cif.g09.slc.cpg/sg12_100_cif.got.tgz:198357.got - 2010.06.28 00:19:55.
