data_PCOD8113820
_publ_section_title
;
Structure prediction by ZEFSAII (Michael W. Deem and Ramdas Pophale) SiO2 
 PCOD8113820
Probable space group: C 2/M
;
_chemical_formula_sum "Si O2"
_cell_formula_units_Z 56
_cell_length_a 25.537608
_cell_length_b 8.716759
_cell_length_c 19.162246
_cell_angle_alpha 90.000000
_cell_angle_beta 47.986813
_cell_angle_gamma 90.000000
_cell_volume 3169.312789
_symmetry_space_group_name_H-M "C 2/M"
_symmetry_group_IT_number 12
_symmetry_cell_setting 'monoclinic'
loop_
_space_group_symop_operation_xyz
x,y,z
-x,y,-z
-x,-y,-z
x,-y,z
1/2+x,1/2+y,z
1/2-x,1/2+y,-z
1/2-x,1/2-y,-z
1/2+x,1/2-y,z
loop_
_atom_site_type_symbol
_atom_site_label
_atom_site_fract_x
_atom_site_fract_y
_atom_site_fract_z
Si Si1 0.307497 0.819088 0.897552
Si Si2 0.496558 0.181833 0.115986
Si Si3 0.507684 0.822372 0.606020
Si Si4 0.113653 0.322716 0.395161
Si Si5 0.042640 0.178700 0.213064
Si Si6 0.890066 0.681282 0.096188
Si Si7 0.266128 0.319625 0.788338
O O1 0.384786 0.771996 0.853791
O O2 0.295728 0.763531 0.829786
O O3 0.301374 0.000000 0.906057
O O4 0.250000 0.750000 0.000000
O O5 0.495704 0.272991 0.188950
O O6 0.427819 0.236466 0.133722
O O7 0.495929 0.000000 0.130305
O O8 0.565819 0.232777 0.010890
O O9 0.580214 0.785110 0.500506
O O10 0.442430 0.782944 0.614559
O O11 0.503526 0.717073 0.677686
O O12 0.505122 0.000000 0.630518
O O13 0.135347 0.500000 0.371520
O O14 0.182686 0.218843 0.322144
O O15 0.060190 0.000000 0.195820
O O16 0.888594 0.500000 0.099386
O O17 0.811103 0.746947 0.161151
O O18 0.263870 0.500000 0.804500
#
# Coordination Sequence:
#
# PCOD8113820 Si02
#       7
#     8   8   8   8   8   8   8
#     4  12  24  37  51  73 107 144 177 210 256 312
#     4   9  17  35  58  75  99 141 183 217 252 304
#     4   9  18  34  54  74 101 138 179 218 257 310
#     4   9  18  33  53  76 102 137 179 216 258 313
#     4  12  23  34  51  80 110 137 172 216 265 315
#     4   8  17  33  55  79 101 134 181 218 254 306
#     4  11  20  32  52  81 111 137 169 215 265 316
#
# _framework density 17.669447000000002
#
# number of rings (size 3 to 8) (size 9 to 14) (size 15 to 20)
#    0.000    2.000    1.429    5.571    0.000    1.714 
#    0.000    5.000    0.000    0.857    0.000    0.000 
#    0.000    0.000    0.000    0.000    0.000    0.000 
#
# Total GULP energy -347220.411542 kJ/mol
# GULP energy per Si atom -12400.728984 kJ/mol
# Density = 1.762923 g / cm^3
# Si number density = 17.669447 Si / 1000 Ang^3
#
#
#
# Elastic Constant Matrix: (Units=GPa)
#
#
# Indices 1 2 3 4 5 6 
#
# 1 73.9204 24.1719 32.6124 -0.0059 7.5458 0.0053
# 2 24.1719 78.8305 32.7083 0.0114 4.3020 -0.0015
# 3 32.6124 32.7083 100.0052 -0.0067 6.6742 0.0025
# 4 -0.0059 0.0114 -0.0067 30.5649 0.0041 -0.7471
# 5 7.5458 4.3020 6.6742 0.0041 27.0776 -0.0028
# 6 0.0053 -0.0015 0.0025 -0.7471 -0.0028 19.3517
#
#
#
# Elastic Compliance Matrix: (Units=1/GPa)
#
#
# Indices 1 2 3 4 5 6 
#
# 1 0.016754 -0.003224 -0.004201 0.000004 -0.003121 -0.000005
# 2 -0.003224 0.015334 -0.003926 -0.000007 -0.000570 0.000002
# 3 -0.004201 -0.003926 0.012743 0.000004 -0.001347 -0.000001
# 4 0.000004 -0.000007 0.000004 0.032748 -0.000006 0.001264
# 5 -0.003121 -0.000570 -0.001347 -0.000006 0.038223 0.000006
# 6 -0.000005 0.000002 -0.000001 0.001264 0.000006 0.051724
#
#
# Mechanical properties :
#
#
# Convention : Reuss Voigt Hill
#
# Bulk Modulus (GPa) = 45.18724 47.97126 46.57925
# Shear Modulus (GPa) = 25.30300 26.28308 25.79304
#
# Velocity S-wave (km/s) = 3.78831 3.86098 3.82482
# Velocity P-wave (km/s) = 6.69061 6.86181 6.77675
#
# Compressibility (1/GPa) = 0.02213014
#
# Stress axis : x y z
#
# Youngs Moduli (GPa) = 59.68616 65.21438 78.47261
#
# Poissons Ratio (x) = 0.21025 0.32966
# Poissons Ratio (y) = 0.19243 0.30807
# Poissons Ratio (z) = 0.25074 0.25602
#
# Static dielectric constant tensor:
#      x y z
#    x 3.485100 -0.000010 -0.033060 
#    y -0.000010 3.107980 0.000010 
#    z -0.033060 0.000010 3.600730 
# 
# 
# High freq. dielectric constant tensor:
#      x y z
#    x 1.666500 0.000000 0.000020 
#    y 0.000000 1.672770 0.000000 
#    z 0.000020 0.000000 1.687370 
# 
# From -- ./inp_files/291857.got.cif
#   From: 2010.06.25/outbox.cif.g09.slc.cpg/sg12_146_cif.got.tgz:291857.got - 2010.06.28 00:19:55.
