data_PCOD8113007
_publ_section_title
;
Structure prediction by ZEFSAII (Michael W. Deem and Ramdas Pophale) SiO2 
 PCOD8113007
Probable space group: C 2/M
;
_chemical_formula_sum "Si O2"
_cell_formula_units_Z 48
_cell_length_a 10.842640
_cell_length_b 26.726871
_cell_length_c 13.490686
_cell_angle_alpha 90.000000
_cell_angle_beta 33.779929
_cell_angle_gamma 90.000000
_cell_volume 2173.679370
_symmetry_space_group_name_H-M "C 2/M"
_symmetry_group_IT_number 12
_symmetry_cell_setting 'monoclinic'
loop_
_space_group_symop_operation_xyz
x,y,z
-x,y,-z
-x,-y,-z
x,-y,z
1/2+x,1/2+y,z
1/2-x,1/2+y,-z
1/2-x,1/2-y,-z
1/2+x,1/2-y,z
loop_
_atom_site_type_symbol
_atom_site_label
_atom_site_fract_x
_atom_site_fract_y
_atom_site_fract_z
Si Si1 0.085253 0.557455 0.546859
Si Si2 0.335851 0.057277 0.905592
Si Si3 0.229296 0.895414 0.300251
Si Si4 0.530624 0.268584 0.699323
Si Si5 0.478754 0.385085 0.756854
Si Si6 0.346635 0.211738 0.191602
O O1 0.160300 0.500000 0.490123
O O2 0.298279 0.589663 0.433095
O O3 0.000000 0.578280 0.500000
O O4 0.882403 0.564849 0.758126
O O5 0.565705 0.070849 0.805303
O O6 0.274652 0.000000 0.971568
O O7 0.123665 0.092144 0.073370
O O8 0.214456 0.898201 0.191572
O O9 0.256124 0.836681 0.311320
O O10 0.000000 0.915698 0.500000
O O11 0.527110 0.326632 0.730606
O O12 0.513343 0.242275 0.819178
O O13 0.343434 0.256443 0.740379
O O14 0.750000 0.250000 0.500000
O O15 0.500000 0.192341 0.000000
#
# Coordination Sequence:
#
# PCOD8113007 Si02
#       6
#     8   8   8   8   8   8
#     4  10  23  43  65  92 129 174 220 271 327 389
#     4  11  24  41  68  99 130 170 217 270 329 395
#     4  11  21  40  66  94 133 171 207 267 333 388
#     4  11  24  43  66  96 130 178 221 271 334 391
#     4  11  23  43  65  97 131 172 213 274 330 390
#     4  11  23  42  65  94 132 173 218 271 332 392
#
# _framework density 22.082374000000002
#
# number of rings (size 3 to 8) (size 9 to 14) (size 15 to 20)
#    0.000    1.167    1.667    6.000    0.000    4.333 
#    3.000    2.500    0.000    0.000    0.000    0.000 
#    0.000    0.000    0.000    0.000    0.000    0.000 
#
# Total GULP energy -297474.404067 kJ/mol
# GULP energy per Si atom -12394.766836 kJ/mol
# Density = 2.203211 g / cm^3
# Si number density = 22.082374 Si / 1000 Ang^3
#
#
#
# Elastic Constant Matrix: (Units=GPa)
#
#
# Indices 1 2 3 4 5 6 
#
# 1 95.0725 36.6508 -1.2678 0.0000 8.5149 0.0000
# 2 36.6508 98.0461 38.5394 0.0000 9.7430 0.0000
# 3 -1.2678 38.5394 100.3073 0.0000 6.4760 0.0000
# 4 0.0000 0.0000 0.0000 42.8770 0.0000 -4.5885
# 5 8.5149 9.7430 6.4760 0.0000 32.8730 0.0000
# 6 0.0000 0.0000 0.0000 -4.5885 0.0000 26.2477
#
#
#
# Elastic Compliance Matrix: (Units=1/GPa)
#
#
# Indices 1 2 3 4 5 6 
#
# 1 0.012889 -0.005561 0.002440 0.000000 -0.002171 0.000000
# 2 -0.005561 0.014652 -0.005583 0.000000 -0.001802 0.000000
# 3 0.002440 -0.005583 0.012235 0.000000 -0.001387 0.000000
# 4 0.000000 0.000000 0.000000 0.023767 0.000000 0.004155
# 5 -0.002171 -0.001802 -0.001387 0.000000 0.031790 0.000000
# 6 0.000000 0.000000 0.000000 0.004155 0.000000 0.038825
#
#
# Mechanical properties :
#
#
# Convention : Reuss Voigt Hill
#
# Bulk Modulus (GPa) = 44.71043 49.03009 46.87026
# Shear Modulus (GPa) = 31.44186 35.03311 33.23748
#
# Velocity S-wave (km/s) = 3.77748 3.98738 3.88385
# Velocity P-wave (km/s) = 6.27032 6.59169 6.43301
#
# Compressibility (1/GPa) = 0.02236614
#
# Stress axis : x y z
#
# Youngs Moduli (GPa) = 77.58426 68.25006 81.73267
#
# Poissons Ratio (x) = 0.37957 -0.19942
# Poissons Ratio (y) = 0.43148 0.45635
# Poissons Ratio (z) = -0.18929 0.38107
#
# Static dielectric constant tensor:
#      x y z
#    x 4.314420 0.000000 0.037980 
#    y 0.000000 3.862020 0.000000 
#    z 0.037980 0.000000 4.104960 
# 
# 
# High freq. dielectric constant tensor:
#      x y z
#    x 1.870550 0.000000 0.007120 
#    y 0.000000 1.856650 0.000000 
#    z 0.007120 0.000000 1.883750 
# 
# From -- ./inp_files/209279.got.cif
#   From: 2010.06.25/outbox.cif.g09.slc.cpg/sg12_105_cif.got.tgz:209279.got - 2010.06.28 00:19:55.
