data_PCOD8113409
_publ_section_title
;
Structure prediction by ZEFSAII (Michael W. Deem and Ramdas Pophale) SiO2 
 PCOD8113409
Probable space group: C 2/M
;
_chemical_formula_sum "Si O2"
_cell_formula_units_Z 44
_cell_length_a 7.780205
_cell_length_b 24.245871
_cell_length_c 10.572985
_cell_angle_alpha 90.000000
_cell_angle_beta 106.693725
_cell_angle_gamma 90.000000
_cell_volume 1910.406319
_symmetry_space_group_name_H-M "C 2/M"
_symmetry_group_IT_number 12
_symmetry_cell_setting 'monoclinic'
loop_
_space_group_symop_operation_xyz
x,y,z
-x,y,-z
-x,-y,-z
x,-y,z
1/2+x,1/2+y,z
1/2-x,1/2+y,-z
1/2-x,1/2-y,-z
1/2+x,1/2-y,z
loop_
_atom_site_type_symbol
_atom_site_label
_atom_site_fract_x
_atom_site_fract_y
_atom_site_fract_z
Si Si1 0.496039 0.696428 0.767732
Si Si2 0.825320 0.500000 0.049924
Si Si3 0.321603 0.616949 0.035240
Si Si4 0.882678 0.312856 0.187104
Si Si5 0.000000 0.831662 0.500000
Si Si6 0.372545 0.883328 0.593903
Si Si7 0.525994 0.000000 0.351326
O O1 0.629378 0.643236 0.817599
O O2 0.290800 0.684991 0.759456
O O3 0.571033 0.751336 0.851961
O O4 0.514125 0.708650 0.622506
O O5 0.859986 0.500000 0.210858
O O6 0.706858 0.551897 0.979514
O O7 0.000000 0.500000 0.000000
O O8 0.500000 0.635816 0.000000
O O9 0.150403 0.648620 0.941682
O O10 0.054124 0.337354 0.295142
O O11 0.829669 0.870734 0.487689
O O12 0.500000 0.885814 0.500000
O O13 0.369639 0.943838 0.659863
O O14 0.500000 0.000000 0.500000
#
# Coordination Sequence:
#
# PCOD8113409 Si02
#       7
#     8   4   8   8   4   8   4
#     4  11  25  40  65 102 133 182 223 283 335 412
#     4  12  25  41  69 104 134 173 231 286 342 406
#     4  10  24  45  68  96 134 179 227 274 343 409
#     4  11  22  43  68  94 138 175 229 277 342 401
#     4  12  26  41  68 100 138 177 230 278 346 408
#     4  11  23  44  68  99 139 177 230 280 342 410
#     4  10  24  44  73  99 133 187 227 283 352 411
#
# _framework density 23.031748
#
# number of rings (size 3 to 8) (size 9 to 14) (size 15 to 20)
#    0.000    1.091    3.636    1.909    3.818    3.273 
#    0.000    0.909    0.000    0.000    0.000    0.000 
#    0.000    0.000    0.000    0.000    0.000    0.000 
#
# Total GULP energy -272645.584065 kJ/mol
# GULP energy per Si atom -12392.981094 kJ/mol
# Density = 2.297933 g / cm^3
# Si number density = 23.031748 Si / 1000 Ang^3
#
#
#
# Elastic Constant Matrix: (Units=GPa)
#
#
# Indices 1 2 3 4 5 6 
#
# 1 88.3786 20.4937 25.6039 0.0000 21.1877 0.0000
# 2 20.4937 161.9239 35.3524 0.0000 27.5455 0.0000
# 3 25.6039 35.3524 101.2136 0.0000 13.5018 0.0000
# 4 0.0000 0.0000 0.0000 36.9630 0.0000 5.7451
# 5 21.1877 27.5455 13.5018 0.0000 32.2803 0.0000
# 6 0.0000 0.0000 0.0000 5.7451 0.0000 23.4443
#
#
#
# Elastic Compliance Matrix: (Units=1/GPa)
#
#
# Indices 1 2 3 4 5 6 
#
# 1 0.013983 0.000186 -0.002496 0.000000 -0.008293 0.000000
# 2 0.000186 0.007551 -0.001916 0.000000 -0.005764 0.000000
# 3 -0.002496 -0.001916 0.011379 0.000000 -0.001487 0.000000
# 4 0.000000 0.000000 0.000000 0.028125 0.000000 -0.006892
# 5 -0.008293 -0.005764 -0.001487 0.000000 0.041962 0.000000
# 6 0.000000 0.000000 0.000000 -0.006892 0.000000 0.044343
#
#
# Mechanical properties :
#
#
# Convention : Reuss Voigt Hill
#
# Bulk Modulus (GPa) = 40.88032 57.15735 49.01884
# Shear Modulus (GPa) = 30.49736 36.54195 33.51965
#
# Velocity S-wave (km/s) = 3.64283 3.98752 3.81907
# Velocity P-wave (km/s) = 5.95665 6.78757 6.38564
#
# Compressibility (1/GPa) = 0.02446165
#
# Stress axis : x y z
#
# Youngs Moduli (GPa) = 71.51542 132.43278 87.88214
#
# Poissons Ratio (x) = -0.02462 0.21935
# Poissons Ratio (y) = -0.01329 0.16834
# Poissons Ratio (z) = 0.17850 0.25368
#
# Static dielectric constant tensor:
#      x y z
#    x 3.939740 0.000000 0.090860 
#    y 0.000000 4.313050 0.000000 
#    z 0.090860 0.000000 4.384590 
# 
# 
# High freq. dielectric constant tensor:
#      x y z
#    x 1.900670 0.000000 0.007100 
#    y 0.000000 1.917860 0.000000 
#    z 0.007100 0.000000 1.917110 
# 
# From -- ./inp_files/122686.got.cif
#   From: 2010.06.25/outbox.cif.g09.slc.cpg/sg12_62_cif.got.tgz:122686.got - 2010.06.28 00:19:55.
