data_PCOD8113335
_publ_section_title
;
Structure prediction by ZEFSAII (Michael W. Deem and Ramdas Pophale) SiO2 
 PCOD8113335
Probable space group: C 2/M
;
_chemical_formula_sum "Si O2"
_cell_formula_units_Z 48
_cell_length_a 22.767282
_cell_length_b 8.768994
_cell_length_c 12.157999
_cell_angle_alpha 90.000000
_cell_angle_beta 69.225978
_cell_angle_gamma 90.000000
_cell_volume 2269.490888
_symmetry_space_group_name_H-M "C 2/M"
_symmetry_group_IT_number 12
_symmetry_cell_setting 'monoclinic'
loop_
_space_group_symop_operation_xyz
x,y,z
-x,y,-z
-x,-y,-z
x,-y,z
1/2+x,1/2+y,z
1/2-x,1/2+y,-z
1/2-x,1/2-y,-z
1/2+x,1/2-y,z
loop_
_atom_site_type_symbol
_atom_site_label
_atom_site_fract_x
_atom_site_fract_y
_atom_site_fract_z
Si Si1 0.149719 0.820309 0.826605
Si Si2 0.898765 0.827754 0.529416
Si Si3 0.745024 0.673837 0.385883
Si Si4 0.941069 0.324381 0.280880
Si Si5 0.424313 0.175686 0.731147
Si Si6 0.818492 0.680068 0.969415
O O1 0.213522 0.767809 0.726487
O O2 0.088848 0.774383 0.796597
O O3 0.146012 0.743922 0.947889
O O4 0.151380 0.000000 0.839506
O O5 0.825787 0.818891 0.609453
O O6 0.912103 0.721200 0.417175
O O7 0.935592 0.772649 0.613169
O O8 0.919182 0.000000 0.486856
O O9 0.769325 0.500000 0.376578
O O10 0.750000 0.750000 0.500000
O O11 0.924319 0.500000 0.270898
O O12 0.015749 0.296169 0.230208
O O13 0.420161 0.000000 0.698275
O O14 0.361567 0.225706 0.836905
O O15 0.811834 0.500000 0.985589
O O16 0.750000 0.750000 0.000000
#
# Coordination Sequence:
#
# PCOD8113335 Si02
#       6
#     8   8   8   8   8   8
#     4  12  25  41  63  94 129 165 210 259 314 371
#     4  11  23  38  61  94 129 163 205 258 313 370
#     4  11  22  37  60  91 126 163 204 253 310 368
#     4  11  23  41  64  90 124 166 211 257 312 373
#     4  10  24  43  64  90 122 166 212 255 309 377
#     4  11  24  45  69  94 125 161 208 259 313 374
#
# _framework density 21.150119
#
# number of rings (size 3 to 8) (size 9 to 14) (size 15 to 20)
#    0.000    1.000    1.667    5.000    0.000   10.000 
#    0.000    3.333    0.000    0.000    0.000    0.000 
#    0.000    0.000    0.000    0.000    0.000    0.000 
#
# Total GULP energy -297747.212812 kJ/mol
# GULP energy per Si atom -12406.133867 kJ/mol
# Density = 2.110198 g / cm^3
# Si number density = 21.150119 Si / 1000 Ang^3
#
#
#
# Elastic Constant Matrix: (Units=GPa)
#
#
# Indices 1 2 3 4 5 6 
#
# 1 95.1891 29.3759 29.9854 0.0000 0.5032 0.0000
# 2 29.3759 101.6938 43.4492 0.0000 -0.6219 0.0000
# 3 29.9854 43.4492 85.2010 0.0000 16.1320 0.0000
# 4 0.0000 0.0000 0.0000 34.4742 0.0000 4.6197
# 5 0.5032 -0.6219 16.1320 0.0000 35.3374 0.0000
# 6 0.0000 0.0000 0.0000 4.6197 0.0000 37.8345
#
#
#
# Elastic Compliance Matrix: (Units=1/GPa)
#
#
# Indices 1 2 3 4 5 6 
#
# 1 0.012236 -0.002010 -0.003548 0.000000 0.001410 0.000000
# 2 -0.002010 0.013298 -0.006703 0.000000 0.003323 0.000000
# 3 -0.003548 -0.006703 0.017970 0.000000 -0.008271 0.000000
# 4 0.000000 0.000000 0.000000 0.029490 0.000000 -0.003601
# 5 0.001410 0.003323 -0.008271 0.000000 0.032113 0.000000
# 6 0.000000 0.000000 0.000000 -0.003601 0.000000 0.026871
#
#
# Mechanical properties :
#
#
# Convention : Reuss Voigt Hill
#
# Bulk Modulus (GPa) = 52.68344 54.18942 53.43643
# Shear Modulus (GPa) = 30.70719 33.48080 32.09399
#
# Velocity S-wave (km/s) = 3.81447 3.98302 3.89966
# Velocity P-wave (km/s) = 6.66060 6.84321 6.75252
#
# Compressibility (1/GPa) = 0.01898130
#
# Stress axis : x y z
#
# Youngs Moduli (GPa) = 81.72629 75.19681 55.64740
#
# Poissons Ratio (x) = 0.15114 0.19746
# Poissons Ratio (y) = 0.16426 0.37303
# Poissons Ratio (z) = 0.28999 0.50408
#
# Static dielectric constant tensor:
#      x y z
#    x 4.027070 0.000000 -0.081130 
#    y 0.000000 3.950940 0.000000 
#    z -0.081130 0.000000 3.762830 
# 
# 
# High freq. dielectric constant tensor:
#      x y z
#    x 1.844520 0.000000 0.001980 
#    y 0.000000 1.839090 0.000000 
#    z 0.001980 0.000000 1.825380 
# 
# From -- ./inp_files/172936.got.cif
#   From: 2010.06.25/outbox.cif.g09.slc.cpg/sg12_87_cif.got.tgz:172936.got - 2010.06.28 00:19:55.
