data_PCOD8113608
_publ_section_title
;
Structure prediction by ZEFSAII (Michael W. Deem and Ramdas Pophale) SiO2 
 PCOD8113608
Probable space group: C 2/M
;
_chemical_formula_sum "Si O2"
_cell_formula_units_Z 40
_cell_length_a 10.395328
_cell_length_b 20.255483
_cell_length_c 9.484042
_cell_angle_alpha 90.000000
_cell_angle_beta 79.689560
_cell_angle_gamma 90.000000
_cell_volume 1964.736154
_symmetry_space_group_name_H-M "C 2/M"
_symmetry_group_IT_number 12
_symmetry_cell_setting 'monoclinic'
loop_
_space_group_symop_operation_xyz
x,y,z
-x,y,-z
-x,-y,-z
x,-y,z
1/2+x,1/2+y,z
1/2-x,1/2+y,-z
1/2-x,1/2-y,-z
1/2+x,1/2-y,z
loop_
_atom_site_type_symbol
_atom_site_label
_atom_site_fract_x
_atom_site_fract_y
_atom_site_fract_z
Si Si1 0.667919 0.927093 0.891648
Si Si2 0.930808 0.381351 0.797394
Si Si3 0.542985 0.398358 0.151534
Si Si4 0.605635 0.250259 0.096093
Si Si5 0.917406 0.000000 0.374252
Si Si6 0.369682 0.000000 0.614758
O O1 0.586970 0.894004 0.778821
O O2 0.820549 0.931103 0.831849
O O3 0.609628 0.000000 0.919058
O O4 0.642716 0.888178 0.039317
O O5 0.902788 0.303465 0.773015
O O6 0.865784 0.432027 0.702955
O O7 0.560223 0.320055 0.170462
O O8 0.441547 0.433399 0.277323
O O9 0.500000 0.414370 0.000000
O O10 0.500000 0.228629 0.000000
O O11 0.750000 0.250000 0.000000
O O12 0.764115 0.000000 0.448669
O O13 0.000000 0.000000 0.500000
O O14 0.500000 0.000000 0.500000
#
# Coordination Sequence:
#
# PCOD8113608 Si02
#       6
#     8   8   8   8   4   4
#     4  11  18  33  62  95 122 161 194 265 319 376
#     4  11  20  37  62  94 131 156 208 256 321 376
#     4  11  23  38  68  96 133 163 209 266 327 376
#     4  11  21  36  61 102 134 159 194 260 330 383
#     4  12  29  47  65  91 130 174 218 265 324 380
#     4  12  28  44  65  86 121 176 228 261 299 380
#
# _framework density 20.358968000000001
#
# number of rings (size 3 to 8) (size 9 to 14) (size 15 to 20)
#    0.000    0.800    7.000    2.100    5.600    0.000 
#    0.000    1.000    0.000    2.400    0.000    0.000 
#    0.000    0.000    0.000    0.000    0.000    0.000 
#
# Total GULP energy -247827.061456 kJ/mol
# GULP energy per Si atom -12391.353073 kJ/mol
# Density = 2.031263 g / cm^3
# Si number density = 20.358968 Si / 1000 Ang^3
#
#
#
# Elastic Constant Matrix: (Units=GPa)
#
#
# Indices 1 2 3 4 5 6 
#
# 1 162.7024 32.5690 33.5207 0.0000 -1.1293 0.0000
# 2 32.5690 176.8827 38.4745 0.0000 1.6445 0.0000
# 3 33.5207 38.4745 58.5049 0.0000 8.4820 0.0000
# 4 0.0000 0.0000 0.0000 7.5085 0.0000 -2.8140
# 5 -1.1293 1.6445 8.4820 0.0000 28.5975 0.0000
# 6 0.0000 0.0000 0.0000 -2.8140 0.0000 24.9499
#
#
#
# Elastic Compliance Matrix: (Units=1/GPa)
#
#
# Indices 1 2 3 4 5 6 
#
# 1 0.007064 -0.000452 -0.003965 0.000000 0.001481 0.000000
# 2 -0.000452 0.006651 -0.004239 0.000000 0.000857 0.000000
# 3 -0.003965 -0.004239 0.023134 0.000000 -0.006774 0.000000
# 4 0.000000 0.000000 0.000000 0.139060 0.000000 0.015684
# 5 0.001481 0.000857 -0.006774 0.000000 0.036987 0.000000
# 6 0.000000 0.000000 0.000000 0.015684 0.000000 0.041849
#
#
# Mechanical properties :
#
#
# Convention : Reuss Voigt Hill
#
# Bulk Modulus (GPa) = 51.18450 67.46872 59.32661
# Shear Modulus (GPa) = 17.94897 31.77957 24.86427
#
# Velocity S-wave (km/s) = 2.97244 3.95519 3.49849
# Velocity P-wave (km/s) = 6.08080 7.35320 6.74706
#
# Compressibility (1/GPa) = 0.01953716
#
# Stress axis : x y z
#
# Youngs Moduli (GPa) = 141.56747 150.35854 43.22651
#
# Poissons Ratio (x) = 0.06797 0.17138
# Poissons Ratio (y) = 0.06399 0.18324
# Poissons Ratio (z) = 0.56126 0.63737
#
# Static dielectric constant tensor:
#      x y z
#    x 3.967450 0.000000 0.065780 
#    y 0.000000 3.240120 0.000000 
#    z 0.065780 0.000000 3.188490 
# 
# 
# High freq. dielectric constant tensor:
#      x y z
#    x 1.820790 0.000000 0.002320 
#    y 0.000000 1.820780 0.000000 
#    z 0.002320 0.000000 1.723010 
# 
# From -- ./inp_files/48646.got.cif
#   From: 2010.06.25/outbox.cif.g09.slc.cpg/sg12_25_cif.got.tgz:48646.got - 2010.06.28 00:19:55.
