data_PCOD8113256
_publ_section_title
;
Structure prediction by ZEFSAII (Michael W. Deem and Ramdas Pophale) SiO2 
 PCOD8113256
Probable space group: C 2/M
;
_chemical_formula_sum "Si O2"
_cell_formula_units_Z 48
_cell_length_a 19.431996
_cell_length_b 14.192291
_cell_length_c 19.537805
_cell_angle_alpha 90.000000
_cell_angle_beta 28.628022
_cell_angle_gamma 90.000000
_cell_volume 2581.612644
_symmetry_space_group_name_H-M "C 2/M"
_symmetry_group_IT_number 12
_symmetry_cell_setting 'monoclinic'
loop_
_space_group_symop_operation_xyz
x,y,z
-x,y,-z
-x,-y,-z
x,-y,z
1/2+x,1/2+y,z
1/2-x,1/2+y,-z
1/2-x,1/2-y,-z
1/2+x,1/2-y,z
loop_
_atom_site_type_symbol
_atom_site_label
_atom_site_fract_x
_atom_site_fract_y
_atom_site_fract_z
Si Si1 0.128863 0.298361 0.061727
Si Si2 0.737645 0.500000 0.645099
Si Si3 0.639589 0.698398 0.914409
Si Si4 0.906749 0.000000 0.976783
Si Si5 0.341072 0.194232 0.613967
Si Si6 0.838435 0.500000 0.404332
Si Si7 0.805166 0.703313 0.381954
Si Si8 0.150979 0.500000 0.094942
O O1 0.144174 0.410324 0.051717
O O2 0.969897 0.264342 0.223975
O O3 0.250000 0.250000 0.000000
O O4 0.167579 0.267598 0.952141
O O5 0.815879 0.589523 0.608574
O O6 0.756202 0.500000 0.547630
O O7 0.568411 0.500000 0.807707
O O8 0.621484 0.590239 0.952240
O O9 0.764230 0.710620 0.752176
O O10 0.500000 0.737007 0.000000
O O11 0.797120 0.000000 0.009702
O O12 0.500000 0.212816 0.500000
O O13 0.293063 0.266405 0.596370
O O14 0.793744 0.590801 0.399095
O O15 0.011307 0.500000 0.267040
O O16 0.750000 0.750000 0.500000
#
# Coordination Sequence:
#
# PCOD8113256 Si02
#       8
#     8   4   8   4   8   4   8   4
#     4  11  23  41  66  92 126 168 211 257 310 374
#     4  12  22  40  60  97 128 162 204 261 321 376
#     4  12  23  42  63  92 129 165 207 263 320 371
#     4  12  22  37  64  96 130 157 202 271 314 373
#     4  12  27  41  63  94 129 167 210 257 323 378
#     4  10  24  40  66  91 128 166 210 259 311 366
#     4  11  23  43  64  91 128 167 213 257 306 379
#     4  10  24  40  62  99 124 162 216 258 304 375
#
# _framework density 18.593029000000001
#
# number of rings (size 3 to 8) (size 9 to 14) (size 15 to 20)
#    0.000    0.667    6.667    1.000    4.667    0.000 
#    0.000    1.667    0.000    0.000    0.000    0.000 
#    0.000    0.000    0.000    0.000    0.000    0.000 
#
# Total GULP energy -297595.501777 kJ/mol
# GULP energy per Si atom -12399.812574 kJ/mol
# Density = 1.855071 g / cm^3
# Si number density = 18.593029 Si / 1000 Ang^3
#
#
#
# Elastic Constant Matrix: (Units=GPa)
#
#
# Indices 1 2 3 4 5 6 
#
# 1 161.5718 68.8065 77.0731 0.0016 -1.9815 -0.0011
# 2 68.8065 118.3718 56.2129 -0.0009 4.2781 0.0004
# 3 77.0731 56.2129 132.2160 0.0001 6.5687 -0.0002
# 4 0.0016 -0.0009 0.0001 23.0798 0.0006 10.3070
# 5 -1.9815 4.2781 6.5687 0.0006 45.4606 -0.0005
# 6 -0.0011 0.0004 -0.0002 10.3070 -0.0005 30.5984
#
#
#
# Elastic Compliance Matrix: (Units=1/GPa)
#
#
# Indices 1 2 3 4 5 6 
#
# 1 0.009804 -0.003762 -0.004185 -0.000001 0.001386 0.000001
# 2 -0.003762 0.012034 -0.002880 0.000001 -0.000880 -0.000001
# 3 -0.004185 -0.002880 0.011304 0.000000 -0.001545 0.000000
# 4 -0.000001 0.000001 0.000000 0.051000 -0.000001 -0.017179
# 5 0.001386 -0.000880 -0.001545 -0.000001 0.022364 0.000001
# 6 0.000001 -0.000001 0.000000 -0.017179 0.000001 0.038468
#
#
# Mechanical properties :
#
#
# Convention : Reuss Voigt Hill
#
# Bulk Modulus (GPa) = 87.03530 90.70494 88.87012
# Shear Modulus (GPa) = 29.33300 33.83224 31.58262
#
# Velocity S-wave (km/s) = 3.97625 4.27033 4.12591
# Velocity P-wave (km/s) = 8.24579 8.55597 8.40231
#
# Compressibility (1/GPa) = 0.01148959
#
# Stress axis : x y z
#
# Youngs Moduli (GPa) = 101.99448 83.09797 88.46490
#
# Poissons Ratio (x) = 0.31260 0.37021
# Poissons Ratio (y) = 0.38369 0.25475
# Poissons Ratio (z) = 0.42683 0.23930
#
# Static dielectric constant tensor:
#      x y z
#    x 3.375750 -0.000010 -0.071410 
#    y -0.000010 3.392540 0.000000 
#    z -0.071410 0.000000 3.630970 
# 
# 
# High freq. dielectric constant tensor:
#      x y z
#    x 1.727830 0.000000 -0.000790 
#    y 0.000000 1.723970 0.000000 
#    z -0.000790 0.000000 1.737520 
# 
# From -- ./inp_files/105089.got.cif
#   From: 2010.06.25/outbox.cif.g09.slc.cpg/sg12_53_cif.got.tgz:105089.got - 2010.06.28 00:19:55.
