data_PCOD8113488
_publ_section_title
;
Structure prediction by ZEFSAII (Michael W. Deem and Ramdas Pophale) SiO2 
 PCOD8113488
Probable space group: C 2/M
;
_chemical_formula_sum "Si O2"
_cell_formula_units_Z 44
_cell_length_a 32.340930
_cell_length_b 7.549068
_cell_length_c 25.586101
_cell_angle_alpha 90.000000
_cell_angle_beta 160.130038
_cell_angle_gamma 90.000000
_cell_volume 2123.165877
_symmetry_space_group_name_H-M "C 2/M"
_symmetry_group_IT_number 12
_symmetry_cell_setting 'monoclinic'
loop_
_space_group_symop_operation_xyz
x,y,z
-x,y,-z
-x,-y,-z
x,-y,z
1/2+x,1/2+y,z
1/2-x,1/2+y,-z
1/2-x,1/2-y,-z
1/2+x,1/2-y,z
loop_
_atom_site_type_symbol
_atom_site_label
_atom_site_fract_x
_atom_site_fract_y
_atom_site_fract_z
Si Si1 0.582112 0.500000 0.187740
Si Si2 0.135213 0.304041 0.330036
Si Si3 0.932638 0.792784 0.166533
Si Si4 0.705673 0.000000 0.636366
Si Si5 0.223137 0.201645 0.848572
Si Si6 0.480121 0.705828 0.615397
Si Si7 0.300004 0.500000 0.860803
O O1 0.619609 0.674518 0.263298
O O2 0.657861 0.500000 0.224142
O O3 0.438787 0.500000 0.006354
O O4 0.155015 0.500000 0.330279
O O5 0.250000 0.250000 0.500000
O O6 0.018987 0.308459 0.229135
O O7 0.963782 0.737282 0.262304
O O8 0.950631 0.000000 0.178392
O O9 0.795840 0.734036 0.989271
O O10 0.636728 0.176212 0.535526
O O11 0.712302 0.000000 0.706738
O O12 0.273549 0.325381 0.862897
O O13 0.082066 0.242713 0.692659
O O14 0.238494 0.000000 0.847896
O O15 0.440964 0.500000 0.569263
#
# Coordination Sequence:
#
# PCOD8113488 Si02
#       7
#     4   8   8   4   8   8   4
#     4  12  25  46  64  96 130 174 229 271 330 387
#     4  12  22  36  61  95 136 173 209 265 330 396
#     4  11  20  38  63  99 141 171 210 264 331 409
#     4  12  28  46  71  89 128 188 228 281 327 379
#     4  11  22  41  68 100 134 174 213 271 342 398
#     4  10  25  42  65 101 136 171 219 273 331 399
#     4  12  26  48  67  97 132 174 238 273 320 394
#
# _framework density 20.723768
#
# number of rings (size 3 to 8) (size 9 to 14) (size 15 to 20)
#    0.000    0.727    4.545    3.000    2.545    4.364 
#    0.000    1.818    0.000    3.273    0.000    0.000 
#    0.000    0.000    0.000    0.000    0.000    0.000 
#
# Total GULP energy -272900.121211 kJ/mol
# GULP energy per Si atom -12404.550964 kJ/mol
# Density = 2.067660 g / cm^3
# Si number density = 20.723768 Si / 1000 Ang^3
#
#
#
# Elastic Constant Matrix: (Units=GPa)
#
#
# Indices 1 2 3 4 5 6 
#
# 1 101.3768 47.6729 46.4753 0.0000 -2.0797 0.0000
# 2 47.6729 141.1308 41.0700 0.0000 -6.2081 0.0001
# 3 46.4753 41.0700 77.5877 0.0000 1.7309 0.0000
# 4 0.0000 0.0000 0.0000 23.5772 0.0000 -4.1436
# 5 -2.0797 -6.2081 1.7309 0.0000 36.0555 0.0000
# 6 0.0000 0.0001 0.0000 -4.1436 0.0000 4.1962
#
#
#
# Elastic Compliance Matrix: (Units=1/GPa)
#
#
# Indices 1 2 3 4 5 6 
#
# 1 0.014494 -0.002759 -0.007237 0.000000 0.000708 0.000000
# 2 -0.002759 0.009001 -0.003146 0.000000 0.001542 0.000000
# 3 -0.007237 -0.003146 0.018931 0.000000 -0.001868 0.000000
# 4 0.000000 0.000000 0.000000 0.051320 0.000000 0.050677
# 5 0.000708 0.001542 -0.001868 0.000000 0.028131 0.000000
# 6 0.000000 0.000000 0.000000 0.050677 0.000000 0.288354
#
#
# Mechanical properties :
#
#
# Convention : Reuss Voigt Hill
#
# Bulk Modulus (GPa) = 61.95473 65.61464 63.78468
# Shear Modulus (GPa) = 11.31486 25.09090 18.20288
#
# Velocity S-wave (km/s) = 2.33917 3.48333 2.96693
# Velocity P-wave (km/s) = 6.10377 6.92159 6.52550
#
# Compressibility (1/GPa) = 0.01614082
#
# Stress axis : x y z
#
# Youngs Moduli (GPa) = 68.99432 111.09957 52.82302
#
# Poissons Ratio (x) = 0.30648 0.38231
# Poissons Ratio (y) = 0.19033 0.16621
# Poissons Ratio (z) = 0.49935 0.34957
#
# Static dielectric constant tensor:
#      x y z
#    x 3.551560 0.000020 0.087040 
#    y 0.000020 -61.552840 0.000080 
#    z 0.087040 0.000080 3.827010 
# 
# 
# High freq. dielectric constant tensor:
#      x y z
#    x 1.799460 0.000000 0.015710 
#    y 0.000000 1.826170 0.000000 
#    z 0.015710 0.000000 1.812440 
# 
# From -- ./inp_files/353648.got.cif
#   From: 2010.06.25/outbox.cif.g09.slc.cpg/sg12_177_cif.got.tgz:353648.got - 2010.06.28 00:19:55.
