data_PCOD8113168
_publ_section_title
;
Structure prediction by ZEFSAII (Michael W. Deem and Ramdas Pophale) SiO2 
 PCOD8113168
Probable space group: C 2/M
;
_chemical_formula_sum "Si O2"
_cell_formula_units_Z 56
_cell_length_a 27.774088
_cell_length_b 8.731939
_cell_length_c 11.737443
_cell_angle_alpha 90.000000
_cell_angle_beta 70.913139
_cell_angle_gamma 90.000000
_cell_volume 2690.089937
_symmetry_space_group_name_H-M "C 2/M"
_symmetry_group_IT_number 12
_symmetry_cell_setting 'monoclinic'
loop_
_space_group_symop_operation_xyz
x,y,z
-x,y,-z
-x,-y,-z
x,-y,z
1/2+x,1/2+y,z
1/2-x,1/2+y,-z
1/2-x,1/2-y,-z
1/2+x,1/2-y,z
loop_
_atom_site_type_symbol
_atom_site_label
_atom_site_fract_x
_atom_site_fract_y
_atom_site_fract_z
Si Si1 0.245072 0.319449 0.629851
Si Si2 0.896901 0.678724 0.448064
Si Si3 0.502470 0.328665 0.632180
Si Si4 0.407416 0.177238 0.818467
Si Si5 0.143097 0.820679 0.734763
Si Si6 0.441277 0.176946 0.045665
Si Si7 0.155426 0.181289 0.308454
O O1 0.242884 0.500000 0.617594
O O2 0.250000 0.250000 0.500000
O O3 0.195060 0.260047 0.736719
O O4 0.291132 0.269281 0.677398
O O5 0.884119 0.500000 0.453024
O O6 0.859104 0.772510 0.395831
O O7 0.889667 0.747642 0.579343
O O8 0.954317 0.709623 0.360955
O O9 0.500000 0.324865 0.500000
O O10 0.516067 0.500000 0.664484
O O11 0.450206 0.278313 0.726993
O O12 0.353555 0.242505 0.810078
O O13 0.413809 0.000000 0.781326
O O14 0.412125 0.202128 0.949451
O O15 0.091956 0.767184 0.837015
O O16 0.149253 0.000000 0.743603
O O17 0.441962 0.000000 0.081252
O O18 0.500000 0.238092 0.000000
O O19 0.149415 0.000000 0.304100
#
# Coordination Sequence:
#
# PCOD8113168 Si02
#       7
#     8   8   8   8   8   8   8
#     4  11  23  40  65  94 129 169 213 267 322 381
#     4  12  23  36  59  88 124 164 207 258 314 378
#     4  11  22  35  55  85 124 162 202 255 312 376
#     4  11  23  39  63  92 125 167 212 262 321 383
#     4  12  25  41  65  95 128 166 213 263 322 385
#     4  10  23  45  69  94 126 167 217 267 315 376
#     4  11  23  39  60  90 127 164 206 257 318 380
#
# _framework density 20.817149000000001
#
# number of rings (size 3 to 8) (size 9 to 14) (size 15 to 20)
#    0.000    0.857    2.857    5.143    0.000    4.857 
#    0.000    0.714    0.000    0.000    0.000    0.000 
#    0.000    0.000    0.000    0.000    0.000    0.000 
#
# Total GULP energy -347203.876012 kJ/mol
# GULP energy per Si atom -12400.138429 kJ/mol
# Density = 2.076977 g / cm^3
# Si number density = 20.817149 Si / 1000 Ang^3
#
#
#
# Elastic Constant Matrix: (Units=GPa)
#
#
# Indices 1 2 3 4 5 6 
#
# 1 130.8652 38.7837 25.7568 0.0000 6.1654 0.0000
# 2 38.7837 95.4861 23.1200 0.0000 4.4241 0.0000
# 3 25.7568 23.1200 51.1089 0.0000 1.6266 0.0000
# 4 0.0000 0.0000 0.0000 21.8267 0.0000 4.9806
# 5 6.1654 4.4241 1.6266 0.0000 33.6602 0.0000
# 6 0.0000 0.0000 0.0000 4.9806 0.0000 34.9972
#
#
#
# Elastic Compliance Matrix: (Units=1/GPa)
#
#
# Indices 1 2 3 4 5 6 
#
# 1 0.009199 -0.002886 -0.003294 0.000000 -0.001146 0.000000
# 2 -0.002886 0.012722 -0.004271 0.000000 -0.000937 0.000000
# 3 -0.003294 -0.004271 0.023157 0.000000 0.000046 0.000000
# 4 0.000000 0.000000 0.000000 0.047353 0.000000 -0.006739
# 5 -0.001146 -0.000937 0.000046 0.000000 0.030040 0.000000
# 6 0.000000 0.000000 0.000000 -0.006739 0.000000 0.029533
#
#
# Mechanical properties :
#
#
# Convention : Reuss Voigt Hill
#
# Bulk Modulus (GPa) = 41.36244 50.30902 45.83573
# Shear Modulus (GPa) = 27.62977 30.75013 29.18995
#
# Velocity S-wave (km/s) = 3.64711 3.84755 3.74867
# Velocity P-wave (km/s) = 6.13578 6.63006 6.38770
#
# Compressibility (1/GPa) = 0.02417652
#
# Stress axis : x y z
#
# Youngs Moduli (GPa) = 108.70738 78.60155 43.18391
#
# Poissons Ratio (x) = 0.22682 0.14225
# Poissons Ratio (y) = 0.31369 0.18444
# Poissons Ratio (z) = 0.35809 0.33572
#
# Static dielectric constant tensor:
#      x y z
#    x 4.302040 0.000000 0.080620 
#    y 0.000000 3.812860 0.000000 
#    z 0.080620 0.000000 3.796060 
# 
# 
# High freq. dielectric constant tensor:
#      x y z
#    x 1.832740 0.000000 0.006780 
#    y 0.000000 1.822660 0.000000 
#    z 0.006780 0.000000 1.789030 
# 
# From -- ./inp_files/187140.got.cif
#   From: 2010.06.25/outbox.cif.g09.slc.cpg/sg12_94_cif.got.tgz:187140.got - 2010.06.28 00:19:55.
