data_PCOD8113235
_publ_section_title
;
Structure prediction by ZEFSAII (Michael W. Deem and Ramdas Pophale) SiO2 
 PCOD8113235
Probable space group: C 2/M
;
_chemical_formula_sum "Si O2"
_cell_formula_units_Z 52
_cell_length_a 9.142619
_cell_length_b 19.107209
_cell_length_c 17.125275
_cell_angle_alpha 90.000000
_cell_angle_beta 131.723882
_cell_angle_gamma 90.000000
_cell_volume 2232.822875
_symmetry_space_group_name_H-M "C 2/M"
_symmetry_group_IT_number 12
_symmetry_cell_setting 'monoclinic'
loop_
_space_group_symop_operation_xyz
x,y,z
-x,y,-z
-x,-y,-z
x,-y,z
1/2+x,1/2+y,z
1/2-x,1/2+y,-z
1/2-x,1/2-y,-z
1/2+x,1/2-y,z
loop_
_atom_site_type_symbol
_atom_site_label
_atom_site_fract_x
_atom_site_fract_y
_atom_site_fract_z
Si Si1 0.785208 0.627137 0.744635
Si Si2 0.066856 0.795361 0.325842
Si Si3 0.558926 0.000000 0.111639
Si Si4 0.571113 0.368520 0.165400
Si Si5 0.500000 0.158919 0.500000
Si Si6 0.526466 0.232436 0.927336
Si Si7 0.498731 0.866156 0.669442
Si Si8 0.626866 0.500000 0.968936
O O1 0.559981 0.654251 0.661365
O O2 0.810154 0.565541 0.815972
O O3 0.845173 0.602519 0.677765
O O4 0.934163 0.689077 0.822882
O O5 0.008626 0.825330 0.220622
O O6 0.302413 0.795306 0.419198
O O7 0.992775 0.717708 0.317207
O O8 0.500000 0.000000 0.000000
O O9 0.348719 0.000000 0.079620
O O10 0.575217 0.308873 0.100540
O O11 0.415500 0.430616 0.097001
O O12 0.788450 0.400973 0.242757
O O13 0.547355 0.114553 0.438026
O O14 0.500000 0.191235 0.000000
O O15 0.750000 0.250000 0.000000
O O16 0.500000 0.500000 0.000000
#
# Coordination Sequence:
#
# PCOD8113235 Si02
#       8
#     8   8   4   8   4   8   8   4
#     4  12  23  40  65  90 133 169 212 269 317 380
#     4  11  21  41  64  96 129 163 210 265 333 390
#     4  12  26  44  62  95 131 178 227 255 312 378
#     4  11  22  39  60  89 130 172 214 263 317 371
#     4  10  24  38  68 101 128 159 204 274 330 398
#     4  12  21  34  57  88 120 163 211 260 311 358
#     4  11  21  41  64  97 129 162 211 260 333 388
#     4  12  24  42  62  89 131 178 233 259 298 378
#
# _framework density 23.288903999999999
#
# number of rings (size 3 to 8) (size 9 to 14) (size 15 to 20)
#    0.000    0.615    3.077    6.923    0.000    0.615 
#    0.000    0.000    0.000   17.538    0.000    0.000 
#    0.000    0.000    0.000    0.000    0.000    0.000 
#
# Total GULP energy -322130.796058 kJ/mol
# GULP energy per Si atom -12389.646002 kJ/mol
# Density = 2.323590 g / cm^3
# Si number density = 23.288904 Si / 1000 Ang^3
#
#
#
# Elastic Constant Matrix: (Units=GPa)
#
#
# Indices 1 2 3 4 5 6 
#
# 1 118.2448 -5.0071 35.0109 0.0000 -14.4029 0.0000
# 2 -5.0071 89.8834 20.4861 0.0000 1.7729 0.0000
# 3 35.0109 20.4861 92.8584 0.0000 -1.1753 0.0000
# 4 0.0000 0.0000 0.0000 16.0332 0.0000 1.3364
# 5 -14.4029 1.7729 -1.1753 0.0000 58.3591 0.0000
# 6 0.0000 0.0000 0.0000 1.3364 0.0000 22.3984
#
#
#
# Elastic Compliance Matrix: (Units=1/GPa)
#
#
# Indices 1 2 3 4 5 6 
#
# 1 0.010005 0.001436 -0.004060 0.000000 0.002344 0.000000
# 2 0.001436 0.011930 -0.003175 0.000000 -0.000072 0.000000
# 3 -0.004060 -0.003175 0.012992 0.000000 -0.000644 0.000000
# 4 0.000000 0.000000 0.000000 0.062682 0.000000 -0.003740
# 5 0.002344 -0.000072 -0.000644 0.000000 0.017703 0.000000
# 6 0.000000 0.000000 0.000000 -0.003740 0.000000 0.044869
#
#
# Mechanical properties :
#
#
# Convention : Reuss Voigt Hill
#
# Bulk Modulus (GPa) = 42.85911 44.66291 43.76101
# Shear Modulus (GPa) = 27.84657 36.05791 31.95224
#
# Velocity S-wave (km/s) = 3.46164 3.93910 3.70806
# Velocity P-wave (km/s) = 5.86690 6.31728 6.09625
#
# Compressibility (1/GPa) = 0.02333227
#
# Stress axis : x y z
#
# Youngs Moduli (GPa) = 99.94649 83.81879 76.97106
#
# Poissons Ratio (x) = -0.12040 0.31247
# Poissons Ratio (y) = -0.14356 0.24435
# Poissons Ratio (z) = 0.40574 0.26609
#
# Static dielectric constant tensor:
#      x y z
#    x 4.522830 0.000000 0.020220 
#    y 0.000000 3.689430 0.000000 
#    z 0.020220 0.000000 4.403390 
# 
# 
# High freq. dielectric constant tensor:
#      x y z
#    x 1.944470 0.000000 -0.003360 
#    y 0.000000 1.881450 0.000000 
#    z -0.003360 0.000000 1.915370 
# 
# From -- ./inp_files/258593.got.cif
#   From: 2010.06.25/outbox.cif.g09.slc.cpg/sg12_130_cif.got.tgz:258593.got - 2010.06.28 00:19:55.
