data_PCOD8113718
_publ_section_title
;
Structure prediction by ZEFSAII (Michael W. Deem and Ramdas Pophale) SiO2 
 PCOD8113718
Probable space group: C 2/M
;
_chemical_formula_sum "Si O2"
_cell_formula_units_Z 64
_cell_length_a 19.520996
_cell_length_b 30.134430
_cell_length_c 14.025491
_cell_angle_alpha 90.000000
_cell_angle_beta 156.824700
_cell_angle_gamma 90.000000
_cell_volume 3246.968905
_symmetry_space_group_name_H-M "C 2/M"
_symmetry_group_IT_number 12
_symmetry_cell_setting 'monoclinic'
loop_
_space_group_symop_operation_xyz
x,y,z
-x,y,-z
-x,-y,-z
x,-y,z
1/2+x,1/2+y,z
1/2-x,1/2+y,-z
1/2-x,1/2-y,-z
1/2+x,1/2-y,z
loop_
_atom_site_type_symbol
_atom_site_label
_atom_site_fract_x
_atom_site_fract_y
_atom_site_fract_z
Si Si1 0.683465 0.639553 0.184271
Si Si2 0.114615 0.450041 0.552985
Si Si3 0.542755 0.209276 0.445543
Si Si4 0.591337 0.692158 0.515953
Si Si5 0.834371 0.417019 0.063180
Si Si6 0.530763 0.548279 0.427932
Si Si7 0.174756 0.612574 0.166919
Si Si8 0.287325 0.665976 0.993548
O O1 0.736728 0.587675 0.256271
O O2 0.824726 0.670750 0.420189
O O3 0.500000 0.644802 0.000000
O O4 0.661856 0.659431 0.051065
O O5 0.196236 0.500000 0.657369
O O6 0.000000 0.442689 0.500000
O O7 0.996913 0.446334 0.306407
O O8 0.500000 0.200167 0.500000
O O9 0.629790 0.257083 0.535001
O O10 0.345951 0.206539 0.150545
O O11 0.500000 0.690794 0.500000
O O12 0.769495 0.664292 0.753978
O O13 0.466018 0.669440 0.279146
O O14 0.654459 0.442213 0.857147
O O15 0.852601 0.403794 0.975806
O O16 0.832699 0.374454 0.127451
O O17 0.500000 0.549503 0.500000
O O18 0.597391 0.500000 0.479405
O O19 0.676311 0.584371 0.588260
O O20 0.000000 0.604890 0.000000
#
# Coordination Sequence:
#
# PCOD8113718 Si02
#       8
#     8   8   8   8   8   8   8   8
#     4  11  23  40  59  85 122 153 185 238 298 345
#     4  11  22  39  64  88 111 148 199 245 283 338
#     4   9  20  37  61  86 113 151 198 240 281 338
#     4  11  20  37  61  88 115 152 199 239 278 338
#     4  11  19  38  64  82 111 148 199 237 284 336
#     4   9  18  35  57  79 106 146 191 231 275 335
#     4  11  23  36  56  87 123 155 183 237 291 347
#     4  11  19  38  63  85 108 153 198 238 283 333
#
# _framework density 19.710691000000001
#
# number of rings (size 3 to 8) (size 9 to 14) (size 15 to 20)
#    0.000    1.500    5.000    1.500    0.000    2.500 
#    0.000    0.625    0.000    0.000    0.000    0.000 
#    0.000    0.000    0.000    0.000    0.000    0.000 
#
# Total GULP energy -396570.831898 kJ/mol
# GULP energy per Si atom -12392.838497 kJ/mol
# Density = 1.966583 g / cm^3
# Si number density = 19.710691 Si / 1000 Ang^3
#
#
#
# Elastic Constant Matrix: (Units=GPa)
#
#
# Indices 1 2 3 4 5 6 
#
# 1 68.7737 33.4128 37.7381 -0.0001 11.5285 0.0000
# 2 33.4128 132.3159 34.4873 0.0000 15.9676 0.0000
# 3 37.7381 34.4873 88.0433 0.0000 3.7702 0.0001
# 4 -0.0001 0.0000 0.0000 28.1019 -0.0001 -2.3707
# 5 11.5285 15.9676 3.7702 -0.0001 33.1447 0.0001
# 6 0.0000 0.0000 0.0001 -2.3707 0.0001 15.0252
#
#
#
# Elastic Compliance Matrix: (Units=1/GPa)
#
#
# Indices 1 2 3 4 5 6 
#
# 1 0.020918 -0.002656 -0.007706 0.000000 -0.005120 0.000000
# 2 -0.002656 0.009231 -0.002338 0.000000 -0.003257 0.000000
# 3 -0.007706 -0.002338 0.015489 0.000000 0.002045 0.000000
# 4 0.000000 0.000000 0.000000 0.036065 0.000000 0.005690
# 5 -0.005120 -0.003257 0.002045 0.000000 0.033288 0.000000
# 6 0.000000 0.000000 0.000000 0.005690 0.000000 0.067453
#
#
# Mechanical properties :
#
#
# Convention : Reuss Voigt Hill
#
# Bulk Modulus (GPa) = 49.41285 55.60103 52.50694
# Shear Modulus (GPa) = 23.30030 27.48736 25.39383
#
# Velocity S-wave (km/s) = 3.44192 3.73841 3.59322
# Velocity P-wave (km/s) = 6.39681 6.84865 6.62659
#
# Compressibility (1/GPa) = 0.02023765
#
# Stress axis : x y z
#
# Youngs Moduli (GPa) = 47.80653 108.33342 64.55989
#
# Poissons Ratio (x) = 0.28770 0.49753
# Poissons Ratio (y) = 0.12696 0.15094
# Poissons Ratio (z) = 0.36842 0.25328
#
# Static dielectric constant tensor:
#      x y z
#    x 3.256650 0.000000 -0.199300 
#    y 0.000000 3.950340 0.000000 
#    z -0.199300 0.000000 3.810510 
# 
# 
# High freq. dielectric constant tensor:
#      x y z
#    x 1.729340 0.000000 -0.013380 
#    y 0.000000 1.782460 0.000000 
#    z -0.013380 0.000000 1.771280 
# 
# From -- ./inp_files/236021.got.cif
#   From: 2010.06.25/outbox.cif.g09.slc.cpg/sg12_119_cif.got.tgz:236021.got - 2010.06.28 00:19:55.
