data_PCOD8113637
_publ_section_title
;
Structure prediction by ZEFSAII (Michael W. Deem and Ramdas Pophale) SiO2 
 PCOD8113637
Probable space group: C 2/M
;
_chemical_formula_sum "Si O2"
_cell_formula_units_Z 56
_cell_length_a 17.044885
_cell_length_b 23.479925
_cell_length_c 23.254827
_cell_angle_alpha 90.000000
_cell_angle_beta 156.433653
_cell_angle_gamma 90.000000
_cell_volume 3720.988623
_symmetry_space_group_name_H-M "C 2/M"
_symmetry_group_IT_number 12
_symmetry_cell_setting 'monoclinic'
loop_
_space_group_symop_operation_xyz
x,y,z
-x,y,-z
-x,-y,-z
x,-y,z
1/2+x,1/2+y,z
1/2-x,1/2+y,-z
1/2-x,1/2-y,-z
1/2+x,1/2-y,z
loop_
_atom_site_type_symbol
_atom_site_label
_atom_site_fract_x
_atom_site_fract_y
_atom_site_fract_z
Si Si1 0.910959 0.687876 0.659372
Si Si2 0.588104 0.153247 0.669923
Si Si3 0.164816 0.846699 0.331408
Si Si4 0.154778 0.263347 0.153146
Si Si5 0.212622 0.437000 0.669992
Si Si6 0.487197 0.312133 0.658894
Si Si7 0.521996 0.763064 0.846673
O O1 0.680129 0.672579 0.500300
O O2 0.038503 0.645078 0.704666
O O3 0.949903 0.749883 0.659489
O O4 0.979191 0.686704 0.771444
O O5 0.388326 0.165324 0.500657
O O6 0.727622 0.206621 0.752118
O O7 0.696497 0.096729 0.719607
O O8 0.147946 0.903184 0.281050
O O9 0.027862 0.854745 0.296254
O O10 0.099410 0.793267 0.249631
O O11 0.300927 0.313615 0.229346
O O12 0.043162 0.285871 0.134728
O O13 0.000000 0.248378 0.000000
O O14 0.301329 0.500000 0.740841
O O15 0.000000 0.442955 0.500000
O O16 0.750000 0.750000 0.000000
#
# Coordination Sequence:
#
# PCOD8113637 Si02
#       7
#     8   8   8   8   8   8   8
#     4   8  15  26  39  55  77 109 140 165 202 249
#     4   9  16  28  42  58  83 114 138 172 212 249
#     4   9  16  28  42  59  85 110 138 175 215 242
#     4  11  19  26  38  58  84 113 144 171 207 253
#     4   9  16  26  44  67  85 108 145 180 211 247
#     4   8  15  26  39  55  80 108 137 169 202 251
#     4  11  19  26  38  59  83 111 144 173 204 258
#
# _framework density 15.049763
#
# number of rings (size 3 to 8) (size 9 to 14) (size 15 to 20)
#    0.000    2.714    1.429    5.143    0.000    1.714 
#    0.000    0.000    0.000    0.429    0.000    0.000 
#    0.000    6.286    0.000   11.143    0.000    0.000 
#
# Total GULP energy -346972.550479 kJ/mol
# GULP energy per Si atom -12391.876803 kJ/mol
# Density = 1.501551 g / cm^3
# Si number density = 15.049763 Si / 1000 Ang^3
#
#
#
# Elastic Constant Matrix: (Units=GPa)
#
#
# Indices 1 2 3 4 5 6 
#
# 1 143.0509 46.0949 48.3866 -0.0184 2.3890 -0.0118
# 2 46.0949 61.1153 17.8184 -0.0271 -1.6069 -0.0075
# 3 48.3866 17.8184 61.0358 -0.0446 1.3997 -0.0103
# 4 -0.0184 -0.0271 -0.0446 5.0636 -0.0077 -0.0983
# 5 2.3890 -1.6069 1.3997 -0.0077 24.7846 -0.0039
# 6 -0.0118 -0.0075 -0.0103 -0.0983 -0.0039 17.6355
#
#
#
# Elastic Compliance Matrix: (Units=1/GPa)
#
#
# Indices 1 2 3 4 5 6 
#
# 1 0.011604 -0.006676 -0.007224 -0.000059 -0.001143 0.000000
# 2 -0.006676 0.021778 -0.001114 0.000086 0.002118 0.000005
# 3 -0.007224 -0.001114 0.022451 0.000165 -0.000644 0.000009
# 4 -0.000059 0.000086 0.000165 0.197511 0.000064 0.001101
# 5 -0.001143 0.002118 -0.000644 0.000064 0.040632 0.000009
# 6 0.000000 0.000005 0.000009 0.001101 0.000009 0.056710
#
#
# Mechanical properties :
#
#
# Convention : Reuss Voigt Hill
#
# Bulk Modulus (GPa) = 38.75181 54.42244 46.58713
# Shear Modulus (GPa) = 12.84300 19.69021 16.26661
#
# Velocity S-wave (km/s) = 2.92442 3.62102 3.29120
# Velocity P-wave (km/s) = 6.09983 7.32957 6.74279
#
# Compressibility (1/GPa) = 0.02580524
#
# Stress axis : x y z
#
# Youngs Moduli (GPa) = 86.17350 45.91709 44.54139
#
# Poissons Ratio (x) = 0.30655 0.32178
# Poissons Ratio (y) = 0.57532 0.04961
# Poissons Ratio (z) = 0.62255 0.05114
#
# Static dielectric constant tensor:
#      x y z
#    x 3.394300 -0.000040 -0.022130 
#    y -0.000040 2.700180 -0.000060 
#    z -0.022130 -0.000060 2.891680 
# 
# 
# High freq. dielectric constant tensor:
#      x y z
#    x 1.589800 0.000000 -0.001410 
#    y 0.000000 1.506840 0.000000 
#    z -0.001410 0.000000 1.569490 
# 
# From -- ./inp_files/344978.got.cif
#   From: 2010.06.25/outbox.cif.g09.slc.cpg/sg12_173_cif.got.tgz:344978.got - 2010.06.28 00:19:55.
