data_PCOD8113651
_publ_section_title
;
Structure prediction by ZEFSAII (Michael W. Deem and Ramdas Pophale) SiO2 
 PCOD8113651
Probable space group: C 2/M
;
_chemical_formula_sum "Si O2"
_cell_formula_units_Z 56
_cell_length_a 12.639767
_cell_length_b 28.752708
_cell_length_c 8.651498
_cell_angle_alpha 90.000000
_cell_angle_beta 108.445629
_cell_angle_gamma 90.000000
_cell_volume 2982.657565
_symmetry_space_group_name_H-M "C 2/M"
_symmetry_group_IT_number 12
_symmetry_cell_setting 'monoclinic'
loop_
_space_group_symop_operation_xyz
x,y,z
-x,y,-z
-x,-y,-z
x,-y,z
1/2+x,1/2+y,z
1/2-x,1/2+y,-z
1/2-x,1/2-y,-z
1/2+x,1/2-y,z
loop_
_atom_site_type_symbol
_atom_site_label
_atom_site_fract_x
_atom_site_fract_y
_atom_site_fract_z
Si Si1 0.357328 0.300347 0.067146
Si Si2 0.462100 0.397148 0.142552
Si Si3 0.624650 0.551730 0.621669
Si Si4 0.195961 0.690432 0.719451
Si Si5 0.677221 0.630191 0.431566
Si Si6 0.997224 0.712048 0.827743
Si Si7 0.745067 0.286109 0.657407
O O1 0.395951 0.352449 0.056769
O O2 0.461702 0.265545 0.135864
O O3 0.275540 0.296893 0.172929
O O4 0.286208 0.288937 0.881927
O O5 0.381606 0.431118 0.203276
O O6 0.561355 0.379461 0.296063
O O7 0.500000 0.422715 0.000000
O O8 0.500000 0.550897 0.500000
O O9 0.677071 0.500000 0.640854
O O10 0.703108 0.585747 0.553887
O O11 0.227528 0.641167 0.653583
O O12 0.077789 0.683754 0.748093
O O13 0.199976 0.733307 0.594769
O O14 0.669305 0.676736 0.530403
O O15 0.877239 0.708227 0.692804
O O16 0.000000 0.688860 0.000000
#
# Coordination Sequence:
#
# PCOD8113651 Si02
#       7
#     8   8   8   8   8   8   8
#     4  11  19  33  54  75 109 150 195 219 260 316
#     4  11  20  34  58  81 106 144 182 222 267 327
#     4   9  20  38  57  81 110 138 170 221 286 338
#     4  11  21  33  52  79 109 150 194 225 260 317
#     4  11  22  35  52  79 112 143 180 221 273 325
#     4  11  19  32  51  73 107 154 187 229 260 293
#     4  11  21  34  50  75 111 150 189 225 264 314
#
# _framework density 18.775203000000001
#
# number of rings (size 3 to 8) (size 9 to 14) (size 15 to 20)
#    0.000    1.286    5.714    2.571    0.000    0.857 
#    0.000    0.000    0.000    0.000    0.000    2.000 
#    0.000    2.286    0.000    0.000    0.000    0.000 
#
# Total GULP energy -347062.743960 kJ/mol
# GULP energy per Si atom -12395.097999 kJ/mol
# Density = 1.873247 g / cm^3
# Si number density = 18.775203 Si / 1000 Ang^3
#
#
#
# Elastic Constant Matrix: (Units=GPa)
#
#
# Indices 1 2 3 4 5 6 
#
# 1 97.1438 32.3198 31.8616 0.0000 -20.2659 0.0000
# 2 32.3198 80.3684 38.6549 0.0000 -23.1701 0.0000
# 3 31.8616 38.6549 86.1176 0.0000 -9.2105 0.0000
# 4 0.0000 0.0000 0.0000 5.4030 0.0000 -7.4203
# 5 -20.2659 -23.1701 -9.2105 0.0000 25.1301 0.0000
# 6 0.0000 0.0000 0.0000 -7.4203 0.0000 24.1844
#
#
#
# Elastic Compliance Matrix: (Units=1/GPa)
#
#
# Indices 1 2 3 4 5 6 
#
# 1 0.013676 -0.001347 -0.003548 0.000000 0.008487 0.000000
# 2 -0.001347 0.020962 -0.007244 0.000000 0.015586 0.000000
# 3 -0.003548 -0.007244 0.015774 0.000000 -0.003758 0.000000
# 4 0.000000 0.000000 0.000000 0.319870 0.000000 0.098144
# 5 0.008487 0.015586 -0.003758 0.000000 0.059630 0.000000
# 6 0.000000 0.000000 0.000000 0.098144 0.000000 0.071462
#
#
# Mechanical properties :
#
#
# Convention : Reuss Voigt Hill
#
# Bulk Modulus (GPa) = 38.26171 52.14471 45.20321
# Shear Modulus (GPa) = 9.35695 21.66307 15.51001
#
# Velocity S-wave (km/s) = 2.23484 3.40047 2.87730
# Velocity P-wave (km/s) = 5.20408 6.57655 5.93015
#
# Compressibility (1/GPa) = 0.02613579
#
# Stress axis : x y z
#
# Youngs Moduli (GPa) = 73.11967 47.70615 63.39522
#
# Poissons Ratio (x) = 0.06424 0.22491
# Poissons Ratio (y) = 0.09847 0.45922
# Poissons Ratio (z) = 0.25941 0.34557
#
# Static dielectric constant tensor:
#      x y z
#    x 3.478840 0.000000 -0.441110 
#    y 0.000000 3.408340 0.000000 
#    z -0.441110 0.000000 3.730860 
# 
# 
# High freq. dielectric constant tensor:
#      x y z
#    x 1.714530 0.000000 -0.031560 
#    y 0.000000 1.684030 0.000000 
#    z -0.031560 0.000000 1.751810 
# 
# From -- ./inp_files/54326.got.cif
#   From: 2010.06.25/outbox.cif.g09.slc.cpg/sg12_28_cif.got.tgz:54326.got - 2010.06.28 00:19:55.
