data_PCOD8113117
_publ_section_title
;
Structure prediction by ZEFSAII (Michael W. Deem and Ramdas Pophale) SiO2 
 PCOD8113117
Probable space group: C 2/M
;
_chemical_formula_sum "Si O2"
_cell_formula_units_Z 56
_cell_length_a 11.261035
_cell_length_b 18.730357
_cell_length_c 13.935210
_cell_angle_alpha 90.000000
_cell_angle_beta 64.090275
_cell_angle_gamma 90.000000
_cell_volume 2643.815493
_symmetry_space_group_name_H-M "C 2/M"
_symmetry_group_IT_number 12
_symmetry_cell_setting 'monoclinic'
loop_
_space_group_symop_operation_xyz
x,y,z
-x,y,-z
-x,-y,-z
x,-y,z
1/2+x,1/2+y,z
1/2-x,1/2+y,-z
1/2-x,1/2-y,-z
1/2+x,1/2-y,z
loop_
_atom_site_type_symbol
_atom_site_label
_atom_site_fract_x
_atom_site_fract_y
_atom_site_fract_z
Si Si1 0.469753 0.079112 0.213580
Si Si2 0.360725 0.420965 0.503913
Si Si3 0.618076 0.164220 0.031662
Si Si4 0.239901 0.314430 0.696117
Si Si5 0.584610 0.081677 0.379127
Si Si6 0.153315 0.161247 0.686745
Si Si7 0.622810 0.302590 0.159355
O O1 0.596384 0.090915 0.099742
O O2 0.374948 0.142282 0.208353
O O3 0.496820 0.090135 0.316213
O O4 0.412188 0.000000 0.215905
O O5 0.500000 0.435517 0.500000
O O6 0.293417 0.500000 0.512724
O O7 0.279137 0.372076 0.603418
O O8 0.378062 0.378775 0.399915
O O9 0.622176 0.226516 0.109292
O O10 0.500000 0.181764 0.000000
O O11 0.759052 0.152291 0.930144
O O12 0.187308 0.244676 0.659435
O O13 0.350205 0.292896 0.735457
O O14 0.500000 0.112015 0.500000
O O15 0.719946 0.123954 0.310765
O O16 0.622954 0.000000 0.385883
O O17 0.020229 0.157942 0.799771
#
# Coordination Sequence:
#
# PCOD8113117 Si02
#       7
#     8   8   8   8   8   8   8
#     4  11  23  41  65  95 132 174 226 273 326 403
#     4  11  24  41  61  92 137 174 210 268 335 399
#     4  11  22  43  66  95 132 176 219 279 344 396
#     4  12  23  42  64  98 128 175 222 275 331 394
#     4  10  23  44  68  95 133 180 222 267 329 402
#     4  12  23  40  70  97 131 172 227 279 328 396
#     4  11  23  41  67  99 131 163 226 281 341 389
#
# _framework density 21.181508000000001
#
# number of rings (size 3 to 8) (size 9 to 14) (size 15 to 20)
#    0.000    0.857    4.286    3.000    0.000    3.143 
#    0.000    1.429    0.000    1.714    0.000    0.000 
#    0.000    0.000    0.000    0.000    0.000    0.000 
#
# Total GULP energy -346995.254112 kJ/mol
# GULP energy per Si atom -12392.687647 kJ/mol
# Density = 2.113330 g / cm^3
# Si number density = 21.181508 Si / 1000 Ang^3
#
#
#
# Elastic Constant Matrix: (Units=GPa)
#
#
# Indices 1 2 3 4 5 6 
#
# 1 86.8069 43.9175 29.6180 0.0000 -13.9927 0.0000
# 2 43.9175 131.7648 46.0674 0.0000 -5.2151 0.0000
# 3 29.6180 46.0674 97.4602 0.0000 -15.3091 0.0000
# 4 0.0000 0.0000 0.0000 33.4480 0.0000 -1.4409
# 5 -13.9927 -5.2151 -15.3091 0.0000 41.8595 0.0000
# 6 0.0000 0.0000 0.0000 -1.4409 0.0000 32.1053
#
#
#
# Elastic Compliance Matrix: (Units=1/GPa)
#
#
# Indices 1 2 3 4 5 6 
#
# 1 0.014884 -0.004117 -0.001990 0.000000 0.003734 0.000000
# 2 -0.004117 0.010239 -0.003824 0.000000 -0.001499 0.000000
# 3 -0.001990 -0.003824 0.013255 0.000000 0.003706 0.000000
# 4 0.000000 0.000000 0.000000 0.029955 0.000000 0.001344
# 5 0.003734 -0.001499 0.003706 0.000000 0.026306 0.000000
# 6 0.000000 0.000000 0.000000 0.001344 0.000000 0.031208
#
#
# Mechanical properties :
#
#
# Convention : Reuss Voigt Hill
#
# Bulk Modulus (GPa) = 54.01095 61.69306 57.85201
# Shear Modulus (GPa) = 32.92014 34.57783 33.74899
#
# Velocity S-wave (km/s) = 3.94660 4.04475 3.99598
# Velocity P-wave (km/s) = 6.80603 7.14160 6.97583
#
# Compressibility (1/GPa) = 0.01851476
#
# Stress axis : x y z
#
# Youngs Moduli (GPa) = 67.18686 97.66406 75.44182
#
# Poissons Ratio (x) = 0.40209 0.15017
# Poissons Ratio (y) = 0.27662 0.28850
# Poissons Ratio (z) = 0.13374 0.37348
#
# Static dielectric constant tensor:
#      x y z
#    x 3.969480 0.000000 -0.275590 
#    y 0.000000 3.819750 0.000000 
#    z -0.275590 0.000000 3.813560 
# 
# 
# High freq. dielectric constant tensor:
#      x y z
#    x 1.835310 0.000000 -0.004770 
#    y 0.000000 1.824200 0.000000 
#    z -0.004770 0.000000 1.838050 
# 
# From -- ./inp_files/206568.got.cif
#   From: 2010.06.25/outbox.cif.g09.slc.cpg/sg12_104_cif.got.tgz:206568.got - 2010.06.28 00:19:55.
