data_PCOD8113855
_publ_section_title
;
Structure prediction by ZEFSAII (Michael W. Deem and Ramdas Pophale) SiO2 
 PCOD8113855
Probable space group: C 2/M
;
_chemical_formula_sum "Si O2"
_cell_formula_units_Z 56
_cell_length_a 22.848319
_cell_length_b 15.582703
_cell_length_c 18.313507
_cell_angle_alpha 90.000000
_cell_angle_beta 24.658126
_cell_angle_gamma 90.000000
_cell_volume 2720.294834
_symmetry_space_group_name_H-M "C 2/M"
_symmetry_group_IT_number 12
_symmetry_cell_setting 'monoclinic'
loop_
_space_group_symop_operation_xyz
x,y,z
-x,y,-z
-x,-y,-z
x,-y,z
1/2+x,1/2+y,z
1/2-x,1/2+y,-z
1/2-x,1/2-y,-z
1/2+x,1/2-y,z
loop_
_atom_site_type_symbol
_atom_site_label
_atom_site_fract_x
_atom_site_fract_y
_atom_site_fract_z
Si Si1 0.324670 0.671674 0.536100
Si Si2 0.298548 0.401779 0.411287
Si Si3 0.606270 0.000000 0.981956
Si Si4 0.933549 0.214899 0.152856
Si Si5 0.942727 0.266030 0.647302
Si Si6 0.482159 0.099822 0.716658
Si Si7 0.848680 0.676235 0.005365
Si Si8 0.810762 0.500000 0.273209
O O1 0.322143 0.663508 0.451434
O O2 0.217916 0.742714 0.687239
O O3 0.476703 0.698501 0.392486
O O4 0.289188 0.580655 0.609928
O O5 0.327972 0.500000 0.401708
O O6 0.411758 0.373953 0.221612
O O7 0.143445 0.390519 0.555865
O O8 0.611728 0.000000 0.890255
O O9 0.684003 0.917344 0.925253
O O10 0.436043 0.000000 0.193367
O O11 0.022593 0.283832 0.096485
O O12 0.000000 0.191499 0.000000
O O13 0.000000 0.265054 0.500000
O O14 0.959632 0.362249 0.660890
O O15 0.781050 0.239091 0.835047
O O16 0.388567 0.159997 0.875757
O O17 0.434953 0.000000 0.772770
#
# Coordination Sequence:
#
# PCOD8113855 Si02
#       8
#     8   8   4   8   8   8   8   4
#     4  12  22  43  66  97 131 169 223 267 323 391
#     4  11  23  43  71 101 129 169 222 279 327 381
#     4  11  20  35  61  95 134 165 215 264 324 391
#     4  12  23  39  68  98 131 173 219 270 324 384
#     4  12  27  44  65  99 138 176 218 268 330 392
#     4  11  23  45  72  96 127 176 226 271 323 391
#     4  12  24  42  65  97 135 173 218 268 328 393
#     4  11  20  33  63  97 128 171 211 270 320 383
#
# _framework density 20.586003000000002
#
# number of rings (size 3 to 8) (size 9 to 14) (size 15 to 20)
#    0.000    0.429    5.714    4.286    0.000    1.143 
#    0.000    3.571    0.000    0.000    0.000    0.000 
#    0.000    0.000    0.000    0.000    0.000    0.000 
#
# Total GULP energy -347240.092858 kJ/mol
# GULP energy per Si atom -12401.431888 kJ/mol
# Density = 2.053915 g / cm^3
# Si number density = 20.586003 Si / 1000 Ang^3
#
#
#
# Elastic Constant Matrix: (Units=GPa)
#
#
# Indices 1 2 3 4 5 6 
#
# 1 81.8265 39.9218 34.5009 -0.0020 14.1776 0.0007
# 2 39.9218 71.5539 32.7135 -0.0027 13.4587 0.0011
# 3 34.5009 32.7135 81.3842 -0.0072 27.1755 0.0030
# 4 -0.0020 -0.0027 -0.0072 16.3330 0.0031 -8.8462
# 5 14.1776 13.4587 27.1755 0.0031 35.6678 -0.0014
# 6 0.0007 0.0011 0.0030 -8.8462 -0.0014 21.1933
#
#
#
# Elastic Compliance Matrix: (Units=1/GPa)
#
#
# Indices 1 2 3 4 5 6 
#
# 1 0.018021 -0.007994 -0.004080 -0.000001 -0.001039 0.000000
# 2 -0.007994 0.020739 -0.004554 0.000001 -0.001178 0.000000
# 3 -0.004080 -0.004554 0.019759 0.000010 -0.011715 0.000001
# 4 -0.000001 0.000001 0.000010 0.079110 -0.000013 0.033021
# 5 -0.001039 -0.001178 -0.011715 -0.000013 0.037819 -0.000001
# 6 0.000000 0.000000 0.000001 0.033021 -0.000001 0.060968
#
#
# Mechanical properties :
#
#
# Convention : Reuss Voigt Hill
#
# Bulk Modulus (GPa) = 39.58171 49.89297 44.73734
# Shear Modulus (GPa) = 17.97957 23.14739 20.56348
#
# Velocity S-wave (km/s) = 2.95852 3.35688 3.16398
# Velocity P-wave (km/s) = 5.56235 6.27007 5.92678
#
# Compressibility (1/GPa) = 0.02526419
#
# Stress axis : x y z
#
# Youngs Moduli (GPa) = 55.49038 48.21779 50.60966
#
# Poissons Ratio (x) = 0.38545 0.20646
# Poissons Ratio (y) = 0.44359 0.23048
# Poissons Ratio (z) = 0.22637 0.21959
#
# Static dielectric constant tensor:
#      x y z
#    x 3.756370 0.000000 0.164640 
#    y 0.000000 3.785700 0.000000 
#    z 0.164640 0.000000 3.737520 
# 
# 
# High freq. dielectric constant tensor:
#      x y z
#    x 1.802150 0.000000 0.012950 
#    y 0.000000 1.807620 0.000000 
#    z 0.012950 0.000000 1.803970 
# 
# From -- ./inp_files/284542.got.cif
#   From: 2010.06.25/outbox.cif.g09.slc.cpg/sg12_143_cif.got.tgz:284542.got - 2010.06.28 00:19:55.
