data_PCOD8113339
_publ_section_title
;
Structure prediction by ZEFSAII (Michael W. Deem and Ramdas Pophale) SiO2 
 PCOD8113339
Probable space group: C 2/M
;
_chemical_formula_sum "Si O2"
_cell_formula_units_Z 48
_cell_length_a 19.027790
_cell_length_b 11.356574
_cell_length_c 13.286161
_cell_angle_alpha 90.000000
_cell_angle_beta 59.564712
_cell_angle_gamma 90.000000
_cell_volume 2475.392911
_symmetry_space_group_name_H-M "C 2/M"
_symmetry_group_IT_number 12
_symmetry_cell_setting 'monoclinic'
loop_
_space_group_symop_operation_xyz
x,y,z
-x,y,-z
-x,-y,-z
x,-y,z
1/2+x,1/2+y,z
1/2-x,1/2+y,-z
1/2-x,1/2-y,-z
1/2+x,1/2-y,z
loop_
_atom_site_type_symbol
_atom_site_label
_atom_site_fract_x
_atom_site_fract_y
_atom_site_fract_z
Si Si1 0.072171 0.000000 0.803782
Si Si2 0.899751 0.000000 0.986575
Si Si3 0.916222 0.135243 0.505126
Si Si4 0.242468 0.636397 0.718353
Si Si5 0.020212 0.636469 0.095978
Si Si6 0.316633 0.252960 0.035204
Si Si7 0.114379 0.238762 0.683045
O O1 0.121340 0.889377 0.726444
O O2 0.068597 0.000000 0.924603
O O3 0.974431 0.000000 0.850286
O O4 0.845738 0.114142 0.011763
O O5 0.839827 0.146388 0.635950
O O6 0.897377 0.224847 0.427971
O O7 0.000000 0.172665 0.500000
O O8 0.924174 0.000000 0.459957
O O9 0.216846 0.500000 0.752643
O O10 0.216542 0.713791 0.832278
O O11 0.195047 0.686340 0.653977
O O12 0.000495 0.500000 0.114089
O O13 0.965882 0.698236 0.218443
O O14 0.113753 0.662853 0.050939
O O15 0.000000 0.689127 0.000000
O O16 0.250000 0.250000 0.000000
#
# Coordination Sequence:
#
# PCOD8113339 Si02
#       7
#     4   4   8   8   8   8   8
#     4  11  20  36  65  92 122 158 207 262 306 360
#     4  11  22  40  58  94 129 166 206 253 318 367
#     4  10  24  43  65  92 124 163 209 264 322 371
#     4  11  24  43  65  91 125 169 215 259 309 375
#     4  11  22  40  65  93 127 167 207 251 310 378
#     4  12  26  39  61  95 132 168 203 257 312 377
#     4  12  21  40  66  95 121 162 212 259 310 366
#
# _framework density 19.390863
#
# number of rings (size 3 to 8) (size 9 to 14) (size 15 to 20)
#    0.000    0.833    5.833    1.500    4.667    0.000 
#    0.000    0.000    1.833    2.000    0.000    0.000 
#    0.000    0.000    0.000    0.000    0.000    0.000 
#
# Total GULP energy -297596.795889 kJ/mol
# GULP energy per Si atom -12399.866495 kJ/mol
# Density = 1.934673 g / cm^3
# Si number density = 19.390863 Si / 1000 Ang^3
#
#
#
# Elastic Constant Matrix: (Units=GPa)
#
#
# Indices 1 2 3 4 5 6 
#
# 1 132.5076 24.0341 28.2499 0.0000 -2.9266 0.0000
# 2 24.0341 86.7049 19.7272 0.0000 -1.5872 0.0000
# 3 28.2499 19.7272 52.8868 0.0000 -6.6662 0.0000
# 4 0.0000 0.0000 0.0000 24.3399 0.0000 -2.8732
# 5 -2.9266 -1.5872 -6.6662 0.0000 34.0548 0.0000
# 6 0.0000 0.0000 0.0000 -2.8732 0.0000 42.9439
#
#
#
# Elastic Compliance Matrix: (Units=1/GPa)
#
#
# Indices 1 2 3 4 5 6 
#
# 1 0.008687 -0.001476 -0.004105 0.000000 -0.000126 0.000000
# 2 -0.001476 0.012858 -0.004048 0.000000 -0.000320 0.000000
# 3 -0.004105 -0.004048 0.023113 0.000000 0.003983 0.000000
# 4 0.000000 0.000000 0.000000 0.041412 0.000000 0.002771
# 5 -0.000126 -0.000320 0.003983 0.000000 0.030118 0.000000
# 6 0.000000 0.000000 0.000000 0.002771 0.000000 0.023472
#
#
# Mechanical properties :
#
#
# Convention : Reuss Voigt Hill
#
# Bulk Modulus (GPa) = 39.37182 46.23575 42.80379
# Shear Modulus (GPa) = 29.87125 33.60691 31.73908
#
# Velocity S-wave (km/s) = 3.92915 4.16761 4.05014
# Velocity P-wave (km/s) = 6.39787 6.85962 6.63277
#
# Compressibility (1/GPa) = 0.02539888
#
# Stress axis : x y z
#
# Youngs Moduli (GPa) = 115.11490 77.77456 43.26532
#
# Poissons Ratio (x) = 0.11481 0.17762
# Poissons Ratio (y) = 0.16993 0.17513
# Poissons Ratio (z) = 0.47260 0.31482
#
# Static dielectric constant tensor:
#      x y z
#    x 3.564660 0.000000 -0.105850 
#    y 0.000000 3.663300 0.000000 
#    z -0.105850 0.000000 3.455190 
# 
# 
# High freq. dielectric constant tensor:
#      x y z
#    x 1.758820 0.000000 -0.012380 
#    y 0.000000 1.761060 0.000000 
#    z -0.012380 0.000000 1.749810 
# 
# From -- ./inp_files/154240.got.cif
#   From: 2010.06.25/outbox.cif.g09.slc.cpg/sg12_78_cif.got.tgz:154240.got - 2010.06.28 00:19:55.
