data_PCOD8113369
_publ_section_title
;
Structure prediction by ZEFSAII (Michael W. Deem and Ramdas Pophale) SiO2 
 PCOD8113369
Probable space group: C 2/M
;
_chemical_formula_sum "Si O2"
_cell_formula_units_Z 64
_cell_length_a 13.352035
_cell_length_b 25.811188
_cell_length_c 15.014932
_cell_angle_alpha 90.000000
_cell_angle_beta 141.450705
_cell_angle_gamma 90.000000
_cell_volume 3224.762393
_symmetry_space_group_name_H-M "C 2/M"
_symmetry_group_IT_number 12
_symmetry_cell_setting 'monoclinic'
loop_
_space_group_symop_operation_xyz
x,y,z
-x,y,-z
-x,-y,-z
x,-y,z
1/2+x,1/2+y,z
1/2-x,1/2+y,-z
1/2-x,1/2-y,-z
1/2+x,1/2-y,z
loop_
_atom_site_type_symbol
_atom_site_label
_atom_site_fract_x
_atom_site_fract_y
_atom_site_fract_z
Si Si1 0.315813 0.307041 0.052973
Si Si2 0.811573 0.193564 0.383761
Si Si3 0.687096 0.305165 0.306334
Si Si4 0.545435 0.560099 0.634027
Si Si5 0.817523 0.864362 0.872595
Si Si6 0.815520 0.637929 0.867477
Si Si7 0.541046 0.060479 0.630893
Si Si8 0.249224 0.382244 0.498617
O O1 0.502287 0.300225 0.204369
O O2 0.232609 0.339272 0.071913
O O3 0.250000 0.250000 0.000000
O O4 0.274067 0.338667 0.935624
O O5 0.782782 0.252474 0.393107
O O6 0.713855 0.182876 0.225581
O O7 0.739374 0.156236 0.408562
O O8 0.000000 0.182499 0.500000
O O9 0.707696 0.319325 0.217560
O O10 0.761267 0.350114 0.417839
O O11 0.500000 0.569961 0.500000
O O12 0.564889 0.500000 0.669465
O O13 0.714411 0.587132 0.771799
O O14 0.410002 0.583372 0.604810
O O15 0.707260 0.913190 0.774557
O O16 0.000000 0.884982 0.000000
O O17 0.000000 0.621032 0.000000
O O18 0.500000 0.073257 0.500000
O O19 0.403187 0.079784 0.603050
O O20 0.563964 0.000000 0.661948
#
# Coordination Sequence:
#
# PCOD8113369 Si02
#       8
#     8   8   8   8   8   8   8   8
#     4  11  23  41  65  91 131 178 216 258 327 387
#     4  12  24  41  66  98 132 170 216 266 329 393
#     4  11  23  39  64  98 127 170 212 267 327 392
#     4  11  23  45  71  93 125 172 220 277 333 383
#     4  10  24  44  64  93 134 170 214 267 322 388
#     4  12  24  42  63  94 135 172 214 271 318 390
#     4  11  25  44  70  98 125 170 224 276 327 377
#     4  12  22  42  66  99 128 167 213 275 332 389
#
# _framework density 19.846423000000001
#
# number of rings (size 3 to 8) (size 9 to 14) (size 15 to 20)
#    0.000    0.750    5.000    2.250    5.250    1.500 
#    0.000    0.625    0.000    0.000    0.000    0.000 
#    0.000    0.000    0.000    0.000    0.000    0.000 
#
# Total GULP energy -396988.736566 kJ/mol
# GULP energy per Si atom -12405.898018 kJ/mol
# Density = 1.980125 g / cm^3
# Si number density = 19.846423 Si / 1000 Ang^3
#
#
#
# Elastic Constant Matrix: (Units=GPa)
#
#
# Indices 1 2 3 4 5 6 
#
# 1 115.7158 59.6088 62.6012 0.0000 -2.7460 0.0000
# 2 59.6088 148.6887 66.9794 0.0000 6.2938 0.0000
# 3 62.6012 66.9794 114.7960 0.0000 8.2241 -0.0001
# 4 0.0000 0.0000 0.0000 36.0872 0.0000 -4.0160
# 5 -2.7460 6.2938 8.2241 0.0000 37.2296 0.0000
# 6 0.0000 0.0000 -0.0001 -4.0160 0.0000 38.3195
#
#
#
# Elastic Compliance Matrix: (Units=1/GPa)
#
#
# Indices 1 2 3 4 5 6 
#
# 1 0.013305 -0.002839 -0.005795 0.000000 0.002741 0.000000
# 2 -0.002839 0.009734 -0.004063 0.000000 -0.000958 0.000000
# 3 -0.005795 -0.004063 0.014452 0.000000 -0.002933 0.000000
# 4 0.000000 0.000000 0.000000 0.028038 0.000000 0.002938
# 5 0.002741 -0.000958 -0.002933 0.000000 0.027872 0.000000
# 6 0.000000 0.000000 0.000000 0.002938 0.000000 0.026404
#
#
# Mechanical properties :
#
#
# Convention : Reuss Voigt Hill
#
# Bulk Modulus (GPa) = 82.66765 84.17551 83.42158
# Shear Modulus (GPa) = 33.50490 34.99465 34.24978
#
# Velocity S-wave (km/s) = 4.11324 4.20369 4.15871
# Velocity P-wave (km/s) = 8.01888 8.12815 8.07370
#
# Compressibility (1/GPa) = 0.01209663
#
# Stress axis : x y z
#
# Youngs Moduli (GPa) = 75.16162 102.72863 69.19494
#
# Poissons Ratio (x) = 0.29168 0.40099
# Poissons Ratio (y) = 0.21341 0.28112
# Poissons Ratio (z) = 0.43557 0.41736
#
# Static dielectric constant tensor:
#      x y z
#    x 3.758910 0.000000 0.067230 
#    y 0.000000 3.575030 0.000000 
#    z 0.067230 0.000000 3.493120 
# 
# 
# High freq. dielectric constant tensor:
#      x y z
#    x 1.789770 0.000000 0.000960 
#    y 0.000000 1.777200 0.000000 
#    z 0.000960 0.000000 1.775330 
# 
# From -- ./inp_files/209412.got.cif
#   From: 2010.06.25/outbox.cif.g09.slc.cpg/sg12_105_cif.got.tgz:209412.got - 2010.06.28 00:19:55.
