data_PCOD8113904
_publ_section_title
;
Structure prediction by ZEFSAII (Michael W. Deem and Ramdas Pophale) SiO2 
 PCOD8113904
Probable space group: C 2/M
;
_chemical_formula_sum "Si O2"
_cell_formula_units_Z 44
_cell_length_a 12.139455
_cell_length_b 20.359146
_cell_length_c 11.974334
_cell_angle_alpha 90.000000
_cell_angle_beta 134.412074
_cell_angle_gamma 90.000000
_cell_volume 2114.005435
_symmetry_space_group_name_H-M "C 2/M"
_symmetry_group_IT_number 12
_symmetry_cell_setting 'monoclinic'
loop_
_space_group_symop_operation_xyz
x,y,z
-x,y,-z
-x,-y,-z
x,-y,z
1/2+x,1/2+y,z
1/2-x,1/2+y,-z
1/2-x,1/2-y,-z
1/2+x,1/2-y,z
loop_
_atom_site_type_symbol
_atom_site_label
_atom_site_fract_x
_atom_site_fract_y
_atom_site_fract_z
Si Si1 0.034439 0.924427 0.281849
Si Si2 0.204287 0.850904 0.044575
Si Si3 0.326339 0.883620 0.361397
Si Si4 0.000000 0.137032 0.500000
Si Si5 0.742820 0.256403 0.624507
Si Si6 0.436765 0.787341 0.063365
O O1 0.214479 0.913754 0.377142
O O2 0.000997 0.905168 0.386743
O O3 0.989848 0.000000 0.237093
O O4 0.935216 0.883588 0.121888
O O5 0.252097 0.895497 0.185188
O O6 0.351363 0.844685 0.069109
O O7 0.166323 0.775070 0.051028
O O8 0.500000 0.913567 0.500000
O O9 0.341666 0.805682 0.382459
O O10 0.155062 0.180317 0.610429
O O11 0.750000 0.250000 0.500000
O O12 0.924082 0.256718 0.771138
O O13 0.500000 0.824996 0.000000
#
# Coordination Sequence:
#
# PCOD8113904 Si02
#       6
#     8   8   8   4   8   8
#     4  12  27  48  69  94 138 192 237 273 327 412
#     4  11  23  39  65  98 134 177 225 277 338 408
#     4  12  24  41  67 107 136 176 226 284 353 403
#     4  12  25  42  72 104 137 180 228 282 350 408
#     4  12  21  36  64 103 140 170 211 284 354 405
#     4  11  20  35  60  97 136 168 211 276 348 405
#
# _framework density 20.813571
#
# number of rings (size 3 to 8) (size 9 to 14) (size 15 to 20)
#    0.000    0.364    6.364    3.000    2.545    1.818 
#    0.000    0.000    0.000    1.636    0.000    0.000 
#    0.000    0.000    0.000    0.000    0.000    0.000 
#
# Total GULP energy -272674.490321 kJ/mol
# GULP energy per Si atom -12394.295015 kJ/mol
# Density = 2.076620 g / cm^3
# Si number density = 20.813571 Si / 1000 Ang^3
#
#
#
# Elastic Constant Matrix: (Units=GPa)
#
#
# Indices 1 2 3 4 5 6 
#
# 1 156.3710 24.7016 48.1500 0.0000 -7.9252 0.0000
# 2 24.7016 72.7722 1.2827 0.0000 -3.7534 0.0000
# 3 48.1500 1.2827 103.7593 0.0000 -10.2390 0.0000
# 4 0.0000 0.0000 0.0000 15.1923 0.0000 -4.6209
# 5 -7.9252 -3.7534 -10.2390 0.0000 37.9807 0.0000
# 6 0.0000 0.0000 0.0000 -4.6209 0.0000 15.3691
#
#
#
# Elastic Compliance Matrix: (Units=1/GPa)
#
#
# Indices 1 2 3 4 5 6 
#
# 1 0.007941 -0.002610 -0.003611 0.000000 0.000426 0.000000
# 2 -0.002610 0.014670 0.001150 0.000000 0.001215 0.000000
# 3 -0.003611 0.001150 0.011543 0.000000 0.002472 0.000000
# 4 0.000000 0.000000 0.000000 0.072448 0.000000 0.021782
# 5 0.000426 0.001215 0.002472 0.000000 0.027204 0.000000
# 6 0.000000 0.000000 0.000000 0.021782 0.000000 0.071615
#
#
# Mechanical properties :
#
#
# Convention : Reuss Voigt Hill
#
# Bulk Modulus (GPa) = 41.64613 53.46344 47.55479
# Shear Modulus (GPa) = 22.36474 30.95963 26.66219
#
# Velocity S-wave (km/s) = 3.28155 3.86096 3.58299
# Velocity P-wave (km/s) = 5.86606 6.75416 6.32571
#
# Compressibility (1/GPa) = 0.02401184
#
# Stress axis : x y z
#
# Youngs Moduli (GPa) = 125.93392 68.16739 86.63294
#
# Poissons Ratio (x) = 0.17790 0.31280
# Poissons Ratio (y) = 0.32866 -0.09960
# Poissons Ratio (z) = 0.45470 -0.07837
#
# Static dielectric constant tensor:
#      x y z
#    x 3.921560 0.000000 -0.286160 
#    y 0.000000 3.721700 0.000000 
#    z -0.286160 0.000000 3.561030 
# 
# 
# High freq. dielectric constant tensor:
#      x y z
#    x 1.840150 0.000000 -0.004150 
#    y 0.000000 1.768110 0.000000 
#    z -0.004150 0.000000 1.828200 
# 
# From -- ./inp_files/133484.got.cif
#   From: 2010.06.25/outbox.cif.g09.slc.cpg/sg12_67_cif.got.tgz:133484.got - 2010.06.28 00:19:55.
