data_PCOD8113121
_publ_section_title
;
Structure prediction by ZEFSAII (Michael W. Deem and Ramdas Pophale) SiO2 
 PCOD8113121
Probable space group: C 2/M
;
_chemical_formula_sum "Si O2"
_cell_formula_units_Z 44
_cell_length_a 13.596520
_cell_length_b 22.051669
_cell_length_c 13.250694
_cell_angle_alpha 90.000000
_cell_angle_beta 148.679465
_cell_angle_gamma 90.000000
_cell_volume 2065.215067
_symmetry_space_group_name_H-M "C 2/M"
_symmetry_group_IT_number 12
_symmetry_cell_setting 'monoclinic'
loop_
_space_group_symop_operation_xyz
x,y,z
-x,y,-z
-x,-y,-z
x,-y,z
1/2+x,1/2+y,z
1/2-x,1/2+y,-z
1/2-x,1/2-y,-z
1/2+x,1/2-y,z
loop_
_atom_site_type_symbol
_atom_site_label
_atom_site_fract_x
_atom_site_fract_y
_atom_site_fract_z
Si Si1 0.584517 0.141355 0.814202
Si Si2 0.269322 0.069526 0.417938
Si Si3 0.500000 0.637478 0.500000
Si Si4 0.294810 0.172890 0.289738
Si Si5 0.114159 0.930904 0.797675
Si Si6 0.121625 0.291838 0.199451
O O1 0.427328 0.097209 0.629586
O O2 0.715295 0.170009 0.840885
O O3 0.484354 0.195990 0.787708
O O4 0.710283 0.104103 0.001500
O O5 0.261436 0.105822 0.305542
O O6 0.066539 0.075396 0.290159
O O7 0.320929 0.000000 0.438986
O O8 0.431049 0.594624 0.350954
O O9 0.672352 0.678723 0.614385
O O10 0.500000 0.197813 0.500000
O O11 0.141339 0.219404 0.200081
O O12 0.177025 0.000000 0.840214
O O13 0.000000 0.319248 0.000000
#
# Coordination Sequence:
#
# PCOD8113121 Si02
#       6
#     8   8   4   8   8   8
#     4  11  24  43  67 100 132 172 221 268 329 391
#     4  10  23  44  68  97 136 174 216 270 328 388
#     4  12  23  46  66 100 129 174 224 270 328 392
#     4  10  25  43  67 100 132 176 218 271 326 388
#     4  11  24  42  69 100 131 174 221 271 325 390
#     4  12  25  43  68  96 132 175 219 274 326 391
#
# _framework density 21.305288000000001
#
# number of rings (size 3 to 8) (size 9 to 14) (size 15 to 20)
#    0.000    1.091    4.545    0.818    2.545    9.091 
#    0.000    2.727    0.000    0.000    0.000    0.000 
#    0.000    0.000    0.000    0.000    0.000    0.000 
#
# Total GULP energy -272868.333634 kJ/mol
# GULP energy per Si atom -12403.106074 kJ/mol
# Density = 2.125680 g / cm^3
# Si number density = 21.305288 Si / 1000 Ang^3
#
#
#
# Elastic Constant Matrix: (Units=GPa)
#
#
# Indices 1 2 3 4 5 6 
#
# 1 123.6330 91.1872 40.2723 0.0000 -26.1971 0.0000
# 2 91.1872 156.7276 49.6460 0.0000 -8.2747 0.0000
# 3 40.2723 49.6460 92.7953 0.0000 -10.9832 0.0000
# 4 0.0000 0.0000 0.0000 25.3814 0.0000 3.8243
# 5 -26.1971 -8.2747 -10.9832 0.0000 35.5976 0.0000
# 6 0.0000 0.0000 0.0000 3.8243 0.0000 30.9280
#
#
#
# Elastic Compliance Matrix: (Units=1/GPa)
#
#
# Indices 1 2 3 4 5 6 
#
# 1 0.017530 -0.009189 -0.001471 0.000000 0.010311 0.000000
# 2 -0.009189 0.012509 -0.003281 0.000000 -0.004867 0.000000
# 3 -0.001471 -0.003281 0.013443 0.000000 0.002302 0.000000
# 4 0.000000 0.000000 0.000000 0.040147 0.000000 -0.004964
# 5 0.010311 -0.004867 0.002302 0.000000 0.035259 0.000000
# 6 0.000000 0.000000 0.000000 -0.004964 0.000000 0.032947
#
#
# Mechanical properties :
#
#
# Convention : Reuss Voigt Hill
#
# Bulk Modulus (GPa) = 64.10267 81.70743 72.90505
# Shear Modulus (GPa) = 27.03949 31.18478 29.11213
#
# Velocity S-wave (km/s) = 3.56637 3.83000 3.70053
# Velocity P-wave (km/s) = 6.86379 7.61528 7.24928
#
# Compressibility (1/GPa) = 0.01559997
#
# Stress axis : x y z
#
# Youngs Moduli (GPa) = 57.04594 79.94330 74.39063
#
# Poissons Ratio (x) = 0.73457 0.10946
# Poissons Ratio (y) = 0.52418 0.24404
# Poissons Ratio (z) = 0.08394 0.26226
#
# Static dielectric constant tensor:
#      x y z
#    x 3.925540 0.000000 0.037710 
#    y 0.000000 3.852120 0.000000 
#    z 0.037710 0.000000 3.986450 
# 
# 
# High freq. dielectric constant tensor:
#      x y z
#    x 1.843560 0.000000 0.003660 
#    y 0.000000 1.835250 0.000000 
#    z 0.003660 0.000000 1.848390 
# 
# From -- ./inp_files/136094.got.cif
#   From: 2010.06.25/outbox.cif.g09.slc.cpg/sg12_69_cif.got.tgz:136094.got - 2010.06.28 00:19:55.
