data_PCOD8113679
_publ_section_title
;
Structure prediction by ZEFSAII (Michael W. Deem and Ramdas Pophale) SiO2 
 PCOD8113679
Probable space group: C 2/M
;
_chemical_formula_sum "Si O2"
_cell_formula_units_Z 40
_cell_length_a 23.801242
_cell_length_b 9.674248
_cell_length_c 29.109221
_cell_angle_alpha 90.000000
_cell_angle_beta 18.690977
_cell_angle_gamma 90.000000
_cell_volume 2147.961158
_symmetry_space_group_name_H-M "C 2/M"
_symmetry_group_IT_number 12
_symmetry_cell_setting 'monoclinic'
loop_
_space_group_symop_operation_xyz
x,y,z
-x,y,-z
-x,-y,-z
x,-y,z
1/2+x,1/2+y,z
1/2-x,1/2+y,-z
1/2-x,1/2-y,-z
1/2+x,1/2-y,z
loop_
_atom_site_type_symbol
_atom_site_label
_atom_site_fract_x
_atom_site_fract_y
_atom_site_fract_z
Si Si1 0.805069 0.500000 0.527774
Si Si2 0.283995 0.000000 0.910679
Si Si3 0.594525 0.500000 0.153901
Si Si4 0.731663 0.288523 0.119123
Si Si5 0.496317 0.000000 0.057413
Si Si6 0.958207 0.788088 0.413231
Si Si7 0.190002 0.500000 0.585297
Si Si8 0.905003 0.000000 0.621655
O O1 0.610686 0.500000 0.699016
O O2 0.910794 0.632628 0.464155
O O3 0.799154 0.500000 0.477599
O O4 0.220491 0.867453 0.931166
O O5 0.492343 0.000000 0.755860
O O6 0.200461 0.000000 0.025099
O O7 0.642755 0.362825 0.144669
O O8 0.596308 0.293240 0.265425
O O9 0.909542 0.363360 0.996398
O O10 0.301249 0.000000 0.227972
O O11 0.500000 0.000000 0.000000
O O12 0.781184 0.862966 0.534011
O O13 0.041847 0.862441 0.392190
O O14 0.000000 0.000000 0.500000
#
# Coordination Sequence:
#
# PCOD8113679 Si02
#       8
#     4   4   4   8   4   8   4   4
#     4  12  20  35  62  86 123 151 187 232 284 340
#     4  12  24  35  54  93 127 145 189 240 279 333
#     4  11  23  36  55  87 127 162 180 224 286 344
#     4  11  21  38  61  86 115 155 199 228 278 350
#     4  11  21  41  67  78 106 157 194 241 291 336
#     4  11  21  37  62  90 109 154 201 229 278 351
#     4  11  19  34  61  84 121 158 187 223 273 348
#     4  11  25  43  63  86 110 143 199 252 287 334
#
# _framework density 18.622309999999999
#
# number of rings (size 3 to 8) (size 9 to 14) (size 15 to 20)
#    0.000    0.800    6.000    3.600    0.000    4.800 
#    0.000    2.000    0.000    0.000    0.000    0.000 
#    0.000    0.000    0.000    0.000    0.000    0.000 
#
# Total GULP energy -248120.497858 kJ/mol
# GULP energy per Si atom -12406.024893 kJ/mol
# Density = 1.857993 g / cm^3
# Si number density = 18.622310 Si / 1000 Ang^3
#
#
#
# Elastic Constant Matrix: (Units=GPa)
#
#
# Indices 1 2 3 4 5 6 
#
# 1 106.6908 66.2948 82.8302 0.0000 12.2217 0.0287
# 2 66.2948 183.7337 67.3325 -0.1087 -8.7465 -0.0323
# 3 82.8302 67.3325 193.9478 -0.2839 6.9088 -0.1170
# 4 0.0000 -0.1087 -0.2839 2.0861 0.0598 -12.4249
# 5 12.2217 -8.7465 6.9088 0.0598 42.4906 0.0203
# 6 0.0287 -0.0323 -0.1170 -12.4249 0.0203 -7.7926
#
#
#
# Elastic Compliance Matrix: (Units=1/GPa)
#
#
# Indices 1 2 3 4 5 6 
#
# 1 0.016913 -0.004296 -0.005559 0.000006 -0.004845 0.000142
# 2 -0.004296 0.007444 -0.000853 0.000003 0.002907 -0.000031
# 3 -0.005559 -0.000853 0.007821 0.000021 0.000152 -0.000167
# 4 0.000006 0.000003 0.000021 0.045669 -0.000034 -0.072816
# 5 -0.004845 0.002907 0.000152 -0.000034 0.025502 0.000088
# 6 0.000142 -0.000031 -0.000167 -0.072816 0.000088 -0.012221
#
#
# Mechanical properties :
#
#
# Convention : Reuss Voigt Hill
#
# Bulk Modulus (GPa) = 92.92424 101.92083 97.42254
# Shear Modulus (GPa) = 43.05508 25.21779 34.13643
#
# Velocity S-wave (km/s) = 4.81356 3.68390 4.28611
# Velocity P-wave (km/s) = 8.99453 8.54073 8.77057
#
# Compressibility (1/GPa) = 0.01076145
#
# Stress axis : x y z
#
# Youngs Moduli (GPa) = 59.12571 134.34117 127.86362
#
# Poissons Ratio (x) = 0.57713 0.71080
# Poissons Ratio (y) = 0.25400 0.10908
# Poissons Ratio (z) = 0.32868 0.11460
#
# Static dielectric constant tensor:
#      x y z
#    x 3.021480 0.000150 0.101870 
#    y 0.000150 3.587540 -0.000200 
#    z 0.101870 -0.000200 3.472120 
# 
# 
# High freq. dielectric constant tensor:
#      x y z
#    x 1.705500 0.000000 0.003920 
#    y 0.000000 1.735210 0.000020 
#    z 0.003920 0.000020 1.733240 
# 
# From -- ./inp_files/381998.got.cif
#   From: 2010.06.25/outbox.cif.g09.slc.cpg/sg12_191_cif.got.tgz:381998.got - 2010.06.28 00:19:55.
