data_PCOD8113324
_publ_section_title
;
Structure prediction by ZEFSAII (Michael W. Deem and Ramdas Pophale) SiO2 
 PCOD8113324
Probable space group: C 2/M
;
_chemical_formula_sum "Si O2"
_cell_formula_units_Z 56
_cell_length_a 29.173240
_cell_length_b 19.592042
_cell_length_c 9.825409
_cell_angle_alpha 90.000000
_cell_angle_beta 29.784653
_cell_angle_gamma 90.000000
_cell_volume 2789.622623
_symmetry_space_group_name_H-M "C 2/M"
_symmetry_group_IT_number 12
_symmetry_cell_setting 'monoclinic'
loop_
_space_group_symop_operation_xyz
x,y,z
-x,y,-z
-x,-y,-z
x,-y,z
1/2+x,1/2+y,z
1/2-x,1/2+y,-z
1/2-x,1/2-y,-z
1/2+x,1/2-y,z
loop_
_atom_site_type_symbol
_atom_site_label
_atom_site_fract_x
_atom_site_fract_y
_atom_site_fract_z
Si Si1 0.513079 0.132055 0.116496
Si Si2 0.239612 0.076302 0.221648
Si Si3 0.368868 0.294999 0.435066
Si Si4 0.435012 0.728300 0.965969
Si Si5 0.307655 0.073589 0.342065
Si Si6 0.228924 0.827896 0.764761
Si Si7 0.178195 0.578969 0.275753
O O1 0.573486 0.190309 0.037815
O O2 0.418162 0.112710 0.432585
O O3 0.500000 0.165180 0.000000
O O4 0.581413 0.068032 0.922619
O O5 0.160068 0.132049 0.430256
O O6 0.297277 0.084817 0.209302
O O7 0.195952 0.000000 0.322006
O O8 0.309483 0.088689 0.916499
O O9 0.454304 0.280432 0.315749
O O10 0.288960 0.237969 0.653327
O O11 0.394084 0.301168 0.211777
O O12 0.378106 0.692511 0.988987
O O13 0.266356 0.136751 0.531096
O O14 0.265744 0.000000 0.496293
O O15 0.237395 0.882977 0.864379
O O16 0.178961 0.500000 0.317738
#
# Coordination Sequence:
#
# PCOD8113324 Si02
#       7
#     8   8   8   8   8   8   8
#     4  12  20  37  60  97 126 161 207 262 324 368
#     4  10  24  43  61  85 126 174 206 252 320 377
#     4  11  20  40  63  90 127 159 209 262 311 373
#     4  11  20  35  63  95 123 155 209 266 309 366
#     4  11  21  35  60  92 126 165 211 255 312 381
#     4  12  21  37  64  96 123 165 209 262 315 363
#     4  11  24  42  63  92 131 167 206 259 320 381
#
# _framework density 20.074400000000001
#
# number of rings (size 3 to 8) (size 9 to 14) (size 15 to 20)
#    0.000    0.857    7.143    2.143    0.000    1.714 
#    0.000    5.714    0.000    1.714    0.000    0.000 
#    0.000    0.000    0.000    0.000    0.000    0.000 
#
# Total GULP energy -346917.087679 kJ/mol
# GULP energy per Si atom -12389.895989 kJ/mol
# Density = 2.002871 g / cm^3
# Si number density = 20.074400 Si / 1000 Ang^3
#
#
#
# Elastic Constant Matrix: (Units=GPa)
#
#
# Indices 1 2 3 4 5 6 
#
# 1 99.7153 46.7828 33.1722 0.0000 -13.1392 0.0000
# 2 46.7828 131.1301 50.3045 0.0000 -1.5756 0.0000
# 3 33.1722 50.3045 60.1482 0.0000 0.3081 0.0000
# 4 0.0000 0.0000 0.0000 22.1351 0.0000 -1.5848
# 5 -13.1392 -1.5756 0.3081 0.0000 37.7415 0.0000
# 6 0.0000 0.0000 0.0000 -1.5848 0.0000 30.3480
#
#
#
# Elastic Compliance Matrix: (Units=1/GPa)
#
#
# Indices 1 2 3 4 5 6 
#
# 1 0.013713 -0.002835 -0.005216 0.000000 0.004698 0.000000
# 2 -0.002835 0.011826 -0.008325 0.000000 -0.000425 0.000000
# 3 -0.005216 -0.008325 0.026477 0.000000 -0.002380 0.000000
# 4 0.000000 0.000000 0.000000 0.045347 0.000000 0.002368
# 5 0.004698 -0.000425 -0.002380 0.000000 0.028133 0.000000
# 6 0.000000 0.000000 0.000000 0.002368 0.000000 0.033075
#
#
# Mechanical properties :
#
#
# Convention : Reuss Voigt Hill
#
# Bulk Modulus (GPa) = 51.90947 61.27918 56.59433
# Shear Modulus (GPa) = 25.28536 28.76052 27.02294
#
# Velocity S-wave (km/s) = 3.55291 3.78920 3.67296
# Velocity P-wave (km/s) = 6.53801 7.05240 6.80007
#
# Compressibility (1/GPa) = 0.01926431
#
# Stress axis : x y z
#
# Youngs Moduli (GPa) = 72.92455 84.56012 37.76887
#
# Poissons Ratio (x) = 0.23972 0.19700
# Poissons Ratio (y) = 0.20673 0.31442
# Poissons Ratio (z) = 0.38036 0.70395
#
# Static dielectric constant tensor:
#      x y z
#    x 3.793210 0.000000 -0.054680 
#    y 0.000000 3.979190 0.000000 
#    z -0.054680 0.000000 3.350260 
# 
# 
# High freq. dielectric constant tensor:
#      x y z
#    x 1.782810 0.000000 -0.005860 
#    y 0.000000 1.801790 0.000000 
#    z -0.005860 0.000000 1.748060 
# 
# From -- ./inp_files/113355.got.cif
#   From: 2010.06.25/outbox.cif.g09.slc.cpg/sg12_57_cif.got.tgz:113355.got - 2010.06.28 00:19:55.
