data_PCOD8113126
_publ_section_title
;
Structure prediction by ZEFSAII (Michael W. Deem and Ramdas Pophale) SiO2 
 PCOD8113126
Probable space group: C 2/M
;
_chemical_formula_sum "Si O2"
_cell_formula_units_Z 36
_cell_length_a 10.553293
_cell_length_b 28.085309
_cell_length_c 5.038491
_cell_angle_alpha 90.000000
_cell_angle_beta 107.945103
_cell_angle_gamma 90.000000
_cell_volume 1420.721647
_symmetry_space_group_name_H-M "C 2/M"
_symmetry_group_IT_number 12
_symmetry_cell_setting 'monoclinic'
loop_
_space_group_symop_operation_xyz
x,y,z
-x,y,-z
-x,-y,-z
x,-y,z
1/2+x,1/2+y,z
1/2-x,1/2+y,-z
1/2-x,1/2-y,-z
1/2+x,1/2-y,z
loop_
_atom_site_type_symbol
_atom_site_label
_atom_site_fract_x
_atom_site_fract_y
_atom_site_fract_z
Si Si1 0.324910 0.820678 0.201302
Si Si2 0.416396 0.281020 0.217595
Si Si3 0.500000 0.110994 0.000000
Si Si4 0.861086 0.895442 0.777927
Si Si5 0.258833 0.443960 0.228230
O O1 0.380619 0.770132 0.331701
O O2 0.232467 0.849701 0.349472
O O3 0.220117 0.810243 0.894556
O O4 0.446080 0.854221 0.193875
O O5 0.500000 0.308489 0.500000
O O6 0.500000 0.273906 0.000000
O O7 0.614217 0.078085 0.202709
O O8 0.870074 0.924902 0.510043
O O9 0.795883 0.930148 0.953704
O O10 0.000000 0.877372 0.000000
O O11 0.250786 0.500000 0.249520
#
# Coordination Sequence:
#
# PCOD8113126 Si02
#       5
#     8   8   4   8   8
#     4  10  24  42  67  97 133 175 222 265 333 381
#     4  11  25  43  68  95 132 174 222 276 317 389
#     4  10  23  44  68  98 138 176 218 274 325 408
#     4  11  25  43  69  98 134 176 219 275 326 399
#     4  11  25  44  70 100 131 175 220 276 333 391
#
# _framework density 25.339234000000001
#
# number of rings (size 3 to 8) (size 9 to 14) (size 15 to 20)
#    0.000    1.333    1.111    2.333    3.111   16.000 
#    0.000    5.556    0.000    0.000    0.000    0.000 
#    0.000    0.000    0.000    0.000    0.000    0.000 
#
# Total GULP energy -223094.732260 kJ/mol
# GULP energy per Si atom -12394.151792 kJ/mol
# Density = 2.528156 g / cm^3
# Si number density = 25.339234 Si / 1000 Ang^3
#
#
#
# Elastic Constant Matrix: (Units=GPa)
#
#
# Indices 1 2 3 4 5 6 
#
# 1 89.3481 2.2588 -6.4152 0.0000 13.6930 0.0000
# 2 2.2588 68.1849 -26.5138 0.0000 -13.3183 0.0000
# 3 -6.4152 -26.5138 87.5275 0.0000 -1.8353 0.0000
# 4 0.0000 0.0000 0.0000 14.2889 0.0000 18.1893
# 5 13.6930 -13.3183 -1.8353 0.0000 32.8150 0.0000
# 6 0.0000 0.0000 0.0000 18.1893 0.0000 16.1955
#
#
#
# Elastic Compliance Matrix: (Units=1/GPa)
#
#
# Indices 1 2 3 4 5 6 
#
# 1 0.012107 -0.001351 0.000361 0.000000 -0.005580 0.000000
# 2 -0.001351 0.018574 0.005704 0.000000 0.008421 0.000000
# 3 0.000361 0.005704 0.013240 0.000000 0.002905 0.000000
# 4 0.000000 0.000000 0.000000 -0.162874 0.000000 0.182926
# 5 -0.005580 0.008421 0.002905 0.000000 0.036382 0.000000
# 6 0.000000 0.000000 0.000000 0.182926 0.000000 -0.143700
#
#
# Mechanical properties :
#
#
# Convention : Reuss Voigt Hill
#
# Bulk Modulus (GPa) = 18.74403 20.41335 19.57869
# Shear Modulus (GPa) = -22.94459 31.04193 4.04867
#
# Velocity S-wave (km/s) = -3.01241 3.50387 1.26541
# Velocity P-wave (km/s) = 2.16476 4.94399 3.14299
#
# Compressibility (1/GPa) = 0.05335032
#
# Stress axis : x y z
#
# Youngs Moduli (GPa) = 82.59385 53.84011 75.52769
#
# Poissons Ratio (x) = 0.07271 -0.02729
# Poissons Ratio (y) = 0.11155 -0.43080
# Poissons Ratio (z) = -0.02984 -0.30710
#
# Static dielectric constant tensor:
#      x y z
#    x 4.779950 0.000000 0.344050 
#    y 0.000000 4.676400 0.000000 
#    z 0.344050 0.000000 4.291560 
# 
# 
# High freq. dielectric constant tensor:
#      x y z
#    x 2.016310 0.000000 0.023370 
#    y 0.000000 2.016410 0.000000 
#    z 0.023370 0.000000 2.005040 
# 
# From -- ./inp_files/8250.got.cif
#   From: 2010.06.25/outbox.cif.g09.slc.cpg/sg12_5_cif.got.tgz:8250.got - 2010.06.28 00:19:55.
