data_PCOD8113734
_publ_section_title
;
Structure prediction by ZEFSAII (Michael W. Deem and Ramdas Pophale) SiO2 
 PCOD8113734
Probable space group: C 2/M
;
_chemical_formula_sum "Si O2"
_cell_formula_units_Z 64
_cell_length_a 14.445960
_cell_length_b 18.490959
_cell_length_c 16.726442
_cell_angle_alpha 90.000000
_cell_angle_beta 137.024030
_cell_angle_gamma 90.000000
_cell_volume 3045.771615
_symmetry_space_group_name_H-M "C 2/M"
_symmetry_group_IT_number 12
_symmetry_cell_setting 'monoclinic'
loop_
_space_group_symop_operation_xyz
x,y,z
-x,y,-z
-x,-y,-z
x,-y,z
1/2+x,1/2+y,z
1/2-x,1/2+y,-z
1/2-x,1/2-y,-z
1/2+x,1/2-y,z
loop_
_atom_site_type_symbol
_atom_site_label
_atom_site_fract_x
_atom_site_fract_y
_atom_site_fract_z
Si Si1 0.105979 0.779817 0.264909
Si Si2 0.520104 0.309711 0.385180
Si Si3 0.905609 0.379337 0.779978
Si Si4 0.283004 0.084356 0.016008
Si Si5 0.379588 0.161625 0.477509
Si Si6 0.396713 0.313823 0.996883
Si Si7 0.230575 0.333624 0.152907
Si Si8 0.244227 0.079255 0.537840
O O1 0.045285 0.806551 0.307981
O O2 0.134592 0.695366 0.288539
O O3 0.245622 0.824599 0.337512
O O4 0.988152 0.787828 0.126886
O O5 0.564412 0.238644 0.459181
O O6 0.359590 0.322066 0.292559
O O7 0.607314 0.377049 0.471800
O O8 0.874625 0.375344 0.855460
O O9 0.821515 0.433803 0.671189
O O10 0.059855 0.403078 0.871149
O O11 0.210295 0.126690 0.042413
O O12 0.244320 0.000000 0.995632
O O13 0.235249 0.115691 0.900595
O O14 0.500000 0.124781 0.500000
O O15 0.341158 0.114985 0.531076
O O16 0.324913 0.244002 0.911793
O O17 0.500000 0.351118 0.000000
O O18 0.203367 0.000000 0.479882
#
# Coordination Sequence:
#
# PCOD8113734 Si02
#       8
#     8   8   8   8   8   8   8   8
#     4  11  19  41  65  95 124 161 210 275 319 363
#     4  11  22  40  66  94 125 167 216 268 320 373
#     4  12  22  42  66  97 127 165 217 268 323 375
#     4  12  27  43  61  91 136 175 208 260 325 389
#     4  11  23  39  68  97 125 161 214 275 318 373
#     4  12  24  42  70  99 123 164 222 272 316 376
#     4  12  24  40  70  97 126 166 220 273 317 376
#     4  11  25  43  63  92 134 174 210 258 322 391
#
# _framework density 21.012736
#
# number of rings (size 3 to 8) (size 9 to 14) (size 15 to 20)
#    0.000    0.500    6.250    3.375    0.000    2.500 
#    0.000    0.625    0.000    0.000    0.000    0.000 
#    0.000    0.000    0.000    0.000    0.000    0.000 
#
# Total GULP energy -396673.452615 kJ/mol
# GULP energy per Si atom -12396.045394 kJ/mol
# Density = 2.096491 g / cm^3
# Si number density = 21.012736 Si / 1000 Ang^3
#
#
#
# Elastic Constant Matrix: (Units=GPa)
#
#
# Indices 1 2 3 4 5 6 
#
# 1 110.6155 34.2671 31.7030 -0.0001 5.8581 -0.0001
# 2 34.2671 151.8297 62.2481 -0.0001 10.4662 -0.0001
# 3 31.7030 62.2481 137.7456 -0.0002 19.3933 -0.0002
# 4 -0.0001 -0.0001 -0.0002 7.2726 -0.0001 -8.5192
# 5 5.8581 10.4662 19.3933 -0.0001 30.8350 -0.0001
# 6 -0.0001 -0.0001 -0.0002 -8.5192 -0.0001 -6.2142
#
#
#
# Elastic Compliance Matrix: (Units=1/GPa)
#
#
# Indices 1 2 3 4 5 6 
#
# 1 0.009994 -0.001606 -0.001519 0.000000 -0.000399 0.000000
# 2 -0.001606 0.008349 -0.003343 0.000000 -0.000426 0.000000
# 3 -0.001519 -0.003343 0.009786 0.000000 -0.004732 0.000000
# 4 0.000000 0.000000 0.000000 0.052766 0.000000 -0.072337
# 5 -0.000399 -0.000426 -0.004732 0.000000 0.035627 0.000000
# 6 0.000000 0.000000 0.000000 -0.072337 0.000000 -0.061753
#
#
# Mechanical properties :
#
#
# Convention : Reuss Voigt Hill
#
# Bulk Modulus (GPa) = 65.81416 72.95860 69.38638
# Shear Modulus (GPa) = 68.71096 24.51018 46.61057
#
# Velocity S-wave (km/s) = 5.72457 3.41903 4.71489
# Velocity P-wave (km/s) = 8.66506 7.09809 7.92042
#
# Compressibility (1/GPa) = 0.01519430
#
# Stress axis : x y z
#
# Youngs Moduli (GPa) = 100.05977 119.77777 102.18343
#
# Poissons Ratio (x) = 0.19231 0.15517
# Poissons Ratio (y) = 0.16065 0.34164
# Poissons Ratio (z) = 0.15194 0.40046
#
# Static dielectric constant tensor:
#      x y z
#    x 7.607000 0.000000 -2.204500 
#    y 0.000000 3.739900 0.000000 
#    z -2.204500 0.000000 5.689340 
# 
# 
# High freq. dielectric constant tensor:
#      x y z
#    x 1.832990 0.000000 0.002620 
#    y 0.000000 1.798450 0.000000 
#    z 0.002620 0.000000 1.840830 
# 
# From -- ./inp_files/271746.got.cif
#   From: 2010.06.25/outbox.cif.g09.slc.cpg/sg12_136_cif.got.tgz:271746.got - 2010.06.28 00:19:55.
