data_PCOD8113078
_publ_section_title
;
Structure prediction by ZEFSAII (Michael W. Deem and Ramdas Pophale) SiO2 
 PCOD8113078
Probable space group: C 2/M
;
_chemical_formula_sum "Si O2"
_cell_formula_units_Z 36
_cell_length_a 16.726230
_cell_length_b 8.416240
_cell_length_c 31.358061
_cell_angle_alpha 90.000000
_cell_angle_beta 157.108847
_cell_angle_gamma 90.000000
_cell_volume 1717.095907
_symmetry_space_group_name_H-M "C 2/M"
_symmetry_group_IT_number 12
_symmetry_cell_setting 'monoclinic'
loop_
_space_group_symop_operation_xyz
x,y,z
-x,y,-z
-x,-y,-z
x,-y,z
1/2+x,1/2+y,z
1/2-x,1/2+y,-z
1/2-x,1/2-y,-z
1/2+x,1/2-y,z
loop_
_atom_site_type_symbol
_atom_site_label
_atom_site_fract_x
_atom_site_fract_y
_atom_site_fract_z
Si Si1 0.650055 0.823694 0.492675
Si Si2 0.692580 0.747171 0.265153
Si Si3 0.595976 0.000000 0.151608
Si Si4 0.891378 0.677564 0.682135
Si Si5 0.154152 0.000000 0.808084
Si Si6 0.657843 0.500000 0.904966
O O1 0.750000 0.750000 0.500000
O O2 0.405459 0.847671 0.367986
O O3 0.697085 0.708572 0.555723
O O4 0.743862 0.000000 0.546200
O O5 0.694216 0.853855 0.224326
O O6 0.681152 0.835923 0.304766
O O7 0.486238 0.648753 0.158039
O O8 0.663480 0.000000 0.135921
O O9 0.347547 0.000000 0.031094
O O10 0.985636 0.500000 0.717459
O O11 0.033959 0.831818 0.743760
O O12 0.248582 0.000000 0.901728
#
# Coordination Sequence:
#
# PCOD8113078 Si02
#       6
#     8   8   4   8   4   4
#     4  12  25  40  64  99 137 175 215 267 333 401
#     4  11  24  41  66  94 130 174 220 272 331 389
#     4  12  23  42  67  97 130 169 229 280 334 379
#     4  11  23  42  67  99 136 174 218 263 328 406
#     4  10  23  43  70  98 134 176 218 278 335 385
#     4  10  23  45  68  91 126 179 226 278 327 392
#
# _framework density 20.965630999999998
#
# number of rings (size 3 to 8) (size 9 to 14) (size 15 to 20)
#    0.000    0.889    3.333    3.667    3.111    1.778 
#    2.000    0.000    0.000    2.667    0.000    0.000 
#    0.000    0.000    0.000    0.000    0.000    0.000 
#
# Total GULP energy -223003.043655 kJ/mol
# GULP energy per Si atom -12389.057981 kJ/mol
# Density = 2.091791 g / cm^3
# Si number density = 20.965631 Si / 1000 Ang^3
#
#
#
# Elastic Constant Matrix: (Units=GPa)
#
#
# Indices 1 2 3 4 5 6 
#
# 1 92.8157 29.8673 19.0347 0.0003 1.8736 0.0001
# 2 29.8673 158.7727 28.8281 0.0013 -2.4742 -0.0008
# 3 19.0347 28.8281 84.2472 0.0044 -0.4021 -0.0017
# 4 0.0003 0.0013 0.0044 21.5437 0.0000 -18.8781
# 5 1.8736 -2.4742 -0.4021 0.0000 27.6607 0.0003
# 6 0.0001 -0.0008 -0.0017 -18.8781 0.0003 20.1879
#
#
#
# Elastic Compliance Matrix: (Units=1/GPa)
#
#
# Indices 1 2 3 4 5 6 
#
# 1 0.011813 -0.001868 -0.002034 0.000001 -0.000997 0.000000
# 2 -0.001868 0.007020 -0.001977 0.000001 0.000726 0.000001
# 3 -0.002034 -0.001977 0.013007 -0.000009 0.000150 -0.000007
# 4 0.000001 0.000001 -0.000009 0.257039 -0.000003 0.240362
# 5 -0.000997 0.000726 0.000150 -0.000003 0.036287 -0.000003
# 6 0.000000 0.000001 -0.000007 0.240362 -0.000003 0.274301
#
#
# Mechanical properties :
#
#
# Convention : Reuss Voigt Hill
#
# Bulk Modulus (GPa) = 49.79912 54.58842 52.19377
# Shear Modulus (GPa) = 8.09169 31.08549 19.58859
#
# Velocity S-wave (km/s) = 1.96669 3.85475 3.05998
# Velocity P-wave (km/s) = 5.38159 6.77538 6.11830
#
# Compressibility (1/GPa) = 0.02008067
#
# Stress axis : x y z
#
# Youngs Moduli (GPa) = 84.65563 142.45134 76.88446
#
# Poissons Ratio (x) = 0.26614 0.15641
# Poissons Ratio (y) = 0.15816 0.15197
# Poissons Ratio (z) = 0.17222 0.28156
#
# Static dielectric constant tensor:
#      x y z
#    x 3.713540 0.000000 -0.209090 
#    y 0.000000 4.066590 0.000010 
#    z -0.209090 0.000010 3.701160 
# 
# 
# High freq. dielectric constant tensor:
#      x y z
#    x 1.819560 0.000000 -0.016260 
#    y 0.000000 1.832340 0.000000 
#    z -0.016260 0.000000 1.817420 
# 
# From -- ./inp_files/151574.got.cif
#   From: 2010.06.25/outbox.cif.g09.slc.cpg/sg12_76_cif.got.tgz:151574.got - 2010.06.28 00:19:55.
