data_PCOD8113740
_publ_section_title
;
Structure prediction by ZEFSAII (Michael W. Deem and Ramdas Pophale) SiO2 
 PCOD8113740
Probable space group: C 2/M
;
_chemical_formula_sum "Si O2"
_cell_formula_units_Z 48
_cell_length_a 23.104565
_cell_length_b 15.983212
_cell_length_c 19.272808
_cell_angle_alpha 90.000000
_cell_angle_beta 160.623369
_cell_angle_gamma 90.000000
_cell_volume 2361.306356
_symmetry_space_group_name_H-M "C 2/M"
_symmetry_group_IT_number 12
_symmetry_cell_setting 'monoclinic'
loop_
_space_group_symop_operation_xyz
x,y,z
-x,y,-z
-x,-y,-z
x,-y,z
1/2+x,1/2+y,z
1/2-x,1/2+y,-z
1/2-x,1/2-y,-z
1/2+x,1/2-y,z
loop_
_atom_site_type_symbol
_atom_site_label
_atom_site_fract_x
_atom_site_fract_y
_atom_site_fract_z
Si Si1 0.296998 0.092959 0.776884
Si Si2 0.824625 0.595397 0.513638
Si Si3 0.062839 0.744274 0.756051
Si Si4 0.252859 0.152572 0.582988
Si Si5 0.521969 0.304152 0.107533
Si Si6 0.337668 0.742290 0.280010
O O1 0.215738 0.093479 0.607053
O O2 0.210631 0.159617 0.730808
O O3 0.267208 0.000000 0.774233
O O4 0.500000 0.114174 0.000000
O O5 0.863863 0.500000 0.538591
O O6 0.820683 0.603220 0.592859
O O7 0.639588 0.619630 0.268657
O O8 0.985330 0.650052 0.665593
O O9 0.084436 0.784945 0.705269
O O10 0.923557 0.800009 0.640968
O O11 0.250000 0.750000 0.000000
O O12 0.393137 0.219122 0.769045
O O13 0.500000 0.306308 0.000000
O O14 0.323968 0.306092 0.912919
O O15 0.500000 0.789819 0.500000
#
# Coordination Sequence:
#
# PCOD8113740 Si02
#       6
#     8   8   8   8   8   8
#     4  11  22  37  62  96 131 163 205 258 315 376
#     4  11  25  43  66  93 127 169 216 268 312 365
#     4  11  23  39  63  92 125 166 212 255 312 382
#     4  11  19  42  64  91 125 170 215 249 306 391
#     4  11  20  40  68  92 121 166 226 257 299 381
#     4  12  20  38  61  92 128 163 205 257 314 381
#
# _framework density 20.327731
#
# number of rings (size 3 to 8) (size 9 to 14) (size 15 to 20)
#    0.000    0.833    5.000    5.500    0.000    0.667 
#    0.000    4.167    0.000    2.000    0.000    0.000 
#    0.000    0.000    0.000    0.000    0.000    0.000 
#
# Total GULP energy -297450.159474 kJ/mol
# GULP energy per Si atom -12393.756645 kJ/mol
# Density = 2.028146 g / cm^3
# Si number density = 20.327731 Si / 1000 Ang^3
#
#
#
# Elastic Constant Matrix: (Units=GPa)
#
#
# Indices 1 2 3 4 5 6 
#
# 1 101.6509 29.4697 30.7517 0.0019 -3.9180 0.0003
# 2 29.4697 102.9553 47.1506 -0.0049 6.0575 -0.0021
# 3 30.7517 47.1506 159.3428 -0.0104 0.2250 -0.0072
# 4 0.0019 -0.0049 -0.0104 19.8750 -0.0084 0.4052
# 5 -3.9180 6.0575 0.2250 -0.0084 36.2271 -0.0031
# 6 0.0003 -0.0021 -0.0072 0.4052 -0.0031 21.0902
#
#
#
# Elastic Compliance Matrix: (Units=1/GPa)
#
#
# Indices 1 2 3 4 5 6 
#
# 1 0.011079 -0.002647 -0.001357 -0.000002 0.001649 -0.000001
# 2 -0.002647 0.011994 -0.003035 0.000001 -0.002273 0.000000
# 3 -0.001357 -0.003035 0.007435 0.000003 0.000315 0.000002
# 4 -0.000002 0.000001 0.000003 0.050334 0.000011 -0.000967
# 5 0.001649 -0.002273 0.000315 0.000011 0.028160 0.000004
# 6 -0.000001 0.000000 0.000002 -0.000967 0.000004 0.047434
#
#
# Mechanical properties :
#
#
# Convention : Reuss Voigt Hill
#
# Bulk Modulus (GPa) = 60.86275 64.29923 62.58099
# Shear Modulus (GPa) = 28.41038 32.54361 30.47699
#
# Velocity S-wave (km/s) = 3.74253 4.00552 3.87626
# Velocity P-wave (km/s) = 6.97718 7.28644 7.13349
#
# Compressibility (1/GPa) = 0.01643041
#
# Stress axis : x y z
#
# Youngs Moduli (GPa) = 90.26025 83.37295 134.49133
#
# Poissons Ratio (x) = 0.22066 0.18255
# Poissons Ratio (y) = 0.23889 0.40821
# Poissons Ratio (z) = 0.12251 0.25305
#
# Static dielectric constant tensor:
#      x y z
#    x 3.603280 -0.000020 0.117010 
#    y -0.000020 3.429360 -0.000020 
#    z 0.117010 -0.000020 4.026030 
# 
# 
# High freq. dielectric constant tensor:
#      x y z
#    x 1.802940 0.000000 -0.007770 
#    y 0.000000 1.756520 0.000000 
#    z -0.007770 0.000000 1.812040 
# 
# From -- ./inp_files/285426.got.cif
#   From: 2010.06.25/outbox.cif.g09.slc.cpg/sg12_143_cif.got.tgz:285426.got - 2010.06.28 00:19:55.
