data_PCOD8113831
_publ_section_title
;
Structure prediction by ZEFSAII (Michael W. Deem and Ramdas Pophale) SiO2 
 PCOD8113831
Probable space group: C 2/M
;
_chemical_formula_sum "Si O2"
_cell_formula_units_Z 48
_cell_length_a 13.030641
_cell_length_b 21.568755
_cell_length_c 12.193816
_cell_angle_alpha 90.000000
_cell_angle_beta 45.335166
_cell_angle_gamma 90.000000
_cell_volume 2437.480822
_symmetry_space_group_name_H-M "C 2/M"
_symmetry_group_IT_number 12
_symmetry_cell_setting 'monoclinic'
loop_
_space_group_symop_operation_xyz
x,y,z
-x,y,-z
-x,-y,-z
x,-y,z
1/2+x,1/2+y,z
1/2-x,1/2+y,-z
1/2-x,1/2-y,-z
1/2+x,1/2-y,z
loop_
_atom_site_type_symbol
_atom_site_label
_atom_site_fract_x
_atom_site_fract_y
_atom_site_fract_z
Si Si1 0.331496 0.804245 0.150724
Si Si2 0.088810 0.500000 0.078254
Si Si3 0.273917 0.615527 0.971109
Si Si4 0.898684 0.073873 0.290833
Si Si5 0.834057 0.164195 0.150674
Si Si6 0.348770 0.618093 0.569801
Si Si7 0.284675 0.000000 0.252897
O O1 0.285555 0.734084 0.213740
O O2 0.284336 0.837145 0.299456
O O3 0.500000 0.813092 0.000000
O O4 0.246705 0.835078 0.111874
O O5 0.155222 0.562782 0.073537
O O6 0.917889 0.500000 0.239752
O O7 0.124858 0.500000 0.924113
O O8 0.248371 0.649317 0.105021
O O9 0.430672 0.584137 0.845202
O O10 0.810837 0.113001 0.264247
O O11 0.842610 0.101668 0.447047
O O12 0.865532 0.000000 0.305201
O O13 0.000000 0.165467 0.000000
O O14 0.500000 0.646501 0.500000
O O15 0.323610 0.556932 0.660520
#
# Coordination Sequence:
#
# PCOD8113831 Si02
#       7
#     8   4   8   8   8   8   4
#     4  11  22  40  62  90 122 159 202 251 302 356
#     4  11  20  32  58  89 115 153 199 250 311 350
#     4  11  20  36  62  90 120 155 202 254 298 358
#     4  11  22  38  61  92 123 158 203 251 302 360
#     4   9  23  39  60  87 120 165 205 246 295 359
#     4  12  22  36  63  89 123 156 197 256 310 354
#     4  11  21  34  53  89 122 151 197 246 310 361
#
# _framework density 19.692463
#
# number of rings (size 3 to 8) (size 9 to 14) (size 15 to 20)
#    0.000    1.167    5.000    1.750    1.167    1.667 
#    0.000    0.000    3.667    1.000    0.000    0.000 
#    0.000    0.000    0.000    0.000    0.000    0.000 
#
# Total GULP energy -297376.015734 kJ/mol
# GULP energy per Si atom -12390.667322 kJ/mol
# Density = 1.964764 g / cm^3
# Si number density = 19.692463 Si / 1000 Ang^3
#
#
#
# Elastic Constant Matrix: (Units=GPa)
#
#
# Indices 1 2 3 4 5 6 
#
# 1 71.9238 44.6051 27.0584 0.0000 14.4794 0.0000
# 2 44.6051 154.5700 49.1311 0.0000 19.1432 0.0000
# 3 27.0584 49.1311 89.4154 0.0001 10.2326 -0.0001
# 4 0.0000 0.0000 0.0001 19.0217 0.0000 6.2160
# 5 14.4794 19.1432 10.2326 0.0000 33.9282 0.0000
# 6 0.0000 0.0000 -0.0001 6.2160 0.0000 14.6933
#
#
#
# Elastic Compliance Matrix: (Units=1/GPa)
#
#
# Indices 1 2 3 4 5 6 
#
# 1 0.018301 -0.003756 -0.002924 0.000000 -0.004809 0.000000
# 2 -0.003756 0.008968 -0.003517 0.000000 -0.002396 0.000000
# 3 -0.002924 -0.003517 0.014118 0.000000 -0.001026 0.000000
# 4 0.000000 0.000000 0.000000 0.061005 0.000000 -0.025808
# 5 -0.004809 -0.002396 -0.001026 0.000000 0.033188 0.000000
# 6 0.000000 0.000000 0.000000 -0.025808 0.000000 0.078976
#
#
# Mechanical properties :
#
#
# Convention : Reuss Voigt Hill
#
# Bulk Modulus (GPa) = 47.63314 61.94428 54.78871
# Shear Modulus (GPa) = 20.66552 26.53629 23.60090
#
# Velocity S-wave (km/s) = 3.24298 3.67486 3.46565
# Velocity P-wave (km/s) = 6.18576 7.03777 6.62547
#
# Compressibility (1/GPa) = 0.02099379
#
# Stress axis : x y z
#
# Youngs Moduli (GPa) = 54.64087 111.50558 70.82981
#
# Poissons Ratio (x) = 0.41885 0.20710
# Poissons Ratio (y) = 0.20525 0.24909
# Poissons Ratio (z) = 0.15976 0.39214
#
# Static dielectric constant tensor:
#      x y z
#    x 4.140110 0.000000 0.026260 
#    y 0.000000 3.997030 0.000000 
#    z 0.026260 0.000000 3.660770 
# 
# 
# High freq. dielectric constant tensor:
#      x y z
#    x 1.756550 0.000000 0.004010 
#    y 0.000000 1.778780 0.000000 
#    z 0.004010 0.000000 1.756640 
# 
# From -- ./inp_files/147968.got.cif
#   From: 2010.06.25/outbox.cif.g09.slc.cpg/sg12_74_cif.got.tgz:147968.got - 2010.06.28 00:19:55.
