data_PCOD8113901
_publ_section_title
;
Structure prediction by ZEFSAII (Michael W. Deem and Ramdas Pophale) SiO2 
 PCOD8113901
Probable space group: C 2/M
;
_chemical_formula_sum "Si O2"
_cell_formula_units_Z 48
_cell_length_a 13.338585
_cell_length_b 26.162330
_cell_length_c 8.171201
_cell_angle_alpha 90.000000
_cell_angle_beta 124.283360
_cell_angle_gamma 90.000000
_cell_volume 2356.078801
_symmetry_space_group_name_H-M "C 2/M"
_symmetry_group_IT_number 12
_symmetry_cell_setting 'monoclinic'
loop_
_space_group_symop_operation_xyz
x,y,z
-x,y,-z
-x,-y,-z
x,-y,z
1/2+x,1/2+y,z
1/2-x,1/2+y,-z
1/2-x,1/2-y,-z
1/2+x,1/2-y,z
loop_
_atom_site_type_symbol
_atom_site_label
_atom_site_fract_x
_atom_site_fract_y
_atom_site_fract_z
Si Si1 0.870762 0.645791 0.952199
Si Si2 0.186169 0.942075 0.770592
Si Si3 0.928323 0.942252 0.681769
Si Si4 0.689206 0.711889 0.568431
Si Si5 0.318708 0.786761 0.184933
Si Si6 0.116251 0.156882 0.201564
O O1 0.794763 0.595042 0.924424
O O2 0.794363 0.680276 0.756728
O O3 0.901462 0.676355 0.149786
O O4 0.000000 0.629438 0.000000
O O5 0.160703 0.936762 0.554504
O O6 0.065248 0.926967 0.758231
O O7 0.224959 0.000000 0.847540
O O8 0.883809 0.904943 0.786663
O O9 0.923486 0.000000 0.744982
O O10 0.750000 0.750000 0.500000
O O11 0.613387 0.747308 0.628266
O O12 0.604513 0.675253 0.381468
O O13 0.233111 0.823491 0.214311
O O14 0.250000 0.750000 0.000000
O O15 0.000000 0.178435 0.000000
#
# Coordination Sequence:
#
# PCOD8113901 Si02
#       6
#     8   8   8   8   8   8
#     4  11  21  38  59  84 119 158 203 241 283 355
#     4   9  18  35  59  89 119 152 195 239 297 363
#     4   9  18  34  60  89 119 150 186 247 311 355
#     4   9  20  38  56  80 116 151 197 242 297 346
#     4   9  21  38  54  80 116 152 199 241 289 347
#     4  11  20  35  60  87 116 148 193 246 306 352
#
# _framework density 20.372831999999999
#
# number of rings (size 3 to 8) (size 9 to 14) (size 15 to 20)
#    0.000    2.333    1.667    2.000    0.000    6.667 
#    0.000   10.833    0.000    0.000    0.000    2.333 
#    0.000    0.000    0.000    0.000    0.000    0.000 
#
# Total GULP energy -297347.678625 kJ/mol
# GULP energy per Si atom -12389.486609 kJ/mol
# Density = 2.032646 g / cm^3
# Si number density = 20.372832 Si / 1000 Ang^3
#
#
#
# Elastic Constant Matrix: (Units=GPa)
#
#
# Indices 1 2 3 4 5 6 
#
# 1 68.5883 49.5946 24.7357 0.0000 -5.3067 0.0000
# 2 49.5946 125.6308 34.9450 0.0000 -5.3409 0.0000
# 3 24.7357 34.9450 83.1155 0.0000 -8.4873 0.0000
# 4 0.0000 0.0000 0.0000 20.6910 0.0000 -16.8103
# 5 -5.3067 -5.3409 -8.4873 0.0000 26.8244 0.0000
# 6 0.0000 0.0000 0.0000 -16.8103 0.0000 31.2276
#
#
#
# Elastic Compliance Matrix: (Units=1/GPa)
#
#
# Indices 1 2 3 4 5 6 
#
# 1 0.021186 -0.007457 -0.002990 0.000000 0.001760 0.000000
# 2 -0.007457 0.011649 -0.002679 0.000000 -0.000003 0.000000
# 3 -0.002990 -0.002679 0.014398 0.000000 0.003431 0.000000
# 4 0.000000 0.000000 0.000000 0.085898 0.000000 0.046240
# 5 0.001760 -0.000003 0.003431 0.000000 0.038713 0.000000
# 6 0.000000 0.000000 0.000000 0.046240 0.000000 0.056915
#
#
# Mechanical properties :
#
#
# Convention : Reuss Voigt Hill
#
# Bulk Modulus (GPa) = 47.66198 55.09837 51.38017
# Shear Modulus (GPa) = 19.08376 26.95255 23.01815
#
# Velocity S-wave (km/s) = 3.06392 3.64120 3.36496
# Velocity P-wave (km/s) = 5.99687 6.69190 6.35390
#
# Compressibility (1/GPa) = 0.02098108
#
# Stress axis : x y z
#
# Youngs Moduli (GPa) = 47.20017 85.84772 69.45481
#
# Poissons Ratio (x) = 0.64017 0.20768
# Poissons Ratio (y) = 0.35197 0.18604
# Poissons Ratio (z) = 0.14114 0.22995
#
# Static dielectric constant tensor:
#      x y z
#    x 3.429160 0.000000 -0.450220 
#    y 0.000000 4.136700 0.000000 
#    z -0.450220 0.000000 4.090230 
# 
# 
# High freq. dielectric constant tensor:
#      x y z
#    x 1.766380 0.000000 -0.027400 
#    y 0.000000 1.811830 0.000000 
#    z -0.027400 0.000000 1.789060 
# 
# From -- ./inp_files/52781.got.cif
#   From: 2010.06.25/outbox.cif.g09.slc.cpg/sg12_27_cif.got.tgz:52781.got - 2010.06.28 00:19:55.
