data_PCOD8113005
_publ_section_title
;
Structure prediction by ZEFSAII (Michael W. Deem and Ramdas Pophale) SiO2 
 PCOD8113005
Probable space group: C 2/M
;
_chemical_formula_sum "Si O2"
_cell_formula_units_Z 64
_cell_length_a 17.244677
_cell_length_b 17.810177
_cell_length_c 16.028998
_cell_angle_alpha 90.000000
_cell_angle_beta 38.900977
_cell_angle_gamma 90.000000
_cell_volume 3091.526315
_symmetry_space_group_name_H-M "C 2/M"
_symmetry_group_IT_number 12
_symmetry_cell_setting 'monoclinic'
loop_
_space_group_symop_operation_xyz
x,y,z
-x,y,-z
-x,-y,-z
x,-y,z
1/2+x,1/2+y,z
1/2-x,1/2+y,-z
1/2-x,1/2-y,-z
1/2+x,1/2-y,z
loop_
_atom_site_type_symbol
_atom_site_label
_atom_site_fract_x
_atom_site_fract_y
_atom_site_fract_z
Si Si1 0.272960 0.317187 0.649749
Si Si2 0.816463 0.916432 0.881492
Si Si3 0.266867 0.586290 0.404543
Si Si4 0.341110 0.911928 0.835815
Si Si5 0.577456 0.166307 0.676223
Si Si6 0.142971 0.343167 0.358104
Si Si7 0.049070 0.829046 0.643001
Si Si8 0.863873 0.415426 0.109503
O O1 0.149739 0.305105 0.697321
O O2 0.315880 0.241893 0.659783
O O3 0.382837 0.351587 0.500301
O O4 0.239480 0.376640 0.747638
O O5 0.685977 0.912425 0.942782
O O6 0.908677 0.856467 0.763647
O O7 0.874055 0.000000 0.824300
O O8 0.784464 0.900258 0.005459
O O9 0.302868 0.500000 0.384627
O O10 0.155234 0.606775 0.558655
O O11 0.227654 0.602229 0.342703
O O12 0.384831 0.635898 0.331347
O O13 0.450231 0.876384 0.801429
O O14 0.330365 0.865971 0.759239
O O15 0.365707 0.000000 0.798001
O O16 0.552464 0.239029 0.640190
O O17 0.000000 0.355319 0.500000
O O18 0.876473 0.500000 0.132905
O O19 0.000000 0.376976 0.000000
#
# Coordination Sequence:
#
# PCOD8113005 Si02
#       8
#     8   8   8   8   8   8   8   8
#     4  11  23  40  65  95 129 167 213 265 326 389
#     4  10  24  44  64  90 127 170 216 261 315 393
#     4  11  21  37  63  93 129 167 206 264 324 381
#     4  11  24  42  67  97 128 168 220 271 324 382
#     4  11  21  40  63  93 126 165 213 263 316 380
#     4  12  23  40  63  99 134 166 210 274 327 385
#     4  11  22  42  63  91 131 170 213 257 319 388
#     4  10  23  43  65  92 127 163 212 275 327 376
#
# _framework density 20.701749
#
# number of rings (size 3 to 8) (size 9 to 14) (size 15 to 20)
#    0.000    1.125    3.750    2.625    3.500    5.000 
#    2.250    1.875    0.000    2.250    0.000    0.000 
#    0.000    0.000    0.000    0.000    0.000    0.000 
#
# Total GULP energy -396790.267165 kJ/mol
# GULP energy per Si atom -12399.695849 kJ/mol
# Density = 2.065463 g / cm^3
# Si number density = 20.701749 Si / 1000 Ang^3
#
#
#
# Elastic Constant Matrix: (Units=GPa)
#
#
# Indices 1 2 3 4 5 6 
#
# 1 85.8751 36.5796 44.2562 -0.0001 -0.0992 0.0001
# 2 36.5796 92.5617 45.9035 -0.0001 1.7000 0.0001
# 3 44.2562 45.9035 110.0837 0.0000 9.6372 0.0001
# 4 -0.0001 -0.0001 0.0000 20.7631 0.0000 3.4704
# 5 -0.0992 1.7000 9.6372 0.0000 29.1628 -0.0001
# 6 0.0001 0.0001 0.0001 3.4704 -0.0001 31.2725
#
#
#
# Elastic Compliance Matrix: (Units=1/GPa)
#
#
# Indices 1 2 3 4 5 6 
#
# 1 0.015823 -0.003846 -0.004924 0.000000 0.001905 0.000000
# 2 -0.003846 0.014590 -0.004595 0.000000 0.000655 0.000000
# 3 -0.004924 -0.004595 0.013344 0.000000 -0.004158 0.000000
# 4 0.000000 0.000000 0.000000 0.049073 0.000000 -0.005446
# 5 0.001905 0.000655 -0.004158 0.000000 0.035633 0.000000
# 6 0.000000 0.000000 0.000000 -0.005446 0.000000 0.032581
#
#
# Mechanical properties :
#
#
# Convention : Reuss Voigt Hill
#
# Bulk Modulus (GPa) = 58.73264 60.22213 59.47739
# Shear Modulus (GPa) = 25.84645 27.02510 26.43577
#
# Velocity S-wave (km/s) = 3.53727 3.61702 3.57737
# Velocity P-wave (km/s) = 6.71680 6.82622 6.77173
#
# Compressibility (1/GPa) = 0.01702631
#
# Stress axis : x y z
#
# Youngs Moduli (GPa) = 63.19892 68.53853 74.94099
#
# Poissons Ratio (x) = 0.26360 0.36903
# Poissons Ratio (y) = 0.24307 0.34436
# Poissons Ratio (z) = 0.31121 0.31494
#
# Static dielectric constant tensor:
#      x y z
#    x 3.982140 0.000000 0.018290 
#    y 0.000000 3.714760 0.000000 
#    z 0.018290 0.000000 3.619770 
# 
# 
# High freq. dielectric constant tensor:
#      x y z
#    x 1.817400 0.000000 0.002730 
#    y 0.000000 1.809880 0.000000 
#    z 0.002730 0.000000 1.798180 
# 
# From -- ./inp_files/226834.got.cif
#   From: 2010.06.25/outbox.cif.g09.slc.cpg/sg12_114_cif.got.tgz:226834.got - 2010.06.28 00:19:55.
