data_PCOD8113672
_publ_section_title
;
Structure prediction by ZEFSAII (Michael W. Deem and Ramdas Pophale) SiO2 
 PCOD8113672
Probable space group: C 2/M
;
_chemical_formula_sum "Si O2"
_cell_formula_units_Z 64
_cell_length_a 14.175005
_cell_length_b 28.554236
_cell_length_c 9.075288
_cell_angle_alpha 90.000000
_cell_angle_beta 84.365207
_cell_angle_gamma 90.000000
_cell_volume 3655.531800
_symmetry_space_group_name_H-M "C 2/M"
_symmetry_group_IT_number 12
_symmetry_cell_setting 'monoclinic'
loop_
_space_group_symop_operation_xyz
x,y,z
-x,y,-z
-x,-y,-z
x,-y,z
1/2+x,1/2+y,z
1/2-x,1/2+y,-z
1/2-x,1/2-y,-z
1/2+x,1/2-y,z
loop_
_atom_site_type_symbol
_atom_site_label
_atom_site_fract_x
_atom_site_fract_y
_atom_site_fract_z
Si Si1 0.090346 0.222484 0.648829
Si Si2 0.114761 0.633427 0.369876
Si Si3 0.925185 0.671369 0.320327
Si Si4 0.037971 0.448555 0.222569
Si Si5 0.769540 0.650975 0.120096
Si Si6 0.873707 0.209173 0.684964
Si Si7 0.261731 0.198737 0.806218
Si Si8 0.149162 0.553381 0.902859
O O1 0.090020 0.277184 0.615245
O O2 0.135582 0.202753 0.490334
O O3 0.153933 0.210868 0.780662
O O4 0.985019 0.205103 0.705517
O O5 0.110600 0.636759 0.545785
O O6 0.095338 0.579675 0.336656
O O7 0.213520 0.653330 0.295979
O O8 0.037082 0.662808 0.285423
O O9 0.869848 0.664366 0.177446
O O10 0.033110 0.500000 0.289194
O O11 0.929504 0.431644 0.208225
O O12 0.096974 0.447171 0.064954
O O13 0.680907 0.664926 0.236155
O O14 0.769410 0.593965 0.101820
O O15 0.765111 0.682681 0.974631
O O16 0.828806 0.256975 0.757638
O O17 0.188942 0.500000 0.865998
#
# Coordination Sequence:
#
# PCOD8113672 Si02
#       8
#     8   8   8   8   8   8   8   8
#     4  11  22  40  54  73 110 154 185 218 257 331
#     4  11  19  34  53  79 103 151 187 211 265 317
#     4  11  21  33  53  73 113 148 186 218 258 320
#     4   9  17  32  54  78 110 146 182 220 266 328
#     4  12  23  34  52  85 107 142 180 228 270 319
#     4  11  22  38  55  78 109 146 184 217 273 313
#     4  12  22  34  54  80 108 141 183 224 262 316
#     4   9  18  33  53  79 111 144 175 220 280 332
#
# _framework density 17.507712999999999
#
# number of rings (size 3 to 8) (size 9 to 14) (size 15 to 20)
#    0.000    1.250    6.250    3.000    0.000    1.000 
#    0.000    1.875    0.000    0.000    0.000    4.375 
#    0.000    0.000    0.000    0.000    0.000    0.000 
#
# Total GULP energy -396544.138662 kJ/mol
# GULP energy per Si atom -12392.004333 kJ/mol
# Density = 1.746786 g / cm^3
# Si number density = 17.507713 Si / 1000 Ang^3
#
#
#
# Elastic Constant Matrix: (Units=GPa)
#
#
# Indices 1 2 3 4 5 6 
#
# 1 73.8194 35.9192 26.7678 0.0000 1.1525 0.0000
# 2 35.9192 97.7774 27.3961 0.0000 -7.9855 0.0000
# 3 26.7678 27.3961 58.1221 0.0000 4.3891 0.0000
# 4 0.0000 0.0000 0.0000 24.1114 0.0000 -2.4574
# 5 1.1525 -7.9855 4.3891 0.0000 25.3343 0.0000
# 6 0.0000 0.0000 0.0000 -2.4574 0.0000 20.4929
#
#
#
# Elastic Compliance Matrix: (Units=1/GPa)
#
#
# Indices 1 2 3 4 5 6 
#
# 1 0.018201 -0.005169 -0.005837 0.000000 -0.001446 0.000000
# 2 -0.005169 0.013841 -0.004550 0.000000 0.005386 0.000000
# 3 -0.005837 -0.004550 0.022420 0.000000 -0.005053 0.000000
# 4 0.000000 0.000000 0.000000 0.041987 0.000000 0.005035
# 5 -0.001446 0.005386 -0.005053 0.000000 0.042111 0.000000
# 6 0.000000 0.000000 0.000000 0.005035 0.000000 0.049401
#
#
# Mechanical properties :
#
#
# Convention : Reuss Voigt Hill
#
# Bulk Modulus (GPa) = 42.82723 45.54281 44.18502
# Shear Modulus (GPa) = 22.04047 23.29678 22.66862
#
# Velocity S-wave (km/s) = 3.55195 3.65178 3.60221
# Velocity P-wave (km/s) = 6.42937 6.62194 6.52637
#
# Compressibility (1/GPa) = 0.02334963
#
# Stress axis : x y z
#
# Youngs Moduli (GPa) = 54.94301 72.24931 44.60397
#
# Poissons Ratio (x) = 0.37345 0.26034
# Poissons Ratio (y) = 0.28399 0.20296
# Poissons Ratio (z) = 0.32068 0.32875
#
# Static dielectric constant tensor:
#      x y z
#    x 3.106710 0.000000 0.047170 
#    y 0.000000 3.484560 0.000000 
#    z 0.047170 0.000000 3.153160 
# 
# 
# High freq. dielectric constant tensor:
#      x y z
#    x 1.650080 0.000000 0.006310 
#    y 0.000000 1.668030 0.000000 
#    z 0.006310 0.000000 1.679870 
# 
# From -- ./inp_files/67848.got.cif
#   From: 2010.06.25/outbox.cif.g09.slc.cpg/sg12_34_cif.got.tgz:67848.got - 2010.06.28 00:19:55.
