data_PCOD8113043
_publ_section_title
;
Structure prediction by ZEFSAII (Michael W. Deem and Ramdas Pophale) SiO2 
 PCOD8113043
Probable space group: C 2/M
;
_chemical_formula_sum "Si O2"
_cell_formula_units_Z 56
_cell_length_a 18.499807
_cell_length_b 17.510358
_cell_length_c 13.799721
_cell_angle_alpha 90.000000
_cell_angle_beta 35.876970
_cell_angle_gamma 90.000000
_cell_volume 2619.779648
_symmetry_space_group_name_H-M "C 2/M"
_symmetry_group_IT_number 12
_symmetry_cell_setting 'monoclinic'
loop_
_space_group_symop_operation_xyz
x,y,z
-x,y,-z
-x,-y,-z
x,-y,z
1/2+x,1/2+y,z
1/2-x,1/2+y,-z
1/2-x,1/2-y,-z
1/2+x,1/2-y,z
loop_
_atom_site_type_symbol
_atom_site_label
_atom_site_fract_x
_atom_site_fract_y
_atom_site_fract_z
Si Si1 0.141464 0.690175 0.131574
Si Si2 0.531796 0.287376 0.568177
Si Si3 0.713798 0.412643 0.892660
Si Si4 0.740595 0.307787 0.675671
Si Si5 0.454241 0.189174 0.157369
Si Si6 0.202393 0.584859 0.548027
Si Si7 0.010170 0.081858 0.736756
O O1 0.047790 0.712878 0.319197
O O2 0.200793 0.611166 0.107547
O O3 0.068305 0.684577 0.108830
O O4 0.250000 0.750000 0.000000
O O5 0.500000 0.322194 0.500000
O O6 0.676604 0.268366 0.406116
O O7 0.484491 0.349888 0.693587
O O8 0.747614 0.500000 0.825046
O O9 0.724840 0.352487 0.793153
O O10 0.570692 0.407463 0.078653
O O11 0.611355 0.273832 0.772276
O O12 0.821842 0.361867 0.517885
O O13 0.356040 0.123989 0.293792
O O14 0.500000 0.169605 0.000000
O O15 0.145507 0.500000 0.597375
O O16 0.348245 0.580030 0.390383
O O17 0.974388 0.000000 0.727585
#
# Coordination Sequence:
#
# PCOD8113043 Si02
#       7
#     8   8   8   8   8   8   8
#     4  12  24  43  66  98 137 181 228 279 341 407
#     4  12  23  40  69 100 131 176 231 275 340 410
#     4  11  25  45  70 105 143 179 224 283 354 413
#     4  12  24  43  70 105 133 176 229 286 341 409
#     4  12  27  42  71 101 132 181 233 286 340 404
#     4  11  24  44  67  96 137 176 222 280 338 404
#     4  10  23  43  67  95 135 178 222 284 339 397
#
# _framework density 21.375844000000001
#
# number of rings (size 3 to 8) (size 9 to 14) (size 15 to 20)
#    0.000    0.571    5.714    2.571    2.000    1.143 
#    0.000    2.857    0.000    0.000    0.000    0.000 
#    0.000    0.000    0.000    0.000    0.000    0.000 
#
# Total GULP energy -346981.370527 kJ/mol
# GULP energy per Si atom -12392.191805 kJ/mol
# Density = 2.132719 g / cm^3
# Si number density = 21.375844 Si / 1000 Ang^3
#
#
#
# Elastic Constant Matrix: (Units=GPa)
#
#
# Indices 1 2 3 4 5 6 
#
# 1 90.9216 38.6010 27.2552 0.0001 6.3392 0.0000
# 2 38.6010 129.8842 53.0743 0.0000 8.0921 0.0000
# 3 27.2552 53.0743 115.0602 0.0002 12.1759 0.0000
# 4 0.0001 0.0000 0.0002 35.5029 -0.0001 9.1098
# 5 6.3392 8.0921 12.1759 -0.0001 37.8833 0.0000
# 6 0.0000 0.0000 0.0000 9.1098 0.0000 17.5421
#
#
#
# Elastic Compliance Matrix: (Units=1/GPa)
#
#
# Indices 1 2 3 4 5 6 
#
# 1 0.012851 -0.003150 -0.001485 0.000000 -0.001000 0.000000
# 2 -0.003150 0.010275 -0.003951 0.000000 -0.000398 0.000000
# 3 -0.001485 -0.003951 0.011128 0.000000 -0.002484 0.000000
# 4 0.000000 0.000000 0.000000 0.032497 0.000000 -0.016876
# 5 -0.001000 -0.000398 -0.002484 0.000000 0.027448 0.000000
# 6 0.000000 0.000000 0.000000 -0.016876 0.000000 0.065770
#
#
# Mechanical properties :
#
#
# Convention : Reuss Voigt Hill
#
# Bulk Modulus (GPa) = 58.54445 63.74746 61.14596
# Shear Modulus (GPa) = 27.34711 32.64801 29.99756
#
# Velocity S-wave (km/s) = 3.58068 3.91235 3.75018
# Velocity P-wave (km/s) = 6.67402 7.09194 6.88615
#
# Compressibility (1/GPa) = 0.01708104
#
# Stress axis : x y z
#
# Youngs Moduli (GPa) = 77.81632 97.32669 89.86026
#
# Poissons Ratio (x) = 0.30658 0.13346
# Poissons Ratio (y) = 0.24512 0.35506
# Poissons Ratio (z) = 0.11557 0.38456
#
# Static dielectric constant tensor:
#      x y z
#    x 3.825150 0.000000 -0.122960 
#    y 0.000000 4.285110 0.000000 
#    z -0.122960 0.000000 4.020420 
# 
# 
# High freq. dielectric constant tensor:
#      x y z
#    x 1.824850 0.000000 -0.005800 
#    y 0.000000 1.839280 0.000000 
#    z -0.005800 0.000000 1.857530 
# 
# From -- ./inp_files/234657.got.cif
#   From: 2010.06.25/outbox.cif.g09.slc.cpg/sg12_118_cif.got.tgz:234657.got - 2010.06.28 00:19:55.
