data_PCOD8113885
_publ_section_title
;
Structure prediction by ZEFSAII (Michael W. Deem and Ramdas Pophale) SiO2 
 PCOD8113885
Probable space group: C 2/M
;
_chemical_formula_sum "Si O2"
_cell_formula_units_Z 44
_cell_length_a 15.473489
_cell_length_b 18.379994
_cell_length_c 7.566815
_cell_angle_alpha 90.000000
_cell_angle_beta 77.757092
_cell_angle_gamma 90.000000
_cell_volume 2103.079464
_symmetry_space_group_name_H-M "C 2/M"
_symmetry_group_IT_number 12
_symmetry_cell_setting 'monoclinic'
loop_
_space_group_symop_operation_xyz
x,y,z
-x,y,-z
-x,-y,-z
x,-y,z
1/2+x,1/2+y,z
1/2-x,1/2+y,-z
1/2-x,1/2-y,-z
1/2+x,1/2-y,z
loop_
_atom_site_type_symbol
_atom_site_label
_atom_site_fract_x
_atom_site_fract_y
_atom_site_fract_z
Si Si1 0.500000 0.617826 0.000000
Si Si2 0.103285 0.500000 0.002309
Si Si3 0.104360 0.000000 0.468550
Si Si4 0.209369 0.500000 0.278926
Si Si5 0.834737 0.802773 0.127046
Si Si6 0.211908 0.355698 0.882554
Si Si7 0.125773 0.000000 0.072109
Si Si8 0.277200 0.621437 0.470000
O O1 0.566778 0.671046 0.869524
O O2 0.439706 0.568799 0.900638
O O3 0.149084 0.426115 0.911334
O O4 0.118716 0.500000 0.206235
O O5 0.000000 0.500000 0.000000
O O6 0.161822 0.000000 0.258450
O O7 0.133619 0.071881 0.562868
O O8 0.000000 0.000000 0.500000
O O9 0.204309 0.569886 0.408354
O O10 0.295726 0.500000 0.107288
O O11 0.839882 0.719770 0.057973
O O12 0.786067 0.809344 0.336810
O O13 0.788279 0.857070 0.000605
O O14 0.253021 0.349271 0.671483
#
# Coordination Sequence:
#
# PCOD8113885 Si02
#       8
#     4   4   4   4   8   8   4   8
#     4  11  20  34  64  95 128 166 200 259 318 378
#     4  12  24  44  71  91 122 168 226 279 313 374
#     4  11  22  31  56  99 135 162 208 252 311 380
#     4  11  20  40  64  93 126 169 211 257 324 389
#     4  11  23  41  67  91 133 165 209 264 321 389
#     4  11  25  44  65  92 122 176 216 260 325 377
#     4  11  20  35  62  95 135 168 200 248 327 391
#     4  11  21  39  64  92 127 172 208 258 310 394
#
# _framework density 20.921700999999999
#
# number of rings (size 3 to 8) (size 9 to 14) (size 15 to 20)
#    0.000    0.909    3.636    4.909    3.818    0.727 
#    0.000    1.818    0.000    4.364    0.000    0.000 
#    0.000    0.000    0.000    0.000    0.000    0.000 
#
# Total GULP energy -272539.760077 kJ/mol
# GULP energy per Si atom -12388.170913 kJ/mol
# Density = 2.087408 g / cm^3
# Si number density = 20.921701 Si / 1000 Ang^3
#
#
#
# Elastic Constant Matrix: (Units=GPa)
#
#
# Indices 1 2 3 4 5 6 
#
# 1 119.9008 47.4133 28.8407 0.0000 11.5523 0.0000
# 2 47.4133 117.3982 18.7585 0.0000 -0.6038 0.0000
# 3 28.8407 18.7585 120.7539 0.0000 15.4168 0.0000
# 4 0.0000 0.0000 0.0000 26.5482 0.0000 2.8976
# 5 11.5523 -0.6038 15.4168 0.0000 25.2513 0.0000
# 6 0.0000 0.0000 0.0000 2.8976 0.0000 9.3731
#
#
#
# Elastic Compliance Matrix: (Units=1/GPa)
#
#
# Indices 1 2 3 4 5 6 
#
# 1 0.010704 -0.004123 -0.001386 0.000000 -0.004149 0.000000
# 2 -0.004123 0.010352 -0.000972 0.000000 0.002727 0.000000
# 3 -0.001386 -0.000972 0.009420 0.000000 -0.005140 0.000000
# 4 0.000000 0.000000 0.000000 0.038983 0.000000 -0.012051
# 5 -0.004149 0.002727 -0.005140 0.000000 0.044703 0.000000
# 6 0.000000 0.000000 0.000000 -0.012051 0.000000 0.110414
#
#
# Mechanical properties :
#
#
# Convention : Reuss Voigt Hill
#
# Bulk Modulus (GPa) = 57.09627 60.89753 58.99690
# Shear Modulus (GPa) = 20.54443 29.77056 25.15749
#
# Velocity S-wave (km/s) = 3.13704 3.77629 3.47141
# Velocity P-wave (km/s) = 6.36168 6.94150 6.65791
#
# Compressibility (1/GPa) = 0.01751428
#
# Stress axis : x y z
#
# Youngs Moduli (GPa) = 93.42548 96.59662 106.16184
#
# Poissons Ratio (x) = 0.39824 0.14717
# Poissons Ratio (y) = 0.38517 0.10315
# Poissons Ratio (z) = 0.12952 0.09386
#
# Static dielectric constant tensor:
#      x y z
#    x 3.653090 0.000000 0.299710 
#    y 0.000000 3.994550 0.000000 
#    z 0.299710 0.000000 3.826260 
# 
# 
# High freq. dielectric constant tensor:
#      x y z
#    x 1.791490 0.000000 0.023090 
#    y 0.000000 1.834810 0.000000 
#    z 0.023090 0.000000 1.818330 
# 
# From -- ./inp_files/62752.got.cif
#   From: 2010.06.25/outbox.cif.g09.slc.cpg/sg12_32_cif.got.tgz:62752.got - 2010.06.28 00:19:55.
