data_PCOD8113933
_publ_section_title
;
Structure prediction by ZEFSAII (Michael W. Deem and Ramdas Pophale) SiO2 
 PCOD8113933
Probable space group: C 2/M
;
_chemical_formula_sum "Si O2"
_cell_formula_units_Z 48
_cell_length_a 13.645885
_cell_length_b 15.451709
_cell_length_c 11.636032
_cell_angle_alpha 90.000000
_cell_angle_beta 67.120346
_cell_angle_gamma 90.000000
_cell_volume 2260.452035
_symmetry_space_group_name_H-M "C 2/M"
_symmetry_group_IT_number 12
_symmetry_cell_setting 'monoclinic'
loop_
_space_group_symop_operation_xyz
x,y,z
-x,y,-z
-x,-y,-z
x,-y,z
1/2+x,1/2+y,z
1/2-x,1/2+y,-z
1/2-x,1/2-y,-z
1/2+x,1/2-y,z
loop_
_atom_site_type_symbol
_atom_site_label
_atom_site_fract_x
_atom_site_fract_y
_atom_site_fract_z
Si Si1 0.468491 0.898332 0.260071
Si Si2 0.149542 0.136190 0.901756
Si Si3 0.709830 0.808905 0.788400
Si Si4 0.331173 0.903652 0.967219
Si Si5 0.483118 0.405503 0.818543
Si Si6 0.549122 0.734738 0.355300
O O1 0.348818 0.872587 0.275399
O O2 0.544118 0.886779 0.113402
O O3 0.511859 0.832062 0.337188
O O4 0.469959 0.000000 0.300749
O O5 0.134434 0.227666 0.845435
O O6 0.272648 0.113622 0.870971
O O7 0.094296 0.073695 0.834396
O O8 0.095236 0.135312 0.051487
O O9 0.823860 0.777026 0.690859
O O10 0.723661 0.849464 0.907806
O O11 0.312385 0.000000 0.017327
O O12 0.442584 0.500000 0.792418
O O13 0.496560 0.338087 0.709379
O O14 0.500000 0.713500 0.500000
#
# Coordination Sequence:
#
# PCOD8113933 Si02
#       6
#     8   8   8   8   8   8
#     4  11  25  45  69 101 135 174 223 282 344 401
#     4  11  20  36  67  98 135 168 211 270 344 401
#     4  12  23  40  67  97 136 177 218 275 335 407
#     4  11  21  36  64 103 136 170 214 271 345 414
#     4  11  23  40  64 101 140 173 216 276 339 405
#     4  12  27  47  69  92 133 185 235 277 327 390
#
# _framework density 21.234691000000002
#
# number of rings (size 3 to 8) (size 9 to 14) (size 15 to 20)
#    0.000    0.667    5.000    4.500    2.333    3.333 
#    0.000    0.000    0.000    0.000    0.000    0.000 
#    0.000    0.000    0.000    0.000    0.000    0.000 
#
# Total GULP energy -297367.908226 kJ/mol
# GULP energy per Si atom -12390.329509 kJ/mol
# Density = 2.118636 g / cm^3
# Si number density = 21.234691 Si / 1000 Ang^3
#
#
#
# Elastic Constant Matrix: (Units=GPa)
#
#
# Indices 1 2 3 4 5 6 
#
# 1 127.9560 40.1602 34.1776 0.0000 -4.2267 0.0000
# 2 40.1602 123.4659 65.7512 0.0000 -7.4215 0.0000
# 3 34.1776 65.7512 107.9231 0.0000 7.9852 0.0000
# 4 0.0000 0.0000 0.0000 5.0503 0.0000 1.5876
# 5 -4.2267 -7.4215 7.9852 0.0000 16.2929 0.0000
# 6 0.0000 0.0000 0.0000 1.5876 0.0000 25.4990
#
#
#
# Elastic Compliance Matrix: (Units=1/GPa)
#
#
# Indices 1 2 3 4 5 6 
#
# 1 0.008965 -0.001707 -0.001985 0.000000 0.002521 0.000000
# 2 -0.001707 0.013876 -0.008662 0.000000 0.010123 0.000000
# 3 -0.001985 -0.008662 0.016086 0.000000 -0.012344 0.000000
# 4 0.000000 0.000000 0.000000 0.201961 0.000000 -0.012574
# 5 0.002521 0.010123 -0.012344 0.000000 0.072692 0.000000
# 6 0.000000 0.000000 0.000000 -0.012574 0.000000 0.040000
#
#
# Mechanical properties :
#
#
# Convention : Reuss Voigt Hill
#
# Bulk Modulus (GPa) = 70.34106 71.05812 70.69959
# Shear Modulus (GPa) = 13.05385 23.98549 18.51967
#
# Velocity S-wave (km/s) = 2.48209 3.36451 2.95641
# Velocity P-wave (km/s) = 6.43520 6.97346 6.70973
#
# Compressibility (1/GPa) = 0.01421645
#
# Stress axis : x y z
#
# Youngs Moduli (GPa) = 111.55031 72.06516 62.16772
#
# Poissons Ratio (x) = 0.12302 0.12343
# Poissons Ratio (y) = 0.19042 0.53853
# Poissons Ratio (z) = 0.22148 0.62426
#
# Static dielectric constant tensor:
#      x y z
#    x 4.114970 0.000000 -0.079410 
#    y 0.000000 4.280680 0.000000 
#    z -0.079410 0.000000 3.315730 
# 
# 
# High freq. dielectric constant tensor:
#      x y z
#    x 1.850720 0.000000 -0.003400 
#    y 0.000000 1.851410 0.000000 
#    z -0.003400 0.000000 1.778840 
# 
# From -- ./inp_files/143524.got.cif
#   From: 2010.06.25/outbox.cif.g09.slc.cpg/sg12_72_cif.got.tgz:143524.got - 2010.06.28 00:19:55.
