data_PCOD8113852
_publ_section_title
;
Structure prediction by ZEFSAII (Michael W. Deem and Ramdas Pophale) SiO2 
 PCOD8113852
Probable space group: C 2/M
;
_chemical_formula_sum "Si O2"
_cell_formula_units_Z 56
_cell_length_a 30.103500
_cell_length_b 8.298417
_cell_length_c 16.883740
_cell_angle_alpha 90.000000
_cell_angle_beta 134.151050
_cell_angle_gamma 90.000000
_cell_volume 3026.261242
_symmetry_space_group_name_H-M "C 2/M"
_symmetry_group_IT_number 12
_symmetry_cell_setting 'monoclinic'
loop_
_space_group_symop_operation_xyz
x,y,z
-x,y,-z
-x,-y,-z
x,-y,z
1/2+x,1/2+y,z
1/2-x,1/2+y,-z
1/2-x,1/2-y,-z
1/2+x,1/2-y,z
loop_
_atom_site_type_symbol
_atom_site_label
_atom_site_fract_x
_atom_site_fract_y
_atom_site_fract_z
Si Si1 0.877177 0.186621 0.139365
Si Si2 0.299912 0.190588 0.898229
Si Si3 0.407085 0.808707 0.920840
Si Si4 0.030562 0.691170 0.155032
Si Si5 0.986108 0.312302 0.692586
Si Si6 0.667352 0.815742 0.755006
Si Si7 0.059120 0.813727 0.524115
O O1 0.940555 0.285305 0.214597
O O2 0.847652 0.201841 0.189527
O O3 0.889970 0.000000 0.137223
O O4 0.828947 0.260000 0.017844
O O5 0.343428 0.254145 0.880237
O O6 0.234672 0.276132 0.804418
O O7 0.291040 0.000000 0.884799
O O8 0.415331 0.752606 0.839039
O O9 0.408267 0.000000 0.926957
O O10 0.464586 0.739397 0.043249
O O11 0.025692 0.500000 0.148976
O O12 0.043262 0.749182 0.260465
O O13 0.973327 0.500000 0.661627
O O14 0.952897 0.209873 0.583654
O O15 0.618682 0.787250 0.624077
O O16 0.664440 0.000000 0.779305
O O17 0.000000 0.750685 0.500000
O O18 0.071398 0.000000 0.557774
#
# Coordination Sequence:
#
# PCOD8113852 Si02
#       7
#     8   8   8   8   8   8   8
#     4  12  23  36  53  79 114 149 183 222 268 324
#     4  11  21  36  57  82 112 148 184 222 271 325
#     4   8  14  27  51  81 112 143 176 218 265 321
#     4   8  14  27  50  83 113 139 177 220 267 318
#     4  11  20  33  57  85 112 144 181 226 272 320
#     4  12  25  40  57  78 107 145 187 228 270 323
#     4  11  23  39  58  80 108 143 181 227 273 321
#
# _framework density 18.504681999999999
#
# number of rings (size 3 to 8) (size 9 to 14) (size 15 to 20)
#    0.000    1.571    2.857    5.143    0.000    0.571 
#    0.000    0.000    0.000    5.143    0.000    0.000 
#    0.000    0.000    0.000    0.000    0.000    0.000 
#
# Total GULP energy -347196.801565 kJ/mol
# GULP energy per Si atom -12399.885770 kJ/mol
# Density = 1.846256 g / cm^3
# Si number density = 18.504682 Si / 1000 Ang^3
#
#
#
# Elastic Constant Matrix: (Units=GPa)
#
#
# Indices 1 2 3 4 5 6 
#
# 1 119.3571 8.4850 65.6990 0.0000 -13.5396 0.0000
# 2 8.4850 46.6877 12.3507 0.0000 4.3315 0.0000
# 3 65.6990 12.3507 113.3172 0.0000 -3.2232 0.0000
# 4 0.0000 0.0000 0.0000 20.6400 0.0000 4.3178
# 5 -13.5396 4.3315 -3.2232 0.0000 31.4162 0.0000
# 6 0.0000 0.0000 0.0000 4.3178 0.0000 15.0096
#
#
#
# Elastic Compliance Matrix: (Units=1/GPa)
#
#
# Indices 1 2 3 4 5 6 
#
# 1 0.013037 -0.000896 -0.007319 0.000000 0.004991 0.000000
# 2 -0.000896 0.022462 -0.002034 0.000000 -0.003692 0.000000
# 3 -0.007319 -0.002034 0.013247 0.000000 -0.001515 0.000000
# 4 0.000000 0.000000 0.000000 0.051552 0.000000 -0.014830
# 5 0.004991 -0.003692 -0.001515 0.000000 0.034335 0.000000
# 6 0.000000 0.000000 0.000000 -0.014830 0.000000 0.070890
#
#
# Mechanical properties :
#
#
# Convention : Reuss Voigt Hill
#
# Bulk Modulus (GPa) = 35.40025 50.27015 42.83520
# Shear Modulus (GPa) = 21.23717 26.26832 23.75275
#
# Velocity S-wave (km/s) = 3.39140 3.77178 3.58663
# Velocity P-wave (km/s) = 5.87430 6.79659 6.35220
#
# Compressibility (1/GPa) = 0.02824839
#
# Stress axis : x y z
#
# Youngs Moduli (GPa) = 76.70689 44.51902 75.49108
#
# Poissons Ratio (x) = 0.03990 0.55250
# Poissons Ratio (y) = 0.06875 0.15352
# Poissons Ratio (z) = 0.56140 0.09053
#
# Static dielectric constant tensor:
#      x y z
#    x 3.727830 0.000000 -0.209030 
#    y 0.000000 3.189090 0.000000 
#    z -0.209030 0.000000 3.339340 
# 
# 
# High freq. dielectric constant tensor:
#      x y z
#    x 1.717180 0.000000 -0.013280 
#    y 0.000000 1.705290 0.000000 
#    z -0.013280 0.000000 1.701280 
# 
# From -- ./inp_files/249301.got.cif
#   From: 2010.06.25/outbox.cif.g09.slc.cpg/sg12_125_cif.got.tgz:249301.got - 2010.06.28 00:19:55.
