data_PCOD8113073
_publ_section_title
;
Structure prediction by ZEFSAII (Michael W. Deem and Ramdas Pophale) SiO2 
 PCOD8113073
Probable space group: C 2/M
;
_chemical_formula_sum "Si O2"
_cell_formula_units_Z 56
_cell_length_a 24.803666
_cell_length_b 8.581581
_cell_length_c 12.099319
_cell_angle_alpha 90.000000
_cell_angle_beta 75.908446
_cell_angle_gamma 90.000000
_cell_volume 2497.897491
_symmetry_space_group_name_H-M "C 2/M"
_symmetry_group_IT_number 12
_symmetry_cell_setting 'monoclinic'
loop_
_space_group_symop_operation_xyz
x,y,z
-x,y,-z
-x,-y,-z
x,-y,z
1/2+x,1/2+y,z
1/2-x,1/2+y,-z
1/2-x,1/2-y,-z
1/2+x,1/2-y,z
loop_
_atom_site_type_symbol
_atom_site_label
_atom_site_fract_x
_atom_site_fract_y
_atom_site_fract_z
Si Si1 0.952187 0.181658 0.785799
Si Si2 0.652891 0.681240 0.748927
Si Si3 0.892766 0.816950 0.594621
Si Si4 0.208027 0.327395 0.101593
Si Si5 0.892779 0.327623 0.006218
Si Si6 0.228550 0.822171 0.310809
Si Si7 0.562965 0.819439 0.641953
O O1 0.910497 0.242344 0.708859
O O2 0.944188 0.253051 0.913490
O O3 0.014975 0.218301 0.721274
O O4 0.943587 0.000000 0.804473
O O5 0.641715 0.500000 0.734745
O O6 0.718408 0.713229 0.694160
O O7 0.619952 0.781855 0.676515
O O8 0.632683 0.725052 0.882377
O O9 0.827819 0.783670 0.592372
O O10 0.930966 0.724352 0.489521
O O11 0.905339 0.000000 0.578016
O O12 0.228196 0.500000 0.131185
O O13 0.150141 0.343386 0.071098
O O14 0.204746 0.204150 0.200981
O O15 0.250000 0.250000 0.000000
O O16 0.908186 0.500000 0.044680
O O17 0.247826 0.000000 0.316828
O O18 0.548043 0.000000 0.660277
#
# Coordination Sequence:
#
# PCOD8113073 Si02
#       7
#     8   8   8   8   8   8   8
#     4  11  23  43  70  99 130 167 214 266 321 379
#     4  12  26  44  66  93 130 175 218 260 319 388
#     4  10  23  43  69  98 129 167 212 264 320 379
#     4  11  21  33  57  91 131 170 209 260 318 379
#     4  11  23  39  63  97 134 168 211 264 319 379
#     4  11  22  39  64  96 132 168 211 262 318 381
#     4  12  27  46  67  92 127 170 218 270 321 379
#
# _framework density 22.418855000000001
#
# number of rings (size 3 to 8) (size 9 to 14) (size 15 to 20)
#    0.000    0.857    2.857    4.714    0.000    6.286 
#    0.000    2.857    0.000    0.000    0.000    0.000 
#    0.000    0.000    0.000    0.000    0.000    0.000 
#
# Total GULP energy -347074.111321 kJ/mol
# GULP energy per Si atom -12395.503976 kJ/mol
# Density = 2.236783 g / cm^3
# Si number density = 22.418855 Si / 1000 Ang^3
#
#
#
# Elastic Constant Matrix: (Units=GPa)
#
#
# Indices 1 2 3 4 5 6 
#
# 1 64.2636 11.3689 10.7370 0.0000 -7.0303 0.0000
# 2 11.3689 60.7202 14.0806 0.0000 -7.7950 0.0000
# 3 10.7370 14.0806 41.8792 0.0000 -14.7006 0.0000
# 4 0.0000 0.0000 0.0000 33.6808 0.0000 -0.3597
# 5 -7.0303 -7.7950 -14.7006 0.0000 35.4888 0.0000
# 6 0.0000 0.0000 0.0000 -0.3597 0.0000 31.4850
#
#
#
# Elastic Compliance Matrix: (Units=1/GPa)
#
#
# Indices 1 2 3 4 5 6 
#
# 1 0.016621 -0.002223 -0.002960 0.000000 0.001578 0.000000
# 2 -0.002223 0.018245 -0.005046 0.000000 0.001477 0.000000
# 3 -0.002960 -0.005046 0.030118 0.000000 0.010781 0.000000
# 4 0.000000 0.000000 0.000000 0.029694 0.000000 0.000339
# 5 0.001578 0.001477 0.010781 0.000000 0.033281 0.000000
# 6 0.000000 0.000000 0.000000 0.000339 0.000000 0.031765
#
#
# Mechanical properties :
#
#
# Convention : Reuss Voigt Hill
#
# Bulk Modulus (GPa) = 22.45853 26.58178 24.52015
# Shear Modulus (GPa) = 25.63780 28.84268 27.24024
#
# Velocity S-wave (km/s) = 3.38536 3.59072 3.48955
# Velocity P-wave (km/s) = 5.03193 5.39200 5.21507
#
# Compressibility (1/GPa) = 0.04452651
#
# Stress axis : x y z
#
# Youngs Moduli (GPa) = 60.16339 54.80973 33.20264
#
# Poissons Ratio (x) = 0.12185 0.09828
# Poissons Ratio (y) = 0.13375 0.16754
# Poissons Ratio (z) = 0.17808 0.27657
#
# Static dielectric constant tensor:
#      x y z
#    x 4.003040 0.000000 -0.094940 
#    y 0.000000 4.759360 0.000000 
#    z -0.094940 0.000000 4.107180 
# 
# 
# High freq. dielectric constant tensor:
#      x y z
#    x 1.883740 0.000000 -0.012440 
#    y 0.000000 1.884580 0.000000 
#    z -0.012440 0.000000 1.885670 
# 
# From -- ./inp_files/180820.got.cif
#   From: 2010.06.25/outbox.cif.g09.slc.cpg/sg12_91_cif.got.tgz:180820.got - 2010.06.28 00:19:55.
