data_PCOD8113169
_publ_section_title
;
Structure prediction by ZEFSAII (Michael W. Deem and Ramdas Pophale) SiO2 
 PCOD8113169
Probable space group: C 2/M
;
_chemical_formula_sum "Si O2"
_cell_formula_units_Z 48
_cell_length_a 23.263077
_cell_length_b 22.044560
_cell_length_c 7.410935
_cell_angle_alpha 90.000000
_cell_angle_beta 32.978340
_cell_angle_gamma 90.000000
_cell_volume 2068.699656
_symmetry_space_group_name_H-M "C 2/M"
_symmetry_group_IT_number 12
_symmetry_cell_setting 'monoclinic'
loop_
_space_group_symop_operation_xyz
x,y,z
-x,y,-z
-x,-y,-z
x,-y,z
1/2+x,1/2+y,z
1/2-x,1/2+y,-z
1/2-x,1/2-y,-z
1/2+x,1/2-y,z
loop_
_atom_site_type_symbol
_atom_site_label
_atom_site_fract_x
_atom_site_fract_y
_atom_site_fract_z
Si Si1 0.894594 0.853179 0.810251
Si Si2 0.118403 0.855949 0.736023
Si Si3 0.135899 0.759244 0.387703
Si Si4 0.686131 0.932340 0.717406
Si Si5 0.519059 0.859682 0.649974
Si Si6 0.288630 0.934281 0.770629
O O1 0.925832 0.794423 0.607046
O O2 0.000000 0.894457 0.500000
O O3 0.871675 0.837765 0.078900
O O4 0.799777 0.884837 0.951076
O O5 0.143544 0.796052 0.554799
O O6 0.208800 0.906583 0.458438
O O7 0.000000 0.880342 0.000000
O O8 0.073320 0.697502 0.608343
O O9 0.250000 0.750000 0.000000
O O10 0.708944 0.939683 0.449156
O O11 0.660243 0.000000 0.864773
O O12 0.590085 0.884324 0.980712
O O13 0.500000 0.837026 0.500000
O O14 0.600321 0.915593 0.436052
O O15 0.259575 0.000000 0.928922
#
# Coordination Sequence:
#
# PCOD8113169 Si02
#       6
#     8   8   8   8   8   8
#     4  11  23  45  67 100 141 176 233 290 342 419
#     4  11  25  45  71 103 137 189 235 279 362 414
#     4  12  25  47  68 100 145 183 233 292 345 419
#     4  10  24  47  71 101 138 179 235 292 344 417
#     4  12  25  42  66 103 138 181 229 286 353 411
#     4  10  23  45  69  96 135 181 231 287 350 412
#
# _framework density 23.202981999999999
#
# number of rings (size 3 to 8) (size 9 to 14) (size 15 to 20)
#    0.000    1.000    3.333    2.500    0.000    5.333 
#    0.000    0.000    0.000    0.000    0.000    0.000 
#    0.000    0.000    0.000    0.000    0.000    0.000 
#
# Total GULP energy -297379.404061 kJ/mol
# GULP energy per Si atom -12390.808503 kJ/mol
# Density = 2.315017 g / cm^3
# Si number density = 23.202982 Si / 1000 Ang^3
#
#
#
# Elastic Constant Matrix: (Units=GPa)
#
#
# Indices 1 2 3 4 5 6 
#
# 1 89.2621 40.1386 22.3678 0.0000 -13.1851 0.0000
# 2 40.1386 151.7775 58.1876 0.0000 -13.3547 0.0000
# 3 22.3678 58.1876 126.6708 0.0000 -39.6692 0.0000
# 4 0.0000 0.0000 0.0000 27.3922 0.0000 -1.9780
# 5 -13.1851 -13.3547 -39.6692 0.0000 47.9203 0.0000
# 6 0.0000 0.0000 0.0000 -1.9780 0.0000 35.1457
#
#
#
# Elastic Compliance Matrix: (Units=1/GPa)
#
#
# Indices 1 2 3 4 5 6 
#
# 1 0.013046 -0.003221 0.000026 0.000000 0.002713 0.000000
# 2 -0.003221 0.008835 -0.004045 0.000000 -0.001772 0.000000
# 3 0.000026 -0.004045 0.012686 0.000000 0.009381 0.000000
# 4 0.000000 0.000000 0.000000 0.036656 0.000000 0.002063
# 5 0.002713 -0.001772 0.009381 0.000000 0.028887 0.000000
# 6 0.000000 0.000000 0.000000 0.002063 0.000000 0.028569
#
#
# Mechanical properties :
#
#
# Convention : Reuss Voigt Hill
#
# Bulk Modulus (GPa) = 49.78522 67.67761 58.73141
# Shear Modulus (GPa) = 33.36574 38.55939 35.96257
#
# Velocity S-wave (km/s) = 3.79620 4.08098 3.94116
# Velocity P-wave (km/s) = 6.38105 7.17194 6.78803
#
# Compressibility (1/GPa) = 0.02008628
#
# Stress axis : x y z
#
# Youngs Moduli (GPa) = 76.65336 113.18409 78.82741
#
# Poissons Ratio (x) = 0.36458 -0.00202
# Poissons Ratio (y) = 0.24691 0.31884
# Poissons Ratio (z) = -0.00197 0.45781
#
# Static dielectric constant tensor:
#      x y z
#    x 4.435950 0.000000 -0.421470 
#    y 0.000000 4.533490 0.000000 
#    z -0.421470 0.000000 4.540360 
# 
# 
# High freq. dielectric constant tensor:
#      x y z
#    x 1.931100 0.000000 -0.013320 
#    y 0.000000 1.906770 0.000000 
#    z -0.013320 0.000000 1.926410 
# 
# From -- ./inp_files/106491.got.cif
#   From: 2010.06.25/outbox.cif.g09.slc.cpg/sg12_54_cif.got.tgz:106491.got - 2010.06.28 00:19:55.
