data_PCOD8113061
_publ_section_title
;
Structure prediction by ZEFSAII (Michael W. Deem and Ramdas Pophale) SiO2 
 PCOD8113061
Probable space group: C 2/M
;
_chemical_formula_sum "Si O2"
_cell_formula_units_Z 56
_cell_length_a 17.593040
_cell_length_b 19.522258
_cell_length_c 8.569324
_cell_angle_alpha 90.000000
_cell_angle_beta 118.027116
_cell_angle_gamma 90.000000
_cell_volume 2598.023534
_symmetry_space_group_name_H-M "C 2/M"
_symmetry_group_IT_number 12
_symmetry_cell_setting 'monoclinic'
loop_
_space_group_symop_operation_xyz
x,y,z
-x,y,-z
-x,-y,-z
x,-y,z
1/2+x,1/2+y,z
1/2-x,1/2+y,-z
1/2-x,1/2-y,-z
1/2+x,1/2-y,z
loop_
_atom_site_type_symbol
_atom_site_label
_atom_site_fract_x
_atom_site_fract_y
_atom_site_fract_z
Si Si1 0.917239 0.923049 0.313190
Si Si2 0.253644 0.813420 0.120060
Si Si3 0.934106 0.186848 0.075999
Si Si4 0.495615 0.183751 0.309516
Si Si5 0.638207 0.921320 0.937552
Si Si6 0.250731 0.922264 0.667429
Si Si7 0.810860 0.310400 0.506343
O O1 0.944134 0.880790 0.187760
O O2 0.833304 0.892530 0.321953
O O3 0.000000 0.921229 0.500000
O O4 0.894849 0.000000 0.237760
O O5 0.280746 0.884065 0.064803
O O6 0.319018 0.805664 0.327032
O O7 0.250000 0.750000 0.000000
O O8 0.158029 0.817938 0.097255
O O9 0.939393 0.251800 0.198084
O O10 0.000000 0.191011 0.000000
O O11 0.500000 0.177307 0.500000
O O12 0.451537 0.116404 0.190397
O O13 0.591891 0.193643 0.333963
O O14 0.631426 0.000000 0.873884
O O15 0.662214 0.918161 0.144030
O O16 0.267172 0.880071 0.525658
O O17 0.231326 0.000000 0.597767
O O18 0.750000 0.250000 0.500000
#
# Coordination Sequence:
#
# PCOD8113061 Si02
#       7
#     8   8   8   8   8   8   8
#     4  10  23  43  68  96 135 183 228 281 350 418
#     4  12  23  45  69  96 139 182 225 289 348 415
#     4  12  26  40  70 102 137 177 233 291 347 414
#     4  12  26  46  67 102 140 181 231 290 353 418
#     4  11  24  45  74 100 133 189 232 278 354 426
#     4  10  24  46  70  99 139 185 229 282 351 418
#     4  12  27  42  70 103 134 177 235 285 344 414
#
# _framework density 21.554846000000001
#
# number of rings (size 3 to 8) (size 9 to 14) (size 15 to 20)
#    0.000    0.714    4.286    2.143    8.000    1.714 
#    0.000    1.429    0.000    0.000    0.000    0.000 
#    0.000    0.000    0.000    0.000    0.000    0.000 
#
# Total GULP energy -347138.992987 kJ/mol
# GULP energy per Si atom -12397.821178 kJ/mol
# Density = 2.150579 g / cm^3
# Si number density = 21.554846 Si / 1000 Ang^3
#
#
#
# Elastic Constant Matrix: (Units=GPa)
#
#
# Indices 1 2 3 4 5 6 
#
# 1 106.2832 52.6547 34.6664 0.0000 23.4338 0.0000
# 2 52.6547 132.6291 52.1261 0.0000 1.7689 0.0000
# 3 34.6664 52.1261 98.4890 0.0000 4.0517 0.0000
# 4 0.0000 0.0000 0.0000 37.8744 0.0000 5.3343
# 5 23.4338 1.7689 4.0517 0.0000 40.7481 0.0000
# 6 0.0000 0.0000 0.0000 5.3343 0.0000 28.4474
#
#
#
# Elastic Compliance Matrix: (Units=1/GPa)
#
#
# Indices 1 2 3 4 5 6 
#
# 1 0.014123 -0.004640 -0.002198 0.000000 -0.007702 0.000000
# 2 -0.004640 0.011045 -0.004320 0.000000 0.002619 0.000000
# 3 -0.002198 -0.004320 0.013208 0.000000 0.000138 0.000000
# 4 0.000000 0.000000 0.000000 0.027119 0.000000 -0.005085
# 5 -0.007702 0.002619 0.000138 0.000000 0.028843 0.000000
# 6 0.000000 0.000000 0.000000 -0.005085 0.000000 0.036106
#
#
# Mechanical properties :
#
#
# Convention : Reuss Voigt Hill
#
# Bulk Modulus (GPa) = 62.27199 68.47731 65.37465
# Shear Modulus (GPa) = 31.62274 34.61092 33.11683
#
# Velocity S-wave (km/s) = 3.83441 4.01148 3.92394
# Velocity P-wave (km/s) = 6.96824 7.30026 7.13618
#
# Compressibility (1/GPa) = 0.01605859
#
# Stress axis : x y z
#
# Youngs Moduli (GPa) = 70.80736 90.53889 75.71204
#
# Poissons Ratio (x) = 0.42012 0.16644
# Poissons Ratio (y) = 0.32856 0.32708
# Poissons Ratio (z) = 0.15566 0.39114
#
# Static dielectric constant tensor:
#      x y z
#    x 4.403620 0.000000 0.126980 
#    y 0.000000 3.995790 0.000000 
#    z 0.126980 0.000000 4.591340 
# 
# 
# High freq. dielectric constant tensor:
#      x y z
#    x 1.857680 0.000000 0.017690 
#    y 0.000000 1.846800 0.000000 
#    z 0.017690 0.000000 1.848120 
# 
# From -- ./inp_files/76005.got.cif
#   From: 2010.06.25/outbox.cif.g09.slc.cpg/sg12_39_cif.got.tgz:76005.got - 2010.06.28 00:19:55.
