data_PCOD8114045
_publ_section_title
;
Structure prediction by ZEFSAII (Michael W. Deem and Ramdas Pophale) SiO2 
 PCOD8114045
Probable space group: C 2/M
;
_chemical_formula_sum "Si O2"
_cell_formula_units_Z 40
_cell_length_a 19.279263
_cell_length_b 11.059177
_cell_length_c 9.405080
_cell_angle_alpha 90.000000
_cell_angle_beta 104.410972
_cell_angle_gamma 90.000000
_cell_volume 1942.188076
_symmetry_space_group_name_H-M "C 2/M"
_symmetry_group_IT_number 12
_symmetry_cell_setting 'monoclinic'
loop_
_space_group_symop_operation_xyz
x,y,z
-x,y,-z
-x,-y,-z
x,-y,z
1/2+x,1/2+y,z
1/2-x,1/2+y,-z
1/2-x,1/2-y,-z
1/2+x,1/2-y,z
loop_
_atom_site_type_symbol
_atom_site_label
_atom_site_fract_x
_atom_site_fract_y
_atom_site_fract_z
Si Si1 0.954877 0.140958 0.346342
Si Si2 0.065975 0.500000 0.347719
Si Si3 0.457279 0.226795 0.841025
Si Si4 0.324675 0.762003 0.202764
Si Si5 0.823897 0.144386 0.893926
Si Si6 0.100449 0.500000 0.679834
O O1 0.870828 0.173282 0.329420
O O2 0.000000 0.194660 0.500000
O O3 0.982868 0.204201 0.219006
O O4 0.966470 0.000000 0.337137
O O5 0.082209 0.618239 0.261560
O O6 0.115140 0.500000 0.515930
O O7 0.983537 0.500000 0.344754
O O8 0.395833 0.323233 0.847708
O O9 0.500000 0.177002 0.000000
O O10 0.244607 0.791001 0.217425
O O11 0.367641 0.887098 0.219902
O O12 0.324944 0.695742 0.052421
O O13 0.814010 0.000000 0.890989
#
# Coordination Sequence:
#
# PCOD8114045 Si02
#       6
#     8   4   8   8   8   4
#     4  11  23  41  66  97 130 172 218 259 316 386
#     4  11  23  38  66  96 128 163 217 264 319 380
#     4  12  23  40  66  97 128 167 215 271 322 375
#     4  11  22  40  66  92 125 172 214 259 324 384
#     4  11  24  41  63  96 131 166 213 269 328 376
#     4  11  20  42  66  90 127 173 210 261 322 388
#
# _framework density 20.595327999999999
#
# number of rings (size 3 to 8) (size 9 to 14) (size 15 to 20)
#    0.000    0.800    5.000    2.700    0.000    1.600 
#    3.600    4.000    0.000    0.000    0.000    0.000 
#    0.000    0.000    0.000    0.000    0.000    0.000 
#
# Total GULP energy -247923.529812 kJ/mol
# GULP energy per Si atom -12396.176491 kJ/mol
# Density = 2.054845 g / cm^3
# Si number density = 20.595328 Si / 1000 Ang^3
#
#
#
# Elastic Constant Matrix: (Units=GPa)
#
#
# Indices 1 2 3 4 5 6 
#
# 1 95.3527 30.9017 36.6497 0.0000 18.6357 0.0000
# 2 30.9017 96.2790 37.5256 0.0000 -1.7173 0.0000
# 3 36.6497 37.5256 86.0273 0.0000 11.1247 0.0000
# 4 0.0000 0.0000 0.0000 36.0132 0.0000 10.3119
# 5 18.6357 -1.7173 11.1247 0.0000 30.4828 0.0000
# 6 0.0000 0.0000 0.0000 10.3119 0.0000 33.1514
#
#
#
# Elastic Compliance Matrix: (Units=1/GPa)
#
#
# Indices 1 2 3 4 5 6 
#
# 1 0.014507 -0.003340 -0.003728 0.000000 -0.007697 0.000000
# 2 -0.003340 0.013520 -0.005077 0.000000 0.004657 0.000000
# 3 -0.003728 -0.005077 0.015921 0.000000 -0.003817 0.000000
# 4 0.000000 0.000000 0.000000 0.030483 0.000000 -0.009482
# 5 -0.007697 0.004657 -0.003817 0.000000 0.039166 0.000000
# 6 0.000000 0.000000 0.000000 -0.009482 0.000000 0.033114
#
#
# Mechanical properties :
#
#
# Convention : Reuss Voigt Hill
#
# Bulk Modulus (GPa) = 50.87067 54.20145 52.53606
# Shear Modulus (GPa) = 28.16054 31.43495 29.79775
#
# Velocity S-wave (km/s) = 3.70175 3.91105 3.80784
# Velocity P-wave (km/s) = 6.55929 6.83882 6.70052
#
# Compressibility (1/GPa) = 0.01965769
#
# Stress axis : x y z
#
# Youngs Moduli (GPa) = 68.93212 73.96233 62.81205
#
# Poissons Ratio (x) = 0.24707 0.23416
# Poissons Ratio (y) = 0.23027 0.31888
# Poissons Ratio (z) = 0.25697 0.37549
#
# Static dielectric constant tensor:
#      x y z
#    x 3.917070 0.000000 0.376850 
#    y 0.000000 3.915620 0.000000 
#    z 0.376850 0.000000 4.068220 
# 
# 
# High freq. dielectric constant tensor:
#      x y z
#    x 1.795540 0.000000 0.024770 
#    y 0.000000 1.820180 0.000000 
#    z 0.024770 0.000000 1.802270 
# 
# From -- ./inp_files/83768.got.cif
#   From: 2010.06.25/outbox.cif.g09.slc.cpg/sg12_42_cif.got.tgz:83768.got - 2010.06.28 00:19:55.
