data_PCOD8114680
_publ_section_title
;
Structure prediction by ZEFSAII (Michael W. Deem and Ramdas Pophale) SiO2 
 PCOD8114680
Probable space group: C 2/M
;
_chemical_formula_sum "Si O2"
_cell_formula_units_Z 48
_cell_length_a 20.035790
_cell_length_b 8.926566
_cell_length_c 15.777712
_cell_angle_alpha 90.000000
_cell_angle_beta 107.716822
_cell_angle_gamma 90.000000
_cell_volume 2688.021932
_symmetry_space_group_name_H-M "C 2/M"
_symmetry_group_IT_number 12
_symmetry_cell_setting 'monoclinic'
loop_
_space_group_symop_operation_xyz
x,y,z
-x,y,-z
-x,-y,-z
x,-y,z
1/2+x,1/2+y,z
1/2-x,1/2+y,-z
1/2-x,1/2-y,-z
1/2+x,1/2-y,z
loop_
_atom_site_type_symbol
_atom_site_label
_atom_site_fract_x
_atom_site_fract_y
_atom_site_fract_z
Si Si1 0.883922 0.329700 0.732605
Si Si2 0.097959 0.822042 0.599667
Si Si3 0.948708 0.823087 0.598016
Si Si4 0.286011 0.322382 0.933469
Si Si5 0.265067 0.325173 0.253608
Si Si6 0.574988 0.824811 0.065106
O O1 0.899874 0.500000 0.714122
O O2 0.912246 0.227542 0.669265
O O3 0.801192 0.301814 0.710650
O O4 0.923459 0.286261 0.834674
O O5 0.093306 0.762739 0.500873
O O6 0.167371 0.759112 0.671715
O O7 0.029312 0.766707 0.624642
O O8 0.101656 0.000000 0.600403
O O9 0.948285 0.000000 0.595859
O O10 0.283219 0.500000 0.939206
O O11 0.243649 0.269174 0.834835
O O12 0.366547 0.269418 0.961551
O O13 0.250000 0.250000 0.000000
O O14 0.272736 0.500000 0.232096
O O15 0.591241 0.000000 0.057138
O O16 0.500000 0.777353 0.000000
#
# Coordination Sequence:
#
# PCOD8114680 Si02
#       6
#     8   8   8   8   8   8
#     4   9  18  31  48  72 101 130 160 200 250 298
#     4   8  16  32  52  72  96 130 169 207 247 293
#     4   9  17  31  51  73  98 129 166 206 248 297
#     4  11  22  36  54  77 105 135 171 213 256 304
#     4   9  18  35  54  71  97 133 170 207 250 300
#     4   9  19  37  57  76 103 137 170 209 258 308
#
# _framework density 17.856995999999999
#
# number of rings (size 3 to 8) (size 9 to 14) (size 15 to 20)
#    0.000    2.833    0.000    3.500    0.000    5.000 
#    0.000    6.667    0.000    0.000    0.000    0.000 
#    0.000    0.000    0.000    0.000    0.000    0.000 
#
# Total GULP energy -297555.683707 kJ/mol
# GULP energy per Si atom -12398.153488 kJ/mol
# Density = 1.781635 g / cm^3
# Si number density = 17.856996 Si / 1000 Ang^3
#
#
#
# Elastic Constant Matrix: (Units=GPa)
#
#
# Indices 1 2 3 4 5 6 
#
# 1 129.1533 47.1404 100.4541 0.0000 10.9860 0.0000
# 2 47.1404 63.8074 45.0233 0.0000 -2.5114 0.0000
# 3 100.4541 45.0233 122.1300 0.0000 9.9545 0.0000
# 4 0.0000 0.0000 0.0000 27.4853 0.0000 -7.4920
# 5 10.9860 -2.5114 9.9545 0.0000 41.9616 0.0000
# 6 0.0000 0.0000 0.0000 -7.4920 0.0000 27.8785
#
#
#
# Elastic Compliance Matrix: (Units=1/GPa)
#
#
# Indices 1 2 3 4 5 6 
#
# 1 0.022757 -0.005177 -0.016620 0.000000 -0.002325 0.000000
# 2 -0.005177 0.022785 -0.004449 0.000000 0.003774 0.000000
# 3 -0.016620 -0.004449 0.023622 0.000000 -0.001519 0.000000
# 4 0.000000 0.000000 0.000000 0.039259 0.000000 0.010550
# 5 -0.002325 0.003774 -0.001519 0.000000 0.025026 0.000000
# 6 0.000000 0.000000 0.000000 0.010550 0.000000 0.038705
#
#
# Mechanical properties :
#
#
# Convention : Reuss Voigt Hill
#
# Bulk Modulus (GPa) = 59.98156 77.81402 68.89779
# Shear Modulus (GPa) = 21.71988 27.62992 24.67490
#
# Velocity S-wave (km/s) = 3.49137 3.93783 3.72130
# Velocity P-wave (km/s) = 7.06511 8.02160 7.55850
#
# Compressibility (1/GPa) = 0.01667179
#
# Stress axis : x y z
#
# Youngs Moduli (GPa) = 43.94271 43.88894 42.33304
#
# Poissons Ratio (x) = 0.22721 0.70357
# Poissons Ratio (y) = 0.22749 0.18835
# Poissons Ratio (z) = 0.73033 0.19527
#
# Static dielectric constant tensor:
#      x y z
#    x 3.494920 0.000000 0.211650 
#    y 0.000000 3.053450 0.000000 
#    z 0.211650 0.000000 3.489350 
# 
# 
# High freq. dielectric constant tensor:
#      x y z
#    x 1.695630 0.000000 0.003810 
#    y 0.000000 1.668120 0.000000 
#    z 0.003810 0.000000 1.696100 
# 
# From -- ./inp_files/230404.got.cif
#   From: 2010.06.25/outbox.cif.g09.slc.cpg/sg12_116_cif.got.tgz:230404.got - 2010.06.28 00:19:55.
