data_PCOD8114494
_publ_section_title
;
Structure prediction by ZEFSAII (Michael W. Deem and Ramdas Pophale) SiO2 
 PCOD8114494
Probable space group: C 2/M
;
_chemical_formula_sum "Si O2"
_cell_formula_units_Z 56
_cell_length_a 11.407108
_cell_length_b 15.244180
_cell_length_c 17.339682
_cell_angle_alpha 90.000000
_cell_angle_beta 124.820961
_cell_angle_gamma 90.000000
_cell_volume 2475.325753
_symmetry_space_group_name_H-M "C 2/M"
_symmetry_group_IT_number 12
_symmetry_cell_setting 'monoclinic'
loop_
_space_group_symop_operation_xyz
x,y,z
-x,y,-z
-x,-y,-z
x,-y,z
1/2+x,1/2+y,z
1/2-x,1/2+y,-z
1/2-x,1/2-y,-z
1/2+x,1/2-y,z
loop_
_atom_site_type_symbol
_atom_site_label
_atom_site_fract_x
_atom_site_fract_y
_atom_site_fract_z
Si Si1 0.504274 0.160818 0.379045
Si Si2 0.801041 0.596753 0.188579
Si Si3 0.297601 0.099838 0.856832
Si Si4 0.702608 0.097880 0.573974
Si Si5 0.712880 0.350171 0.991565
Si Si6 0.067832 0.775392 0.149363
Si Si7 0.001445 0.170591 0.291365
O O1 0.460148 0.107390 0.284220
O O2 0.654240 0.124862 0.469095
O O3 0.378976 0.157327 0.395231
O O4 0.522386 0.263012 0.369071
O O5 0.742168 0.500000 0.188305
O O6 0.718413 0.676116 0.199126
O O7 0.792821 0.605720 0.093388
O O8 0.266964 0.098879 0.936750
O O9 0.415461 0.174923 0.877411
O O10 0.148948 0.120519 0.757978
O O11 0.348909 0.000000 0.854489
O O12 0.871729 0.101218 0.651422
O O13 0.651063 0.000000 0.570527
O O14 0.540736 0.341401 0.937463
O O15 0.750000 0.250000 0.000000
O O16 0.011306 0.773102 0.215694
#
# Coordination Sequence:
#
# PCOD8114494 Si02
#       7
#     8   8   8   8   8   8   8
#     4  11  22  40  61  92 127 161 202 256 320 369
#     4  12  22  38  63  91 121 161 208 259 312 365
#     4  11  23  42  64  92 126 170 214 253 307 377
#     4  11  22  39  65  95 123 160 208 262 310 369
#     4  11  23  41  63  87 126 165 208 260 312 365
#     4  11  23  41  64  90 129 163 206 262 311 368
#     4  11  21  40  66  92 126 167 206 256 312 374
#
# _framework density 22.623284999999999
#
# number of rings (size 3 to 8) (size 9 to 14) (size 15 to 20)
#    0.000    0.857    4.286    4.286    0.000    3.429 
#    0.000    5.714    0.000    0.000    0.000    8.000 
#    0.000    0.000    0.000    0.000    0.000    0.000 
#
# Total GULP energy -346988.948897 kJ/mol
# GULP energy per Si atom -12392.462461 kJ/mol
# Density = 2.257179 g / cm^3
# Si number density = 22.623285 Si / 1000 Ang^3
#
#
#
# Elastic Constant Matrix: (Units=GPa)
#
#
# Indices 1 2 3 4 5 6 
#
# 1 27.2588 7.5353 16.6918 0.0000 -6.4570 0.0000
# 2 7.5353 126.7687 15.6935 0.0000 -17.4553 0.0000
# 3 16.6918 15.6935 141.4982 0.0000 5.4900 0.0000
# 4 0.0000 0.0000 0.0000 22.0222 0.0000 -0.5690
# 5 -6.4570 -17.4553 5.4900 0.0000 22.9142 0.0000
# 6 0.0000 0.0000 0.0000 -0.5690 0.0000 20.7222
#
#
#
# Elastic Compliance Matrix: (Units=1/GPa)
#
#
# Indices 1 2 3 4 5 6 
#
# 1 0.043353 -0.000012 -0.005639 0.000000 0.013558 0.000000
# 2 -0.000012 0.009037 -0.001280 0.000000 0.007187 0.000000
# 3 -0.005639 -0.001280 0.008049 0.000000 -0.004492 0.000000
# 4 0.000000 0.000000 0.000000 0.045441 0.000000 0.001248
# 5 0.013558 0.007187 -0.004492 0.000000 0.054013 0.000000
# 6 0.000000 0.000000 0.000000 0.001248 0.000000 0.048292
#
#
# Mechanical properties :
#
#
# Convention : Reuss Voigt Hill
#
# Bulk Modulus (GPa) = 21.46942 41.70742 31.58842
# Shear Modulus (GPa) = 21.04626 30.17208 25.60917
#
# Velocity S-wave (km/s) = 3.05338 3.65591 3.36815
# Velocity P-wave (km/s) = 4.68416 6.02466 5.39620
#
# Compressibility (1/GPa) = 0.04657787
#
# Stress axis : x y z
#
# Youngs Moduli (GPa) = 23.06629 110.65376 124.24453
#
# Poissons Ratio (x) = 0.00133 0.70060
# Poissons Ratio (y) = 0.00028 0.15900
# Poissons Ratio (z) = 0.13007 0.14161
#
# Static dielectric constant tensor:
#      x y z
#    x 3.281180 0.000000 0.140850 
#    y 0.000000 3.883210 0.000000 
#    z 0.140850 0.000000 3.993520 
# 
# 
# High freq. dielectric constant tensor:
#      x y z
#    x 1.863020 0.000000 0.014590 
#    y 0.000000 1.888440 0.000000 
#    z 0.014590 0.000000 1.910760 
# 
# From -- ./inp_files/263439.got.cif
#   From: 2010.06.25/outbox.cif.g09.slc.cpg/sg12_132_cif.got.tgz:263439.got - 2010.06.28 00:19:55.
