data_PCOD8114313
_publ_section_title
;
Structure prediction by ZEFSAII (Michael W. Deem and Ramdas Pophale) SiO2 
 PCOD8114313
Probable space group: C 2/M
;
_chemical_formula_sum "Si O2"
_cell_formula_units_Z 56
_cell_length_a 9.192007
_cell_length_b 29.292730
_cell_length_c 17.866844
_cell_angle_alpha 90.000000
_cell_angle_beta 143.879589
_cell_angle_gamma 90.000000
_cell_volume 2835.895206
_symmetry_space_group_name_H-M "C 2/M"
_symmetry_group_IT_number 12
_symmetry_cell_setting 'monoclinic'
loop_
_space_group_symop_operation_xyz
x,y,z
-x,y,-z
-x,-y,-z
x,-y,z
1/2+x,1/2+y,z
1/2-x,1/2+y,-z
1/2-x,1/2-y,-z
1/2+x,1/2-y,z
loop_
_atom_site_type_symbol
_atom_site_label
_atom_site_fract_x
_atom_site_fract_y
_atom_site_fract_z
Si Si1 0.553372 0.641755 0.190030
Si Si2 0.292619 0.950004 0.512831
Si Si3 0.874514 0.645396 0.593537
Si Si4 0.719311 0.789487 0.319874
Si Si5 0.378735 0.697109 0.638024
Si Si6 0.786924 0.204923 0.968592
Si Si7 0.363975 0.450488 0.712171
O O1 0.505298 0.666553 0.248667
O O2 0.497398 0.588197 0.181771
O O3 0.830272 0.648183 0.273384
O O4 0.359667 0.661252 0.049517
O O5 0.262807 0.906036 0.553954
O O6 0.573851 0.948451 0.604289
O O7 0.106956 0.943770 0.365249
O O8 0.239233 0.000000 0.528786
O O9 0.724117 0.672490 0.594271
O O10 0.826841 0.667935 0.491885
O O11 0.732521 0.741610 0.368611
O O12 0.459774 0.805064 0.178572
O O13 0.912523 0.787166 0.333194
O O14 0.750000 0.250000 0.000000
O O15 0.000000 0.216619 0.000000
O O16 0.471226 0.500000 0.781092
#
# Coordination Sequence:
#
# PCOD8114313 Si02
#       7
#     8   8   8   8   8   8   8
#     4  11  21  36  62  86 114 149 189 239 280 330
#     4   8  14  27  53  84 116 146 179 225 280 338
#     4  11  21  37  57  87 121 145 185 235 289 339
#     4  12  25  40  56  79 115 157 193 234 275 341
#     4  12  24  39  57  83 113 152 189 234 293 329
#     4  12  24  42  59  78 111 151 198 233 276 331
#     4   8  14  28  52  87 115 140 182 232 279 330
#
# _framework density 19.746849999999998
#
# number of rings (size 3 to 8) (size 9 to 14) (size 15 to 20)
#    0.000    1.429    4.286    3.857    0.000    1.143 
#    0.000    0.000    0.000    3.857    0.000    1.000 
#    0.000    0.000    0.000    0.000    0.000    0.000 
#
# Total GULP energy -347017.240883 kJ/mol
# GULP energy per Si atom -12393.472889 kJ/mol
# Density = 1.970190 g / cm^3
# Si number density = 19.746850 Si / 1000 Ang^3
#
#
#
# Elastic Constant Matrix: (Units=GPa)
#
#
# Indices 1 2 3 4 5 6 
#
# 1 72.0099 28.6963 -5.6689 0.0000 -9.7698 0.0001
# 2 28.6963 181.4650 31.9238 0.0000 -17.4959 0.0001
# 3 -5.6689 31.9238 70.2377 0.0001 -8.0008 0.0000
# 4 0.0000 0.0000 0.0001 27.5002 0.0000 -0.2520
# 5 -9.7698 -17.4959 -8.0008 0.0000 23.6471 0.0000
# 6 0.0001 0.0001 0.0000 -0.2520 0.0000 9.2218
#
#
#
# Elastic Compliance Matrix: (Units=1/GPa)
#
#
# Indices 1 2 3 4 5 6 
#
# 1 0.015908 -0.002501 0.003077 0.000000 0.005763 0.000000
# 2 -0.002501 0.006702 -0.002913 0.000000 0.002940 0.000000
# 3 0.003077 -0.002913 0.016339 0.000000 0.004644 0.000000
# 4 0.000000 0.000000 0.000000 0.036372 0.000000 0.000994
# 5 0.005763 0.002940 0.004644 0.000000 0.048416 0.000000
# 6 0.000000 0.000000 0.000000 0.000994 0.000000 0.108465
#
#
# Mechanical properties :
#
#
# Convention : Reuss Voigt Hill
#
# Bulk Modulus (GPa) = 29.17645 48.17944 38.67795
# Shear Modulus (GPa) = 20.13679 29.99127 25.06403
#
# Velocity S-wave (km/s) = 3.19681 3.90139 3.56654
# Velocity P-wave (km/s) = 5.33230 6.68924 6.04894
#
# Compressibility (1/GPa) = 0.03427421
#
# Stress axis : x y z
#
# Youngs Moduli (GPa) = 62.86188 149.20488 61.20394
#
# Poissons Ratio (x) = 0.37322 -0.18834
# Poissons Ratio (y) = 0.15724 0.17830
# Poissons Ratio (z) = -0.19344 0.43467
#
# Static dielectric constant tensor:
#      x y z
#    x 3.418120 0.000000 -0.172000 
#    y 0.000000 4.127020 0.000000 
#    z -0.172000 0.000000 3.665730 
# 
# 
# High freq. dielectric constant tensor:
#      x y z
#    x 1.753830 0.000000 -0.012330 
#    y 0.000000 1.781240 0.000000 
#    z -0.012330 0.000000 1.744960 
# 
# From -- ./inp_files/125850.got.cif
#   From: 2010.06.25/outbox.cif.g09.slc.cpg/sg12_63_cif.got.tgz:125850.got - 2010.06.28 00:19:55.
