data_PCOD8114337
_publ_section_title
;
Structure prediction by ZEFSAII (Michael W. Deem and Ramdas Pophale) SiO2 
 PCOD8114337
Probable space group: C 2/M
;
_chemical_formula_sum "Si O2"
_cell_formula_units_Z 56
_cell_length_a 14.211018
_cell_length_b 24.639111
_cell_length_c 9.588356
_cell_angle_alpha 90.000000
_cell_angle_beta 60.031432
_cell_angle_gamma 90.000000
_cell_volume 2908.455828
_symmetry_space_group_name_H-M "C 2/M"
_symmetry_group_IT_number 12
_symmetry_cell_setting 'monoclinic'
loop_
_space_group_symop_operation_xyz
x,y,z
-x,y,-z
-x,-y,-z
x,-y,z
1/2+x,1/2+y,z
1/2-x,1/2+y,-z
1/2-x,1/2-y,-z
1/2+x,1/2-y,z
loop_
_atom_site_type_symbol
_atom_site_label
_atom_site_fract_x
_atom_site_fract_y
_atom_site_fract_z
Si Si1 0.592937 0.829381 0.140149
Si Si2 0.125105 0.616575 0.632459
Si Si3 0.726474 0.115114 0.261984
Si Si4 0.947078 0.220674 0.685323
Si Si5 0.294755 0.199857 0.219293
Si Si6 0.850270 0.500000 0.721207
Si Si7 0.913708 0.811063 0.184923
Si Si8 0.582008 0.000000 0.644564
O O1 0.499613 0.872924 0.236191
O O2 0.695046 0.844474 0.159975
O O3 0.546089 0.771760 0.218380
O O4 0.624289 0.825201 0.955193
O O5 0.144380 0.623244 0.452786
O O6 0.206050 0.657268 0.652314
O O7 0.139937 0.553394 0.667009
O O8 0.847289 0.133064 0.215261
O O9 0.724840 0.053522 0.205254
O O10 0.824784 0.200450 0.757873
O O11 0.000000 0.235546 0.500000
O O12 0.024109 0.179215 0.713384
O O13 0.331600 0.259160 0.245433
O O14 0.899226 0.500000 0.532738
O O15 0.949948 0.500000 0.759327
O O16 0.000000 0.803161 0.000000
#
# Coordination Sequence:
#
# PCOD8114337 Si02
#       8
#     8   8   8   8   8   4   8   4
#     4  12  21  35  56  87 119 151 182 228 289 343
#     4  11  21  37  59  88 116 149 190 232 283 345
#     4  11  22  36  62  85 113 150 194 236 282 337
#     4  12  24  37  56  83 117 151 195 233 271 340
#     4  12  24  39  55  83 124 156 183 231 291 339
#     4   9  18  36  56  89 114 141 187 246 287 321
#     4  12  23  39  57  83 116 157 191 230 288 341
#     4   9  18  34  60  86 117 144 182 239 292 330
#
# _framework density 19.254204000000001
#
# number of rings (size 3 to 8) (size 9 to 14) (size 15 to 20)
#    0.000    0.714    5.714    3.857    0.000    1.143 
#    0.000    2.500    0.000    0.857    0.000    4.000 
#    0.000    0.000    0.000    0.000    0.000    0.000 
#
# Total GULP energy -347160.217340 kJ/mol
# GULP energy per Si atom -12398.579191 kJ/mol
# Density = 1.921038 g / cm^3
# Si number density = 19.254204 Si / 1000 Ang^3
#
#
#
# Elastic Constant Matrix: (Units=GPa)
#
#
# Indices 1 2 3 4 5 6 
#
# 1 97.4639 24.5249 -2.7252 0.0000 -4.7622 0.0000
# 2 24.5249 91.5335 6.5364 0.0000 -5.3369 0.0000
# 3 -2.7252 6.5364 47.9828 0.0000 4.8944 0.0000
# 4 0.0000 0.0000 0.0000 6.5316 0.0000 -4.9278
# 5 -4.7622 -5.3369 4.8944 0.0000 25.4622 0.0000
# 6 0.0000 0.0000 0.0000 -4.9278 0.0000 23.5788
#
#
#
# Elastic Compliance Matrix: (Units=1/GPa)
#
#
# Indices 1 2 3 4 5 6 
#
# 1 0.011093 -0.002962 0.000903 0.000000 0.001280 0.000000
# 2 -0.002962 0.012002 -0.002043 0.000000 0.002354 0.000000
# 3 0.000903 -0.002043 0.021621 0.000000 -0.004415 0.000000
# 4 0.000000 0.000000 0.000000 0.181760 0.000000 0.037987
# 5 0.001280 0.002354 -0.004415 0.000000 0.040856 0.000000
# 6 0.000000 0.000000 0.000000 0.037987 0.000000 0.050350
#
#
# Mechanical properties :
#
#
# Convention : Reuss Voigt Hill
#
# Bulk Modulus (GPa) = 27.38897 32.62803 30.00850
# Shear Modulus (GPa) = 14.79040 25.02414 19.90727
#
# Velocity S-wave (km/s) = 2.77459 3.60901 3.21895
# Velocity P-wave (km/s) = 4.95179 5.86083 5.42538
#
# Compressibility (1/GPa) = 0.03651105
#
# Stress axis : x y z
#
# Youngs Moduli (GPa) = 90.14388 83.32086 46.25172
#
# Poissons Ratio (x) = 0.24681 -0.04176
# Poissons Ratio (y) = 0.26702 0.09451
# Poissons Ratio (z) = -0.08140 0.17025
#
# Static dielectric constant tensor:
#      x y z
#    x 3.568930 0.000000 0.093410 
#    y 0.000000 3.717980 0.000000 
#    z 0.093410 0.000000 3.439940 
# 
# 
# High freq. dielectric constant tensor:
#      x y z
#    x 1.747730 0.000000 0.006850 
#    y 0.000000 1.735000 0.000000 
#    z 0.006850 0.000000 1.739620 
# 
# From -- ./inp_files/65802.got.cif
#   From: 2010.06.25/outbox.cif.g09.slc.cpg/sg12_33_cif.got.tgz:65802.got - 2010.06.28 00:19:55.
