data_PCOD8114132
_publ_section_title
;
Structure prediction by ZEFSAII (Michael W. Deem and Ramdas Pophale) SiO2 
 PCOD8114132
Probable space group: C 2/M
;
_chemical_formula_sum "Si O2"
_cell_formula_units_Z 40
_cell_length_a 27.419834
_cell_length_b 8.921923
_cell_length_c 19.226354
_cell_angle_alpha 90.000000
_cell_angle_beta 27.659412
_cell_angle_gamma 90.000000
_cell_volume 2183.429307
_symmetry_space_group_name_H-M "C 2/M"
_symmetry_group_IT_number 12
_symmetry_cell_setting 'monoclinic'
loop_
_space_group_symop_operation_xyz
x,y,z
-x,y,-z
-x,-y,-z
x,-y,z
1/2+x,1/2+y,z
1/2-x,1/2+y,-z
1/2-x,1/2-y,-z
1/2+x,1/2-y,z
loop_
_atom_site_type_symbol
_atom_site_label
_atom_site_fract_x
_atom_site_fract_y
_atom_site_fract_z
Si Si1 0.492565 0.824103 0.341787
Si Si2 0.904507 0.171413 0.913123
Si Si3 0.314031 0.676992 0.648099
Si Si4 0.833320 0.324780 0.767496
Si Si5 0.094491 0.826614 0.929261
O O1 0.525647 0.779244 0.222394
O O2 0.386000 0.738804 0.495186
O O3 0.584458 0.773794 0.278316
O O4 0.472265 0.000000 0.370815
O O5 0.922388 0.000000 0.867509
O O6 0.782415 0.216125 0.058795
O O7 0.940267 0.197365 0.947212
O O8 0.318132 0.500000 0.643681
O O9 0.358758 0.737873 0.664548
O O10 0.195842 0.729370 0.782812
O O11 0.841058 0.500000 0.739928
O O12 0.122797 0.000000 0.880010
O O13 0.000000 0.771380 0.000000
#
# Coordination Sequence:
#
# PCOD8114132 Si02
#       5
#     8   8   8   8   8
#     4  11  21  33  51  76 109 145 177 211 255 306
#     4   9  18  33  53  79 107 133 169 215 261 309
#     4  11  22  34  52  79 108 137 174 218 259 304
#     4   9  19  35  53  74 105 145 181 212 251 305
#     4   9  19  39  63  80  99 132 171 213 264 318
#
# _framework density 18.319804000000001
#
# number of rings (size 3 to 8) (size 9 to 14) (size 15 to 20)
#    0.000    2.200    0.000    4.800    0.000    7.600 
#    0.000    1.000    0.000    0.000    0.000    0.000 
#    0.000    0.000    0.000    0.000    0.000    0.000 
#
# Total GULP energy -248091.738147 kJ/mol
# GULP energy per Si atom -12404.586907 kJ/mol
# Density = 1.827811 g / cm^3
# Si number density = 18.319804 Si / 1000 Ang^3
#
#
#
# Elastic Constant Matrix: (Units=GPa)
#
#
# Indices 1 2 3 4 5 6 
#
# 1 96.3072 32.8255 46.2412 0.0021 -6.3640 -0.0006
# 2 32.8255 85.3030 52.8958 0.0060 4.6942 -0.0011
# 3 46.2412 52.8958 115.0489 0.0124 14.5993 -0.0031
# 4 0.0021 0.0060 0.0124 34.0436 -0.0010 6.5061
# 5 -6.3640 4.6942 14.5993 -0.0010 16.3815 -0.0011
# 6 -0.0006 -0.0011 -0.0031 6.5061 -0.0011 21.9844
#
#
#
# Elastic Compliance Matrix: (Units=1/GPa)
#
#
# Indices 1 2 3 4 5 6 
#
# 1 0.015193 -0.002469 -0.006551 0.000002 0.012448 -0.000001
# 2 -0.002469 0.016875 -0.006800 0.000000 0.000265 0.000000
# 3 -0.006551 -0.006800 0.016379 -0.000005 -0.015194 0.000003
# 4 0.000002 0.000000 -0.000005 0.031135 0.000007 -0.009214
# 5 0.012448 0.000265 -0.015194 0.000007 0.079345 0.000000
# 6 -0.000001 0.000000 0.000003 -0.009214 0.000000 0.048214
#
#
# Mechanical properties :
#
#
# Convention : Reuss Voigt Hill
#
# Bulk Modulus (GPa) = 59.49708 62.28712 60.89210
# Shear Modulus (GPa) = 20.45969 25.46167 22.96068
#
# Velocity S-wave (km/s) = 3.34549 3.73211 3.54407
# Velocity P-wave (km/s) = 6.88988 7.25570 7.07516
#
# Compressibility (1/GPa) = 0.01680755
#
# Stress axis : x y z
#
# Youngs Moduli (GPa) = 65.82004 59.25915 61.05305
#
# Poissons Ratio (x) = 0.14633 0.39994
# Poissons Ratio (y) = 0.16253 0.41515
# Poissons Ratio (z) = 0.43117 0.40295
#
# Static dielectric constant tensor:
#      x y z
#    x 3.341020 0.000000 -0.025190 
#    y 0.000000 3.267590 0.000000 
#    z -0.025190 0.000000 3.346500 
# 
# 
# High freq. dielectric constant tensor:
#      x y z
#    x 1.696510 0.000000 0.003250 
#    y 0.000000 1.707670 0.000000 
#    z 0.003250 0.000000 1.712860 
# 
# From -- ./inp_files/151745.got.cif
#   From: 2010.06.25/outbox.cif.g09.slc.cpg/sg12_76_cif.got.tgz:151745.got - 2010.06.28 00:19:55.
