data_PCOD8114975
_publ_section_title
;
Structure prediction by ZEFSAII (Michael W. Deem and Ramdas Pophale) SiO2 
 PCOD8114975
Probable space group: C 2/M
;
_chemical_formula_sum "Si O2"
_cell_formula_units_Z 56
_cell_length_a 15.003208
_cell_length_b 8.583166
_cell_length_c 24.151807
_cell_angle_alpha 90.000000
_cell_angle_beta 62.099712
_cell_angle_gamma 90.000000
_cell_volume 2748.635957
_symmetry_space_group_name_H-M "C 2/M"
_symmetry_group_IT_number 12
_symmetry_cell_setting 'monoclinic'
loop_
_space_group_symop_operation_xyz
x,y,z
-x,y,-z
-x,-y,-z
x,-y,z
1/2+x,1/2+y,z
1/2-x,1/2+y,-z
1/2-x,1/2-y,-z
1/2+x,1/2-y,z
loop_
_atom_site_type_symbol
_atom_site_label
_atom_site_fract_x
_atom_site_fract_y
_atom_site_fract_z
Si Si1 0.075995 0.318238 0.930453
Si Si2 0.932325 0.675758 0.806987
Si Si3 0.389507 0.321282 0.193196
Si Si4 0.676606 0.317964 0.264256
Si Si5 0.649708 0.315712 0.499920
Si Si6 0.428957 0.315313 0.594092
Si Si7 0.755318 0.678463 0.938190
O O1 0.060603 0.500000 0.922501
O O2 0.056877 0.222524 0.880209
O O3 0.188909 0.284611 0.917184
O O4 0.000000 0.259237 0.000000
O O5 0.971063 0.500000 0.787760
O O6 0.865677 0.721610 0.774367
O O7 0.868163 0.687459 0.882187
O O8 0.028088 0.789979 0.783135
O O9 0.355111 0.500000 0.203473
O O10 0.295407 0.210981 0.233054
O O11 0.655504 0.500000 0.261920
O O12 0.624437 0.253083 0.335103
O O13 0.659952 0.500000 0.499187
O O14 0.750000 0.250000 0.500000
O O15 0.546194 0.259718 0.560381
O O16 0.635820 0.256268 0.440340
O O17 0.428275 0.500000 0.591818
O O18 0.716565 0.500000 0.950174
O O19 0.750000 0.750000 0.000000
#
# Coordination Sequence:
#
# PCOD8114975 Si02
#       7
#     8   8   8   8   8   8   8
#     4  11  23  39  60  86 116 150 193 247 308 368
#     4  11  24  42  61  86 118 156 200 250 305 365
#     4  12  25  41  61  87 118 158 202 248 305 366
#     4  11  22  40  64  89 121 162 206 253 306 362
#     4   9  17  35  60  88 124 160 200 246 292 348
#     4   8  18  36  59  86 120 163 201 240 297 358
#     4  11  23  38  59  85 116 150 194 247 307 368
#
# _framework density 20.373740999999999
#
# number of rings (size 3 to 8) (size 9 to 14) (size 15 to 20)
#    0.000    1.571    1.429    4.714    0.000    7.429 
#    0.000    7.143    0.000    0.000    0.000    0.000 
#    0.000    0.000    0.000    0.000    0.000    0.000 
#
# Total GULP energy -347208.862716 kJ/mol
# GULP energy per Si atom -12400.316526 kJ/mol
# Density = 2.032737 g / cm^3
# Si number density = 20.373741 Si / 1000 Ang^3
#
#
#
# Elastic Constant Matrix: (Units=GPa)
#
#
# Indices 1 2 3 4 5 6 
#
# 1 132.4760 19.1197 40.6769 0.0000 -3.5840 0.0000
# 2 19.1197 59.3858 30.1863 0.0000 2.6013 0.0001
# 3 40.6769 30.1863 128.6653 0.0000 -1.2858 0.0000
# 4 0.0000 0.0000 0.0000 17.5399 0.0000 -0.1748
# 5 -3.5840 2.6013 -1.2858 0.0000 20.8757 0.0000
# 6 0.0000 0.0001 0.0000 -0.1748 0.0000 34.7514
#
#
#
# Elastic Compliance Matrix: (Units=1/GPa)
#
#
# Indices 1 2 3 4 5 6 
#
# 1 0.008533 -0.001647 -0.002296 0.000000 0.001529 0.000000
# 2 -0.001647 0.019586 -0.004104 0.000000 -0.002976 0.000000
# 3 -0.002296 -0.004104 0.009468 0.000000 0.000700 0.000000
# 4 0.000000 0.000000 0.000000 0.057016 0.000000 0.000287
# 5 0.001529 -0.002976 0.000700 0.000000 0.048579 0.000000
# 6 0.000000 0.000000 0.000000 0.000287 0.000000 0.028777
#
#
# Mechanical properties :
#
#
# Convention : Reuss Voigt Hill
#
# Bulk Modulus (GPa) = 46.52854 55.61033 51.06944
# Shear Modulus (GPa) = 25.61264 30.00301 27.80782
#
# Velocity S-wave (km/s) = 3.54946 3.84165 3.69844
# Velocity P-wave (km/s) = 6.29963 6.85799 6.58473
#
# Compressibility (1/GPa) = 0.02149218
#
# Stress axis : x y z
#
# Youngs Moduli (GPa) = 117.19824 51.05725 105.62138
#
# Poissons Ratio (x) = 0.08410 0.24249
# Poissons Ratio (y) = 0.19304 0.43348
# Poissons Ratio (z) = 0.26907 0.20954
#
# Static dielectric constant tensor:
#      x y z
#    x 3.522590 0.000000 -0.376010 
#    y 0.000000 3.610570 0.000000 
#    z -0.376010 0.000000 3.755640 
# 
# 
# High freq. dielectric constant tensor:
#      x y z
#    x 1.805350 0.000000 0.000590 
#    y 0.000000 1.784420 0.000000 
#    z 0.000590 0.000000 1.793430 
# 
# From -- ./inp_files/338501.got.cif
#   From: 2010.06.25/outbox.cif.g09.slc.cpg/sg12_170_cif.got.tgz:338501.got - 2010.06.28 00:19:55.
