data_PCOD8114592
_publ_section_title
;
Structure prediction by ZEFSAII (Michael W. Deem and Ramdas Pophale) SiO2 
 PCOD8114592
Probable space group: C 2/M
;
_chemical_formula_sum "Si O2"
_cell_formula_units_Z 64
_cell_length_a 27.739790
_cell_length_b 9.353049
_cell_length_c 22.349980
_cell_angle_alpha 90.000000
_cell_angle_beta 38.140748
_cell_angle_gamma 90.000000
_cell_volume 3581.274033
_symmetry_space_group_name_H-M "C 2/M"
_symmetry_group_IT_number 12
_symmetry_cell_setting 'monoclinic'
loop_
_space_group_symop_operation_xyz
x,y,z
-x,y,-z
-x,-y,-z
x,-y,z
1/2+x,1/2+y,z
1/2-x,1/2+y,-z
1/2-x,1/2-y,-z
1/2+x,1/2-y,z
loop_
_atom_site_type_symbol
_atom_site_label
_atom_site_fract_x
_atom_site_fract_y
_atom_site_fract_z
Si Si1 0.663489 0.164677 0.804226
Si Si2 0.638246 0.337982 0.944123
Si Si3 0.529918 0.666807 0.602581
Si Si4 0.180717 0.832971 0.036205
Si Si5 0.989857 0.168256 0.771800
Si Si6 0.960477 0.164367 0.150863
Si Si7 0.429919 0.839713 0.614843
Si Si8 0.662403 0.663077 0.383076
O O1 0.599394 0.242086 0.827536
O O2 0.746863 0.182015 0.689693
O O3 0.639796 0.000000 0.833831
O O4 0.670888 0.230408 0.862938
O O5 0.657115 0.500000 0.906024
O O6 0.680855 0.302934 0.964990
O O7 0.545475 0.318705 0.039335
O O8 0.510354 0.500000 0.614336
O O9 0.536313 0.709196 0.666201
O O10 0.457292 0.754085 0.646546
O O11 0.611449 0.707596 0.490996
O O12 0.098979 0.773758 0.143168
O O13 0.191649 0.000000 0.038865
O O14 0.250000 0.750000 0.000000
O O15 0.037486 0.225459 0.782943
O O16 0.982197 0.000000 0.789502
O O17 0.932681 0.000000 0.175441
O O18 0.500000 0.841811 0.500000
O O19 0.357239 0.760886 0.654950
O O20 0.404817 0.000000 0.657694
O O21 0.642726 0.500000 0.384508
#
# Coordination Sequence:
#
# PCOD8114592 Si02
#       8
#     8   8   8   8   8   8   8   8
#     4  11  22  33  48  73 101 126 158 203 247 283
#     4   9  19  35  53  72  96 129 164 195 235 292
#     4   9  16  31  54  72  92 128 167 196 230 283
#     4   9  18  33  51  74 103 128 155 194 237 281
#     4   8  16  32  54  74  91 122 166 200 228 280
#     4   9  18  35  55  72  93 123 161 201 242 291
#     4   9  17  29  46  69  96 124 157 198 238 275
#     4   9  19  33  47  68  99 131 161 195 237 285
#
# _framework density 17.870735
#
# number of rings (size 3 to 8) (size 9 to 14) (size 15 to 20)
#    0.000    2.875    0.000    2.625    0.000    6.000 
#    0.000    7.500    0.000    0.000    0.000    0.000 
#    0.000    0.000    0.000    0.000    0.000    0.000 
#
# Total GULP energy -396721.931724 kJ/mol
# GULP energy per Si atom -12397.560366 kJ/mol
# Density = 1.783006 g / cm^3
# Si number density = 17.870735 Si / 1000 Ang^3
#
#
#
# Elastic Constant Matrix: (Units=GPa)
#
#
# Indices 1 2 3 4 5 6 
#
# 1 122.0160 59.4294 52.2382 0.0042 0.9108 -0.0030
# 2 59.4294 84.8406 40.6836 0.0117 2.1253 -0.0081
# 3 52.2382 40.6836 80.2033 0.0129 11.6743 -0.0076
# 4 0.0042 0.0117 0.0129 19.5565 -0.0038 -3.1231
# 5 0.9108 2.1253 11.6743 -0.0038 24.9160 0.0022
# 6 -0.0030 -0.0081 -0.0076 -3.1231 0.0022 26.8472
#
#
#
# Elastic Compliance Matrix: (Units=1/GPa)
#
#
# Indices 1 2 3 4 5 6 
#
# 1 0.014261 -0.007141 -0.006095 0.000006 0.002943 -0.000002
# 2 -0.007141 0.019303 -0.005301 -0.000006 0.001098 0.000003
# 3 -0.006095 -0.005301 0.020421 -0.000010 -0.008893 0.000003
# 4 0.000006 -0.000006 -0.000010 0.052102 0.000013 0.006061
# 5 0.002943 0.001098 -0.008893 0.000013 0.044101 -0.000004
# 6 -0.000002 0.000003 0.000003 0.006061 -0.000004 0.037953
#
#
# Mechanical properties :
#
#
# Convention : Reuss Voigt Hill
#
# Bulk Modulus (GPa) = 59.12531 65.75135 62.43833
# Shear Modulus (GPa) = 21.65907 23.24451 22.45179
#
# Velocity S-wave (km/s) = 3.48514 3.61044 3.54834
# Velocity P-wave (km/s) = 7.02508 7.36566 7.19738
#
# Compressibility (1/GPa) = 0.01691323
#
# Stress axis : x y z
#
# Youngs Moduli (GPa) = 70.12160 51.80549 48.96871
#
# Poissons Ratio (x) = 0.36993 0.29845
# Poissons Ratio (y) = 0.50071 0.25956
# Poissons Ratio (z) = 0.42737 0.27460
#
# Static dielectric constant tensor:
#      x y z
#    x 3.266340 -0.000010 0.100650 
#    y -0.000010 3.255950 0.000010 
#    z 0.100650 0.000010 3.266560 
# 
# 
# High freq. dielectric constant tensor:
#      x y z
#    x 1.688790 0.000000 0.004170 
#    y 0.000000 1.679140 0.000000 
#    z 0.004170 0.000000 1.682670 
# 
# From -- ./inp_files/324140.got.cif
#   From: 2010.06.25/outbox.cif.g09.slc.cpg/sg12_163_cif.got.tgz:324140.got - 2010.06.28 00:19:55.
