data_PCOD8114722
_publ_section_title
;
Structure prediction by ZEFSAII (Michael W. Deem and Ramdas Pophale) SiO2 
 PCOD8114722
Probable space group: C 2/M
;
_chemical_formula_sum "Si O2"
_cell_formula_units_Z 56
_cell_length_a 16.333484
_cell_length_b 8.704636
_cell_length_c 23.105876
_cell_angle_alpha 90.000000
_cell_angle_beta 121.859630
_cell_angle_gamma 90.000000
_cell_volume 2790.200487
_symmetry_space_group_name_H-M "C 2/M"
_symmetry_group_IT_number 12
_symmetry_cell_setting 'monoclinic'
loop_
_space_group_symop_operation_xyz
x,y,z
-x,y,-z
-x,-y,-z
x,-y,z
1/2+x,1/2+y,z
1/2-x,1/2+y,-z
1/2-x,1/2-y,-z
1/2+x,1/2-y,z
loop_
_atom_site_type_symbol
_atom_site_label
_atom_site_fract_x
_atom_site_fract_y
_atom_site_fract_z
Si Si1 0.519358 0.323349 0.071507
Si Si2 0.309586 0.174848 0.798185
Si Si3 0.707587 0.180723 0.656733
Si Si4 0.845687 0.323694 0.059979
Si Si5 0.848501 0.669870 0.196761
Si Si6 0.484137 0.176679 0.348770
Si Si7 0.804906 0.182133 0.574592
O O1 0.553422 0.500000 0.083472
O O2 0.593677 0.220138 0.133697
O O3 0.420131 0.301451 0.066360
O O4 0.500000 0.260929 0.000000
O O5 0.289019 0.274032 0.733478
O O6 0.225368 0.198216 0.813200
O O7 0.316067 0.000000 0.780858
O O8 0.600413 0.239271 0.638095
O O9 0.746531 0.244929 0.609587
O O10 0.701312 0.000000 0.651401
O O11 0.857777 0.500000 0.042082
O O12 0.861046 0.321183 0.133801
O O13 0.750000 0.250000 0.000000
O O14 0.807973 0.500000 0.198895
O O15 0.947795 0.694997 0.268928
O O16 0.583075 0.270533 0.388650
O O17 0.507236 0.000000 0.372527
O O18 0.750000 0.250000 0.500000
O O19 0.800769 0.000000 0.571996
#
# Coordination Sequence:
#
# PCOD8114722 Si02
#       7
#     8   8   8   8   8   8   8
#     4  11  24  40  57  79 113 157 199 245 302 359
#     4  11  22  36  60  90 117 149 196 250 299 354
#     4   9  21  42  64  88 123 168 206 244 306 376
#     4  11  23  38  57  84 115 153 199 246 300 358
#     4   9  20  39  60  83 117 156 193 239 303 365
#     4   9  19  39  64  88 120 161 205 251 303 365
#     4  11  24  41  63  93 126 162 205 253 306 368
#
# _framework density 20.070243000000001
#
# number of rings (size 3 to 8) (size 9 to 14) (size 15 to 20)
#    0.000    1.857    0.000    4.286    2.000    9.714 
#    0.000    2.857    0.000    0.000    0.000    0.000 
#    0.000    0.000    0.000    0.000    0.000    0.000 
#
# Total GULP energy -346975.976305 kJ/mol
# GULP energy per Si atom -12391.999154 kJ/mol
# Density = 2.002456 g / cm^3
# Si number density = 20.070243 Si / 1000 Ang^3
#
#
#
# Elastic Constant Matrix: (Units=GPa)
#
#
# Indices 1 2 3 4 5 6 
#
# 1 119.9873 33.4993 79.2530 0.0000 1.8962 0.0000
# 2 33.4993 39.2438 23.2762 0.0000 2.2886 0.0000
# 3 79.2530 23.2762 131.7130 0.0000 1.9240 0.0000
# 4 0.0000 0.0000 0.0000 37.7462 0.0000 1.9736
# 5 1.8962 2.2886 1.9240 0.0000 35.2437 0.0000
# 6 0.0000 0.0000 0.0000 1.9736 0.0000 34.6951
#
#
#
# Elastic Compliance Matrix: (Units=1/GPa)
#
#
# Indices 1 2 3 4 5 6 
#
# 1 0.016266 -0.009035 -0.008193 0.000000 0.000159 0.000000
# 2 -0.009035 0.033571 -0.000472 0.000000 -0.001668 0.000000
# 3 -0.008193 -0.000472 0.012609 0.000000 -0.000217 0.000000
# 4 0.000000 0.000000 0.000000 0.026572 0.000000 -0.001512
# 5 0.000159 -0.001668 -0.000217 0.000000 0.028485 0.000000
# 6 0.000000 0.000000 0.000000 -0.001512 0.000000 0.028909
#
#
# Mechanical properties :
#
#
# Convention : Reuss Voigt Hill
#
# Bulk Modulus (GPa) = 36.97379 62.55569 49.76474
# Shear Modulus (GPa) = 26.20194 31.86470 29.03332
#
# Velocity S-wave (km/s) = 3.61711 3.98887 3.80753
# Velocity P-wave (km/s) = 5.99223 7.24229 6.64671
#
# Compressibility (1/GPa) = 0.02704618
#
# Stress axis : x y z
#
# Youngs Moduli (GPa) = 61.47958 29.78751 79.31089
#
# Poissons Ratio (x) = 0.26912 0.64979
# Poissons Ratio (y) = 0.55544 0.03744
# Poissons Ratio (z) = 0.50370 0.01406
#
# Static dielectric constant tensor:
#      x y z
#    x 3.781990 0.000000 -0.237670 
#    y 0.000000 3.686850 0.000000 
#    z -0.237670 0.000000 3.664680 
# 
# 
# High freq. dielectric constant tensor:
#      x y z
#    x 1.785110 0.000000 0.000130 
#    y 0.000000 1.777980 0.000000 
#    z 0.000130 0.000000 1.793110 
# 
# From -- ./inp_files/339027.got.cif
#   From: 2010.06.25/outbox.cif.g09.slc.cpg/sg12_170_cif.got.tgz:339027.got - 2010.06.28 00:19:55.
