data_PCOD8114963
_publ_section_title
;
Structure prediction by ZEFSAII (Michael W. Deem and Ramdas Pophale) SiO2 
 PCOD8114963
Probable space group: C 2/M
;
_chemical_formula_sum "Si O2"
_cell_formula_units_Z 48
_cell_length_a 8.929825
_cell_length_b 23.136964
_cell_length_c 11.732208
_cell_angle_alpha 90.000000
_cell_angle_beta 107.444427
_cell_angle_gamma 90.000000
_cell_volume 2312.496931
_symmetry_space_group_name_H-M "C 2/M"
_symmetry_group_IT_number 12
_symmetry_cell_setting 'monoclinic'
loop_
_space_group_symop_operation_xyz
x,y,z
-x,y,-z
-x,-y,-z
x,-y,z
1/2+x,1/2+y,z
1/2-x,1/2+y,-z
1/2-x,1/2-y,-z
1/2+x,1/2-y,z
loop_
_atom_site_type_symbol
_atom_site_label
_atom_site_fract_x
_atom_site_fract_y
_atom_site_fract_z
Si Si1 0.445371 0.607659 0.613278
Si Si2 0.760214 0.000000 0.964992
Si Si3 0.230693 0.211402 0.172794
Si Si4 0.976713 0.000000 0.792478
Si Si5 0.104518 0.176502 0.831573
Si Si6 0.182089 0.697398 0.557657
Si Si7 0.655665 0.879239 0.971069
O O1 0.500000 0.587402 0.500000
O O2 0.445140 0.555301 0.703597
O O3 0.559873 0.657299 0.692634
O O4 0.274754 0.636993 0.559301
O O5 0.644268 0.054478 0.930466
O O6 0.861740 0.000000 0.873450
O O7 0.853113 0.000000 0.108012
O O8 0.264590 0.273549 0.124831
O O9 0.302869 0.219067 0.312019
O O10 0.327371 0.160891 0.134818
O O11 0.047208 0.196773 0.132311
O O12 0.186737 0.123614 0.915360
O O13 0.250000 0.750000 0.500000
O O14 0.000000 0.684322 0.500000
O O15 0.500000 0.859795 0.000000
#
# Coordination Sequence:
#
# PCOD8114963 Si02
#       7
#     8   4   8   4   8   8   8
#     4  11  23  41  68  97 130 169 216 262 321 382
#     4  11  23  44  70  88 125 165 224 265 326 380
#     4  11  23  38  63  93 131 171 213 261 321 380
#     4  11  23  44  71  94 121 169 219 272 315 387
#     4  11  22  40  61  94 130 174 210 261 321 377
#     4  11  22  40  64  95 131 172 215 259 317 381
#     4  12  25  41  63  94 128 166 215 270 322 385
#
# _framework density 20.756785000000001
#
# number of rings (size 3 to 8) (size 9 to 14) (size 15 to 20)
#    0.000    0.833    1.667    8.000    2.333    1.333 
#    0.000    0.417    0.000    0.000    0.000    0.000 
#    0.000    0.000    0.000    0.000    0.000    0.000 
#
# Total GULP energy -297499.469980 kJ/mol
# GULP energy per Si atom -12395.811249 kJ/mol
# Density = 2.070954 g / cm^3
# Si number density = 20.756785 Si / 1000 Ang^3
#
#
#
# Elastic Constant Matrix: (Units=GPa)
#
#
# Indices 1 2 3 4 5 6 
#
# 1 122.7420 48.8624 50.3008 0.0000 0.2222 0.0000
# 2 48.8624 129.4874 47.9777 0.0000 -8.0098 0.0000
# 3 50.3008 47.9777 113.3674 0.0000 -12.9125 0.0000
# 4 0.0000 0.0000 0.0000 37.1081 0.0000 -4.9345
# 5 0.2222 -8.0098 -12.9125 0.0000 34.7019 0.0000
# 6 0.0000 0.0000 0.0000 -4.9345 0.0000 33.2638
#
#
#
# Elastic Compliance Matrix: (Units=1/GPa)
#
#
# Indices 1 2 3 4 5 6 
#
# 1 0.010852 -0.002791 -0.003880 0.000000 -0.002157 0.000000
# 2 -0.002791 0.009893 -0.002805 0.000000 0.001258 0.000000
# 3 -0.003880 -0.002805 0.012174 0.000000 0.003907 0.000000
# 4 0.000000 0.000000 0.000000 0.027491 0.000000 0.004078
# 5 -0.002157 0.001258 0.003907 0.000000 0.030575 0.000000
# 6 0.000000 0.000000 0.000000 0.004078 0.000000 0.030668
#
#
# Mechanical properties :
#
#
# Convention : Reuss Voigt Hill
#
# Bulk Modulus (GPa) = 71.59204 73.31983 72.45594
# Shear Modulus (GPa) = 34.42094 35.57849 34.99972
#
# Velocity S-wave (km/s) = 4.07664 4.14462 4.11077
# Velocity P-wave (km/s) = 7.53156 7.63569 7.58381
#
# Compressibility (1/GPa) = 0.01396803
#
# Stress axis : x y z
#
# Youngs Moduli (GPa) = 92.14864 101.08008 82.13913
#
# Poissons Ratio (x) = 0.28212 0.31866
# Poissons Ratio (y) = 0.25719 0.23042
# Poissons Ratio (z) = 0.35749 0.28355
#
# Static dielectric constant tensor:
#      x y z
#    x 3.674940 0.000000 -0.092450 
#    y 0.000000 3.842250 0.000000 
#    z -0.092450 0.000000 3.819060 
# 
# 
# High freq. dielectric constant tensor:
#      x y z
#    x 1.808770 0.000000 -0.008110 
#    y 0.000000 1.822460 0.000000 
#    z -0.008110 0.000000 1.821520 
# 
# From -- ./inp_files/122461.got.cif
#   From: 2010.06.25/outbox.cif.g09.slc.cpg/sg12_62_cif.got.tgz:122461.got - 2010.06.28 00:19:55.
