data_PCOD8114867
_publ_section_title
;
Structure prediction by ZEFSAII (Michael W. Deem and Ramdas Pophale) SiO2 
 PCOD8114867
Probable space group: C 2/M
;
_chemical_formula_sum "Si O2"
_cell_formula_units_Z 48
_cell_length_a 28.599067
_cell_length_b 15.592488
_cell_length_c 13.747086
_cell_angle_alpha 90.000000
_cell_angle_beta 158.597257
_cell_angle_gamma 90.000000
_cell_volume 2237.057851
_symmetry_space_group_name_H-M "C 2/M"
_symmetry_group_IT_number 12
_symmetry_cell_setting 'monoclinic'
loop_
_space_group_symop_operation_xyz
x,y,z
-x,y,-z
-x,-y,-z
x,-y,z
1/2+x,1/2+y,z
1/2-x,1/2+y,-z
1/2-x,1/2-y,-z
1/2+x,1/2-y,z
loop_
_atom_site_type_symbol
_atom_site_label
_atom_site_fract_x
_atom_site_fract_y
_atom_site_fract_z
Si Si1 0.679099 0.404248 0.921826
Si Si2 0.939816 0.659136 0.490140
Si Si3 0.494953 0.902508 0.801689
Si Si4 0.284909 0.403079 0.394751
Si Si5 0.617591 0.749726 0.300049
Si Si6 0.083651 0.148076 0.535981
O O1 0.724754 0.500000 0.985422
O O2 0.545559 0.408399 0.722106
O O3 0.653239 0.351288 0.774422
O O4 0.787879 0.357353 0.194050
O O5 0.999893 0.602334 0.693288
O O6 0.961498 0.755085 0.569542
O O7 0.000000 0.638718 0.500000
O O8 0.396108 0.834594 0.658417
O O9 0.453879 0.000000 0.749729
O O10 0.634602 0.882541 0.118042
O O11 0.314967 0.500000 0.487514
O O12 0.379389 0.337134 0.631241
O O13 0.313331 0.391860 0.336311
O O14 0.750000 0.750000 0.500000
O O15 0.500000 0.742813 0.000000
#
# Coordination Sequence:
#
# PCOD8114867 Si02
#       6
#     8   8   8   8   8   8
#     4  11  23  38  58  92 133 178 230 282 337 398
#     4  12  24  39  66  99 137 183 235 281 335 410
#     4  11  26  46  71 103 143 188 229 284 354 423
#     4  11  24  44  72 103 137 178 231 286 353 425
#     4  12  26  48  77 105 138 180 230 293 357 420
#     4  11  22  38  64  91 132 183 228 279 343 404
#
# _framework density 21.456754
#
# number of rings (size 3 to 8) (size 9 to 14) (size 15 to 20)
#    0.000    0.667    5.000    4.000    2.333    5.333 
#    0.000    1.667    0.000    0.000    0.000    0.000 
#    0.000    0.000    0.000    0.000    0.000    0.000 
#
# Total GULP energy -297592.480979 kJ/mol
# GULP energy per Si atom -12399.686707 kJ/mol
# Density = 2.140792 g / cm^3
# Si number density = 21.456754 Si / 1000 Ang^3
#
#
#
# Elastic Constant Matrix: (Units=GPa)
#
#
# Indices 1 2 3 4 5 6 
#
# 1 90.5047 49.0928 38.9697 0.0000 10.9777 0.0000
# 2 49.0928 145.1143 45.1648 0.0000 0.2195 0.0000
# 3 38.9697 45.1648 104.9564 0.0000 -9.5741 0.0000
# 4 0.0000 0.0000 0.0000 32.4261 0.0000 4.6038
# 5 10.9777 0.2195 -9.5741 0.0000 32.9335 0.0000
# 6 0.0000 0.0000 0.0000 4.6038 0.0000 20.5688
#
#
#
# Elastic Compliance Matrix: (Units=1/GPa)
#
#
# Indices 1 2 3 4 5 6 
#
# 1 0.016108 -0.003909 -0.004916 0.000000 -0.006772 0.000000
# 2 -0.003909 0.008943 -0.002346 0.000000 0.000561 0.000000
# 3 -0.004916 -0.002346 0.012854 0.000000 0.005391 0.000000
# 4 0.000000 0.000000 0.000000 0.031852 0.000000 -0.007129
# 5 -0.006772 0.000561 0.005391 0.000000 0.034185 0.000000
# 6 0.000000 0.000000 0.000000 -0.007129 0.000000 0.050213
#
#
# Mechanical properties :
#
#
# Convention : Reuss Voigt Hill
#
# Bulk Modulus (GPa) = 64.25530 67.44778 65.85154
# Shear Modulus (GPa) = 27.52020 31.00887 29.26454
#
# Velocity S-wave (km/s) = 3.58521 3.80568 3.69709
# Velocity P-wave (km/s) = 6.86657 7.12835 6.99868
#
# Compressibility (1/GPa) = 0.01556292
#
# Stress axis : x y z
#
# Youngs Moduli (GPa) = 62.08135 111.82257 77.79442
#
# Poissons Ratio (x) = 0.43711 0.38247
# Poissons Ratio (y) = 0.24267 0.18248
# Poissons Ratio (z) = 0.30522 0.26230
#
# Static dielectric constant tensor:
#      x y z
#    x 3.886260 0.000000 0.055050 
#    y 0.000000 4.001640 0.000000 
#    z 0.055050 0.000000 3.519950 
# 
# 
# High freq. dielectric constant tensor:
#      x y z
#    x 1.832210 0.000000 0.004500 
#    y 0.000000 1.855670 0.000000 
#    z 0.004500 0.000000 1.839330 
# 
# From -- ./inp_files/251495.got.cif
#   From: 2010.06.25/outbox.cif.g09.slc.cpg/sg12_126_cif.got.tgz:251495.got - 2010.06.28 00:19:55.
