data_PCOD8114113
_publ_section_title
;
Structure prediction by ZEFSAII (Michael W. Deem and Ramdas Pophale) SiO2 
 PCOD8114113
Probable space group: C 2/M
;
_chemical_formula_sum "Si O2"
_cell_formula_units_Z 48
_cell_length_a 19.140837
_cell_length_b 9.142895
_cell_length_c 20.824801
_cell_angle_alpha 90.000000
_cell_angle_beta 131.025490
_cell_angle_gamma 90.000000
_cell_volume 2749.396332
_symmetry_space_group_name_H-M "C 2/M"
_symmetry_group_IT_number 12
_symmetry_cell_setting 'monoclinic'
loop_
_space_group_symop_operation_xyz
x,y,z
-x,y,-z
-x,-y,-z
x,-y,z
1/2+x,1/2+y,z
1/2-x,1/2+y,-z
1/2-x,1/2-y,-z
1/2+x,1/2-y,z
loop_
_atom_site_type_symbol
_atom_site_label
_atom_site_fract_x
_atom_site_fract_y
_atom_site_fract_z
Si Si1 0.991648 0.834625 0.599037
Si Si2 0.231109 0.840025 0.256251
Si Si3 0.385576 0.836139 0.240800
Si Si4 0.392640 0.672249 0.929236
Si Si5 0.351253 0.662777 0.413113
Si Si6 0.752137 0.175593 0.069914
O O1 0.900404 0.771778 0.506989
O O2 0.017616 0.732148 0.675076
O O3 0.076077 0.836560 0.600545
O O4 0.973752 0.000000 0.612480
O O5 0.314169 0.843753 0.255824
O O6 0.140713 0.782541 0.162951
O O7 0.258264 0.746395 0.335222
O O8 0.210619 0.000000 0.271436
O O9 0.345097 0.731535 0.161170
O O10 0.404077 0.000000 0.225248
O O11 0.370532 0.500000 0.928099
O O12 0.339386 0.771117 0.948366
O O13 0.500000 0.707800 0.000000
O O14 0.319032 0.500000 0.409590
O O15 0.753725 0.000000 0.066241
O O16 0.750000 0.250000 0.000000
#
# Coordination Sequence:
#
# PCOD8114113 Si02
#       6
#     8   8   8   8   8   8
#     4   8  13  21  32  49  74 106 141 174 213 259
#     4   8  14  23  36  55  79 109 143 177 216 262
#     4   9  16  26  39  57  81 110 144 180 222 267
#     4   9  18  33  50  68  93 123 154 190 232 275
#     4   8  13  20  31  48  74 107 140 174 212 257
#     4  11  21  33  49  68  92 121 155 192 230 273
#
# _framework density 17.458378
#
# number of rings (size 3 to 8) (size 9 to 14) (size 15 to 20)
#    0.000    3.167    0.000    4.000    0.000    5.000 
#    0.000    3.333    0.000    0.000    0.000    0.000 
#    0.000    1.333    0.000    4.000    0.000   11.500 
#
# Total GULP energy -297338.554731 kJ/mol
# GULP energy per Si atom -12389.106447 kJ/mol
# Density = 1.741864 g / cm^3
# Si number density = 17.458378 Si / 1000 Ang^3
#
#
#
# Elastic Constant Matrix: (Units=GPa)
#
#
# Indices 1 2 3 4 5 6 
#
# 1 19.7600 27.2361 40.2645 0.0000 4.4229 0.0000
# 2 27.2361 120.0612 84.9617 0.0000 2.6009 0.0000
# 3 40.2645 84.9617 189.8393 0.0000 19.5461 0.0000
# 4 0.0000 0.0000 0.0000 36.9443 0.0000 -0.1150
# 5 4.4229 2.6009 19.5461 0.0000 17.5495 0.0000
# 6 0.0000 0.0000 0.0000 -0.1150 0.0000 11.7357
#
#
#
# Elastic Compliance Matrix: (Units=1/GPa)
#
#
# Indices 1 2 3 4 5 6 
#
# 1 0.098789 -0.011573 -0.015121 0.000000 -0.006341 0.000000
# 2 -0.011573 0.013918 -0.004362 0.000000 0.005713 0.000000
# 3 -0.015121 -0.004362 0.011259 0.000000 -0.008083 0.000000
# 4 0.000000 0.000000 0.000000 0.027069 0.000000 0.000265
# 5 -0.006341 0.005713 -0.008083 0.000000 0.066736 0.000000
# 6 0.000000 0.000000 0.000000 0.000265 0.000000 0.085213
#
#
# Mechanical properties :
#
#
# Convention : Reuss Voigt Hill
#
# Bulk Modulus (GPa) = 16.16703 70.50944 43.33823
# Shear Modulus (GPa) = 12.96298 25.05910 19.01104
#
# Velocity S-wave (km/s) = 2.72786 3.79273 3.30348
# Velocity P-wave (km/s) = 4.38201 7.72364 6.27920
#
# Compressibility (1/GPa) = 0.06185428
#
# Stress axis : x y z
#
# Youngs Moduli (GPa) = 10.12255 71.85073 88.81558
#
# Poissons Ratio (x) = 0.83152 1.34295
# Poissons Ratio (y) = 0.11715 0.38745
# Poissons Ratio (z) = 0.15306 0.31344
#
# Static dielectric constant tensor:
#      x y z
#    x 2.525700 0.000000 0.173800 
#    y 0.000000 3.462200 0.000000 
#    z 0.173800 0.000000 3.799700 
# 
# 
# High freq. dielectric constant tensor:
#      x y z
#    x 1.584390 0.000000 0.011170 
#    y 0.000000 1.675420 0.000000 
#    z 0.011170 0.000000 1.701190 
# 
# From -- ./inp_files/318977.got.cif
#   From: 2010.06.25/outbox.cif.g09.slc.cpg/sg12_160_cif.got.tgz:318977.got - 2010.06.28 00:19:55.
