data_PCOD8114750
_publ_section_title
;
Structure prediction by ZEFSAII (Michael W. Deem and Ramdas Pophale) SiO2 
 PCOD8114750
Probable space group: C 2/M
;
_chemical_formula_sum "Si O2"
_cell_formula_units_Z 56
_cell_length_a 31.761917
_cell_length_b 8.800116
_cell_length_c 20.890809
_cell_angle_alpha 90.000000
_cell_angle_beta 28.462276
_cell_angle_gamma 90.000000
_cell_volume 2782.826999
_symmetry_space_group_name_H-M "C 2/M"
_symmetry_group_IT_number 12
_symmetry_cell_setting 'monoclinic'
loop_
_space_group_symop_operation_xyz
x,y,z
-x,y,-z
-x,-y,-z
x,-y,z
1/2+x,1/2+y,z
1/2-x,1/2+y,-z
1/2-x,1/2-y,-z
1/2+x,1/2-y,z
loop_
_atom_site_type_symbol
_atom_site_label
_atom_site_fract_x
_atom_site_fract_y
_atom_site_fract_z
Si Si1 0.305569 0.320684 0.185000
Si Si2 0.956934 0.822287 0.648756
Si Si3 0.084088 0.679282 0.065390
Si Si4 0.616293 0.178674 0.665628
Si Si5 0.777863 0.820406 0.365579
Si Si6 0.635996 0.319686 0.353369
Si Si7 0.666923 0.320426 0.075306
O O1 0.319304 0.500000 0.166280
O O2 0.292765 0.257451 0.274132
O O3 0.221028 0.276181 0.256866
O O4 0.390934 0.242926 0.038194
O O5 0.892869 0.761060 0.678336
O O6 0.919757 0.776100 0.767474
O O7 0.058024 0.768103 0.506536
O O8 0.957215 0.000000 0.636942
O O9 0.095981 0.500000 0.050273
O O10 0.152350 0.749819 0.025154
O O11 0.983862 0.728336 0.216224
O O12 0.681452 0.231920 0.521082
O O13 0.644742 0.255824 0.693729
O O14 0.622667 0.000000 0.667689
O O15 0.784477 0.000000 0.357352
O O16 0.656456 0.500000 0.329192
O O17 0.680052 0.500000 0.052104
O O18 0.750000 0.250000 0.000000
#
# Coordination Sequence:
#
# PCOD8114750 Si02
#       7
#     8   8   8   8   8   8   8
#     4  11  23  37  56  85 119 152 188 239 296 350
#     4   8  17  33  54  79 108 146 190 238 285 336
#     4  11  24  40  59  84 118 158 199 244 290 344
#     4   9  20  40  63  87 114 149 195 240 287 349
#     4   9  20  39  62  87 117 150 186 238 299 351
#     4   9  17  34  57  80 110 147 190 235 285 343
#     4  11  22  37  57  84 118 158 201 241 290 344
#
# _framework density 20.123421
#
# number of rings (size 3 to 8) (size 9 to 14) (size 15 to 20)
#    0.000    2.286    0.000    3.000    2.000    4.000 
#    0.000    5.714    0.000    0.000    0.000    0.000 
#    0.000    0.000    0.000    0.000    0.000    0.000 
#
# Total GULP energy -347163.692613 kJ/mol
# GULP energy per Si atom -12398.703308 kJ/mol
# Density = 2.007762 g / cm^3
# Si number density = 20.123421 Si / 1000 Ang^3
#
#
#
# Elastic Constant Matrix: (Units=GPa)
#
#
# Indices 1 2 3 4 5 6 
#
# 1 100.3478 30.5682 57.9479 0.0023 10.8597 -0.0006
# 2 30.5682 54.3782 40.0567 -0.0091 3.7687 0.0045
# 3 57.9479 40.0567 111.1233 -0.0196 8.9049 0.0014
# 4 0.0023 -0.0091 -0.0196 27.9309 -0.0021 -2.3183
# 5 10.8597 3.7687 8.9049 -0.0021 36.4779 0.0022
# 6 -0.0006 0.0045 0.0014 -2.3183 0.0022 30.5108
#
#
#
# Elastic Compliance Matrix: (Units=1/GPa)
#
#
# Indices 1 2 3 4 5 6 
#
# 1 0.014981 -0.003595 -0.006312 -0.000007 -0.002548 0.000001
# 2 -0.003595 0.025907 -0.007481 0.000003 0.000220 -0.000003
# 3 -0.006312 -0.007481 0.015070 0.000009 -0.001027 0.000001
# 4 -0.000007 0.000003 0.000009 0.036030 0.000002 0.002738
# 5 -0.002548 0.000220 -0.001027 0.000002 0.028400 -0.000002
# 6 0.000001 -0.000003 0.000001 0.002738 -0.000002 0.032983
#
#
# Mechanical properties :
#
#
# Convention : Reuss Voigt Hill
#
# Bulk Modulus (GPa) = 47.21449 58.11053 52.66251
# Shear Modulus (GPa) = 25.61359 28.13568 26.87463
#
# Velocity S-wave (km/s) = 3.57154 3.74325 3.65840
# Velocity P-wave (km/s) = 6.36563 6.90089 6.63866
#
# Compressibility (1/GPa) = 0.02117994
#
# Stress axis : x y z
#
# Youngs Moduli (GPa) = 66.74954 38.60027 66.35797
#
# Poissons Ratio (x) = 0.13878 0.41887
# Poissons Ratio (y) = 0.23998 0.49645
# Poissons Ratio (z) = 0.42134 0.28878
#
# Static dielectric constant tensor:
#      x y z
#    x -8.695490 -0.000580 -22.684350 
#    y -0.000580 3.417190 -0.001040 
#    z -22.684350 -0.001040 -38.419080 
# 
# 
# High freq. dielectric constant tensor:
#      x y z
#    x 1.779530 0.000000 0.007550 
#    y 0.000000 1.767190 0.000000 
#    z 0.007550 0.000000 1.802020 
# 
# From -- ./inp_files/329455.got.cif
#   From: 2010.06.25/outbox.cif.g09.slc.cpg/sg12_165_cif.got.tgz:329455.got - 2010.06.28 00:19:55.
