data_PCOD8114295
_publ_section_title
;
Structure prediction by ZEFSAII (Michael W. Deem and Ramdas Pophale) SiO2 
 PCOD8114295
Probable space group: C 2/M
;
_chemical_formula_sum "Si O2"
_cell_formula_units_Z 56
_cell_length_a 16.743816
_cell_length_b 26.191359
_cell_length_c 8.534856
_cell_angle_alpha 90.000000
_cell_angle_beta 126.443746
_cell_angle_gamma 90.000000
_cell_volume 3010.943396
_symmetry_space_group_name_H-M "C 2/M"
_symmetry_group_IT_number 12
_symmetry_cell_setting 'monoclinic'
loop_
_space_group_symop_operation_xyz
x,y,z
-x,y,-z
-x,-y,-z
x,-y,z
1/2+x,1/2+y,z
1/2-x,1/2+y,-z
1/2-x,1/2-y,-z
1/2+x,1/2-y,z
loop_
_atom_site_type_symbol
_atom_site_label
_atom_site_fract_x
_atom_site_fract_y
_atom_site_fract_z
Si Si1 0.352656 0.609971 0.654381
Si Si2 0.642710 0.500000 0.293977
Si Si3 0.104379 0.716021 0.675586
Si Si4 0.192016 0.160391 0.093914
Si Si5 0.915185 0.000000 0.113437
Si Si6 0.901629 0.263187 0.976464
Si Si7 0.052542 0.894678 0.727474
Si Si8 0.779936 0.789978 0.400760
O O1 0.314251 0.551789 0.572707
O O2 0.323391 0.614608 0.802516
O O3 0.471109 0.612885 0.769296
O O4 0.304114 0.653785 0.491838
O O5 0.526214 0.500000 0.182695
O O6 0.659053 0.500000 0.123397
O O7 0.191604 0.674063 0.786876
O O8 0.130983 0.764027 0.594543
O O9 0.000000 0.690755 0.500000
O O10 0.083265 0.737383 0.821943
O O11 0.134239 0.206681 0.111059
O O12 0.142488 0.145258 0.868664
O O13 0.898664 0.950847 0.206465
O O14 0.813948 0.301077 0.821340
O O15 0.000000 0.278803 0.000000
O O16 0.000000 0.884082 0.500000
O O17 0.750000 0.750000 0.500000
#
# Coordination Sequence:
#
# PCOD8114295 Si02
#       8
#     8   4   8   8   4   8   8   8
#     4  11  21  36  59  82 118 155 197 235 291 350
#     4   9  18  34  56  82 111 156 200 233 289 351
#     4  11  25  39  56  81 122 158 196 246 290 348
#     4  11  22  37  55  83 114 157 197 235 287 351
#     4   9  17  36  50  78 116 152 190 238 286 345
#     4  11  23  37  57  82 121 151 195 239 298 351
#     4  11  23  32  56  84 118 154 193 238 291 343
#     4  11  21  37  56  86 116 154 199 238 291 353
#
# _framework density 18.598821000000001
#
# number of rings (size 3 to 8) (size 9 to 14) (size 15 to 20)
#    0.000    1.286    4.286    4.071    6.000    0.000 
#    0.000    0.000    0.000    0.000    0.000    2.500 
#    0.000    0.000    0.000    0.000    0.000    0.000 
#
# Total GULP energy -346952.201376 kJ/mol
# GULP energy per Si atom -12391.150049 kJ/mol
# Density = 1.855649 g / cm^3
# Si number density = 18.598821 Si / 1000 Ang^3
#
#
#
# Elastic Constant Matrix: (Units=GPa)
#
#
# Indices 1 2 3 4 5 6 
#
# 1 96.2036 30.4712 40.9298 0.0000 1.7464 0.0000
# 2 30.4712 126.1778 57.7703 0.0000 9.4900 0.0000
# 3 40.9298 57.7703 117.7733 0.0000 7.8737 0.0000
# 4 0.0000 0.0000 0.0000 30.9114 0.0000 -1.5769
# 5 1.7464 9.4900 7.8737 0.0000 35.4427 0.0000
# 6 0.0000 0.0000 0.0000 -1.5769 0.0000 16.0049
#
#
#
# Elastic Compliance Matrix: (Units=1/GPa)
#
#
# Indices 1 2 3 4 5 6 
#
# 1 0.012376 -0.001347 -0.003678 0.000000 0.000568 0.000000
# 2 -0.001347 0.010463 -0.004549 0.000000 -0.001725 0.000000
# 3 -0.003678 -0.004549 0.012086 0.000000 -0.001286 0.000000
# 4 0.000000 0.000000 0.000000 0.032514 0.000000 0.003204
# 5 0.000568 -0.001725 -0.001286 0.000000 0.028934 0.000000
# 6 0.000000 0.000000 0.000000 0.003204 0.000000 0.062797
#
#
# Mechanical properties :
#
#
# Convention : Reuss Voigt Hill
#
# Bulk Modulus (GPa) = 63.38411 66.49968 64.94190
# Shear Modulus (GPa) = 27.23647 30.53735 28.88691
#
# Velocity S-wave (km/s) = 3.83092 4.05643 3.94529
# Velocity P-wave (km/s) = 7.32950 7.60078 7.46637
#
# Compressibility (1/GPa) = 0.01577682
#
# Stress axis : x y z
#
# Youngs Moduli (GPa) = 80.80210 95.57402 82.73800
#
# Poissons Ratio (x) = 0.12878 0.30431
# Poissons Ratio (y) = 0.10888 0.37636
# Poissons Ratio (z) = 0.29719 0.43475
#
# Static dielectric constant tensor:
#      x y z
#    x 3.571100 0.000000 0.089030 
#    y 0.000000 3.593660 0.000000 
#    z 0.089030 0.000000 3.618720 
# 
# 
# High freq. dielectric constant tensor:
#      x y z
#    x 1.700450 0.000000 -0.021750 
#    y 0.000000 1.708490 0.000000 
#    z -0.021750 0.000000 1.722630 
# 
# From -- ./inp_files/67109.got.cif
#   From: 2010.06.25/outbox.cif.g09.slc.cpg/sg12_34_cif.got.tgz:67109.got - 2010.06.28 00:19:55.
