data_PCOD8114116
_publ_section_title
;
Structure prediction by ZEFSAII (Michael W. Deem and Ramdas Pophale) SiO2 
 PCOD8114116
Probable space group: C 2/M
;
_chemical_formula_sum "Si O2"
_cell_formula_units_Z 48
_cell_length_a 19.057974
_cell_length_b 9.018919
_cell_length_c 21.538974
_cell_angle_alpha 90.000000
_cell_angle_beta 133.506584
_cell_angle_gamma 90.000000
_cell_volume 2685.165579
_symmetry_space_group_name_H-M "C 2/M"
_symmetry_group_IT_number 12
_symmetry_cell_setting 'monoclinic'
loop_
_space_group_symop_operation_xyz
x,y,z
-x,y,-z
-x,-y,-z
x,-y,z
1/2+x,1/2+y,z
1/2-x,1/2+y,-z
1/2-x,1/2-y,-z
1/2+x,1/2-y,z
loop_
_atom_site_type_symbol
_atom_site_label
_atom_site_fract_x
_atom_site_fract_y
_atom_site_fract_z
Si Si1 0.977507 0.833335 0.745439
Si Si2 0.899650 0.332986 0.088302
Si Si3 0.845390 0.836666 0.240924
Si Si4 0.999836 0.826225 0.571774
Si Si5 0.724711 0.665659 0.078428
Si Si6 0.352879 0.176798 0.572312
O O1 0.894304 0.734718 0.663182
O O2 0.009221 0.758747 0.829713
O O3 0.069022 0.839119 0.756546
O O4 0.939139 0.000000 0.734768
O O5 0.933621 0.500000 0.095696
O O6 0.812856 0.330575 0.084354
O O7 0.864063 0.261757 0.002017
O O8 0.760438 0.727361 0.166887
O O9 0.893415 0.787651 0.335648
O O10 0.799229 0.000000 0.218430
O O11 0.919950 0.725919 0.556052
O O12 0.000000 0.785352 0.500000
O O13 0.976242 0.000000 0.569376
O O14 0.686715 0.500000 0.065604
O O15 0.250000 0.250000 0.500000
O O16 0.345099 0.000000 0.569576
#
# Coordination Sequence:
#
# PCOD8114116 Si02
#       6
#     8   8   8   8   8   8
#     4   9  16  27  41  58  82 112 146 183 226 273
#     4   9  15  22  33  51  76 107 142 178 218 266
#     4   8  14  24  38  56  80 111 144 179 221 269
#     4   9  18  33  51  70  94 124 157 194 237 282
#     4   9  15  21  31  49  75 108 143 178 216 261
#     4  11  21  33  49  69  94 124 159 196 235 278
#
# _framework density 17.875993999999999
#
# number of rings (size 3 to 8) (size 9 to 14) (size 15 to 20)
#    0.000    2.833    0.000    4.000    0.000    8.333 
#    0.000    0.000    0.000    0.000    0.000    0.000 
#    0.000    1.333    0.000   14.333    0.000   17.667 
#
# Total GULP energy -297495.694471 kJ/mol
# GULP energy per Si atom -12395.653936 kJ/mol
# Density = 1.783531 g / cm^3
# Si number density = 17.875994 Si / 1000 Ang^3
#
#
#
# Elastic Constant Matrix: (Units=GPa)
#
#
# Indices 1 2 3 4 5 6 
#
# 1 15.2892 24.4695 30.6139 0.0000 0.4367 0.0000
# 2 24.4695 162.5475 91.1449 0.0000 1.3910 0.0000
# 3 30.6139 91.1449 186.0424 0.0000 -8.8312 0.0000
# 4 0.0000 0.0000 0.0000 37.8935 0.0000 2.7123
# 5 0.4367 1.3910 -8.8312 0.0000 16.2448 0.0000
# 6 0.0000 0.0000 0.0000 2.7123 0.0000 12.2489
#
#
#
# Elastic Compliance Matrix: (Units=1/GPa)
#
#
# Indices 1 2 3 4 5 6 
#
# 1 0.106848 -0.008107 -0.014077 0.000000 -0.009831 0.000000
# 2 -0.008107 0.009249 -0.003310 0.000000 -0.002373 0.000000
# 3 -0.014077 -0.003310 0.009592 0.000000 0.005876 0.000000
# 4 0.000000 0.000000 0.000000 0.026815 0.000000 -0.005938
# 5 -0.009831 -0.002373 0.005876 0.000000 0.065220 0.000000
# 6 0.000000 0.000000 0.000000 -0.005938 0.000000 0.082955
#
#
# Mechanical properties :
#
#
# Convention : Reuss Voigt Hill
#
# Bulk Modulus (GPa) = 13.38672 72.92621 43.15647
# Shear Modulus (GPa) = 13.27787 27.78748 20.53268
#
# Velocity S-wave (km/s) = 2.72835 3.94694 3.39280
# Velocity P-wave (km/s) = 4.17494 7.85209 6.28830
#
# Compressibility (1/GPa) = 0.07470088
#
# Stress axis : x y z
#
# Youngs Moduli (GPa) = 9.35909 108.12474 104.25431
#
# Poissons Ratio (x) = 0.87658 1.46760
# Poissons Ratio (y) = 0.07588 0.34504
# Poissons Ratio (z) = 0.13175 0.35785
#
# Static dielectric constant tensor:
#      x y z
#    x 2.545020 0.000000 -0.081610 
#    y 0.000000 3.510450 0.000000 
#    z -0.081610 0.000000 3.764790 
# 
# 
# High freq. dielectric constant tensor:
#      x y z
#    x 1.597720 0.000000 -0.002590 
#    y 0.000000 1.703980 0.000000 
#    z -0.002590 0.000000 1.716770 
# 
# From -- ./inp_files/280518.got.cif
#   From: 2010.06.25/outbox.cif.g09.slc.cpg/sg12_141_cif.got.tgz:280518.got - 2010.06.28 00:19:55.
