data_PCOD8114847
_publ_section_title
;
Structure prediction by ZEFSAII (Michael W. Deem and Ramdas Pophale) SiO2 
 PCOD8114847
Probable space group: C 2/M
;
_chemical_formula_sum "Si O2"
_cell_formula_units_Z 56
_cell_length_a 28.363368
_cell_length_b 8.996443
_cell_length_c 19.453546
_cell_angle_alpha 90.000000
_cell_angle_beta 34.861763
_cell_angle_gamma 90.000000
_cell_volume 2837.385986
_symmetry_space_group_name_H-M "C 2/M"
_symmetry_group_IT_number 12
_symmetry_cell_setting 'monoclinic'
loop_
_space_group_symop_operation_xyz
x,y,z
-x,y,-z
-x,-y,-z
x,-y,z
1/2+x,1/2+y,z
1/2-x,1/2+y,-z
1/2-x,1/2-y,-z
1/2+x,1/2-y,z
loop_
_atom_site_type_symbol
_atom_site_label
_atom_site_fract_x
_atom_site_fract_y
_atom_site_fract_z
Si Si1 0.499947 0.830267 0.702280
Si Si2 0.738622 0.825888 0.305865
Si Si3 0.317414 0.167453 0.962344
Si Si4 0.364551 0.823803 0.056279
Si Si5 0.722598 0.824589 0.603414
Si Si6 0.538387 0.825906 0.802618
Si Si7 0.557736 0.825218 0.490611
O O1 0.401699 0.818844 0.819681
O O2 0.536010 0.753382 0.728603
O O3 0.532695 0.751306 0.593807
O O4 0.530702 0.000000 0.663517
O O5 0.817198 0.759862 0.173140
O O6 0.728237 0.748911 0.392657
O O7 0.655099 0.794038 0.362078
O O8 0.751909 0.000000 0.301669
O O9 0.287454 0.000000 0.003910
O O10 0.250000 0.250000 0.000000
O O11 0.327107 0.229177 0.028154
O O12 0.355510 0.000000 0.078746
O O13 0.461222 0.772566 0.941917
O O14 0.750000 0.750000 0.500000
O O15 0.625481 0.791435 0.733623
O O16 0.739891 0.000000 0.579140
O O17 0.523041 0.000000 0.809164
O O18 0.500000 0.753799 0.500000
O O19 0.539424 0.000000 0.514953
#
# Coordination Sequence:
#
# PCOD8114847 Si02
#       7
#     8   8   8   8   8   8   8
#     4   8  14  28  49  73 100 131 177 228 264 308
#     4  11  23  37  56  85 116 146 185 237 289 335
#     4   9  18  30  51  77 103 137 177 225 275 325
#     4   9  19  37  56  78 110 149 191 232 277 331
#     4  11  22  38  62  88 114 147 188 233 279 333
#     4   8  16  33  57  80 104 145 192 228 267 330
#     4   9  18  31  50  77 106 141 187 233 273 324
#
# _framework density 19.736476
#
# number of rings (size 3 to 8) (size 9 to 14) (size 15 to 20)
#    0.000    2.714    0.000    3.429    2.000    3.429 
#    0.000    4.286    0.000    8.571    0.000    0.000 
#    0.000    0.000    0.000    0.000    0.000    0.000 
#
# Total GULP energy -347026.576604 kJ/mol
# GULP energy per Si atom -12393.806307 kJ/mol
# Density = 1.969156 g / cm^3
# Si number density = 19.736476 Si / 1000 Ang^3
#
#
#
# Elastic Constant Matrix: (Units=GPa)
#
#
# Indices 1 2 3 4 5 6 
#
# 1 100.9786 33.9865 38.1690 0.0002 -5.1385 0.0003
# 2 33.9865 56.6815 32.2432 -0.0105 -2.8938 0.0015
# 3 38.1690 32.2432 109.3947 -0.0030 12.8689 0.0016
# 4 0.0002 -0.0105 -0.0030 26.4195 -0.0009 1.9727
# 5 -5.1385 -2.8938 12.8689 -0.0009 27.3205 0.0010
# 6 0.0003 0.0015 0.0016 1.9727 0.0010 26.5619
#
#
#
# Elastic Compliance Matrix: (Units=1/GPa)
#
#
# Indices 1 2 3 4 5 6 
#
# 1 0.013324 -0.005935 -0.003304 -0.000003 0.003434 0.000000
# 2 -0.005935 0.024648 -0.005685 0.000009 0.004172 -0.000002
# 3 -0.003304 -0.005685 0.012824 -0.000001 -0.007264 0.000000
# 4 -0.000003 0.000009 -0.000001 0.038062 0.000002 -0.002827
# 5 0.003434 0.004172 -0.007264 0.000002 0.041112 -0.000002
# 6 0.000000 -0.000002 0.000000 -0.002827 -0.000002 0.037858
#
#
# Mechanical properties :
#
#
# Convention : Reuss Voigt Hill
#
# Bulk Modulus (GPa) = 47.73388 52.87246 50.30317
# Shear Modulus (GPa) = 24.43118 26.90412 25.66765
#
# Velocity S-wave (km/s) = 3.52215 3.69611 3.61018
# Velocity P-wave (km/s) = 6.38583 6.71285 6.55138
#
# Compressibility (1/GPa) = 0.02094948
#
# Stress axis : x y z
#
# Youngs Moduli (GPa) = 75.05285 40.57183 77.97890
#
# Poissons Ratio (x) = 0.24077 0.25761
# Poissons Ratio (y) = 0.44540 0.44330
# Poissons Ratio (z) = 0.24795 0.23065
#
# Static dielectric constant tensor:
#      x y z
#    x 3.631820 0.000000 -0.071120 
#    y 0.000000 3.137060 0.000010 
#    z -0.071120 0.000010 3.691160 
# 
# 
# High freq. dielectric constant tensor:
#      x y z
#    x 1.776400 0.000000 -0.001830 
#    y 0.000000 1.715960 0.000000 
#    z -0.001830 0.000000 1.780000 
# 
# From -- ./inp_files/292445.got.cif
#   From: 2010.06.25/outbox.cif.g09.slc.cpg/sg12_147_cif.got.tgz:292445.got - 2010.06.28 00:19:55.
