data_PCOD8114991
_publ_section_title
;
Structure prediction by ZEFSAII (Michael W. Deem and Ramdas Pophale) SiO2 
 PCOD8114991
Probable space group: C 2/M
;
_chemical_formula_sum "Si O2"
_cell_formula_units_Z 44
_cell_length_a 15.737230
_cell_length_b 17.575835
_cell_length_c 11.903904
_cell_angle_alpha 90.000000
_cell_angle_beta 43.205336
_cell_angle_gamma 90.000000
_cell_volume 2254.135819
_symmetry_space_group_name_H-M "C 2/M"
_symmetry_group_IT_number 12
_symmetry_cell_setting 'monoclinic'
loop_
_space_group_symop_operation_xyz
x,y,z
-x,y,-z
-x,-y,-z
x,-y,z
1/2+x,1/2+y,z
1/2-x,1/2+y,-z
1/2-x,1/2-y,-z
1/2+x,1/2-y,z
loop_
_atom_site_type_symbol
_atom_site_label
_atom_site_fract_x
_atom_site_fract_y
_atom_site_fract_z
Si Si1 0.362595 0.307234 0.919189
Si Si2 0.000000 0.767337 0.000000
Si Si3 0.787845 0.413916 0.063402
Si Si4 0.054088 0.413675 0.696591
Si Si5 0.206622 0.668858 0.713461
Si Si6 0.556495 0.238171 0.567047
O O1 0.309963 0.390717 0.939272
O O2 0.478578 0.284903 0.732065
O O3 0.250000 0.250000 0.000000
O O4 0.404970 0.313068 0.009424
O O5 0.919464 0.717243 0.162344
O O6 0.763265 0.500000 0.122068
O O7 0.756608 0.360751 0.199480
O O8 0.927973 0.401208 0.888233
O O9 0.059257 0.500000 0.643172
O O10 0.172405 0.401658 0.664812
O O11 0.062734 0.351904 0.588670
O O12 0.309133 0.723222 0.561058
O O13 0.500000 0.247679 0.500000
#
# Coordination Sequence:
#
# PCOD8114991 Si02
#       6
#     8   4   8   8   8   8
#     4  12  21  42  61  95 126 164 216 253 313 374
#     4  12  22  36  70  90 120 164 214 262 298 366
#     4  11  22  40  66  92 124 165 210 263 314 365
#     4  11  23  39  61  94 127 161 210 265 316 366
#     4  12  20  38  63  96 121 159 212 262 313 368
#     4  12  23  37  65  91 123 168 208 256 311 381
#
# _framework density 19.519676
#
# number of rings (size 3 to 8) (size 9 to 14) (size 15 to 20)
#    0.000    0.364    9.091    1.091    0.000    1.818 
#    0.000    3.182    0.000    0.000    0.000    0.000 
#    0.000    0.000    0.000    0.000    0.000    0.000 
#
# Total GULP energy -272737.632151 kJ/mol
# GULP energy per Si atom -12397.165098 kJ/mol
# Density = 1.947525 g / cm^3
# Si number density = 19.519676 Si / 1000 Ang^3
#
#
#
# Elastic Constant Matrix: (Units=GPa)
#
#
# Indices 1 2 3 4 5 6 
#
# 1 118.9097 30.9635 15.3521 -0.0001 4.9167 0.0001
# 2 30.9635 103.2758 42.4771 0.0000 -12.0425 0.0000
# 3 15.3521 42.4771 87.9213 -0.0001 -18.6634 0.0001
# 4 -0.0001 0.0000 -0.0001 26.1351 0.0001 -1.5687
# 5 4.9167 -12.0425 -18.6634 0.0001 31.7686 -0.0001
# 6 0.0001 0.0000 0.0001 -1.5687 -0.0001 27.5269
#
#
#
# Elastic Compliance Matrix: (Units=1/GPa)
#
#
# Indices 1 2 3 4 5 6 
#
# 1 0.009383 -0.002782 -0.000944 0.000000 -0.003061 0.000000
# 2 -0.002782 0.012957 -0.005301 0.000000 0.002228 0.000000
# 3 -0.000944 -0.005301 0.015657 0.000000 0.007335 0.000000
# 4 0.000000 0.000000 0.000000 0.038394 0.000000 0.002188
# 5 -0.003061 0.002228 0.007335 0.000000 0.037105 0.000000
# 6 0.000000 0.000000 0.000000 0.002188 0.000000 0.036453
#
#
# Mechanical properties :
#
#
# Convention : Reuss Voigt Hill
#
# Bulk Modulus (GPa) = 50.14523 54.18802 52.16663
# Shear Modulus (GPa) = 28.62877 31.84040 30.23458
#
# Velocity S-wave (km/s) = 3.83386 4.04319 3.93991
# Velocity P-wave (km/s) = 6.73374 7.04397 6.89060
#
# Compressibility (1/GPa) = 0.01994207
#
# Stress axis : x y z
#
# Youngs Moduli (GPa) = 106.58087 77.17880 63.86991
#
# Poissons Ratio (x) = 0.21468 0.06031
# Poissons Ratio (y) = 0.29647 0.33859
# Poissons Ratio (z) = 0.10064 0.40914
#
# Static dielectric constant tensor:
#      x y z
#    x 3.753300 0.000000 0.011850 
#    y 0.000000 3.586360 0.000000 
#    z 0.011850 0.000000 3.648140 
# 
# 
# High freq. dielectric constant tensor:
#      x y z
#    x 1.775380 0.000000 -0.001370 
#    y 0.000000 1.742140 0.000000 
#    z -0.001370 0.000000 1.752210 
# 
# From -- ./inp_files/61630.got.cif
#   From: 2010.06.25/outbox.cif.g09.slc.cpg/sg12_31_cif.got.tgz:61630.got - 2010.06.28 00:19:55.
