data_PCOD8114604
_publ_section_title
;
Structure prediction by ZEFSAII (Michael W. Deem and Ramdas Pophale) SiO2 
 PCOD8114604
Probable space group: C 2/M
;
_chemical_formula_sum "Si O2"
_cell_formula_units_Z 40
_cell_length_a 24.625739
_cell_length_b 9.045955
_cell_length_c 32.176168
_cell_angle_alpha 90.000000
_cell_angle_beta 19.770873
_cell_angle_gamma 90.000000
_cell_volume 2424.533038
_symmetry_space_group_name_H-M "C 2/M"
_symmetry_group_IT_number 12
_symmetry_cell_setting 'monoclinic'
loop_
_space_group_symop_operation_xyz
x,y,z
-x,y,-z
-x,-y,-z
x,-y,z
1/2+x,1/2+y,z
1/2-x,1/2+y,-z
1/2-x,1/2-y,-z
1/2+x,1/2-y,z
loop_
_atom_site_type_symbol
_atom_site_label
_atom_site_fract_x
_atom_site_fract_y
_atom_site_fract_z
Si Si1 0.728906 0.173839 0.314467
Si Si2 0.433495 0.326839 0.908634
Si Si3 0.727119 0.825275 0.560356
Si Si4 0.581380 0.172369 0.167552
Si Si5 0.422146 0.824627 0.490741
O O1 0.679672 0.228369 0.395948
O O2 0.606903 0.228503 0.366446
O O3 0.914384 0.222755 0.172182
O O4 0.708120 0.000000 0.330212
O O5 0.443842 0.500000 0.893172
O O6 0.456024 0.254830 0.847791
O O7 0.262372 0.284629 0.052805
O O8 0.750000 0.750000 0.500000
O O9 0.548131 0.781717 0.704684
O O10 0.861389 0.763438 0.494643
O O11 0.748175 0.000000 0.541068
O O12 0.570233 0.000000 0.165725
O O13 0.408084 0.000000 0.492420
#
# Coordination Sequence:
#
# PCOD8114604 Si02
#       5
#     8   8   8   8   8
#     4   8  14  25  47  73  96 120 147 182 228 280
#     4   9  15  27  48  70  94 122 146 180 231 282
#     4  11  22  34  47  66  93 126 161 196 228 267
#     4   9  18  29  43  68  96 118 151 192 228 268
#     4   9  16  29  47  70  95 121 154 187 224 274
#
# _framework density 16.498021000000001
#
# number of rings (size 3 to 8) (size 9 to 14) (size 15 to 20)
#    0.000    2.800    2.000    1.800    0.000    0.800 
#    0.000    3.000    0.000    1.200    0.000    8.400 
#    0.000    0.000    0.000    0.000    0.000    0.000 
#
# Total GULP energy -247773.664398 kJ/mol
# GULP energy per Si atom -12388.683220 kJ/mol
# Density = 1.646047 g / cm^3
# Si number density = 16.498021 Si / 1000 Ang^3
#
#
#
# Elastic Constant Matrix: (Units=GPa)
#
#
# Indices 1 2 3 4 5 6 
#
# 1 123.1009 36.3916 80.8285 0.0028 -18.0338 0.0012
# 2 36.3916 38.7683 39.0151 0.0225 -2.1157 -0.0141
# 3 80.8285 39.0151 141.6591 -0.0399 -27.3940 0.0057
# 4 0.0028 0.0225 -0.0399 17.9938 0.0178 -1.1183
# 5 -18.0338 -2.1157 -27.3940 0.0178 31.2799 -0.0116
# 6 0.0012 -0.0141 0.0057 -1.1183 -0.0116 24.5567
#
#
#
# Elastic Compliance Matrix: (Units=1/GPa)
#
#
# Indices 1 2 3 4 5 6 
#
# 1 0.014536 -0.007910 -0.005536 -0.000008 0.002997 -0.000003
# 2 -0.007910 0.041495 -0.008733 -0.000059 -0.009402 0.000019
# 3 -0.005536 -0.008733 0.014316 0.000035 0.008755 -0.000002
# 4 -0.000008 -0.000059 0.000035 0.055733 -0.000009 0.002538
# 5 0.002997 -0.009402 0.008755 -0.000009 0.040729 0.000011
# 6 -0.000003 0.000019 -0.000002 0.002538 0.000011 0.040838
#
#
# Mechanical properties :
#
#
# Convention : Reuss Voigt Hill
#
# Bulk Modulus (GPa) = 38.47768 68.44428 53.46098
# Shear Modulus (GPa) = 19.18155 24.58564 21.88360
#
# Velocity S-wave (km/s) = 3.41348 3.86452 3.64598
# Velocity P-wave (km/s) = 6.23771 7.84150 7.08513
#
# Compressibility (1/GPa) = 0.02598909
#
# Stress axis : x y z
#
# Youngs Moduli (GPa) = 68.79644 24.09920 69.85124
#
# Poissons Ratio (x) = 0.19063 0.38667
# Poissons Ratio (y) = 0.54418 0.61003
# Poissons Ratio (z) = 0.38083 0.21046
#
# Static dielectric constant tensor:
#      x y z
#    x 5.145290 0.001770 -2.055190 
#    y 0.001770 2.966530 -0.001250 
#    z -2.055190 -0.001250 4.730270 
# 
# 
# High freq. dielectric constant tensor:
#      x y z
#    x 1.610740 0.000000 -0.035410 
#    y 0.000000 1.618180 0.000010 
#    z -0.035410 0.000010 1.637640 
# 
# From -- ./inp_files/162394.got.cif
#   From: 2010.06.25/outbox.cif.g09.slc.cpg/sg12_82_cif.got.tgz:162394.got - 2010.06.28 00:19:55.
