data_PCOD8114250
_publ_section_title
;
Structure prediction by ZEFSAII (Michael W. Deem and Ramdas Pophale) SiO2 
 PCOD8114250
Probable space group: C 2/M
;
_chemical_formula_sum "Si O2"
_cell_formula_units_Z 48
_cell_length_a 17.219382
_cell_length_b 17.367407
_cell_length_c 19.603613
_cell_angle_alpha 90.000000
_cell_angle_beta 157.036938
_cell_angle_gamma 90.000000
_cell_volume 2287.212307
_symmetry_space_group_name_H-M "C 2/M"
_symmetry_group_IT_number 12
_symmetry_cell_setting 'monoclinic'
loop_
_space_group_symop_operation_xyz
x,y,z
-x,y,-z
-x,-y,-z
x,-y,z
1/2+x,1/2+y,z
1/2-x,1/2+y,-z
1/2-x,1/2-y,-z
1/2+x,1/2-y,z
loop_
_atom_site_type_symbol
_atom_site_label
_atom_site_fract_x
_atom_site_fract_y
_atom_site_fract_z
Si Si1 0.711201 0.084456 0.688370
Si Si2 0.167309 0.409596 0.371943
Si Si3 0.759649 0.835797 0.984444
Si Si4 0.329881 0.633239 0.648333
Si Si5 0.691672 0.708284 0.126220
Si Si6 0.079680 0.220669 0.487442
O O1 0.500000 0.124041 0.500000
O O2 0.815885 0.074720 0.700008
O O3 0.814351 0.138070 0.825797
O O4 0.685946 0.000000 0.701106
O O5 0.190943 0.500000 0.374728
O O6 0.203226 0.394060 0.481134
O O7 0.329242 0.362380 0.458857
O O8 0.944105 0.383203 0.171848
O O9 0.836099 0.832897 0.968574
O O10 0.750000 0.750000 0.000000
O O11 0.932971 0.868974 0.174315
O O12 0.252339 0.717106 0.611556
O O13 0.889512 0.760453 0.285756
O O14 0.500000 0.757248 0.000000
O O15 0.000000 0.218535 0.500000
#
# Coordination Sequence:
#
# PCOD8114250 Si02
#       6
#     8   8   8   8   8   8
#     4  11  21  35  59  94 136 172 208 263 338 405
#     4  12  28  46  68 100 140 180 224 281 344 399
#     4  12  24  41  70  99 130 174 231 278 324 399
#     4  12  21  44  69  98 131 179 223 271 331 404
#     4  12  22  39  64 102 132 173 226 274 335 403
#     4  12  22  44  71  96 131 177 233 282 332 398
#
# _framework density 20.986246000000001
#
# number of rings (size 3 to 8) (size 9 to 14) (size 15 to 20)
#    0.000    0.167    8.333    2.000    0.000    4.000 
#    0.000    0.000    0.000    0.500    0.000    0.000 
#    0.000    0.000    0.000    0.000    0.000    0.000 
#
# Total GULP energy -297389.348871 kJ/mol
# GULP energy per Si atom -12391.222870 kJ/mol
# Density = 2.093848 g / cm^3
# Si number density = 20.986246 Si / 1000 Ang^3
#
#
#
# Elastic Constant Matrix: (Units=GPa)
#
#
# Indices 1 2 3 4 5 6 
#
# 1 75.1923 36.1132 17.9933 -0.0336 0.5868 0.0001
# 2 36.1132 124.0826 44.8868 -0.1281 6.9496 -0.0400
# 3 17.9933 44.8868 145.7761 -0.2175 16.7433 -0.0680
# 4 -0.0336 -0.1281 -0.2175 15.8835 -0.0756 10.4880
# 5 0.5868 6.9496 16.7433 -0.0756 33.0654 -0.0138
# 6 0.0001 -0.0400 -0.0680 10.4880 -0.0138 20.3176
#
#
#
# Elastic Compliance Matrix: (Units=1/GPa)
#
#
# Indices 1 2 3 4 5 6 
#
# 1 0.015536 -0.004324 -0.000700 0.000000 0.000987 -0.000010
# 2 -0.004324 0.010281 -0.002540 0.000042 -0.000798 -0.000011
# 3 -0.000700 -0.002540 0.008139 0.000090 -0.003575 -0.000027
# 4 0.000000 0.000042 0.000090 0.095518 0.000143 -0.049306
# 5 0.000987 -0.000798 -0.003575 0.000143 0.032204 -0.000066
# 6 -0.000010 -0.000011 -0.000027 -0.049306 -0.000066 0.074670
#
#
# Mechanical properties :
#
#
# Convention : Reuss Voigt Hill
#
# Bulk Modulus (GPa) = 53.11115 60.33750 56.72433
# Shear Modulus (GPa) = 19.39857 30.25716 24.82786
#
# Velocity S-wave (km/s) = 3.04361 3.80117 3.44329
# Velocity P-wave (km/s) = 6.14117 6.93387 6.54952
#
# Compressibility (1/GPa) = 0.01882844
#
# Stress axis : x y z
#
# Youngs Moduli (GPa) = 64.36860 97.26465 122.86312
#
# Poissons Ratio (x) = 0.42054 0.08596
# Poissons Ratio (y) = 0.27831 0.31212
# Poissons Ratio (z) = 0.04503 0.24709
#
# Static dielectric constant tensor:
#      x y z
#    x 3.340990 0.000140 -0.151380 
#    y 0.000140 3.570830 -0.000180 
#    z -0.151380 -0.000180 4.144580 
# 
# 
# High freq. dielectric constant tensor:
#      x y z
#    x 1.816450 -0.000010 0.003190 
#    y -0.000010 1.795090 -0.000030 
#    z 0.003190 -0.000030 1.847390 
# 
# From -- ./inp_files/285334.got.cif
#   From: 2010.06.25/outbox.cif.g09.slc.cpg/sg12_143_cif.got.tgz:285334.got - 2010.06.28 00:19:55.
