data_PCOD8114183
_publ_section_title
;
Structure prediction by ZEFSAII (Michael W. Deem and Ramdas Pophale) SiO2 
 PCOD8114183
Probable space group: C 2/M
;
_chemical_formula_sum "Si O2"
_cell_formula_units_Z 56
_cell_length_a 8.732590
_cell_length_b 25.339418
_cell_length_c 15.159535
_cell_angle_alpha 90.000000
_cell_angle_beta 114.149073
_cell_angle_gamma 90.000000
_cell_volume 3060.912381
_symmetry_space_group_name_H-M "C 2/M"
_symmetry_group_IT_number 12
_symmetry_cell_setting 'monoclinic'
loop_
_space_group_symop_operation_xyz
x,y,z
-x,y,-z
-x,-y,-z
x,-y,z
1/2+x,1/2+y,z
1/2-x,1/2+y,-z
1/2-x,1/2-y,-z
1/2+x,1/2-y,z
loop_
_atom_site_type_symbol
_atom_site_label
_atom_site_fract_x
_atom_site_fract_y
_atom_site_fract_z
Si Si1 0.773590 0.162265 0.781939
Si Si2 0.275896 0.441591 0.873135
Si Si3 0.872210 0.820498 0.403402
Si Si4 0.983581 0.708362 0.595213
Si Si5 0.835438 0.057865 0.081036
Si Si6 0.325723 0.756869 0.924439
Si Si7 0.632145 0.349494 0.787433
O O1 0.697547 0.107144 0.801237
O O2 0.620952 0.183488 0.690248
O O3 0.832659 0.201074 0.874619
O O4 0.933738 0.153904 0.757358
O O5 0.210156 0.500000 0.827508
O O6 0.472639 0.437957 0.901556
O O7 0.232210 0.433344 0.966234
O O8 0.701049 0.802538 0.410031
O O9 0.835106 0.856712 0.309442
O O10 0.000000 0.851221 0.500000
O O11 0.982257 0.770579 0.397015
O O12 0.000000 0.684897 0.500000
O O13 0.786469 0.100864 0.142752
O O14 0.795101 0.000000 0.111083
O O15 0.225961 0.796769 0.839217
O O16 0.500000 0.779962 0.000000
O O17 0.250000 0.750000 0.000000
#
# Coordination Sequence:
#
# PCOD8114183 Si02
#       7
#     8   8   8   8   8   8   8
#     4  11  21  34  55  80 111 143 181 222 271 318
#     4   8  15  29  52  79 107 141 184 226 263 308
#     4  11  22  37  56  78 107 141 180 222 269 324
#     4  11  22  37  56  79 107 140 178 224 269 324
#     4   8  15  30  52  78 106 142 186 224 261 310
#     4  12  24  34  47  74 114 149 178 212 262 317
#     4  11  21  35  54  80 109 146 179 222 269 321
#
# _framework density 18.295199
#
# number of rings (size 3 to 8) (size 9 to 14) (size 15 to 20)
#    0.000    1.714    2.857    5.143    4.000    0.000 
#    0.000    0.000    0.000    2.143    0.000    0.000 
#    0.000    0.000    0.000    0.000    0.000    0.000 
#
# Total GULP energy -346936.526974 kJ/mol
# GULP energy per Si atom -12390.590249 kJ/mol
# Density = 1.825356 g / cm^3
# Si number density = 18.295199 Si / 1000 Ang^3
#
#
#
# Elastic Constant Matrix: (Units=GPa)
#
#
# Indices 1 2 3 4 5 6 
#
# 1 78.2999 9.6465 28.4239 0.0000 -8.5075 0.0000
# 2 9.6465 85.8316 36.7616 0.0000 -10.8171 0.0000
# 3 28.4239 36.7616 115.0259 0.0000 -11.0284 0.0000
# 4 0.0000 0.0000 0.0000 23.7190 0.0000 -4.1768
# 5 -8.5075 -10.8171 -11.0284 0.0000 35.3936 0.0000
# 6 0.0000 0.0000 0.0000 -4.1768 0.0000 10.2243
#
#
#
# Elastic Compliance Matrix: (Units=1/GPa)
#
#
# Indices 1 2 3 4 5 6 
#
# 1 0.014226 0.000131 -0.003325 0.000000 0.002423 0.000000
# 2 0.000131 0.013788 -0.004156 0.000000 0.002950 0.000000
# 3 -0.003325 -0.004156 0.010973 0.000000 0.001350 0.000000
# 4 0.000000 0.000000 0.000000 0.045428 0.000000 0.018558
# 5 0.002423 0.002950 0.001350 0.000000 0.030158 0.000000
# 6 0.000000 0.000000 0.000000 0.018558 0.000000 0.105387
#
#
# Mechanical properties :
#
#
# Convention : Reuss Voigt Hill
#
# Bulk Modulus (GPa) = 41.17558 47.64682 44.41120
# Shear Modulus (GPa) = 20.59686 27.48909 24.04297
#
# Velocity S-wave (km/s) = 3.35894 3.88045 3.62908
# Velocity P-wave (km/s) = 6.13176 6.79537 6.47208
#
# Compressibility (1/GPa) = 0.02428624
#
# Stress axis : x y z
#
# Youngs Moduli (GPa) = 70.29629 72.52775 91.13401
#
# Poissons Ratio (x) = -0.00947 0.30299
# Poissons Ratio (y) = -0.00918 0.37874
# Poissons Ratio (z) = 0.23371 0.30142
#
# Static dielectric constant tensor:
#      x y z
#    x 3.226320 0.000000 -0.134330 
#    y 0.000000 3.536360 0.000000 
#    z -0.134330 0.000000 3.706710 
# 
# 
# High freq. dielectric constant tensor:
#      x y z
#    x 1.699410 0.000000 -0.006750 
#    y 0.000000 1.684970 0.000000 
#    z -0.006750 0.000000 1.714370 
# 
# From -- ./inp_files/199404.got.cif
#   From: 2010.06.25/outbox.cif.g09.slc.cpg/sg12_100_cif.got.tgz:199404.got - 2010.06.28 00:19:55.
