data_PCOD8114999
_publ_section_title
;
Structure prediction by ZEFSAII (Michael W. Deem and Ramdas Pophale) SiO2 
 PCOD8114999
Probable space group: C 2/M
;
_chemical_formula_sum "Si O2"
_cell_formula_units_Z 56
_cell_length_a 21.888073
_cell_length_b 14.523685
_cell_length_c 22.111216
_cell_angle_alpha 90.000000
_cell_angle_beta 22.403194
_cell_angle_gamma 90.000000
_cell_volume 2678.927121
_symmetry_space_group_name_H-M "C 2/M"
_symmetry_group_IT_number 12
_symmetry_cell_setting 'monoclinic'
loop_
_space_group_symop_operation_xyz
x,y,z
-x,y,-z
-x,-y,-z
x,-y,z
1/2+x,1/2+y,z
1/2-x,1/2+y,-z
1/2-x,1/2-y,-z
1/2+x,1/2-y,z
loop_
_atom_site_type_symbol
_atom_site_label
_atom_site_fract_x
_atom_site_fract_y
_atom_site_fract_z
Si Si1 0.330026 0.237501 0.687735
Si Si2 0.181815 0.172071 0.018080
Si Si3 0.079890 0.735561 0.821673
Si Si4 0.329684 0.895700 0.093464
Si Si5 0.428753 0.599350 0.763486
Si Si6 0.824720 0.245935 0.496781
Si Si7 0.067868 0.607066 0.302504
O O1 0.500000 0.251927 0.500000
O O2 0.191099 0.208546 0.767186
O O3 0.281927 0.335255 0.760551
O O4 0.338710 0.154745 0.727640
O O5 0.077284 0.107934 0.158111
O O6 0.068903 0.204930 0.066536
O O7 0.250000 0.250000 0.000000
O O8 0.329831 0.118260 0.852633
O O9 0.191008 0.706283 0.664010
O O10 0.008256 0.646381 0.922087
O O11 0.250709 0.894697 0.098886
O O12 0.343003 0.000000 0.106462
O O13 0.506598 0.500000 0.677827
O O14 0.527575 0.676510 0.638209
O O15 0.750000 0.250000 0.500000
O O16 0.893341 0.345566 0.453712
O O17 0.040628 0.500000 0.341948
#
# Coordination Sequence:
#
# PCOD8114999 Si02
#       7
#     8   8   8   8   8   8   8
#     4  12  24  46  68  95 136 180 222 280 335 391
#     4  12  20  43  69  96 131 175 216 275 344 392
#     4  12  23  40  72  95 135 176 221 271 339 395
#     4  11  24  43  71 101 131 174 224 272 333 408
#     4  11  22  40  67  97 132 172 217 269 336 404
#     4  12  23  43  67  97 137 176 215 278 335 395
#     4  12  26  46  69  97 133 184 230 274 336 402
#
# _framework density 20.903891000000002
#
# number of rings (size 3 to 8) (size 9 to 14) (size 15 to 20)
#    0.000    0.286    8.571    0.857    0.000    2.857 
#    0.000    2.143    0.000    0.000    0.000    0.000 
#    0.000    0.000    0.000    0.000    0.000    0.000 
#
# Total GULP energy -347179.743892 kJ/mol
# GULP energy per Si atom -12399.276568 kJ/mol
# Density = 2.085631 g / cm^3
# Si number density = 20.903891 Si / 1000 Ang^3
#
#
#
# Elastic Constant Matrix: (Units=GPa)
#
#
# Indices 1 2 3 4 5 6 
#
# 1 112.6869 38.6099 18.2474 0.0014 -15.9570 -0.0013
# 2 38.6099 139.7409 51.5032 -0.0025 -0.3415 0.0007
# 3 18.2474 51.5032 125.9666 -0.0077 14.3404 0.0020
# 4 0.0014 -0.0025 -0.0077 17.4320 0.0016 -0.0122
# 5 -15.9570 -0.3415 14.3404 0.0016 47.5259 -0.0001
# 6 -0.0013 0.0007 0.0020 -0.0122 -0.0001 20.6302
#
#
#
# Elastic Compliance Matrix: (Units=1/GPa)
#
#
# Indices 1 2 3 4 5 6 
#
# 1 0.010421 -0.002539 -0.000899 -0.000002 0.003752 0.000001
# 2 -0.002539 0.009104 -0.003381 0.000000 0.000233 0.000000
# 3 -0.000899 -0.003381 0.009826 0.000004 -0.003291 -0.000001
# 4 -0.000002 0.000000 0.000004 0.057366 -0.000004 0.000034
# 5 0.003752 0.000233 -0.003291 -0.000004 0.023295 0.000001
# 6 0.000001 0.000000 -0.000001 0.000034 0.000001 0.048473
#
#
# Mechanical properties :
#
#
# Convention : Reuss Voigt Hill
#
# Bulk Modulus (GPa) = 63.63891 66.12394 64.88143
# Shear Modulus (GPa) = 28.19123 35.11988 31.65555
#
# Velocity S-wave (km/s) = 3.67633 4.10331 3.89567
# Velocity P-wave (km/s) = 6.96636 7.35870 7.16522
#
# Compressibility (1/GPa) = 0.01571366
#
# Stress axis : x y z
#
# Youngs Moduli (GPa) = 95.96183 109.83772 101.77209
#
# Poissons Ratio (x) = 0.27886 0.09145
# Poissons Ratio (y) = 0.24364 0.34411
# Poissons Ratio (z) = 0.08623 0.37138
#
# Static dielectric constant tensor:
#      x y z
#    x 4.237810 0.000420 0.227900 
#    y 0.000420 3.810910 0.001050 
#    z 0.227900 0.001050 4.307700 
# 
# 
# High freq. dielectric constant tensor:
#      x y z
#    x 1.839420 0.000000 0.000370 
#    y 0.000000 1.795400 0.000000 
#    z 0.000370 0.000000 1.822950 
# 
# From -- ./inp_files/349706.got.cif
#   From: 2010.06.25/outbox.cif.g09.slc.cpg/sg12_175_cif.got.tgz:349706.got - 2010.06.28 00:19:55.
