data_PCOD8114922
_publ_section_title
;
Structure prediction by ZEFSAII (Michael W. Deem and Ramdas Pophale) SiO2 
 PCOD8114922
Probable space group: C 2/M
;
_chemical_formula_sum "Si O2"
_cell_formula_units_Z 48
_cell_length_a 14.572347
_cell_length_b 8.513697
_cell_length_c 19.488245
_cell_angle_alpha 90.000000
_cell_angle_beta 107.310493
_cell_angle_gamma 90.000000
_cell_volume 2308.289221
_symmetry_space_group_name_H-M "C 2/M"
_symmetry_group_IT_number 12
_symmetry_cell_setting 'monoclinic'
loop_
_space_group_symop_operation_xyz
x,y,z
-x,y,-z
-x,-y,-z
x,-y,z
1/2+x,1/2+y,z
1/2-x,1/2+y,-z
1/2-x,1/2-y,-z
1/2+x,1/2-y,z
loop_
_atom_site_type_symbol
_atom_site_label
_atom_site_fract_x
_atom_site_fract_y
_atom_site_fract_z
Si Si1 0.394225 0.314321 0.993883
Si Si2 0.209997 0.814510 0.892679
Si Si3 0.301104 0.817664 0.365500
Si Si4 0.604894 0.181880 0.339200
Si Si5 0.898194 0.821678 0.513625
Si Si6 0.909545 0.816401 0.263983
O O1 0.399993 0.500000 0.993532
O O2 0.316523 0.258750 0.920314
O O3 0.500000 0.243854 0.000000
O O4 0.358233 0.254210 0.060417
O O5 0.163094 0.758320 0.811080
O O6 0.220870 0.000000 0.898172
O O7 0.189820 0.784593 0.324703
O O8 0.319569 0.759454 0.447211
O O9 0.366216 0.718093 0.328657
O O10 0.326101 0.000000 0.362496
O O11 0.591448 0.221134 0.415830
O O12 0.508742 0.223503 0.276244
O O13 0.629783 0.000000 0.335497
O O14 0.000000 0.820054 0.500000
O O15 0.865761 0.000000 0.523598
O O16 0.931643 0.000000 0.262857
#
# Coordination Sequence:
#
# PCOD8114922 Si02
#       6
#     8   8   8   8   8   8
#     4   9  18  35  60  89 119 153 194 235 280 340
#     4   9  20  37  58  86 120 155 190 238 289 340
#     4  12  25  41  62  87 117 155 202 251 304 357
#     4  12  25  41  62  88 119 156 201 247 301 360
#     4  11  22  39  64  88 117 154 196 249 305 354
#     4  11  23  41  60  85 123 160 200 246 297 353
#
# _framework density 20.794619999999998
#
# number of rings (size 3 to 8) (size 9 to 14) (size 15 to 20)
#    0.000    1.333    1.667    4.500    0.000    3.667 
#    0.000    1.667    0.000    0.000    0.000    0.000 
#    0.000    0.000    0.000    0.000    0.000    0.000 
#
# Total GULP energy -297727.124193 kJ/mol
# GULP energy per Si atom -12405.296841 kJ/mol
# Density = 2.074729 g / cm^3
# Si number density = 20.794620 Si / 1000 Ang^3
#
#
#
# Elastic Constant Matrix: (Units=GPa)
#
#
# Indices 1 2 3 4 5 6 
#
# 1 112.7889 12.7061 24.7273 0.0000 26.8734 0.0000
# 2 12.7061 64.5964 24.0561 0.0000 6.3774 0.0000
# 3 24.7273 24.0561 95.5979 0.0000 25.4133 0.0000
# 4 0.0000 0.0000 0.0000 27.4325 0.0000 6.0633
# 5 26.8734 6.3774 25.4133 0.0000 28.5079 0.0000
# 6 0.0000 0.0000 0.0000 6.0633 0.0000 31.5505
#
#
#
# Elastic Compliance Matrix: (Units=1/GPa)
#
#
# Indices 1 2 3 4 5 6 
#
# 1 0.011531 -0.001280 0.000201 0.000000 -0.010762 0.000000
# 2 -0.001280 0.017224 -0.004324 0.000000 0.001209 0.000000
# 3 0.000201 -0.004324 0.014796 0.000000 -0.012412 0.000000
# 4 0.000000 0.000000 0.000000 0.038070 0.000000 -0.007316
# 5 -0.010762 0.001209 -0.012412 0.000000 0.056017 0.000000
# 6 0.000000 0.000000 0.000000 -0.007316 0.000000 0.033101
#
#
# Mechanical properties :
#
#
# Convention : Reuss Voigt Hill
#
# Bulk Modulus (GPa) = 30.54149 43.99581 37.26865
# Shear Modulus (GPa) = 25.97933 31.59776 28.78854
#
# Velocity S-wave (km/s) = 3.53842 3.90233 3.72482
# Velocity P-wave (km/s) = 5.60473 6.44263 6.03823
#
# Compressibility (1/GPa) = 0.03274235
#
# Stress axis : x y z
#
# Youngs Moduli (GPa) = 86.72643 58.05974 67.58472
#
# Poissons Ratio (x) = 0.07433 -0.01355
# Poissons Ratio (y) = 0.11103 0.29226
# Poissons Ratio (z) = -0.01739 0.25107
#
# Static dielectric constant tensor:
#      x y z
#    x 4.015710 0.000000 0.134670 
#    y 0.000000 3.674800 0.000000 
#    z 0.134670 0.000000 3.812100 
# 
# 
# High freq. dielectric constant tensor:
#      x y z
#    x 1.825130 0.000000 0.012540 
#    y 0.000000 1.811460 0.000000 
#    z 0.012540 0.000000 1.805280 
# 
# From -- ./inp_files/308600.got.cif
#   From: 2010.06.25/outbox.cif.g09.slc.cpg/sg12_155_cif.got.tgz:308600.got - 2010.06.28 00:19:55.
