data_PCOD8114543
_publ_section_title
;
Structure prediction by ZEFSAII (Michael W. Deem and Ramdas Pophale) SiO2 
 PCOD8114543
Probable space group: C 2/M
;
_chemical_formula_sum "Si O2"
_cell_formula_units_Z 40
_cell_length_a 15.218337
_cell_length_b 12.750317
_cell_length_c 13.123387
_cell_angle_alpha 90.000000
_cell_angle_beta 50.862233
_cell_angle_gamma 90.000000
_cell_volume 1975.099627
_symmetry_space_group_name_H-M "C 2/M"
_symmetry_group_IT_number 12
_symmetry_cell_setting 'monoclinic'
loop_
_space_group_symop_operation_xyz
x,y,z
-x,y,-z
-x,-y,-z
x,-y,z
1/2+x,1/2+y,z
1/2-x,1/2+y,-z
1/2-x,1/2-y,-z
1/2+x,1/2-y,z
loop_
_atom_site_type_symbol
_atom_site_label
_atom_site_fract_x
_atom_site_fract_y
_atom_site_fract_z
Si Si1 0.804573 0.827647 0.174331
Si Si2 0.000000 0.672875 0.000000
Si Si3 0.769020 0.000000 0.558960
Si Si4 0.124683 0.170218 0.377240
Si Si5 0.111653 0.000000 0.737428
Si Si6 0.521500 0.000000 0.816473
Si Si7 0.379116 0.500000 0.791631
Si Si8 0.717872 0.000000 0.089087
O O1 0.698380 0.773626 0.306946
O O2 0.871664 0.896507 0.207509
O O3 0.759944 0.896342 0.114176
O O4 0.888599 0.742328 0.064953
O O5 0.018910 0.603707 0.886473
O O6 0.821963 0.897179 0.571015
O O7 0.634279 0.000000 0.666936
O O8 0.797657 0.000000 0.419310
O O9 0.000000 0.207428 0.500000
O O10 0.118219 0.103287 0.278849
O O11 0.983641 0.000000 0.792266
O O12 0.417771 0.000000 0.814040
O O13 0.262936 0.500000 0.940201
#
# Coordination Sequence:
#
# PCOD8114543 Si02
#       8
#     8   4   4   8   4   4   4   4
#     4  11  25  42  62  92 133 165 206 255 312 369
#     4  11  22  43  66  94 126 167 206 257 310 372
#     4  11  21  45  65  93 125 160 211 265 306 369
#     4  11  22  42  68  93 121 160 212 261 309 369
#     4  11  24  42  64  92 126 170 207 258 307 363
#     4  11  24  40  68  94 128 162 205 264 312 358
#     4  11  21  41  69  90 122 163 212 253 305 374
#     4  11  26  42  59  96 132 166 204 255 311 372
#
# _framework density 20.252143
#
# number of rings (size 3 to 8) (size 9 to 14) (size 15 to 20)
#    0.000    1.000    4.000    3.000    2.800    8.800 
#    0.000    2.000    0.000    0.000    0.000    0.000 
#    0.000    0.000    0.000    0.000    0.000    0.000 
#
# Total GULP energy -248159.989103 kJ/mol
# GULP energy per Si atom -12407.999455 kJ/mol
# Density = 2.020605 g / cm^3
# Si number density = 20.252143 Si / 1000 Ang^3
#
#
#
# Elastic Constant Matrix: (Units=GPa)
#
#
# Indices 1 2 3 4 5 6 
#
# 1 95.1177 16.3119 9.7108 0.0000 -16.2149 0.0000
# 2 16.3119 93.4317 9.8580 0.0000 -9.0139 0.0000
# 3 9.7108 9.8580 95.5343 0.0000 -22.1741 0.0000
# 4 0.0000 0.0000 0.0000 26.3410 0.0000 -8.5052
# 5 -16.2149 -9.0139 -22.1741 0.0000 44.4500 0.0000
# 6 0.0000 0.0000 0.0000 -8.5052 0.0000 7.2164
#
#
#
# Elastic Compliance Matrix: (Units=1/GPa)
#
#
# Indices 1 2 3 4 5 6 
#
# 1 0.011449 -0.001621 -0.000117 0.000000 0.003790 0.000000
# 2 -0.001621 0.011187 -0.000679 0.000000 0.001339 0.000000
# 3 -0.000117 -0.000679 0.011883 0.000000 0.005748 0.000000
# 4 0.000000 0.000000 0.000000 0.061286 0.000000 0.072231
# 5 0.003790 0.001339 0.005748 0.000000 0.027018 0.000000
# 6 0.000000 0.000000 0.000000 0.072231 0.000000 0.223704
#
#
# Mechanical properties :
#
#
# Convention : Reuss Voigt Hill
#
# Bulk Modulus (GPa) = 33.68602 39.53834 36.61218
# Shear Modulus (GPa) = 13.84056 32.14834 22.99445
#
# Velocity S-wave (km/s) = 2.61705 3.98855 3.37324
# Velocity P-wave (km/s) = 5.07950 6.38567 5.76967
#
# Compressibility (1/GPa) = 0.02968591
#
# Stress axis : x y z
#
# Youngs Moduli (GPa) = 87.34223 89.39128 84.15039
#
# Poissons Ratio (x) = 0.14490 0.00984
# Poissons Ratio (y) = 0.14158 0.05713
# Poissons Ratio (z) = 0.01021 0.06069
#
# Static dielectric constant tensor:
#      x y z
#    x 3.670310 0.000000 -0.130540 
#    y 0.000000 3.490810 0.000000 
#    z -0.130540 0.000000 3.772780 
# 
# 
# High freq. dielectric constant tensor:
#      x y z
#    x 1.797040 0.000000 -0.011020 
#    y 0.000000 1.794650 0.000000 
#    z -0.011020 0.000000 1.802430 
# 
# From -- ./inp_files/212408.got.cif
#   From: 2010.06.25/outbox.cif.g09.slc.cpg/sg12_107_cif.got.tgz:212408.got - 2010.06.28 00:19:55.
