data_PCOD8114245
_publ_section_title
;
Structure prediction by ZEFSAII (Michael W. Deem and Ramdas Pophale) SiO2 
 PCOD8114245
Probable space group: C 2/M
;
_chemical_formula_sum "Si O2"
_cell_formula_units_Z 56
_cell_length_a 18.774535
_cell_length_b 26.508726
_cell_length_c 9.829754
_cell_angle_alpha 90.000000
_cell_angle_beta 33.862050
_cell_angle_gamma 90.000000
_cell_volume 2725.888464
_symmetry_space_group_name_H-M "C 2/M"
_symmetry_group_IT_number 12
_symmetry_cell_setting 'monoclinic'
loop_
_space_group_symop_operation_xyz
x,y,z
-x,y,-z
-x,-y,-z
x,-y,z
1/2+x,1/2+y,z
1/2-x,1/2+y,-z
1/2-x,1/2-y,-z
1/2+x,1/2-y,z
loop_
_atom_site_type_symbol
_atom_site_label
_atom_site_fract_x
_atom_site_fract_y
_atom_site_fract_z
Si Si1 0.719803 0.440627 0.473136
Si Si2 0.390128 0.892380 0.985021
Si Si3 0.299691 0.774325 0.559179
Si Si4 0.203041 0.557725 0.139795
Si Si5 0.507970 0.442790 0.340178
Si Si6 0.168264 0.391936 0.467894
Si Si7 0.568293 0.779440 0.038797
O O1 0.733213 0.500000 0.439417
O O2 0.588152 0.418851 0.617550
O O3 0.724012 0.424868 0.625384
O O4 0.834436 0.413665 0.212394
O O5 0.318432 0.918137 0.972427
O O6 0.538723 0.905099 0.751355
O O7 0.374998 0.832274 0.000204
O O8 0.250000 0.750000 0.500000
O O9 0.290068 0.834337 0.582627
O O10 0.453376 0.760344 0.324765
O O11 0.197267 0.755160 0.835478
O O12 0.152191 0.500000 0.222304
O O13 0.139418 0.591180 0.358772
O O14 0.351506 0.559708 0.942764
O O15 0.500000 0.414956 0.500000
O O16 0.460856 0.500000 0.437953
O O17 0.500000 0.784929 0.000000
#
# Coordination Sequence:
#
# PCOD8114245 Si02
#       7
#     8   8   8   8   8   8   8
#     4  11  21  35  59  86 118 159 203 248 287 348
#     4  11  21  37  61  86 119 161 198 241 297 356
#     4   9  18  38  59  83 118 154 190 249 312 360
#     4  11  23  40  59  84 125 167 198 235 295 361
#     4   9  18  37  57  76 112 162 204 240 287 338
#     4  11  24  38  56  93 124 149 196 252 305 348
#     4   9  18  36  61  86 118 151 197 253 307 362
#
# _framework density 20.543759000000001
#
# number of rings (size 3 to 8) (size 9 to 14) (size 15 to 20)
#    0.000    1.857    1.429    4.286    0.000    4.000 
#   10.286    2.857    0.000    0.000    0.000    0.000 
#    0.000    0.000    0.000    0.000    0.000    0.000 
#
# Total GULP energy -346905.454515 kJ/mol
# GULP energy per Si atom -12389.480518 kJ/mol
# Density = 2.049700 g / cm^3
# Si number density = 20.543759 Si / 1000 Ang^3
#
#
#
# Elastic Constant Matrix: (Units=GPa)
#
#
# Indices 1 2 3 4 5 6 
#
# 1 76.9627 22.1866 12.5676 0.0000 -0.0778 0.0000
# 2 22.1866 85.2540 47.9551 0.0000 -8.2481 0.0000
# 3 12.5676 47.9551 105.2937 0.0001 -12.6633 0.0000
# 4 0.0000 0.0000 0.0001 31.0213 0.0000 1.5212
# 5 -0.0778 -8.2481 -12.6633 0.0000 21.7702 0.0000
# 6 0.0000 0.0000 0.0000 1.5212 0.0000 29.4044
#
#
#
# Elastic Compliance Matrix: (Units=1/GPa)
#
#
# Indices 1 2 3 4 5 6 
#
# 1 0.014090 -0.003715 -0.000165 0.000000 -0.001453 0.000000
# 2 -0.003715 0.016825 -0.006940 0.000000 0.002324 0.000000
# 3 -0.000165 -0.006940 0.013291 0.000000 0.005101 0.000000
# 4 0.000000 0.000000 0.000000 0.032318 0.000000 -0.001672
# 5 -0.001453 0.002324 0.005101 0.000000 0.049777 0.000000
# 6 0.000000 0.000000 0.000000 -0.001672 0.000000 0.034095
#
#
# Mechanical properties :
#
#
# Convention : Reuss Voigt Hill
#
# Bulk Modulus (GPa) = 44.31174 48.10322 46.20748
# Shear Modulus (GPa) = 26.37742 28.75926 27.56834
#
# Velocity S-wave (km/s) = 3.58713 3.74559 3.66721
# Velocity P-wave (km/s) = 6.22679 6.49398 6.36179
#
# Compressibility (1/GPa) = 0.02256738
#
# Stress axis : x y z
#
# Youngs Moduli (GPa) = 70.97449 59.43591 75.23843
#
# Poissons Ratio (x) = 0.22078 0.01239
# Poissons Ratio (y) = 0.26364 0.52214
# Poissons Ratio (z) = 0.01168 0.41247
#
# Static dielectric constant tensor:
#      x y z
#    x 3.618190 0.000000 -0.142090 
#    y 0.000000 3.611230 0.000000 
#    z -0.142090 0.000000 4.233610 
# 
# 
# High freq. dielectric constant tensor:
#      x y z
#    x 1.790160 0.000000 -0.008980 
#    y 0.000000 1.782690 0.000000 
#    z -0.008980 0.000000 1.816360 
# 
# From -- ./inp_files/136721.got.cif
#   From: 2010.06.25/outbox.cif.g09.slc.cpg/sg12_69_cif.got.tgz:136721.got - 2010.06.28 00:19:55.
