data_PCOD8114316
_publ_section_title
;
Structure prediction by ZEFSAII (Michael W. Deem and Ramdas Pophale) SiO2 
 PCOD8114316
Probable space group: C 2/M
;
_chemical_formula_sum "Si O2"
_cell_formula_units_Z 56
_cell_length_a 12.771809
_cell_length_b 19.476296
_cell_length_c 12.297792
_cell_angle_alpha 90.000000
_cell_angle_beta 63.969655
_cell_angle_gamma 90.000000
_cell_volume 2748.741202
_symmetry_space_group_name_H-M "C 2/M"
_symmetry_group_IT_number 12
_symmetry_cell_setting 'monoclinic'
loop_
_space_group_symop_operation_xyz
x,y,z
-x,y,-z
-x,-y,-z
x,-y,z
1/2+x,1/2+y,z
1/2-x,1/2+y,-z
1/2-x,1/2-y,-z
1/2+x,1/2-y,z
loop_
_atom_site_type_symbol
_atom_site_label
_atom_site_fract_x
_atom_site_fract_y
_atom_site_fract_z
Si Si1 0.251010 0.855038 0.753579
Si Si2 0.339530 0.840996 0.321163
Si Si3 0.628999 0.074111 0.481388
Si Si4 0.368330 0.080023 0.095838
Si Si5 0.979475 0.204544 0.222676
Si Si6 0.397112 0.727501 0.626957
Si Si7 0.790454 0.171894 0.986478
O O1 0.297260 0.918899 0.663697
O O2 0.132989 0.839922 0.744738
O O3 0.345553 0.794983 0.705019
O O4 0.232192 0.867934 0.890017
O O5 0.353774 0.866323 0.437991
O O6 0.355765 0.903110 0.229178
O O7 0.437517 0.784375 0.245074
O O8 0.207195 0.813653 0.381846
O O9 0.500000 0.076161 0.500000
O O10 0.660658 0.000000 0.518423
O O11 0.275588 0.127770 0.075094
O O12 0.339028 0.000000 0.089293
O O13 0.500000 0.097113 0.000000
O O14 0.042671 0.182911 0.305875
O O15 0.070771 0.181747 0.088601
O O16 0.500000 0.749282 0.500000
O O17 0.750000 0.250000 0.000000
#
# Coordination Sequence:
#
# PCOD8114316 Si02
#       7
#     8   8   8   8   8   8   8
#     4  11  23  38  61  91 131 163 206 267 317 384
#     4  11  22  42  67  92 132 164 215 273 320 389
#     4  11  25  42  64  91 123 171 220 264 321 389
#     4  11  25  42  66  97 130 171 217 271 331 388
#     4  11  21  38  63  98 127 163 208 266 332 386
#     4  11  21  36  62  95 127 163 205 263 328 373
#     4  12  22  41  64  97 131 170 217 267 327 395
#
# _framework density 20.372961
#
# number of rings (size 3 to 8) (size 9 to 14) (size 15 to 20)
#    0.000    0.857    2.857    5.571    2.000    2.857 
#    0.000    0.714    0.000    3.429    0.000    0.000 
#    0.000    0.000    0.000    0.000    0.000    0.000 
#
# Total GULP energy -347020.710033 kJ/mol
# GULP energy per Si atom -12393.596787 kJ/mol
# Density = 2.032659 g / cm^3
# Si number density = 20.372961 Si / 1000 Ang^3
#
#
#
# Elastic Constant Matrix: (Units=GPa)
#
#
# Indices 1 2 3 4 5 6 
#
# 1 115.2151 40.9379 45.4290 0.0000 -9.9050 0.0000
# 2 40.9379 80.2326 24.4339 0.0000 -1.0509 0.0000
# 3 45.4290 24.4339 130.0318 0.0000 -6.8782 0.0000
# 4 0.0000 0.0000 0.0000 39.4036 0.0000 -1.1406
# 5 -9.9050 -1.0509 -6.8782 0.0000 40.8886 0.0000
# 6 0.0000 0.0000 0.0000 -1.1406 0.0000 25.7564
#
#
#
# Elastic Compliance Matrix: (Units=1/GPa)
#
#
# Indices 1 2 3 4 5 6 
#
# 1 0.011900 -0.005104 -0.003080 0.000000 0.002233 0.000000
# 2 -0.005104 0.015410 -0.001167 0.000000 -0.001037 0.000000
# 3 -0.003080 -0.001167 0.009025 0.000000 0.000742 0.000000
# 4 0.000000 0.000000 0.000000 0.025411 0.000000 0.001125
# 5 0.002233 -0.001037 0.000742 0.000000 0.025096 0.000000
# 6 0.000000 0.000000 0.000000 0.001125 0.000000 0.038875
#
#
# Mechanical properties :
#
#
# Convention : Reuss Voigt Hill
#
# Bulk Modulus (GPa) = 56.71675 60.78676 58.75176
# Shear Modulus (GPa) = 33.26747 35.52165 34.39456
#
# Velocity S-wave (km/s) = 4.04533 4.18014 4.11328
# Velocity P-wave (km/s) = 7.05119 7.29382 7.17353
#
# Compressibility (1/GPa) = 0.01763147
#
# Stress axis : x y z
#
# Youngs Moduli (GPa) = 84.03695 64.89254 110.80245
#
# Poissons Ratio (x) = 0.33124 0.34128
# Poissons Ratio (y) = 0.42896 0.12933
# Poissons Ratio (z) = 0.25884 0.07574
#
# Static dielectric constant tensor:
#      x y z
#    x 3.894120 0.000000 -0.227840 
#    y 0.000000 3.689280 0.000000 
#    z -0.227840 0.000000 4.511180 
# 
# 
# High freq. dielectric constant tensor:
#      x y z
#    x 1.816340 0.000000 -0.002760 
#    y 0.000000 1.765530 0.000000 
#    z -0.002760 0.000000 1.811050 
# 
# From -- ./inp_files/133878.got.cif
#   From: 2010.06.25/outbox.cif.g09.slc.cpg/sg12_67_cif.got.tgz:133878.got - 2010.06.28 00:19:55.
