data_PCOD8114860
_publ_section_title
;
Structure prediction by ZEFSAII (Michael W. Deem and Ramdas Pophale) SiO2 
 PCOD8114860
Probable space group: C 2/M
;
_chemical_formula_sum "Si O2"
_cell_formula_units_Z 40
_cell_length_a 9.040673
_cell_length_b 21.664198
_cell_length_c 9.852086
_cell_angle_alpha 90.000000
_cell_angle_beta 91.245029
_cell_angle_gamma 90.000000
_cell_volume 1929.163469
_symmetry_space_group_name_H-M "C 2/M"
_symmetry_group_IT_number 12
_symmetry_cell_setting 'monoclinic'
loop_
_space_group_symop_operation_xyz
x,y,z
-x,y,-z
-x,-y,-z
x,-y,z
1/2+x,1/2+y,z
1/2-x,1/2+y,-z
1/2-x,1/2-y,-z
1/2+x,1/2-y,z
loop_
_atom_site_type_symbol
_atom_site_label
_atom_site_fract_x
_atom_site_fract_y
_atom_site_fract_z
Si Si1 0.710261 0.387660 0.768618
Si Si2 0.633302 0.771404 0.102713
Si Si3 0.629184 0.641327 0.218582
Si Si4 0.327186 0.430785 0.521735
Si Si5 0.665640 0.932463 0.978209
O O1 0.804823 0.326704 0.805013
O O2 0.535307 0.384978 0.791945
O O3 0.751308 0.406040 0.615840
O O4 0.763481 0.440788 0.871486
O O5 0.606568 0.715024 0.207726
O O6 0.500000 0.790309 0.000000
O O7 0.750000 0.750000 0.000000
O O8 0.707061 0.618342 0.359413
O O9 0.735543 0.616875 0.101056
O O10 0.500000 0.434056 0.500000
O O11 0.269086 0.500000 0.557117
O O12 0.665421 0.000000 0.906938
O O13 0.500000 0.907357 0.000000
#
# Coordination Sequence:
#
# PCOD8114860 Si02
#       5
#     8   8   8   8   8
#     4  11  22  38  63  90 121 161 204 254 307 363
#     4  12  22  38  62  93 125 160 205 258 305 361
#     4  11  22  39  63  89 118 163 207 251 308 364
#     4   9  20  39  62  90 123 157 204 258 304 363
#     4  11  23  37  58  88 120 158 206 257 309 363
#
# _framework density 20.734376000000001
#
# number of rings (size 3 to 8) (size 9 to 14) (size 15 to 20)
#    0.000    1.200    4.000    2.400    0.000    4.000 
#    0.000    1.000    0.000    3.600    0.000    0.000 
#    0.000    0.000    0.000    0.000    0.000    0.000 
#
# Total GULP energy -247775.876240 kJ/mol
# GULP energy per Si atom -12388.793812 kJ/mol
# Density = 2.068718 g / cm^3
# Si number density = 20.734376 Si / 1000 Ang^3
#
#
#
# Elastic Constant Matrix: (Units=GPa)
#
#
# Indices 1 2 3 4 5 6 
#
# 1 90.6363 15.9095 31.8624 0.0000 10.5903 0.0000
# 2 15.9095 120.1806 43.3004 0.0000 3.8631 0.0000
# 3 31.8624 43.3004 145.9084 0.0000 17.2757 0.0000
# 4 0.0000 0.0000 0.0000 36.6571 0.0000 9.2036
# 5 10.5903 3.8631 17.2757 0.0000 17.9071 0.0000
# 6 0.0000 0.0000 0.0000 9.2036 0.0000 11.2657
#
#
#
# Elastic Compliance Matrix: (Units=1/GPa)
#
#
# Indices 1 2 3 4 5 6 
#
# 1 0.012455 -0.000813 -0.001837 0.000000 -0.005418 0.000000
# 2 -0.000813 0.009379 -0.002736 0.000000 0.001097 0.000000
# 3 -0.001837 -0.002736 0.008883 0.000000 -0.006893 0.000000
# 4 0.000000 0.000000 0.000000 0.034319 0.000000 -0.028037
# 5 -0.005418 0.001097 -0.006893 0.000000 0.065462 0.000000
# 6 0.000000 0.000000 0.000000 -0.028037 0.000000 0.111671
#
#
# Mechanical properties :
#
#
# Convention : Reuss Voigt Hill
#
# Bulk Modulus (GPa) = 50.13695 59.87442 55.00569
# Shear Modulus (GPa) = 19.26135 30.87616 25.06876
#
# Velocity S-wave (km/s) = 3.05119 3.86311 3.48090
# Velocity P-wave (km/s) = 6.05360 6.98840 6.53773
#
# Compressibility (1/GPa) = 0.01994537
#
# Stress axis : x y z
#
# Youngs Moduli (GPa) = 80.29136 106.62356 112.57763
#
# Poissons Ratio (x) = 0.08665 0.20681
# Poissons Ratio (y) = 0.06525 0.30797
# Poissons Ratio (z) = 0.14750 0.29168
#
# Static dielectric constant tensor:
#      x y z
#    x 3.571020 0.000000 0.179740 
#    y 0.000000 3.922570 0.000000 
#    z 0.179740 0.000000 3.965130 
# 
# 
# High freq. dielectric constant tensor:
#      x y z
#    x 1.801690 0.000000 0.011180 
#    y 0.000000 1.826060 0.000000 
#    z 0.011180 0.000000 1.806280 
# 
# From -- ./inp_files/39219.got.cif
#   From: 2010.06.25/outbox.cif.g09.slc.cpg/sg12_20_cif.got.tgz:39219.got - 2010.06.28 00:19:55.
