data_PCOD8114889
_publ_section_title
;
Structure prediction by ZEFSAII (Michael W. Deem and Ramdas Pophale) SiO2 
 PCOD8114889
Probable space group: C 2/M
;
_chemical_formula_sum "Si O2"
_cell_formula_units_Z 64
_cell_length_a 22.225141
_cell_length_b 22.826031
_cell_length_c 18.023801
_cell_angle_alpha 90.000000
_cell_angle_beta 161.791733
_cell_angle_gamma 90.000000
_cell_volume 2857.145749
_symmetry_space_group_name_H-M "C 2/M"
_symmetry_group_IT_number 12
_symmetry_cell_setting 'monoclinic'
loop_
_space_group_symop_operation_xyz
x,y,z
-x,y,-z
-x,-y,-z
x,-y,z
1/2+x,1/2+y,z
1/2-x,1/2+y,-z
1/2-x,1/2-y,-z
1/2+x,1/2-y,z
loop_
_atom_site_type_symbol
_atom_site_label
_atom_site_fract_x
_atom_site_fract_y
_atom_site_fract_z
Si Si1 0.340728 0.252844 0.427891
Si Si2 0.444549 0.625732 0.597521
Si Si3 0.960622 0.933985 0.773620
Si Si4 0.151366 0.647160 0.992940
Si Si5 0.251157 0.236802 0.166134
Si Si6 0.640983 0.866639 0.469161
Si Si7 0.143049 0.610067 0.736847
Si Si8 0.198450 0.566505 0.189880
O O1 0.316371 0.314581 0.441793
O O2 0.195818 0.242170 0.189085
O O3 0.536705 0.255500 0.610640
O O4 0.323436 0.200821 0.466954
O O5 0.416017 0.597315 0.643850
O O6 0.670201 0.639509 0.854100
O O7 0.374536 0.582006 0.450792
O O8 0.842948 0.900850 0.701062
O O9 0.884034 0.000000 0.678198
O O10 0.187666 0.937698 0.061332
O O11 0.113129 0.716291 0.964508
O O12 0.196646 0.610647 0.119305
O O13 0.957157 0.626331 0.726205
O O14 0.229734 0.170000 0.114278
O O15 0.497214 0.897237 0.358170
O O16 0.000000 0.605179 0.500000
O O17 0.227448 0.500000 0.195391
O O18 0.000000 0.573532 0.000000
#
# Coordination Sequence:
#
# PCOD8114889 Si02
#       8
#     8   8   8   8   8   8   8   8
#     4   9  18  37  68  98 137 172 218 275 345 405
#     4  11  22  41  68 100 136 180 230 279 336 417
#     4  12  29  48  68 100 140 181 236 296 337 401
#     4  11  22  38  69 104 136 184 230 274 340 409
#     4   9  17  37  68 101 138 169 212 281 342 408
#     4  11  24  45  70 105 138 181 224 284 352 409
#     4  11  23  48  77 100 131 179 227 284 363 418
#     4  11  24  41  59  89 140 191 233 277 327 398
#
# _framework density 22.399977
#
# number of rings (size 3 to 8) (size 9 to 14) (size 15 to 20)
#    0.000    1.375    5.000    1.500    1.750    6.250 
#    2.250    0.625    0.000    0.000    0.000    0.000 
#    0.000    0.000    0.000    0.000    0.000    0.000 
#
# Total GULP energy -396649.553931 kJ/mol
# GULP energy per Si atom -12395.298560 kJ/mol
# Density = 2.234899 g / cm^3
# Si number density = 22.399977 Si / 1000 Ang^3
#
#
#
# Elastic Constant Matrix: (Units=GPa)
#
#
# Indices 1 2 3 4 5 6 
#
# 1 105.8033 56.3364 44.0211 0.0002 -2.7276 -0.0002
# 2 56.3364 115.3973 19.6401 0.0000 6.2990 0.0000
# 3 44.0211 19.6401 66.3868 -0.0002 -5.7082 0.0002
# 4 0.0002 0.0000 -0.0002 18.1752 0.0000 5.6363
# 5 -2.7276 6.2990 -5.7082 0.0000 24.7166 0.0001
# 6 -0.0002 0.0000 0.0002 5.6363 0.0001 12.8131
#
#
#
# Elastic Compliance Matrix: (Units=1/GPa)
#
#
# Indices 1 2 3 4 5 6 
#
# 1 0.016861 -0.006773 -0.009048 0.000000 0.001497 0.000001
# 2 -0.006773 0.012071 0.000604 0.000000 -0.003684 0.000000
# 3 -0.009048 0.000604 0.021207 0.000001 0.003745 -0.000001
# 4 0.000000 0.000000 0.000001 0.063711 0.000000 -0.028026
# 5 0.001497 -0.003684 0.003745 0.000000 0.042428 0.000000
# 6 0.000001 0.000000 -0.000001 -0.028026 0.000000 0.090373
#
#
# Mechanical properties :
#
#
# Convention : Reuss Voigt Hill
#
# Bulk Modulus (GPa) = 50.75431 58.62028 54.68730
# Shear Modulus (GPa) = 17.62712 22.31365 19.97039
#
# Velocity S-wave (km/s) = 2.80826 3.15960 2.98910
# Velocity P-wave (km/s) = 5.76390 6.28788 6.03158
#
# Compressibility (1/GPa) = 0.01970276
#
# Stress axis : x y z
#
# Youngs Moduli (GPa) = 59.30739 82.84430 47.15533
#
# Poissons Ratio (x) = 0.56114 0.42667
# Poissons Ratio (y) = 0.40171 -0.02846
# Poissons Ratio (z) = 0.53662 -0.05000
#
# Static dielectric constant tensor:
#      x y z
#    x 4.046400 0.000000 -0.054830 
#    y 0.000000 4.100550 0.000000 
#    z -0.054830 0.000000 3.889240 
# 
# 
# High freq. dielectric constant tensor:
#      x y z
#    x 1.885100 0.000000 -0.001870 
#    y 0.000000 1.876390 0.000000 
#    z -0.001870 0.000000 1.872400 
# 
# From -- ./inp_files/286485.got.cif
#   From: 2010.06.25/outbox.cif.g09.slc.cpg/sg12_144_cif.got.tgz:286485.got - 2010.06.28 00:19:55.
