data_PCOD8114059
_publ_section_title
;
Structure prediction by ZEFSAII (Michael W. Deem and Ramdas Pophale) SiO2 
 PCOD8114059
Probable space group: C 2/M
;
_chemical_formula_sum "Si O2"
_cell_formula_units_Z 48
_cell_length_a 15.184610
_cell_length_b 11.377139
_cell_length_c 13.821672
_cell_angle_alpha 90.000000
_cell_angle_beta 67.572624
_cell_angle_gamma 90.000000
_cell_volume 2207.192656
_symmetry_space_group_name_H-M "C 2/M"
_symmetry_group_IT_number 12
_symmetry_cell_setting 'monoclinic'
loop_
_space_group_symop_operation_xyz
x,y,z
-x,y,-z
-x,-y,-z
x,-y,z
1/2+x,1/2+y,z
1/2-x,1/2+y,-z
1/2-x,1/2-y,-z
1/2+x,1/2-y,z
loop_
_atom_site_type_symbol
_atom_site_label
_atom_site_fract_x
_atom_site_fract_y
_atom_site_fract_z
Si Si1 0.871323 0.500000 0.219615
Si Si2 0.147232 0.000000 0.303215
Si Si3 0.919988 0.240000 0.677356
Si Si4 0.627096 0.799780 0.640141
Si Si5 0.140737 0.000000 0.086379
Si Si6 0.792743 0.629718 0.592756
Si Si7 0.142229 0.745200 0.079553
Si Si8 0.868687 0.500000 0.001338
O O1 0.758866 0.500000 0.268354
O O2 0.908892 0.385950 0.260234
O O3 0.908805 0.500000 0.094115
O O4 0.107184 0.880976 0.367152
O O5 0.108354 0.000000 0.210502
O O6 0.884263 0.341267 0.620507
O O7 0.863563 0.255209 0.801891
O O8 0.033107 0.236728 0.640629
O O9 0.701524 0.709230 0.655618
O O10 0.679166 0.867304 0.531607
O O11 0.100840 0.125474 0.058965
O O12 0.255567 0.000000 0.036858
O O13 0.759451 0.500000 0.633109
O O14 0.250000 0.750000 0.000000
O O15 0.092601 0.623758 0.061917
#
# Coordination Sequence:
#
# PCOD8114059 Si02
#       8
#     4   4   8   8   4   8   8   4
#     4  11  20  43  65  87 135 170 205 266 326 378
#     4   9  18  38  63  87 116 173 210 249 315 374
#     4  11  23  40  68  95 128 168 218 263 320 378
#     4  11  25  42  64  96 125 168 214 269 322 387
#     4   7  14  30  53  80 119 155 205 255 303 363
#     4  11  25  44  64  92 130 167 210 270 332 382
#     4   9  18  34  58  93 123 167 211 259 312 381
#     4   9  18  31  59  87 120 163 212 254 304 379
#
# _framework density 21.747081999999999
#
# number of rings (size 3 to 8) (size 9 to 14) (size 15 to 20)
#    0.000    2.000    2.500    1.500    3.500    0.667 
#    0.000    2.500    0.000    0.000    0.000    4.667 
#    0.000    0.000    0.000    0.000    0.000    0.000 
#
# Total GULP energy -297348.368404 kJ/mol
# GULP energy per Si atom -12389.515350 kJ/mol
# Density = 2.169758 g / cm^3
# Si number density = 21.747082 Si / 1000 Ang^3
#
#
#
# Elastic Constant Matrix: (Units=GPa)
#
#
# Indices 1 2 3 4 5 6 
#
# 1 69.0545 10.0708 4.4453 0.0000 5.1476 0.0000
# 2 10.0708 189.8463 34.9803 0.0000 15.5647 0.0000
# 3 4.4453 34.9803 71.3866 0.0000 9.1056 0.0000
# 4 0.0000 0.0000 0.0000 26.7439 0.0000 11.6704
# 5 5.1476 15.5647 9.1056 0.0000 24.4733 0.0000
# 6 0.0000 0.0000 0.0000 11.6704 0.0000 7.8697
#
#
#
# Elastic Compliance Matrix: (Units=1/GPa)
#
#
# Indices 1 2 3 4 5 6 
#
# 1 0.014775 -0.000504 -0.000333 0.000000 -0.002663 0.000000
# 2 -0.000504 0.005990 -0.002553 0.000000 -0.002754 0.000000
# 3 -0.000333 -0.002553 0.015814 0.000000 -0.004190 0.000000
# 4 0.000000 0.000000 0.000000 0.105962 0.000000 -0.157135
# 5 -0.002663 -0.002754 -0.004190 0.000000 0.044732 0.000000
# 6 0.000000 0.000000 0.000000 -0.157135 0.000000 0.360092
#
#
# Mechanical properties :
#
#
# Convention : Reuss Voigt Hill
#
# Bulk Modulus (GPa) = 33.55782 47.69781 40.62782
# Shear Modulus (GPa) = 8.86402 30.53679 19.70041
#
# Velocity S-wave (km/s) = 2.02109 3.75130 3.01306
# Velocity P-wave (km/s) = 4.57284 6.38307 5.55223
#
# Compressibility (1/GPa) = 0.02979931
#
# Stress axis : x y z
#
# Youngs Moduli (GPa) = 67.68284 166.93705 63.23385
#
# Poissons Ratio (x) = 0.08414 0.02108
# Poissons Ratio (y) = 0.03411 0.16141
# Poissons Ratio (z) = 0.02257 0.42613
#
# Static dielectric constant tensor:
#      x y z
#    x 3.493490 0.000000 0.053910 
#    y 0.000000 4.702270 0.000000 
#    z 0.053910 0.000000 3.927430 
# 
# 
# High freq. dielectric constant tensor:
#      x y z
#    x 1.826560 0.000000 -0.006140 
#    y 0.000000 1.877760 0.000000 
#    z -0.006140 0.000000 1.839900 
# 
# From -- ./inp_files/212732.got.cif
#   From: 2010.06.25/outbox.cif.g09.slc.cpg/sg12_107_cif.got.tgz:212732.got - 2010.06.28 00:19:55.
