data_PCOD8114406
_publ_section_title
;
Structure prediction by ZEFSAII (Michael W. Deem and Ramdas Pophale) SiO2 
 PCOD8114406
Probable space group: C 2/M
;
_chemical_formula_sum "Si O2"
_cell_formula_units_Z 52
_cell_length_a 29.503930
_cell_length_b 14.254270
_cell_length_c 6.293028
_cell_angle_alpha 90.000000
_cell_angle_beta 63.326802
_cell_angle_gamma 90.000000
_cell_volume 2364.932069
_symmetry_space_group_name_H-M "C 2/M"
_symmetry_group_IT_number 12
_symmetry_cell_setting 'monoclinic'
loop_
_space_group_symop_operation_xyz
x,y,z
-x,y,-z
-x,-y,-z
x,-y,z
1/2+x,1/2+y,z
1/2-x,1/2+y,-z
1/2-x,1/2-y,-z
1/2+x,1/2-y,z
loop_
_atom_site_type_symbol
_atom_site_label
_atom_site_fract_x
_atom_site_fract_y
_atom_site_fract_z
Si Si1 0.426447 0.758741 0.493651
Si Si2 0.728697 0.153680 0.131591
Si Si3 0.000000 0.216681 0.000000
Si Si4 0.337862 0.773672 0.378105
Si Si5 0.565243 0.391746 0.190967
Si Si6 0.320533 0.399858 0.164050
Si Si7 0.131523 0.392410 0.079081
O O1 0.471456 0.783760 0.231507
O O2 0.376916 0.729945 0.465251
O O3 0.449344 0.669281 0.571504
O O4 0.411210 0.845454 0.678852
O O5 0.702152 0.161685 0.417225
O O6 0.778238 0.090218 0.067365
O O7 0.688479 0.109266 0.053880
O O8 0.750000 0.250000 0.000000
O O9 0.040618 0.148846 0.028803
O O10 0.306886 0.686181 0.346347
O O11 0.368144 0.836013 0.142297
O O12 0.549232 0.500000 0.258556
O O13 0.625498 0.378181 0.052970
O O14 0.322711 0.500000 0.281787
O O15 0.115485 0.500000 0.074393
#
# Coordination Sequence:
#
# PCOD8114406 Si02
#       7
#     8   8   4   8   8   8   8
#     4  11  23  43  67  95 130 168 216 271 330 389
#     4  11  22  40  64  92 134 176 221 267 318 377
#     4  12  23  42  71  96 132 172 213 270 333 392
#     4  11  22  42  65  91 130 178 215 270 323 380
#     4  11  24  42  66  97 136 177 216 260 321 394
#     4  11  21  38  60  93 131 171 215 260 313 376
#     4  11  24  43  67  95 129 174 224 274 328 388
#
# _framework density 21.987946999999998
#
# number of rings (size 3 to 8) (size 9 to 14) (size 15 to 20)
#    0.000    0.923    4.615    2.538    0.000    5.538 
#    0.000    1.154    0.000    4.615    0.000    0.000 
#    0.000    0.000    0.000    0.000    0.000    0.000 
#
# Total GULP energy -322300.794850 kJ/mol
# GULP energy per Si atom -12396.184417 kJ/mol
# Density = 2.193790 g / cm^3
# Si number density = 21.987947 Si / 1000 Ang^3
#
#
#
# Elastic Constant Matrix: (Units=GPa)
#
#
# Indices 1 2 3 4 5 6 
#
# 1 93.6827 21.8081 36.3792 0.0000 0.0483 0.0000
# 2 21.8081 133.4322 46.4143 0.0000 9.1891 0.0000
# 3 36.3792 46.4143 125.3022 0.0000 -2.8807 0.0000
# 4 0.0000 0.0000 0.0000 8.4879 0.0000 5.5232
# 5 0.0483 9.1891 -2.8807 0.0000 34.8138 0.0000
# 6 0.0000 0.0000 0.0000 5.5232 0.0000 15.7533
#
#
#
# Elastic Compliance Matrix: (Units=1/GPa)
#
#
# Indices 1 2 3 4 5 6 
#
# 1 0.012118 -0.000864 -0.003199 0.000000 -0.000054 0.000000
# 2 -0.000864 0.008895 -0.003104 0.000000 -0.002603 0.000000
# 3 -0.003199 -0.003104 0.010097 0.000000 0.001659 0.000000
# 4 0.000000 0.000000 0.000000 0.152639 0.000000 -0.053517
# 5 -0.000054 -0.002603 0.001659 0.000000 0.029549 0.000000
# 6 0.000000 0.000000 0.000000 -0.053517 0.000000 0.082242
#
#
# Mechanical properties :
#
#
# Convention : Reuss Voigt Hill
#
# Bulk Modulus (GPa) = 59.61008 62.40225 61.00616
# Shear Modulus (GPa) = 15.84959 28.33203 22.09081
#
# Velocity S-wave (km/s) = 2.68774 3.59350 3.17310
# Velocity P-wave (km/s) = 6.06639 6.75718 6.42108
#
# Compressibility (1/GPa) = 0.01677569
#
# Stress axis : x y z
#
# Youngs Moduli (GPa) = 82.52263 112.42828 99.03516
#
# Poissons Ratio (x) = 0.09713 0.31686
# Poissons Ratio (y) = 0.07129 0.30738
# Poissons Ratio (z) = 0.26402 0.34895
#
# Static dielectric constant tensor:
#      x y z
#    x 4.272040 0.000000 0.007980 
#    y 0.000000 3.882910 0.000000 
#    z 0.007980 0.000000 4.054010 
# 
# 
# High freq. dielectric constant tensor:
#      x y z
#    x 1.879990 0.000000 -0.001950 
#    y 0.000000 1.843190 0.000000 
#    z -0.001950 0.000000 1.863400 
# 
# From -- ./inp_files/31455.got.cif
#   From: 2010.06.25/outbox.cif.g09.slc.cpg/sg12_16_cif.got.tgz:31455.got - 2010.06.28 00:19:55.
