data_PCOD8114107
_publ_section_title
;
Structure prediction by ZEFSAII (Michael W. Deem and Ramdas Pophale) SiO2 
 PCOD8114107
Probable space group: C 2/M
;
_chemical_formula_sum "Si O2"
_cell_formula_units_Z 48
_cell_length_a 20.089768
_cell_length_b 21.769106
_cell_length_c 9.794040
_cell_angle_alpha 90.000000
_cell_angle_beta 140.396008
_cell_angle_gamma 90.000000
_cell_volume 2730.501172
_symmetry_space_group_name_H-M "C 2/M"
_symmetry_group_IT_number 12
_symmetry_cell_setting 'monoclinic'
loop_
_space_group_symop_operation_xyz
x,y,z
-x,y,-z
-x,-y,-z
x,-y,z
1/2+x,1/2+y,z
1/2-x,1/2+y,-z
1/2-x,1/2-y,-z
1/2+x,1/2-y,z
loop_
_atom_site_type_symbol
_atom_site_label
_atom_site_fract_x
_atom_site_fract_y
_atom_site_fract_z
Si Si1 0.497764 0.230853 0.154884
Si Si2 0.285776 0.192269 0.460655
Si Si3 0.268254 0.231716 0.872928
Si Si4 0.987896 0.932954 0.204762
Si Si5 0.062251 0.824685 0.473089
Si Si6 0.832395 0.930735 0.732158
O O1 0.588953 0.181897 0.331232
O O2 0.531413 0.292870 0.283128
O O3 0.500000 0.247949 0.000000
O O4 0.385390 0.206570 0.030029
O O5 0.250000 0.250000 0.500000
O O6 0.252537 0.208352 0.253239
O O7 0.243575 0.124933 0.432619
O O8 0.186211 0.178714 0.698548
O O9 0.250000 0.250000 0.000000
O O10 0.018469 0.892961 0.384846
O O11 0.080970 0.933305 0.245234
O O12 0.969822 0.000000 0.237926
O O13 0.882511 0.912962 0.958244
O O14 0.000000 0.793166 0.500000
O O15 0.780524 0.000000 0.657910
#
# Coordination Sequence:
#
# PCOD8114107 Si02
#       6
#     8   8   8   8   8   8
#     4  11  22  35  53  81 110 143 183 226 268 331
#     4  11  21  32  57  86 105 146 188 231 271 327
#     4  11  22  36  51  79 117 143 172 223 291 328
#     4   9  19  32  52  78 109 142 180 227 275 327
#     4  11  22  33  54  79 111 147 176 221 281 338
#     4   9  18  34  54  80 110 145 185 230 276 329
#
# _framework density 17.579190000000001
#
# number of rings (size 3 to 8) (size 9 to 14) (size 15 to 20)
#    0.000    1.667    3.333    4.000    2.333    0.333 
#    0.000    0.000    0.000    1.500    0.000    1.167 
#    0.000    0.000    0.000    0.000    0.000    0.000 
#
# Total GULP energy -297340.136323 kJ/mol
# GULP energy per Si atom -12389.172347 kJ/mol
# Density = 1.753918 g / cm^3
# Si number density = 17.579190 Si / 1000 Ang^3
#
#
#
# Elastic Constant Matrix: (Units=GPa)
#
#
# Indices 1 2 3 4 5 6 
#
# 1 90.6859 29.5611 46.3156 0.0000 8.1155 0.0000
# 2 29.5611 101.6340 50.8531 0.0000 7.6719 0.0000
# 3 46.3156 50.8531 102.5337 0.0000 12.5171 0.0000
# 4 0.0000 0.0000 0.0000 25.1322 0.0000 4.3163
# 5 8.1155 7.6719 12.5171 0.0000 45.0622 0.0000
# 6 0.0000 0.0000 0.0000 4.3163 0.0000 14.9658
#
#
#
# Elastic Compliance Matrix: (Units=1/GPa)
#
#
# Indices 1 2 3 4 5 6 
#
# 1 0.014478 -0.001234 -0.005833 0.000000 -0.000777 0.000000
# 2 -0.001234 0.013200 -0.005944 0.000000 -0.000374 0.000000
# 3 -0.005833 -0.005944 0.015613 0.000000 -0.002275 0.000000
# 4 0.000000 0.000000 0.000000 0.041863 0.000000 -0.012074
# 5 -0.000777 -0.000374 -0.002275 0.000000 0.023027 0.000000
# 6 0.000000 0.000000 0.000000 -0.012074 0.000000 0.070301
#
#
# Mechanical properties :
#
#
# Convention : Reuss Voigt Hill
#
# Bulk Modulus (GPa) = 57.90340 60.92371 59.41355
# Shear Modulus (GPa) = 23.77993 28.24029 26.01011
#
# Velocity S-wave (km/s) = 3.68194 4.01242 3.85073
# Velocity P-wave (km/s) = 7.14743 7.49653 7.32406
#
# Compressibility (1/GPa) = 0.01727014
#
# Stress axis : x y z
#
# Youngs Moduli (GPa) = 69.07094 75.75523 64.04752
#
# Poissons Ratio (x) = 0.09346 0.37359
# Poissons Ratio (y) = 0.08522 0.38070
# Poissons Ratio (z) = 0.40289 0.45029
#
# Static dielectric constant tensor:
#      x y z
#    x 3.322840 0.000000 0.051180 
#    y 0.000000 3.413890 0.000000 
#    z 0.051180 0.000000 3.625200 
# 
# 
# High freq. dielectric constant tensor:
#      x y z
#    x 1.674040 0.000000 -0.007520 
#    y 0.000000 1.646800 0.000000 
#    z -0.007520 0.000000 1.690530 
# 
# From -- ./inp_files/89726.got.cif
#   From: 2010.06.25/outbox.cif.g09.slc.cpg/sg12_45_cif.got.tgz:89726.got - 2010.06.28 00:19:55.
