data_PCOD8114548
_publ_section_title
;
Structure prediction by ZEFSAII (Michael W. Deem and Ramdas Pophale) SiO2 
 PCOD8114548
Probable space group: C 2/M
;
_chemical_formula_sum "Si O2"
_cell_formula_units_Z 40
_cell_length_a 14.967410
_cell_length_b 25.097072
_cell_length_c 8.558244
_cell_angle_alpha 90.000000
_cell_angle_beta 37.369322
_cell_angle_gamma 90.000000
_cell_volume 1951.226010
_symmetry_space_group_name_H-M "C 2/M"
_symmetry_group_IT_number 12
_symmetry_cell_setting 'monoclinic'
loop_
_space_group_symop_operation_xyz
x,y,z
-x,y,-z
-x,-y,-z
x,-y,z
1/2+x,1/2+y,z
1/2-x,1/2+y,-z
1/2-x,1/2-y,-z
1/2+x,1/2-y,z
loop_
_atom_site_type_symbol
_atom_site_label
_atom_site_fract_x
_atom_site_fract_y
_atom_site_fract_z
Si Si1 0.679685 0.349592 0.071736
Si Si2 0.366261 0.221374 0.587142
Si Si3 0.841957 0.166520 0.539990
Si Si4 0.573769 0.136520 0.742195
Si Si5 0.398186 0.058966 0.789872
O O1 0.714954 0.339558 0.203956
O O2 0.506337 0.354313 0.282486
O O3 0.740577 0.302595 0.874852
O O4 0.758738 0.405837 0.929143
O O5 0.500000 0.247602 0.500000
O O6 0.314993 0.270008 0.546713
O O7 0.443964 0.175345 0.379708
O O8 0.746875 0.132041 0.547774
O O9 0.493608 0.081930 0.803359
O O10 0.500000 0.160887 0.000000
O O11 0.500000 0.054612 0.500000
O O12 0.343030 0.000000 0.916424
#
# Coordination Sequence:
#
# PCOD8114548 Si02
#       5
#     8   8   8   8   8
#     4  11  21  42  62  88 127 166 212 255 302 377
#     4  12  21  39  63  89 127 179 202 246 302 378
#     4  11  25  36  62  95 130 165 204 251 315 366
#     4  12  23  40  61  95 130 158 213 261 301 371
#     4  11  23  45  72  89 113 165 217 262 316 369
#
# _framework density 20.499932999999999
#
# number of rings (size 3 to 8) (size 9 to 14) (size 15 to 20)
#    0.000    0.600    8.000    1.200    2.800    1.200 
#    0.000    3.000    0.000    2.400    0.000    0.000 
#    0.000    0.000    0.000    0.000    0.000    0.000 
#
# Total GULP energy -247902.675158 kJ/mol
# GULP energy per Si atom -12395.133758 kJ/mol
# Density = 2.045327 g / cm^3
# Si number density = 20.499933 Si / 1000 Ang^3
#
#
#
# Elastic Constant Matrix: (Units=GPa)
#
#
# Indices 1 2 3 4 5 6 
#
# 1 93.7746 31.1783 20.5168 0.0000 -18.9667 0.0000
# 2 31.1783 121.4892 38.7809 0.0000 -23.3907 0.0000
# 3 20.5168 38.7809 92.6589 0.0000 -4.4368 0.0000
# 4 0.0000 0.0000 0.0000 16.4478 0.0000 5.2074
# 5 -18.9667 -23.3907 -4.4368 0.0000 29.9903 0.0000
# 6 0.0000 0.0000 0.0000 5.2074 0.0000 20.1383
#
#
#
# Elastic Compliance Matrix: (Units=1/GPa)
#
#
# Indices 1 2 3 4 5 6 
#
# 1 0.012929 -0.001382 -0.001958 0.000000 0.006809 0.000000
# 2 -0.001382 0.011298 -0.004071 0.000000 0.007335 0.000000
# 3 -0.001958 -0.004071 0.012809 0.000000 -0.002519 0.000000
# 4 0.000000 0.000000 0.000000 0.066220 0.000000 -0.017123
# 5 0.006809 0.007335 -0.002519 0.000000 0.042999 0.000000
# 6 0.000000 0.000000 0.000000 -0.017123 0.000000 0.054084
#
#
# Mechanical properties :
#
#
# Convention : Reuss Voigt Hill
#
# Bulk Modulus (GPa) = 45.01883 54.31940 49.66912
# Shear Modulus (GPa) = 22.46521 27.81172 25.13847
#
# Velocity S-wave (km/s) = 3.31398 3.68730 3.50561
# Velocity P-wave (km/s) = 6.05404 6.68454 6.37709
#
# Compressibility (1/GPa) = 0.02221293
#
# Stress axis : x y z
#
# Youngs Moduli (GPa) = 77.34550 88.51342 78.06860
#
# Poissons Ratio (x) = 0.12232 0.15289
# Poissons Ratio (y) = 0.10688 0.31784
# Poissons Ratio (z) = 0.15147 0.36036
#
# Static dielectric constant tensor:
#      x y z
#    x 3.808550 0.000000 -0.037110 
#    y 0.000000 3.859030 0.000000 
#    z -0.037110 0.000000 3.824070 
# 
# 
# High freq. dielectric constant tensor:
#      x y z
#    x 1.804460 0.000000 -0.000100 
#    y 0.000000 1.775580 0.000000 
#    z -0.000100 0.000000 1.812220 
# 
# From -- ./inp_files/50123.got.cif
#   From: 2010.06.25/outbox.cif.g09.slc.cpg/sg12_26_cif.got.tgz:50123.got - 2010.06.28 00:19:55.
