data_PCOD8114108
_publ_section_title
;
Structure prediction by ZEFSAII (Michael W. Deem and Ramdas Pophale) SiO2 
 PCOD8114108
Probable space group: C 2/M
;
_chemical_formula_sum "Si O2"
_cell_formula_units_Z 64
_cell_length_a 23.963246
_cell_length_b 9.400705
_cell_length_c 24.150570
_cell_angle_alpha 90.000000
_cell_angle_beta 130.508688
_cell_angle_gamma 90.000000
_cell_volume 4136.401797
_symmetry_space_group_name_H-M "C 2/M"
_symmetry_group_IT_number 12
_symmetry_cell_setting 'monoclinic'
loop_
_space_group_symop_operation_xyz
x,y,z
-x,y,-z
-x,-y,-z
x,-y,z
1/2+x,1/2+y,z
1/2-x,1/2+y,-z
1/2-x,1/2-y,-z
1/2+x,1/2-y,z
loop_
_atom_site_type_symbol
_atom_site_label
_atom_site_fract_x
_atom_site_fract_y
_atom_site_fract_z
Si Si1 0.803047 0.167725 0.197675
Si Si2 0.550113 0.840247 0.478048
Si Si3 0.589394 0.664375 0.997593
Si Si4 0.293435 0.167427 0.764472
Si Si5 0.160651 0.841961 0.607443
Si Si6 0.938711 0.159190 0.347905
Si Si7 0.721931 0.169568 0.035421
Si Si8 0.076662 0.162708 0.117485
O O1 0.745238 0.229867 0.204896
O O2 0.886393 0.220088 0.264725
O O3 0.779303 0.210755 0.120841
O O4 0.803206 0.000000 0.206750
O O5 0.500000 0.837140 0.500000
O O6 0.627976 0.765140 0.540785
O O7 0.508900 0.760448 0.401215
O O8 0.566466 0.000000 0.469245
O O9 0.613453 0.500000 0.004363
O O10 0.507924 0.688709 0.920866
O O11 0.641936 0.771471 0.998825
O O12 0.590000 0.705035 0.062392
O O13 0.242714 0.204707 0.678583
O O14 0.372226 0.242857 0.809570
O O15 0.306478 0.000000 0.777145
O O16 0.110083 0.844069 0.628717
O O17 0.162001 0.000000 0.582242
O O18 0.967364 0.000000 0.353140
O O19 0.717797 0.000000 0.023441
O O20 0.750000 0.250000 0.000000
O O21 0.098073 0.000000 0.140885
#
# Coordination Sequence:
#
# PCOD8114108 Si02
#       8
#     8   8   8   8   8   8   8   8
#     4   8  15  27  41  57  76 101 136 174 207 247
#     4   9  15  21  29  46  71  96 127 164 198 234
#     4   9  18  32  45  62  85 110 139 171 212 260
#     4   9  15  25  40  59  80 104 139 176 205 242
#     4   8  14  22  33  48  70 101 133 163 195 235
#     4   8  13  23  37  48  64  95 132 165 198 235
#     4  11  21  33  48  64  84 110 142 180 219 257
#     4   9  17  28  44  63  86 110 135 173 216 254
#
# _framework density 15.472386
#
# number of rings (size 3 to 8) (size 9 to 14) (size 15 to 20)
#    0.000    3.125    1.250    3.000    0.000    2.500 
#    0.000    4.375    0.000    0.000    0.000    0.000 
#    0.000    0.000    0.000    1.125    0.000   13.375 
#
# Total GULP energy -396587.460770 kJ/mol
# GULP energy per Si atom -12393.358149 kJ/mol
# Density = 1.543717 g / cm^3
# Si number density = 15.472386 Si / 1000 Ang^3
#
#
#
# Elastic Constant Matrix: (Units=GPa)
#
#
# Indices 1 2 3 4 5 6 
#
# 1 44.1093 32.8650 35.1183 0.0000 7.3135 0.0000
# 2 32.8650 85.9059 63.4158 0.0000 17.5723 0.0000
# 3 35.1183 63.4158 124.0876 0.0000 29.5455 0.0000
# 4 0.0000 0.0000 0.0000 23.0290 0.0000 6.9884
# 5 7.3135 17.5723 29.5455 0.0000 18.9152 0.0000
# 6 0.0000 0.0000 0.0000 6.9884 0.0000 18.7020
#
#
#
# Elastic Compliance Matrix: (Units=1/GPa)
#
#
# Indices 1 2 3 4 5 6 
#
# 1 0.033609 -0.009601 -0.005787 0.000000 0.004964 0.000000
# 2 -0.009601 0.021617 -0.007057 0.000000 -0.005347 0.000000
# 3 -0.005787 -0.007057 0.017847 0.000000 -0.019083 0.000000
# 4 0.000000 0.000000 0.000000 0.048977 0.000000 -0.018301
# 5 0.004964 -0.005347 -0.019083 0.000000 0.085723 0.000000
# 6 0.000000 0.000000 0.000000 -0.018301 0.000000 0.060309
#
#
# Mechanical properties :
#
#
# Convention : Reuss Voigt Hill
#
# Bulk Modulus (GPa) = 35.48326 57.43347 46.45837
# Shear Modulus (GPa) = 15.51025 20.30948 17.90986
#
# Velocity S-wave (km/s) = 3.16958 3.62695 3.40595
# Velocity P-wave (km/s) = 6.03142 7.39867 6.74975
#
# Compressibility (1/GPa) = 0.02818230
#
# Stress axis : x y z
#
# Youngs Moduli (GPa) = 29.75397 46.25952 56.03191
#
# Poissons Ratio (x) = 0.44415 0.32425
# Poissons Ratio (y) = 0.28568 0.39543
# Poissons Ratio (z) = 0.17218 0.32647
#
# Static dielectric constant tensor:
#      x y z
#    x 2.460700 0.000000 0.251900 
#    y 0.000000 2.942710 0.000000 
#    z 0.251900 0.000000 3.226860 
# 
# 
# High freq. dielectric constant tensor:
#      x y z
#    x 1.524070 0.000000 0.031440 
#    y 0.000000 1.589270 0.000000 
#    z 0.031440 0.000000 1.599860 
# 
# From -- ./inp_files/348601.got.cif
#   From: 2010.06.25/outbox.cif.g09.slc.cpg/sg12_175_cif.got.tgz:348601.got - 2010.06.28 00:19:55.
