data_PCOD8114151
_publ_section_title
;
Structure prediction by ZEFSAII (Michael W. Deem and Ramdas Pophale) SiO2 
 PCOD8114151
Probable space group: C 2/M
;
_chemical_formula_sum "Si O2"
_cell_formula_units_Z 40
_cell_length_a 18.336550
_cell_length_b 8.765752
_cell_length_c 13.618698
_cell_angle_alpha 90.000000
_cell_angle_beta 71.255131
_cell_angle_gamma 90.000000
_cell_volume 2072.876993
_symmetry_space_group_name_H-M "C 2/M"
_symmetry_group_IT_number 12
_symmetry_cell_setting 'monoclinic'
loop_
_space_group_symop_operation_xyz
x,y,z
-x,y,-z
-x,-y,-z
x,-y,z
1/2+x,1/2+y,z
1/2-x,1/2+y,-z
1/2-x,1/2-y,-z
1/2+x,1/2-y,z
loop_
_atom_site_type_symbol
_atom_site_label
_atom_site_fract_x
_atom_site_fract_y
_atom_site_fract_z
Si Si1 0.428999 0.678885 0.598918
Si Si2 0.631036 0.679534 0.786383
Si Si3 0.227209 0.679190 0.407254
Si Si4 0.083236 0.832064 0.012134
Si Si5 0.524522 0.177971 0.219095
O O1 0.500000 0.727234 0.500000
O O2 0.413589 0.500000 0.600978
O O3 0.355158 0.764113 0.590356
O O4 0.445291 0.727719 0.702292
O O5 0.612308 0.500000 0.781694
O O6 0.710286 0.727661 0.701243
O O7 0.562626 0.774038 0.765969
O O8 0.639600 0.720933 0.898907
O O9 0.224793 0.500000 0.421415
O O10 0.250000 0.750000 0.500000
O O11 0.081809 0.714041 0.102958
O O12 0.107221 0.000000 0.041032
O O13 0.000000 0.842155 0.000000
O O14 0.528152 0.000000 0.241120
#
# Coordination Sequence:
#
# PCOD8114151 Si02
#       5
#     8   8   8   8   8
#     4  11  24  41  59  79 107 145 186 226 272 326
#     4   9  19  36  57  81 112 149 184 221 268 323
#     4  11  23  39  59  84 112 142 181 226 274 327
#     4   8  15  31  54  78 108 147 185 220 264 318
#     4  11  21  33  55  86 115 143 181 228 272 319
#
# _framework density 19.296849999999999
#
# number of rings (size 3 to 8) (size 9 to 14) (size 15 to 20)
#    0.000    2.000    0.000    5.400    0.000   11.600 
#    0.000    1.000    0.000    0.000    0.000    0.000 
#    0.000    0.000    0.000    0.000    0.000    0.000 
#
# Total GULP energy -247991.761514 kJ/mol
# GULP energy per Si atom -12399.588076 kJ/mol
# Density = 1.925293 g / cm^3
# Si number density = 19.296850 Si / 1000 Ang^3
#
#
#
# Elastic Constant Matrix: (Units=GPa)
#
#
# Indices 1 2 3 4 5 6 
#
# 1 87.2961 25.4163 61.4422 0.0000 -14.0266 0.0000
# 2 25.4163 52.3037 36.0579 0.0000 -14.2775 0.0000
# 3 61.4422 36.0579 155.7828 0.0000 -19.3546 0.0000
# 4 0.0000 0.0000 0.0000 29.4848 0.0000 6.2524
# 5 -14.0266 -14.2775 -19.3546 0.0000 31.7095 0.0000
# 6 0.0000 0.0000 0.0000 6.2524 0.0000 19.1608
#
#
#
# Elastic Compliance Matrix: (Units=1/GPa)
#
#
# Indices 1 2 3 4 5 6 
#
# 1 0.016764 -0.003732 -0.005449 0.000000 0.002409 0.000000
# 2 -0.003732 0.025412 -0.003455 0.000000 0.007682 0.000000
# 3 -0.005449 -0.003455 0.009604 0.000000 0.001896 0.000000
# 4 0.000000 0.000000 0.000000 0.036437 0.000000 -0.011890
# 5 0.002409 0.007682 0.001896 0.000000 0.037218 0.000000
# 6 0.000000 0.000000 0.000000 -0.011890 0.000000 0.056070
#
#
# Mechanical properties :
#
#
# Convention : Reuss Voigt Hill
#
# Bulk Modulus (GPa) = 37.72646 60.13506 48.93076
# Shear Modulus (GPa) = 23.18975 27.56876 25.37925
#
# Velocity S-wave (km/s) = 3.47037 3.78387 3.63051
# Velocity P-wave (km/s) = 5.97084 7.09373 6.55637
#
# Compressibility (1/GPa) = 0.02650660
#
# Stress axis : x y z
#
# Youngs Moduli (GPa) = 59.65159 39.35165 104.12840
#
# Poissons Ratio (x) = 0.14687 0.56736
# Poissons Ratio (y) = 0.22264 0.35981
# Poissons Ratio (z) = 0.32502 0.13598
#
# Static dielectric constant tensor:
#      x y z
#    x 3.318450 0.000000 -0.365340 
#    y 0.000000 3.503000 0.000000 
#    z -0.365340 0.000000 4.139450 
# 
# 
# High freq. dielectric constant tensor:
#      x y z
#    x 1.725400 0.000000 -0.008370 
#    y 0.000000 1.751760 0.000000 
#    z -0.008370 0.000000 1.774560 
# 
# From -- ./inp_files/151750.got.cif
#   From: 2010.06.25/outbox.cif.g09.slc.cpg/sg12_76_cif.got.tgz:151750.got - 2010.06.28 00:19:55.
