data_PCOD8114465
_publ_section_title
;
Structure prediction by ZEFSAII (Michael W. Deem and Ramdas Pophale) SiO2 
 PCOD8114465
Probable space group: C 2/M
;
_chemical_formula_sum "Si O2"
_cell_formula_units_Z 64
_cell_length_a 19.147695
_cell_length_b 21.098761
_cell_length_c 15.215251
_cell_angle_alpha 90.000000
_cell_angle_beta 27.853463
_cell_angle_gamma 90.000000
_cell_volume 2871.880859
_symmetry_space_group_name_H-M "C 2/M"
_symmetry_group_IT_number 12
_symmetry_cell_setting 'monoclinic'
loop_
_space_group_symop_operation_xyz
x,y,z
-x,y,-z
-x,-y,-z
x,-y,z
1/2+x,1/2+y,z
1/2-x,1/2+y,-z
1/2-x,1/2-y,-z
1/2+x,1/2-y,z
loop_
_atom_site_type_symbol
_atom_site_label
_atom_site_fract_x
_atom_site_fract_y
_atom_site_fract_z
Si Si1 0.710744 0.573084 0.031172
Si Si2 0.729840 0.829729 0.386815
Si Si3 0.239476 0.833651 0.841806
Si Si4 0.028002 0.894279 0.561842
Si Si5 0.021989 0.757889 0.348893
Si Si6 0.861319 0.429190 0.209795
Si Si7 0.478445 0.119143 0.244783
Si Si8 0.992547 0.759426 0.183426
O O1 0.748826 0.500000 0.967355
O O2 0.687825 0.609784 0.964392
O O3 0.847968 0.605972 0.929624
O O4 0.561137 0.573871 0.257964
O O5 0.766982 0.860831 0.250688
O O6 0.650688 0.762551 0.456593
O O7 0.618536 0.879512 0.558124
O O8 0.863395 0.810313 0.303860
O O9 0.394710 0.801659 0.698733
O O10 0.124460 0.775026 0.969477
O O11 0.205924 0.890949 0.379757
O O12 0.000000 0.930358 0.500000
O O13 0.959365 0.824032 0.622701
O O14 0.064177 0.771054 0.200387
O O15 0.829891 0.500000 0.209497
O O16 0.914169 0.434039 0.252051
O O17 0.000000 0.398580 0.000000
O O18 0.450593 0.185726 0.223899
#
# Coordination Sequence:
#
# PCOD8114465 Si02
#       8
#     8   8   8   8   8   8   8   8
#     4  12  26  44  67  94 133 185 238 283 329 399
#     4  11  23  38  64 100 138 171 216 279 339 405
#     4  12  23  42  66  96 140 181 224 277 342 402
#     4  12  24  41  69 103 134 171 222 280 349 410
#     4  11  21  40  66  99 136 170 215 276 347 409
#     4  11  25  45  66  93 137 181 224 275 330 406
#     4  11  23  41  67  96 135 171 226 275 344 408
#     4  11  21  39  65  97 134 171 211 281 348 407
#
# _framework density 22.285046999999999
#
# number of rings (size 3 to 8) (size 9 to 14) (size 15 to 20)
#    0.000    0.625    3.750    7.125    0.000    4.000 
#    0.000    1.875    0.000    1.500    0.000    0.000 
#    0.000    0.000    0.000    0.000    0.000    0.000 
#
# Total GULP energy -396540.074648 kJ/mol
# GULP energy per Si atom -12391.877333 kJ/mol
# Density = 2.223433 g / cm^3
# Si number density = 22.285047 Si / 1000 Ang^3
#
#
#
# Elastic Constant Matrix: (Units=GPa)
#
#
# Indices 1 2 3 4 5 6 
#
# 1 112.5732 20.3528 57.3716 -0.0230 17.5784 0.0123
# 2 20.3528 76.3505 25.0047 -0.0125 11.7824 0.0084
# 3 57.3716 25.0047 134.7636 -0.0113 12.4696 0.0093
# 4 -0.0230 -0.0125 -0.0113 15.8957 0.0167 -3.2561
# 5 17.5784 11.7824 12.4696 0.0167 42.1717 -0.0095
# 6 0.0123 0.0084 0.0093 -3.2561 -0.0095 18.1367
#
#
#
# Elastic Compliance Matrix: (Units=1/GPa)
#
#
# Indices 1 2 3 4 5 6 
#
# 1 0.011933 -0.001180 -0.004556 0.000016 -0.003297 -0.000004
# 2 -0.001180 0.014500 -0.001911 0.000010 -0.002994 -0.000005
# 3 -0.004556 -0.001911 0.009756 -0.000001 -0.000452 -0.000001
# 4 0.000016 0.000010 -0.000001 0.065312 -0.000032 0.011725
# 5 -0.003297 -0.002994 -0.000452 -0.000032 0.026057 0.000012
# 6 -0.000004 -0.000005 -0.000001 0.011725 0.000012 0.057242
#
#
# Mechanical properties :
#
#
# Convention : Reuss Voigt Hill
#
# Bulk Modulus (GPa) = 47.85778 58.79396 53.32587
# Shear Modulus (GPa) = 24.14756 29.97137 27.05946
#
# Velocity S-wave (km/s) = 3.29534 3.67128 3.48838
# Velocity P-wave (km/s) = 6.00008 6.66416 6.34082
#
# Compressibility (1/GPa) = 0.02089524
#
# Stress axis : x y z
#
# Youngs Moduli (GPa) = 83.79867 68.96564 102.49638
#
# Poissons Ratio (x) = 0.08139 0.46700
# Poissons Ratio (y) = 0.09889 0.19587
# Poissons Ratio (z) = 0.38180 0.13179
#
# Static dielectric constant tensor:
#      x y z
#    x 4.201020 -0.000020 0.102910 
#    y -0.000020 3.727760 0.000060 
#    z 0.102910 0.000060 4.184890 
# 
# 
# High freq. dielectric constant tensor:
#      x y z
#    x 1.882600 0.000000 0.002820 
#    y 0.000000 1.846380 0.000000 
#    z 0.002820 0.000000 1.889810 
# 
# From -- ./inp_files/228118.got.cif
#   From: 2010.06.25/outbox.cif.g09.slc.cpg/sg12_115_cif.got.tgz:228118.got - 2010.06.28 00:19:55.
