data_PCOD8114280
_publ_section_title
;
Structure prediction by ZEFSAII (Michael W. Deem and Ramdas Pophale) SiO2 
 PCOD8114280
Probable space group: C 2/M
;
_chemical_formula_sum "Si O2"
_cell_formula_units_Z 40
_cell_length_a 14.555147
_cell_length_b 8.398188
_cell_length_c 17.046415
_cell_angle_alpha 90.000000
_cell_angle_beta 76.541797
_cell_angle_gamma 90.000000
_cell_volume 2026.481764
_symmetry_space_group_name_H-M "C 2/M"
_symmetry_group_IT_number 12
_symmetry_cell_setting 'monoclinic'
loop_
_space_group_symop_operation_xyz
x,y,z
-x,y,-z
-x,-y,-z
x,-y,z
1/2+x,1/2+y,z
1/2-x,1/2+y,-z
1/2-x,1/2-y,-z
1/2+x,1/2-y,z
loop_
_atom_site_type_symbol
_atom_site_label
_atom_site_fract_x
_atom_site_fract_y
_atom_site_fract_z
Si Si1 0.045143 0.183352 0.413299
Si Si2 0.473596 0.184171 0.116507
Si Si3 0.352228 0.313748 0.003999
Si Si4 0.570199 0.314786 0.708281
Si Si5 0.243985 0.683902 0.588352
O O1 0.156402 0.204794 0.388818
O O2 0.000000 0.266000 0.500000
O O3 0.002452 0.256015 0.342043
O O4 0.012886 0.000000 0.420944
O O5 0.569965 0.279039 0.078500
O O6 0.443333 0.213494 0.211174
O O7 0.495010 0.000000 0.098436
O O8 0.386751 0.234894 0.078169
O O9 0.344212 0.500000 0.019372
O O10 0.250000 0.250000 0.000000
O O11 0.553515 0.500000 0.730599
O O12 0.674544 0.289663 0.653859
O O13 0.212355 0.500000 0.592583
O O14 0.250000 0.750000 0.500000
#
# Coordination Sequence:
#
# PCOD8114280 Si02
#       5
#     8   8   8   8   8
#     4   9  18  35  57  79 108 152 197 240 297 360
#     4  11  23  41  62  92 128 162 203 252 305 364
#     4  11  22  41  68  96 125 162 202 245 303 366
#     4  11  22  39  60  84 118 158 202 252 304 361
#     4  11  21  36  57  82 111 150 199 250 304 363
#
# _framework density 19.738643
#
# number of rings (size 3 to 8) (size 9 to 14) (size 15 to 20)
#    0.000    1.400    2.000    6.000    0.000    1.600 
#    0.000   11.000    0.000    0.000    0.000    0.000 
#    0.000    0.000    0.000    0.000    0.000    0.000 
#
# Total GULP energy -248047.597733 kJ/mol
# GULP energy per Si atom -12402.379887 kJ/mol
# Density = 1.969372 g / cm^3
# Si number density = 19.738643 Si / 1000 Ang^3
#
#
#
# Elastic Constant Matrix: (Units=GPa)
#
#
# Indices 1 2 3 4 5 6 
#
# 1 129.9630 18.6999 51.3974 0.0000 11.7424 0.0000
# 2 18.6999 70.3787 12.8438 0.0000 7.4878 0.0000
# 3 51.3974 12.8438 145.5987 0.0000 9.0662 0.0000
# 4 0.0000 0.0000 0.0000 29.1525 0.0000 -4.3046
# 5 11.7424 7.4878 9.0662 0.0000 24.6016 0.0000
# 6 0.0000 0.0000 0.0000 -4.3046 0.0000 31.5920
#
#
#
# Elastic Compliance Matrix: (Units=1/GPa)
#
#
# Indices 1 2 3 4 5 6 
#
# 1 0.009370 -0.001639 -0.002984 0.000000 -0.002874 0.000000
# 2 -0.001639 0.015127 -0.000530 0.000000 -0.003626 0.000000
# 3 -0.002984 -0.000530 0.008054 0.000000 -0.001383 0.000000
# 4 0.000000 0.000000 0.000000 0.035007 0.000000 0.004770
# 5 -0.002874 -0.003626 -0.001383 0.000000 0.043633 0.000000
# 6 0.000000 0.000000 0.000000 0.004770 0.000000 0.032303
#
#
# Mechanical properties :
#
#
# Convention : Reuss Voigt Hill
#
# Bulk Modulus (GPa) = 44.95448 56.86918 50.91183
# Shear Modulus (GPa) = 31.01426 34.60252 32.80839
#
# Velocity S-wave (km/s) = 3.96819 4.19147 4.08136
# Velocity P-wave (km/s) = 6.61965 7.23175 6.93246
#
# Compressibility (1/GPa) = 0.02224472
#
# Stress axis : x y z
#
# Youngs Moduli (GPa) = 106.72127 66.10725 124.15463
#
# Poissons Ratio (x) = 0.10837 0.37050
# Poissons Ratio (y) = 0.17495 0.06579
# Poissons Ratio (z) = 0.31848 0.03503
#
# Static dielectric constant tensor:
#      x y z
#    x 3.287320 0.000000 0.203680 
#    y 0.000000 3.571340 0.000000 
#    z 0.203680 0.000000 3.553090 
# 
# 
# High freq. dielectric constant tensor:
#      x y z
#    x 1.777660 0.000000 0.004830 
#    y 0.000000 1.766250 0.000000 
#    z 0.004830 0.000000 1.772180 
# 
# From -- ./inp_files/266685.got.cif
#   From: 2010.06.25/outbox.cif.g09.slc.cpg/sg12_134_cif.got.tgz:266685.got - 2010.06.28 00:19:55.
