data_PCOD8114653
_publ_section_title
;
Structure prediction by ZEFSAII (Michael W. Deem and Ramdas Pophale) SiO2 
 PCOD8114653
Probable space group: C 2/M
;
_chemical_formula_sum "Si O2"
_cell_formula_units_Z 64
_cell_length_a 20.373948
_cell_length_b 9.003003
_cell_length_c 21.053732
_cell_angle_alpha 90.000000
_cell_angle_beta 110.811589
_cell_angle_gamma 90.000000
_cell_volume 3609.848141
_symmetry_space_group_name_H-M "C 2/M"
_symmetry_group_IT_number 12
_symmetry_cell_setting 'monoclinic'
loop_
_space_group_symop_operation_xyz
x,y,z
-x,y,-z
-x,-y,-z
x,-y,z
1/2+x,1/2+y,z
1/2-x,1/2+y,-z
1/2-x,1/2-y,-z
1/2+x,1/2-y,z
loop_
_atom_site_type_symbol
_atom_site_label
_atom_site_fract_x
_atom_site_fract_y
_atom_site_fract_z
Si Si1 0.802245 0.675537 0.969544
Si Si2 0.449085 0.327499 0.041359
Si Si3 0.956530 0.175686 0.578296
Si Si4 0.254714 0.323001 0.319701
Si Si5 0.303053 0.824762 0.828929
Si Si6 0.101881 0.176585 0.574036
Si Si7 0.893119 0.328654 0.678013
Si Si8 0.548510 0.172423 0.165873
O O1 0.801036 0.500000 0.978518
O O2 0.776522 0.720983 0.889647
O O3 0.750000 0.750000 0.000000
O O4 0.879847 0.732982 0.007325
O O5 0.429751 0.500000 0.041619
O O6 0.484241 0.271145 0.118673
O O7 0.500000 0.296537 0.000000
O O8 0.036919 0.230108 0.595659
O O9 0.909958 0.230513 0.502363
O O10 0.925347 0.239219 0.631517
O O11 0.954440 0.000000 0.582053
O O12 0.258005 0.500000 0.321940
O O13 0.248703 0.265047 0.244402
O O14 0.325236 0.254180 0.374695
O O15 0.185793 0.270180 0.334650
O O16 0.381830 0.765034 0.844995
O O17 0.308167 0.000000 0.822845
O O18 0.105228 0.000000 0.576678
O O19 0.890235 0.500000 0.657805
O O20 0.943216 0.304608 0.755930
O O21 0.534710 0.000000 0.144720
#
# Coordination Sequence:
#
# PCOD8114653 Si02
#       8
#     8   8   8   8   8   8   8   8
#     4  11  22  37  55  76 107 141 175 218 265 312
#     4  11  22  35  55  82 105 131 174 220 259 311
#     4   9  17  30  48  72 101 133 166 204 251 298
#     4   8  14  28  50  73  94 125 170 210 240 289
#     4   8  15  29  51  73  95 130 173 210 250 305
#     4   8  15  29  48  68  96 135 174 204 238 296
#     4   9  18  31  50  75 101 127 163 210 255 297
#     4   9  17  33  54  75  99 133 172 208 256 314
#
# _framework density 17.729277
#
# number of rings (size 3 to 8) (size 9 to 14) (size 15 to 20)
#    0.000    2.875    1.250    3.000    0.000    1.500 
#    2.250    1.250    0.000    0.750    0.000    0.000 
#    0.000    0.000    0.000    0.000    0.000    0.000 
#
# Total GULP energy -396631.388231 kJ/mol
# GULP energy per Si atom -12394.730882 kJ/mol
# Density = 1.768892 g / cm^3
# Si number density = 17.729277 Si / 1000 Ang^3
#
#
#
# Elastic Constant Matrix: (Units=GPa)
#
#
# Indices 1 2 3 4 5 6 
#
# 1 103.8847 36.1792 74.3195 0.0000 -10.7421 0.0000
# 2 36.1792 41.3834 39.1201 0.0000 -6.1477 0.0000
# 3 74.3195 39.1201 128.5463 0.0000 -1.5050 0.0000
# 4 0.0000 0.0000 0.0000 21.1849 0.0000 -7.3299
# 5 -10.7421 -6.1477 -1.5050 0.0000 32.1100 0.0000
# 6 0.0000 0.0000 0.0000 -7.3299 0.0000 25.4490
#
#
#
# Elastic Compliance Matrix: (Units=1/GPa)
#
#
# Indices 1 2 3 4 5 6 
#
# 1 0.018875 -0.007831 -0.008478 0.000000 0.004418 0.000000
# 2 -0.007831 0.038374 -0.007099 0.000000 0.004395 0.000000
# 3 -0.008478 -0.007099 0.014800 0.000000 -0.003502 0.000000
# 4 0.000000 0.000000 0.000000 0.052428 0.000000 0.015101
# 5 0.004418 0.004395 -0.003502 0.000000 0.033298 0.000000
# 6 0.000000 0.000000 0.000000 0.015101 0.000000 0.043644
#
#
# Mechanical properties :
#
#
# Convention : Reuss Voigt Hill
#
# Bulk Modulus (GPa) = 39.62994 63.67244 51.65119
# Shear Modulus (GPa) = 19.48194 24.02847 21.75520
#
# Velocity S-wave (km/s) = 3.31850 3.68543 3.50677
# Velocity P-wave (km/s) = 6.08971 7.35538 6.75226
#
# Compressibility (1/GPa) = 0.02523345
#
# Stress axis : x y z
#
# Youngs Moduli (GPa) = 52.97950 26.05897 67.56600
#
# Poissons Ratio (x) = 0.20407 0.57281
# Poissons Ratio (y) = 0.41489 0.47968
# Poissons Ratio (z) = 0.44915 0.18500
#
# Static dielectric constant tensor:
#      x y z
#    x 3.194600 0.000000 0.170300 
#    y 0.000000 2.908250 0.000000 
#    z 0.170300 0.000000 3.640240 
# 
# 
# High freq. dielectric constant tensor:
#      x y z
#    x 1.677380 0.000000 0.001280 
#    y 0.000000 1.648450 0.000000 
#    z 0.001280 0.000000 1.698410 
# 
# From -- ./inp_files/320111.got.cif
#   From: 2010.06.25/outbox.cif.g09.slc.cpg/sg12_161_cif.got.tgz:320111.got - 2010.06.28 00:19:55.
