data_PCOD8114822
_publ_section_title
;
Structure prediction by ZEFSAII (Michael W. Deem and Ramdas Pophale) SiO2 
 PCOD8114822
Probable space group: C 2/M
;
_chemical_formula_sum "Si O2"
_cell_formula_units_Z 48
_cell_length_a 27.060132
_cell_length_b 7.923665
_cell_length_c 14.877117
_cell_angle_alpha 90.000000
_cell_angle_beta 132.243397
_cell_angle_gamma 90.000000
_cell_volume 2361.456601
_symmetry_space_group_name_H-M "C 2/M"
_symmetry_group_IT_number 12
_symmetry_cell_setting 'monoclinic'
loop_
_space_group_symop_operation_xyz
x,y,z
-x,y,-z
-x,-y,-z
x,-y,z
1/2+x,1/2+y,z
1/2-x,1/2+y,-z
1/2-x,1/2-y,-z
1/2+x,1/2-y,z
loop_
_atom_site_type_symbol
_atom_site_label
_atom_site_fract_x
_atom_site_fract_y
_atom_site_fract_z
Si Si1 0.229003 0.183567 0.878294
Si Si2 0.684461 0.690902 0.370702
Si Si3 0.041802 0.199278 0.963451
Si Si4 0.442711 0.808989 0.692866
Si Si5 0.957012 0.000000 0.581550
Si Si6 0.897373 0.000000 0.312053
Si Si7 0.686594 0.193683 0.177228
O O1 0.148182 0.166227 0.766936
O O2 0.263411 0.278832 0.836009
O O3 0.263045 0.000000 0.915581
O O4 0.250000 0.250000 0.000000
O O5 0.666802 0.500000 0.375851
O O6 0.750000 0.750000 0.500000
O O7 0.622965 0.806622 0.325426
O O8 0.695793 0.699169 0.278350
O O9 0.005864 0.261360 0.830026
O O10 0.052992 0.000000 0.973792
O O11 0.111658 0.294250 0.049786
O O12 0.000000 0.251718 0.000000
O O13 0.435779 0.672286 0.605067
O O14 0.450748 0.000000 0.664197
O O15 0.917063 0.000000 0.439961
O O16 0.036975 0.000000 0.668350
O O17 0.705375 0.000000 0.221854
#
# Coordination Sequence:
#
# PCOD8114822 Si02
#       7
#     8   8   8   8   4   4   8
#     4   9  22  41  64  94 128 166 224 282 341 404
#     4  12  25  42  62  95 136 182 227 270 334 414
#     4  11  22  38  59  91 135 178 223 270 334 407
#     4  12  25  42  67 102 135 178 227 281 338 409
#     4  11  24  48  75  96 138 180 229 290 342 421
#     4   9  24  48  72  96 133 183 222 286 362 398
#     4  11  23  38  62  95 129 176 220 279 337 402
#
# _framework density 20.326439000000001
#
# number of rings (size 3 to 8) (size 9 to 14) (size 15 to 20)
#    0.500    0.667    3.333    2.500    4.667    2.000 
#    0.000    2.500    0.000    0.000    0.000    0.000 
#    0.000    0.000    0.000    0.000    0.000    0.000 
#
# Total GULP energy -297534.822896 kJ/mol
# GULP energy per Si atom -12397.284287 kJ/mol
# Density = 2.028018 g / cm^3
# Si number density = 20.326439 Si / 1000 Ang^3
#
#
#
# Elastic Constant Matrix: (Units=GPa)
#
#
# Indices 1 2 3 4 5 6 
#
# 1 119.2602 16.5901 44.7139 0.0000 -3.9729 0.0000
# 2 16.5901 81.6592 13.5348 0.0000 -12.8499 0.0000
# 3 44.7139 13.5348 132.3933 0.0000 1.5854 0.0000
# 4 0.0000 0.0000 0.0000 31.1283 0.0000 -1.8574
# 5 -3.9729 -12.8499 1.5854 0.0000 34.8363 0.0000
# 6 0.0000 0.0000 0.0000 -1.8574 0.0000 23.0800
#
#
#
# Elastic Compliance Matrix: (Units=1/GPa)
#
#
# Indices 1 2 3 4 5 6 
#
# 1 0.009789 -0.001341 -0.003178 0.000000 0.000766 0.000000
# 2 -0.001341 0.013444 -0.000979 0.000000 0.004851 0.000000
# 3 -0.003178 -0.000979 0.008740 0.000000 -0.001122 0.000000
# 4 0.000000 0.000000 0.000000 0.032280 0.000000 0.002598
# 5 0.000766 0.004851 -0.001122 0.000000 0.030633 0.000000
# 6 0.000000 0.000000 0.000000 0.002598 0.000000 0.043537
#
#
# Mechanical properties :
#
#
# Convention : Reuss Voigt Hill
#
# Bulk Modulus (GPa) = 47.67524 53.66558 50.67041
# Shear Modulus (GPa) = 31.96674 35.04051 33.50363
#
# Velocity S-wave (km/s) = 3.96999 4.15648 4.06430
# Velocity P-wave (km/s) = 6.67234 7.03522 6.85618
#
# Compressibility (1/GPa) = 0.02097525
#
# Stress axis : x y z
#
# Youngs Moduli (GPa) = 102.15882 74.38158 114.41451
#
# Poissons Ratio (x) = 0.09977 0.36361
# Poissons Ratio (y) = 0.13703 0.11207
# Poissons Ratio (z) = 0.32466 0.07286
#
# Static dielectric constant tensor:
#      x y z
#    x 3.874940 0.000000 -0.004710 
#    y 0.000000 3.640410 0.000000 
#    z -0.004710 0.000000 3.627440 
# 
# 
# High freq. dielectric constant tensor:
#      x y z
#    x 1.796820 0.000000 0.001190 
#    y 0.000000 1.783950 0.000000 
#    z 0.001190 0.000000 1.802100 
# 
# From -- ./inp_files/244410.got.cif
#   From: 2010.06.25/outbox.cif.g09.slc.cpg/sg12_123_cif.got.tgz:244410.got - 2010.06.28 00:19:55.
