data_PCOD8114434
_publ_section_title
;
Structure prediction by ZEFSAII (Michael W. Deem and Ramdas Pophale) SiO2 
 PCOD8114434
Probable space group: C 2/M
;
_chemical_formula_sum "Si O2"
_cell_formula_units_Z 48
_cell_length_a 16.779088
_cell_length_b 25.371577
_cell_length_c 9.780494
_cell_angle_alpha 90.000000
_cell_angle_beta 32.768786
_cell_angle_gamma 90.000000
_cell_volume 2253.588796
_symmetry_space_group_name_H-M "C 2/M"
_symmetry_group_IT_number 12
_symmetry_cell_setting 'monoclinic'
loop_
_space_group_symop_operation_xyz
x,y,z
-x,y,-z
-x,-y,-z
x,-y,z
1/2+x,1/2+y,z
1/2-x,1/2+y,-z
1/2-x,1/2-y,-z
1/2+x,1/2-y,z
loop_
_atom_site_type_symbol
_atom_site_label
_atom_site_fract_x
_atom_site_fract_y
_atom_site_fract_z
Si Si1 0.182172 0.274172 0.463046
Si Si2 0.663924 0.061298 0.154808
Si Si3 0.624959 0.896636 0.513774
Si Si4 0.391960 0.560758 0.276802
Si Si5 0.946773 0.884336 0.723217
Si Si6 0.635466 0.274392 0.063516
O O1 0.250000 0.250000 0.500000
O O2 0.155608 0.336400 0.507322
O O3 0.304286 0.259978 0.173272
O O4 0.024750 0.247493 0.667170
O O5 0.547449 0.088520 0.218479
O O6 0.661419 0.089087 0.305621
O O7 0.626431 0.000000 0.223470
O O8 0.828229 0.069679 0.862014
O O9 0.723706 0.931347 0.473742
O O10 0.423029 0.500000 0.263971
O O11 0.422039 0.593616 0.371332
O O12 0.500000 0.580885 0.000000
O O13 0.000000 0.863470 0.500000
O O14 0.866723 0.837178 0.918124
O O15 0.750000 0.250000 0.000000
#
# Coordination Sequence:
#
# PCOD8114434 Si02
#       6
#     8   8   8   8   8   8
#     4  12  25  43  69  97 136 178 228 283 345 404
#     4  11  22  40  69 102 137 178 228 283 343 408
#     4  11  22  40  67  97 134 171 228 283 338 409
#     4  11  21  38  64  95 130 172 222 276 338 405
#     4  12  25  43  66  98 140 180 229 286 346 412
#     4  12  25  44  67  97 132 180 230 282 344 412
#
# _framework density 21.29936
#
# number of rings (size 3 to 8) (size 9 to 14) (size 15 to 20)
#    0.000    0.500    3.333    6.500    2.333    1.333 
#    0.000    2.500    0.000    2.000    0.000    0.000 
#    0.000    0.000    0.000    0.000    0.000    0.000 
#
# Total GULP energy -297615.443611 kJ/mol
# GULP energy per Si atom -12400.643484 kJ/mol
# Density = 2.125088 g / cm^3
# Si number density = 21.299360 Si / 1000 Ang^3
#
#
#
# Elastic Constant Matrix: (Units=GPa)
#
#
# Indices 1 2 3 4 5 6 
#
# 1 169.2328 53.4805 49.6600 0.0000 -11.4919 0.0000
# 2 53.4805 127.0454 22.8639 0.0000 2.5701 -0.0001
# 3 49.6600 22.8639 98.4453 -0.0002 -0.0568 0.0001
# 4 0.0000 0.0000 -0.0002 25.6998 0.0000 -3.0563
# 5 -11.4919 2.5701 -0.0568 0.0000 43.7373 0.0000
# 6 0.0000 -0.0001 0.0001 -3.0563 0.0000 39.7275
#
#
#
# Elastic Compliance Matrix: (Units=1/GPa)
#
#
# Indices 1 2 3 4 5 6 
#
# 1 0.007922 -0.002777 -0.003350 0.000000 0.002240 0.000000
# 2 -0.002777 0.009198 -0.000736 0.000000 -0.001271 0.000000
# 3 -0.003350 -0.000736 0.012018 0.000000 -0.000821 0.000000
# 4 0.000000 0.000000 0.000000 0.039270 0.000000 0.003021
# 5 0.002240 -0.001271 -0.000821 0.000000 0.023526 0.000000
# 6 0.000000 0.000000 0.000000 0.003021 0.000000 0.025404
#
#
# Mechanical properties :
#
#
# Convention : Reuss Voigt Hill
#
# Bulk Modulus (GPa) = 64.88365 71.85915 68.37140
# Shear Modulus (GPa) = 36.71021 39.74755 38.22888
#
# Velocity S-wave (km/s) = 4.15605 4.32457 4.24115
# Velocity P-wave (km/s) = 7.31842 7.66465 7.49353
#
# Compressibility (1/GPa) = 0.01541220
#
# Stress axis : x y z
#
# Youngs Moduli (GPa) = 126.23479 108.71373 83.20720
#
# Poissons Ratio (x) = 0.30192 0.27873
# Poissons Ratio (y) = 0.35058 0.06125
# Poissons Ratio (z) = 0.42286 0.08003
#
# Static dielectric constant tensor:
#      x y z
#    x 3.973080 0.000000 -0.183510 
#    y 0.000000 4.001130 0.000000 
#    z -0.183510 0.000000 0.801000 
# 
# 
# High freq. dielectric constant tensor:
#      x y z
#    x 1.844940 0.000000 -0.020570 
#    y 0.000000 1.847010 0.000000 
#    z -0.020570 0.000000 1.824150 
# 
# From -- ./inp_files/67346.got.cif
#   From: 2010.06.25/outbox.cif.g09.slc.cpg/sg12_34_cif.got.tgz:67346.got - 2010.06.28 00:19:55.
