data_PCOD8114376
_publ_section_title
;
Structure prediction by ZEFSAII (Michael W. Deem and Ramdas Pophale) SiO2 
 PCOD8114376
Probable space group: C 2/M
;
_chemical_formula_sum "Si O2"
_cell_formula_units_Z 40
_cell_length_a 15.668881
_cell_length_b 18.459196
_cell_length_c 9.868584
_cell_angle_alpha 90.000000
_cell_angle_beta 45.018736
_cell_angle_gamma 90.000000
_cell_volume 2018.982607
_symmetry_space_group_name_H-M "C 2/M"
_symmetry_group_IT_number 12
_symmetry_cell_setting 'monoclinic'
loop_
_space_group_symop_operation_xyz
x,y,z
-x,y,-z
-x,-y,-z
x,-y,z
1/2+x,1/2+y,z
1/2-x,1/2+y,-z
1/2-x,1/2-y,-z
1/2+x,1/2-y,z
loop_
_atom_site_type_symbol
_atom_site_label
_atom_site_fract_x
_atom_site_fract_y
_atom_site_fract_z
Si Si1 0.358550 0.919162 0.144772
Si Si2 0.243773 0.358973 0.017846
Si Si3 0.659259 0.185608 0.592175
Si Si4 0.636300 0.080923 0.381436
Si Si5 0.939434 0.240325 0.714188
O O1 0.321997 0.886321 0.042357
O O2 0.316504 0.862487 0.303546
O O3 0.301210 0.000000 0.227088
O O4 0.500000 0.927019 0.000000
O O5 0.383183 0.336301 0.832128
O O6 0.226945 0.421287 0.150277
O O7 0.175381 0.292596 0.170126
O O8 0.750000 0.250000 0.500000
O O9 0.690246 0.134351 0.431805
O O10 0.528277 0.223333 0.724700
O O11 0.500000 0.108279 0.500000
O O12 0.627790 0.000000 0.451523
O O13 0.000000 0.226721 0.500000
#
# Coordination Sequence:
#
# PCOD8114376 Si02
#       5
#     8   8   8   8   8
#     4  11  22  36  56  90 124 151 191 251 309 350
#     4  11  21  37  64  84 121 158 198 252 289 364
#     4  12  23  37  60  88 128 157 193 248 303 356
#     4  11  21  39  64  91 121 156 203 254 299 352
#     4  11  21  38  58  90 121 155 205 239 298 357
#
# _framework density 19.811959000000002
#
# number of rings (size 3 to 8) (size 9 to 14) (size 15 to 20)
#    0.000    0.800    6.000    2.400    2.800    3.200 
#    0.000    0.000    0.000   14.400    0.000    0.000 
#    0.000    0.000    0.000    0.000    0.000    0.000 
#
# Total GULP energy -247887.324307 kJ/mol
# GULP energy per Si atom -12394.366215 kJ/mol
# Density = 1.976687 g / cm^3
# Si number density = 19.811959 Si / 1000 Ang^3
#
#
#
# Elastic Constant Matrix: (Units=GPa)
#
#
# Indices 1 2 3 4 5 6 
#
# 1 68.1288 44.6379 41.2979 0.0000 19.0237 0.0000
# 2 44.6379 116.3557 61.8413 0.0000 9.7696 0.0000
# 3 41.2979 61.8413 127.7040 0.0000 16.0205 0.0000
# 4 0.0000 0.0000 0.0000 31.9017 0.0000 -2.3743
# 5 19.0237 9.7696 16.0205 0.0000 32.8928 0.0000
# 6 0.0000 0.0000 0.0000 -2.3743 0.0000 35.4575
#
#
#
# Elastic Compliance Matrix: (Units=1/GPa)
#
#
# Indices 1 2 3 4 5 6 
#
# 1 0.023788 -0.006545 -0.003239 0.000000 -0.010236 0.000000
# 2 -0.006545 0.013391 -0.004627 0.000000 0.002061 0.000000
# 3 -0.003239 -0.004627 0.011408 0.000000 -0.002309 0.000000
# 4 0.000000 0.000000 0.000000 0.031503 0.000000 0.002110
# 5 -0.010236 0.002061 -0.002309 0.000000 0.036834 0.000000
# 6 0.000000 0.000000 0.000000 0.002110 0.000000 0.028344
#
#
# Mechanical properties :
#
#
# Convention : Reuss Voigt Hill
#
# Bulk Modulus (GPa) = 50.59236 67.52696 59.05966
# Shear Modulus (GPa) = 27.67329 31.01116 29.34222
#
# Velocity S-wave (km/s) = 3.74143 3.96065 3.85260
# Velocity P-wave (km/s) = 6.65253 7.42116 7.04733
#
# Compressibility (1/GPa) = 0.01976583
#
# Stress axis : x y z
#
# Youngs Moduli (GPa) = 42.03776 74.67629 87.65507
#
# Poissons Ratio (x) = 0.48874 0.28394
# Poissons Ratio (y) = 0.27513 0.40556
# Poissons Ratio (z) = 0.13617 0.34551
#
# Static dielectric constant tensor:
#      x y z
#    x 3.254560 0.000000 -0.035050 
#    y 0.000000 3.886200 0.000000 
#    z -0.035050 0.000000 3.837410 
# 
# 
# High freq. dielectric constant tensor:
#      x y z
#    x 1.747510 0.000000 0.022390 
#    y 0.000000 1.782840 0.000000 
#    z 0.022390 0.000000 1.770070 
# 
# From -- ./inp_files/47137.got.cif
#   From: 2010.06.25/outbox.cif.g09.slc.cpg/sg12_24_cif.got.tgz:47137.got - 2010.06.28 00:19:55.
