data_PCOD8114017
_publ_section_title
;
Structure prediction by ZEFSAII (Michael W. Deem and Ramdas Pophale) SiO2 
 PCOD8114017
Probable space group: C 2/M
;
_chemical_formula_sum "Si O2"
_cell_formula_units_Z 48
_cell_length_a 24.928675
_cell_length_b 7.968270
_cell_length_c 24.544047
_cell_angle_alpha 90.000000
_cell_angle_beta 32.549070
_cell_angle_gamma 90.000000
_cell_volume 2623.066006
_symmetry_space_group_name_H-M "C 2/M"
_symmetry_group_IT_number 12
_symmetry_cell_setting 'monoclinic'
loop_
_space_group_symop_operation_xyz
x,y,z
-x,y,-z
-x,-y,-z
x,-y,z
1/2+x,1/2+y,z
1/2-x,1/2+y,-z
1/2-x,1/2-y,-z
1/2+x,1/2-y,z
loop_
_atom_site_type_symbol
_atom_site_label
_atom_site_fract_x
_atom_site_fract_y
_atom_site_fract_z
Si Si1 0.652657 0.186203 0.802321
Si Si2 0.661160 0.500000 0.376215
Si Si3 0.826930 0.188898 0.099138
Si Si4 0.979948 0.000000 0.606994
Si Si5 0.143013 0.810095 0.111970
Si Si6 0.105178 0.308011 0.260021
Si Si7 0.526686 0.189920 0.112653
O O1 0.643769 0.303147 0.862567
O O2 0.580973 0.258679 0.816086
O O3 0.612237 0.000000 0.852973
O O4 0.767764 0.166704 0.683420
O O5 0.592059 0.500000 0.488168
O O6 0.598579 0.500000 0.374549
O O7 0.713173 0.246009 0.189801
O O8 0.841106 0.000000 0.065809
O O9 0.895705 0.306526 0.003732
O O10 0.970497 0.829333 0.650452
O O11 0.105242 0.698223 0.194472
O O12 0.063025 0.801613 0.131844
O O13 0.152346 0.000000 0.124505
O O14 0.250000 0.750000 0.000000
O O15 0.077230 0.500000 0.301434
O O16 0.518103 0.000000 0.141090
#
# Coordination Sequence:
#
# PCOD8114017 Si02
#       7
#     8   4   8   4   8   8   8
#     4   9  19  37  54  78 111 150 188 234 284 345
#     4   9  20  38  64  87 110 143 196 247 297 351
#     4  11  21  32  50  81 121 156 190 227 277 349
#     4  11  20  40  67  88 113 152 191 249 304 346
#     4  12  23  36  54  82 118 154 196 236 279 337
#     4  11  22  37  57  87 120 150 193 239 290 344
#     4  11  22  33  53  79 113 161 190 225 280 345
#
# _framework density 18.299195999999998
#
# number of rings (size 3 to 8) (size 9 to 14) (size 15 to 20)
#    0.500    0.833    4.167    3.000    1.167    3.333 
#    0.000    2.500    0.000    1.000    0.000    0.000 
#    0.000    0.000    0.000    0.000    0.000    0.000 
#
# Total GULP energy -297554.519135 kJ/mol
# GULP energy per Si atom -12398.104964 kJ/mol
# Density = 1.825755 g / cm^3
# Si number density = 18.299196 Si / 1000 Ang^3
#
#
#
# Elastic Constant Matrix: (Units=GPa)
#
#
# Indices 1 2 3 4 5 6 
#
# 1 114.0990 13.0190 31.2960 0.0109 6.1194 -0.0523
# 2 13.0190 72.3340 28.4736 0.0149 1.7392 -0.0741
# 3 31.2960 28.4736 85.8699 -0.0069 10.3706 -0.0227
# 4 0.0109 0.0149 -0.0069 16.5700 0.0082 4.7806
# 5 6.1194 1.7392 10.3706 0.0082 18.0597 0.0149
# 6 -0.0523 -0.0741 -0.0227 4.7806 0.0149 25.8678
#
#
#
# Elastic Compliance Matrix: (Units=1/GPa)
#
#
# Indices 1 2 3 4 5 6 
#
# 1 0.009781 -0.000449 -0.003246 -0.000012 -0.001407 0.000019
# 2 -0.000449 0.015964 -0.005333 -0.000030 0.001677 0.000045
# 3 -0.003246 -0.005333 0.015475 0.000019 -0.007273 -0.000008
# 4 -0.000012 -0.000030 0.000019 0.063749 -0.000023 -0.011781
# 5 -0.001407 0.001677 -0.007273 -0.000023 0.059864 -0.000035
# 6 0.000019 0.000045 -0.000008 -0.011781 -0.000035 0.040836
#
#
# Mechanical properties :
#
#
# Convention : Reuss Voigt Hill
#
# Bulk Modulus (GPa) = 43.16686 46.43112 44.79899
# Shear Modulus (GPa) = 21.60329 25.40046 23.50187
#
# Velocity S-wave (km/s) = 3.43965 3.72972 3.58762
# Velocity P-wave (km/s) = 6.27819 6.63145 6.45723
#
# Compressibility (1/GPa) = 0.02316592
#
# Stress axis : x y z
#
# Youngs Moduli (GPa) = 102.23503 62.63939 64.61961
#
# Poissons Ratio (x) = 0.02811 0.20976
# Poissons Ratio (y) = 0.04589 0.34459
# Poissons Ratio (z) = 0.33187 0.33403
#
# Static dielectric constant tensor:
#      x y z
#    x 3.468070 0.000020 -0.047750 
#    y 0.000020 3.300540 0.000000 
#    z -0.047750 0.000000 3.103070 
# 
# 
# High freq. dielectric constant tensor:
#      x y z
#    x 1.715120 0.000000 0.004940 
#    y 0.000000 1.706690 0.000000 
#    z 0.004940 0.000000 1.671040 
# 
# From -- ./inp_files/323526.got.cif
#   From: 2010.06.25/outbox.cif.g09.slc.cpg/sg12_162_cif.got.tgz:323526.got - 2010.06.28 00:19:55.
