data_PCOD8114423
_publ_section_title
;
Structure prediction by ZEFSAII (Michael W. Deem and Ramdas Pophale) SiO2 
 PCOD8114423
Probable space group: C 2/M
;
_chemical_formula_sum "Si O2"
_cell_formula_units_Z 48
_cell_length_a 18.439909
_cell_length_b 7.701675
_cell_length_c 16.258321
_cell_angle_alpha 90.000000
_cell_angle_beta 91.827282
_cell_angle_gamma 90.000000
_cell_volume 2307.803121
_symmetry_space_group_name_H-M "C 2/M"
_symmetry_group_IT_number 12
_symmetry_cell_setting 'monoclinic'
loop_
_space_group_symop_operation_xyz
x,y,z
-x,y,-z
-x,-y,-z
x,-y,z
1/2+x,1/2+y,z
1/2-x,1/2+y,-z
1/2-x,1/2-y,-z
1/2+x,1/2-y,z
loop_
_atom_site_type_symbol
_atom_site_label
_atom_site_fract_x
_atom_site_fract_y
_atom_site_fract_z
Si Si1 0.817306 0.803540 0.866095
Si Si2 0.101437 0.000000 0.576616
Si Si3 0.937549 0.000000 0.613130
Si Si4 0.580550 0.199193 0.990595
Si Si5 0.689168 0.803767 0.660145
Si Si6 0.647284 0.197109 0.306596
Si Si7 0.161837 0.801628 0.838181
O O1 0.865570 0.805529 0.949395
O O2 0.857293 0.706731 0.792620
O O3 0.740873 0.712081 0.883246
O O4 0.801617 0.000000 0.837453
O O5 0.144333 0.174125 0.601404
O O6 0.093412 0.000000 0.479169
O O7 0.024307 0.000000 0.619194
O O8 0.911712 0.825698 0.657456
O O9 0.584262 0.000000 0.017733
O O10 0.500000 0.274083 0.000000
O O11 0.602148 0.221211 0.896424
O O12 0.772909 0.748813 0.659942
O O13 0.659714 0.799407 0.752190
O O14 0.680257 0.000000 0.626074
O O15 0.629496 0.000000 0.333234
O O16 0.142623 0.000000 0.819159
#
# Coordination Sequence:
#
# PCOD8114423 Si02
#       7
#     8   4   4   8   8   8   8
#     4  11  21  38  63  89 122 161 208 262 314 368
#     4  11  26  46  66  97 138 172 209 265 332 396
#     4  11  26  46  66  97 138 172 209 265 332 396
#     4  11  24  39  54  83 123 165 214 258 308 372
#     4  11  21  42  70  99 129 168 221 270 321 384
#     4  11  21  42  70  99 129 168 221 270 321 384
#     4  11  21  38  63  89 122 161 208 262 314 368
#
# _framework density 20.799001000000001
#
# number of rings (size 3 to 8) (size 9 to 14) (size 15 to 20)
#    0.000    1.000    3.333    6.000    0.000    4.667 
#    0.000    1.667    0.000    0.000    0.000    0.000 
#    0.000    0.000    0.000    0.000    0.000    0.000 
#
# Total GULP energy -297733.470698 kJ/mol
# GULP energy per Si atom -12405.561279 kJ/mol
# Density = 2.075166 g / cm^3
# Si number density = 20.799001 Si / 1000 Ang^3
#
#
#
# Elastic Constant Matrix: (Units=GPa)
#
#
# Indices 1 2 3 4 5 6 
#
# 1 38.6607 13.4542 2.9934 0.0000 -16.8907 0.0000
# 2 13.4542 147.9739 13.7162 0.0000 -4.2957 0.0000
# 3 2.9934 13.7162 25.6741 0.0000 -9.4427 0.0000
# 4 0.0000 0.0000 0.0000 7.1059 0.0000 2.1752
# 5 -16.8907 -4.2957 -9.4427 0.0000 35.5984 0.0000
# 6 0.0000 0.0000 0.0000 2.1752 0.0000 27.1282
#
#
#
# Elastic Compliance Matrix: (Units=1/GPa)
#
#
# Indices 1 2 3 4 5 6 
#
# 1 0.033911 -0.002948 0.003776 0.000000 0.016736 0.000000
# 2 -0.002948 0.007367 -0.004188 0.000000 -0.001620 0.000000
# 3 0.003776 -0.004188 0.045676 0.000000 0.013402 0.000000
# 4 0.000000 0.000000 0.000000 0.144269 0.000000 -0.011568
# 5 0.016736 -0.001620 0.013402 0.000000 0.039392 0.000000
# 6 0.000000 0.000000 0.000000 -0.011568 0.000000 0.037790
#
#
# Mechanical properties :
#
#
# Convention : Reuss Voigt Hill
#
# Bulk Modulus (GPa) = 12.46321 30.29294 21.37807
# Shear Modulus (GPa) = 14.62550 26.10951 20.36751
#
# Velocity S-wave (km/s) = 2.65464 3.54690 3.13270
# Velocity P-wave (km/s) = 3.92446 5.60091 4.83589
#
# Compressibility (1/GPa) = 0.08023617
#
# Stress axis : x y z
#
# Youngs Moduli (GPa) = 29.48857 135.73820 21.89325
#
# Poissons Ratio (x) = 0.40009 -0.08268
# Poissons Ratio (y) = 0.08692 0.09169
# Poissons Ratio (z) = -0.11136 0.56850
#
# Static dielectric constant tensor:
#      x y z
#    x 3.724100 0.000000 -0.096490 
#    y 0.000000 3.851540 0.000000 
#    z -0.096490 0.000000 3.593670 
# 
# 
# High freq. dielectric constant tensor:
#      x y z
#    x 1.804430 0.000000 -0.005780 
#    y 0.000000 1.830350 0.000000 
#    z -0.005780 0.000000 1.806710 
# 
# From -- ./inp_files/221744.got.cif
#   From: 2010.06.25/outbox.cif.g09.slc.cpg/sg12_111_cif.got.tgz:221744.got - 2010.06.28 00:19:55.
