data_PCOD8114344
_publ_section_title
;
Structure prediction by ZEFSAII (Michael W. Deem and Ramdas Pophale) SiO2 
 PCOD8114344
Probable space group: C 2/M
;
_chemical_formula_sum "Si O2"
_cell_formula_units_Z 52
_cell_length_a 4.892761
_cell_length_b 28.707690
_cell_length_c 20.953680
_cell_angle_alpha 90.000000
_cell_angle_beta 120.693979
_cell_angle_gamma 90.000000
_cell_volume 2530.833036
_symmetry_space_group_name_H-M "C 2/M"
_symmetry_group_IT_number 12
_symmetry_cell_setting 'monoclinic'
loop_
_space_group_symop_operation_xyz
x,y,z
-x,y,-z
-x,-y,-z
x,-y,z
1/2+x,1/2+y,z
1/2-x,1/2+y,-z
1/2-x,1/2-y,-z
1/2+x,1/2-y,z
loop_
_atom_site_type_symbol
_atom_site_label
_atom_site_fract_x
_atom_site_fract_y
_atom_site_fract_z
Si Si1 0.032631 0.398591 0.314465
Si Si2 0.062401 0.500000 0.723683
Si Si3 0.735543 0.865436 0.847683
Si Si4 0.327975 0.219710 0.779282
Si Si5 0.231563 0.500000 0.175220
Si Si6 0.000000 0.284239 0.500000
Si Si7 0.090766 0.842578 0.356311
Si Si8 0.391402 0.907914 0.915560
O O1 0.069979 0.454083 0.327953
O O2 0.375335 0.376882 0.373979
O O3 0.965759 0.390740 0.231417
O O4 0.752712 0.373730 0.320655
O O5 0.017124 0.500000 0.795573
O O6 0.431338 0.500000 0.750661
O O7 0.595779 0.813618 0.841654
O O8 0.688863 0.890898 0.909610
O O9 0.110651 0.868891 0.877125
O O10 0.524406 0.266796 0.786485
O O11 0.162869 0.195545 0.698927
O O12 0.219380 0.456164 0.127225
O O13 0.250000 0.250000 0.500000
O O14 0.142436 0.317505 0.570838
O O15 0.500000 0.916376 0.000000
#
# Coordination Sequence:
#
# PCOD8114344 Si02
#       8
#     8   4   8   8   4   4   8   8
#     4  11  21  39  60  90 121 165 204 254 293 352
#     4  12  22  36  65  87 128 156 208 258 302 344
#     4  11  22  39  58  85 118 159 202 254 311 361
#     4  11  21  37  61  88 114 147 198 252 300 355
#     4  12  21  38  58  92 120 161 198 252 306 373
#     4  12  24  42  66  97 134 167 196 244 310 374
#     4  11  23  38  63  92 129 158 200 239 309 366
#     4  12  23  38  58  86 124 161 197 246 315 380
#
# _framework density 20.546593000000001
#
# number of rings (size 3 to 8) (size 9 to 14) (size 15 to 20)
#    0.000    0.615    3.077    8.077    0.000    0.000 
#    0.000    2.308    0.000   12.000    0.000    0.000 
#    0.000    0.000    0.000    0.000    0.000    0.000 
#
# Total GULP energy -322302.753123 kJ/mol
# GULP energy per Si atom -12396.259736 kJ/mol
# Density = 2.049983 g / cm^3
# Si number density = 20.546593 Si / 1000 Ang^3
#
#
#
# Elastic Constant Matrix: (Units=GPa)
#
#
# Indices 1 2 3 4 5 6 
#
# 1 106.7642 32.8085 15.3562 0.0000 4.3506 0.0000
# 2 32.8085 116.7839 32.1920 0.0000 6.9797 0.0000
# 3 15.3562 32.1920 53.6680 0.0000 2.8818 0.0000
# 4 0.0000 0.0000 0.0000 42.7673 0.0000 3.6353
# 5 4.3506 6.9797 2.8818 0.0000 27.6077 0.0000
# 6 0.0000 0.0000 0.0000 3.6353 0.0000 36.8839
#
#
#
# Elastic Compliance Matrix: (Units=1/GPa)
#
#
# Indices 1 2 3 4 5 6 
#
# 1 0.010366 -0.002463 -0.001442 0.000000 -0.000860 0.000000
# 2 -0.002463 0.010951 -0.005769 0.000000 -0.001778 0.000000
# 3 -0.001442 -0.005769 0.022542 0.000000 -0.000667 0.000000
# 4 0.000000 0.000000 0.000000 0.023580 0.000000 -0.002324
# 5 -0.000860 -0.001778 -0.000667 0.000000 0.036877 0.000000
# 6 0.000000 0.000000 0.000000 -0.002324 0.000000 0.027341
#
#
# Mechanical properties :
#
#
# Convention : Reuss Voigt Hill
#
# Bulk Modulus (GPa) = 40.79855 48.65884 44.72870
# Shear Modulus (GPa) = 31.41192 34.57573 32.99383
#
# Velocity S-wave (km/s) = 3.91425 4.10664 4.01160
# Velocity P-wave (km/s) = 6.35044 6.79850 6.57829
#
# Compressibility (1/GPa) = 0.02451067
#
# Stress axis : x y z
#
# Youngs Moduli (GPa) = 96.47057 91.31375 44.36186
#
# Poissons Ratio (x) = 0.22492 0.06399
# Poissons Ratio (y) = 0.23762 0.25591
# Poissons Ratio (z) = 0.13914 0.52676
#
# Static dielectric constant tensor:
#      x y z
#    x 3.912190 0.000000 0.095870 
#    y 0.000000 4.023590 0.000000 
#    z 0.095870 0.000000 3.360740 
# 
# 
# High freq. dielectric constant tensor:
#      x y z
#    x 1.828800 0.000000 0.005850 
#    y 0.000000 1.814990 0.000000 
#    z 0.005850 0.000000 1.758010 
# 
# From -- ./inp_files/298403.got.cif
#   From: 2010.06.25/outbox.cif.g09.slc.cpg/sg12_150_cif.got.tgz:298403.got - 2010.06.28 00:19:55.
