data_PCOD8114000
_publ_section_title
;
Structure prediction by ZEFSAII (Michael W. Deem and Ramdas Pophale) SiO2 
 PCOD8114000
Probable space group: C 2/M
;
_chemical_formula_sum "Si O2"
_cell_formula_units_Z 32
_cell_length_a 10.536107
_cell_length_b 14.677136
_cell_length_c 16.678202
_cell_angle_alpha 90.000000
_cell_angle_beta 33.765034
_cell_angle_gamma 90.000000
_cell_volume 1433.442205
_symmetry_space_group_name_H-M "C 2/M"
_symmetry_group_IT_number 12
_symmetry_cell_setting 'monoclinic'
loop_
_space_group_symop_operation_xyz
x,y,z
-x,y,-z
-x,-y,-z
x,-y,z
1/2+x,1/2+y,z
1/2-x,1/2+y,-z
1/2-x,1/2-y,-z
1/2+x,1/2-y,z
loop_
_atom_site_type_symbol
_atom_site_label
_atom_site_fract_x
_atom_site_fract_y
_atom_site_fract_z
Si Si1 0.746691 0.653056 0.044356
Si Si2 0.238088 0.396984 0.784766
Si Si3 0.496119 0.237897 0.410779
Si Si4 0.151422 0.102063 0.846194
O O1 0.739950 0.658139 0.143656
O O2 0.519049 0.599136 0.139790
O O3 0.750000 0.750000 0.000000
O O4 0.973372 0.599160 0.897119
O O5 0.333089 0.500000 0.740055
O O6 0.384090 0.337155 0.646236
O O7 0.500000 0.199969 0.500000
O O8 0.250000 0.250000 0.500000
O O9 0.635225 0.167619 0.281955
O O10 0.243765 0.000000 0.814626
O O11 0.000000 0.139476 0.000000
#
# Coordination Sequence:
#
# PCOD8114000 Si02
#       4
#     8   8   8   8
#     4  11  20  39  71 102 136 172 229 300 356 408
#     4  11  24  42  68 101 138 183 235 291 354 423
#     4  12  28  46  68 101 144 194 235 291 366 434
#     4  11  24  43  72 104 136 180 238 298 353 419
#
# _framework density 22.323884
#
# number of rings (size 3 to 8) (size 9 to 14) (size 15 to 20)
#    0.000    0.750    2.500    6.000    3.500    2.000 
#    0.000    0.000    0.000    0.000    0.000    0.000 
#    0.000    0.000    0.000    0.000    0.000    0.000 
#
# Total GULP energy -198382.961763 kJ/mol
# GULP energy per Si atom -12398.935110 kJ/mol
# Density = 2.227307 g / cm^3
# Si number density = 22.323884 Si / 1000 Ang^3
#
#
#
# Elastic Constant Matrix: (Units=GPa)
#
#
# Indices 1 2 3 4 5 6 
#
# 1 98.3640 21.3029 45.2148 -0.0023 -21.1508 -0.0015
# 2 21.3029 148.8228 58.2333 -0.0051 7.5701 -0.0008
# 3 45.2148 58.2333 132.9342 -0.0088 -12.2727 -0.0013
# 4 -0.0023 -0.0051 -0.0088 26.2903 0.0005 -0.3505
# 5 -21.1508 7.5701 -12.2727 0.0005 43.6389 0.0026
# 6 -0.0015 -0.0008 -0.0013 -0.3505 0.0026 30.0124
#
#
#
# Elastic Compliance Matrix: (Units=1/GPa)
#
#
# Indices 1 2 3 4 5 6 
#
# 1 0.013187 -0.000736 -0.003656 0.000000 0.005491 0.000000
# 2 -0.000736 0.008418 -0.003701 0.000000 -0.002858 0.000000
# 3 -0.003656 -0.003701 0.010557 0.000002 0.001839 0.000000
# 4 0.000000 0.000000 0.000002 0.038043 0.000000 0.000444
# 5 0.005491 -0.002858 0.001839 0.000000 0.026590 -0.000002
# 6 0.000000 0.000000 0.000000 0.000444 -0.000002 0.033325
#
#
# Mechanical properties :
#
#
# Convention : Reuss Voigt Hill
#
# Bulk Modulus (GPa) = 62.59479 69.95812 66.27645
# Shear Modulus (GPa) = 32.97463 37.01299 34.99381
#
# Velocity S-wave (km/s) = 3.84748 4.07627 3.96353
# Velocity P-wave (km/s) = 6.91648 7.31850 7.12033
#
# Compressibility (1/GPa) = 0.01597577
#
# Stress axis : x y z
#
# Youngs Moduli (GPa) = 75.83253 118.78671 94.72330
#
# Poissons Ratio (x) = 0.08748 0.34628
# Poissons Ratio (y) = 0.05585 0.35059
# Poissons Ratio (z) = 0.27722 0.43965
#
# Static dielectric constant tensor:
#      x y z
#    x 4.254010 -0.000020 -0.081170 
#    y -0.000020 4.010630 0.000020 
#    z -0.081170 0.000020 4.043370 
# 
# 
# High freq. dielectric constant tensor:
#      x y z
#    x 1.884640 0.000000 -0.004130 
#    y 0.000000 1.883550 0.000000 
#    z -0.004130 0.000000 1.867230 
# 
# From -- ./inp_files/45410.got.cif
#   From: 2010.06.25/outbox.cif.g09.slc.cpg/sg12_23_cif.got.tgz:45410.got - 2010.06.28 00:19:55.
