data_PCOD8114384
_publ_section_title
;
Structure prediction by ZEFSAII (Michael W. Deem and Ramdas Pophale) SiO2 
 PCOD8114384
Probable space group: C 2/M
;
_chemical_formula_sum "Si O2"
_cell_formula_units_Z 48
_cell_length_a 11.310007
_cell_length_b 17.544714
_cell_length_c 12.239836
_cell_angle_alpha 90.000000
_cell_angle_beta 71.487789
_cell_angle_gamma 90.000000
_cell_volume 2303.087133
_symmetry_space_group_name_H-M "C 2/M"
_symmetry_group_IT_number 12
_symmetry_cell_setting 'monoclinic'
loop_
_space_group_symop_operation_xyz
x,y,z
-x,y,-z
-x,-y,-z
x,-y,z
1/2+x,1/2+y,z
1/2-x,1/2+y,-z
1/2-x,1/2-y,-z
1/2+x,1/2-y,z
loop_
_atom_site_type_symbol
_atom_site_label
_atom_site_fract_x
_atom_site_fract_y
_atom_site_fract_z
Si Si1 0.960433 0.000000 0.634296
Si Si2 0.863037 0.650108 0.498617
Si Si3 0.461384 0.352692 0.123832
Si Si4 0.146896 0.500000 0.963423
Si Si5 0.237477 0.000000 0.607844
Si Si6 0.292302 0.500000 0.145085
Si Si7 0.810059 0.882970 0.799904
Si Si8 0.298996 0.759140 0.311345
O O1 0.000000 0.000000 0.500000
O O2 0.875969 0.073713 0.680191
O O3 0.087201 0.000000 0.668468
O O4 0.780408 0.573870 0.527919
O O5 0.807447 0.714512 0.592998
O O6 0.866296 0.680921 0.373085
O O7 0.000000 0.629611 0.500000
O O8 0.375673 0.424188 0.116912
O O9 0.591064 0.380900 0.132987
O O10 0.399242 0.297995 0.231207
O O11 0.500000 0.309393 0.000000
O O12 0.191760 0.425960 0.884373
O O13 0.194537 0.500000 0.074425
O O14 0.000000 0.500000 0.000000
O O15 0.288169 0.000000 0.717833
O O16 0.766854 0.801135 0.770131
#
# Coordination Sequence:
#
# PCOD8114384 Si02
#       8
#     4   8   8   4   4   4   8   8
#     4  11  21  37  66  94 125 167 222 277 327 386
#     4  11  24  43  65  95 139 181 222 276 338 405
#     4  12  23  43  73  98 128 179 230 281 329 394
#     4  11  26  45  67  97 136 174 217 282 334 392
#     4  12  22  40  72 100 123 179 234 271 335 396
#     4  12  21  45  73  98 128 171 235 280 319 398
#     4  11  23  42  66  96 133 172 224 277 335 391
#     4  11  25  42  64 101 140 173 225 279 341 402
#
# _framework density 20.841591000000001
#
# number of rings (size 3 to 8) (size 9 to 14) (size 15 to 20)
#    0.000    0.667    5.000    3.000    0.000    6.667 
#    3.000    0.000    0.000    0.000    0.000    0.000 
#    0.000    0.000    0.000    0.000    0.000    0.000 
#
# Total GULP energy -297655.126028 kJ/mol
# GULP energy per Si atom -12402.296918 kJ/mol
# Density = 2.079416 g / cm^3
# Si number density = 20.841591 Si / 1000 Ang^3
#
#
#
# Elastic Constant Matrix: (Units=GPa)
#
#
# Indices 1 2 3 4 5 6 
#
# 1 128.2163 40.5288 39.9398 0.0000 -5.5343 0.0000
# 2 40.5288 105.4636 38.1522 0.0000 -0.6717 0.0000
# 3 39.9398 38.1522 140.4790 0.0000 1.6062 0.0000
# 4 0.0000 0.0000 0.0000 10.4006 0.0000 21.8568
# 5 -5.5343 -0.6717 1.6062 0.0000 34.3551 0.0000
# 6 0.0000 0.0000 0.0000 21.8568 0.0000 12.7456
#
#
#
# Elastic Compliance Matrix: (Units=1/GPa)
#
#
# Indices 1 2 3 4 5 6 
#
# 1 0.009375 -0.002908 -0.001893 0.000000 0.001542 0.000000
# 2 -0.002908 0.011421 -0.002273 0.000000 -0.000139 0.000000
# 3 -0.001893 -0.002273 0.008283 0.000000 -0.000737 0.000000
# 4 0.000000 0.000000 0.000000 -0.036927 0.000000 0.063324
# 5 0.001542 -0.000139 -0.000737 0.000000 0.029388 0.000000
# 6 0.000000 0.000000 0.000000 0.063324 0.000000 -0.030133
#
#
# Mechanical properties :
#
#
# Convention : Reuss Voigt Hill
#
# Bulk Modulus (GPa) = 66.98288 67.93338 67.45813
# Shear Modulus (GPa) = 474.73489 28.53614 251.63551
#
# Velocity S-wave (km/s) = 15.10884 3.70427 10.99997
# Velocity P-wave (km/s) = 18.34606 7.13872 13.92012
#
# Compressibility (1/GPa) = 0.01492919
#
# Stress axis : x y z
#
# Youngs Moduli (GPa) = 106.66875 87.55805 120.73463
#
# Poissons Ratio (x) = 0.25462 0.22858
# Poissons Ratio (y) = 0.31019 0.27448
# Poissons Ratio (z) = 0.20195 0.19906
#
# Static dielectric constant tensor:
#      x y z
#    x 3.808240 0.000000 0.065270 
#    y 0.000000 3.718170 0.000000 
#    z 0.065270 0.000000 3.978680 
# 
# 
# High freq. dielectric constant tensor:
#      x y z
#    x 1.812280 0.000000 0.004270 
#    y 0.000000 1.813920 0.000000 
#    z 0.004270 0.000000 1.833940 
# 
# From -- ./inp_files/131721.got.cif
#   From: 2010.06.25/outbox.cif.g09.slc.cpg/sg12_66_cif.got.tgz:131721.got - 2010.06.28 00:19:55.
