data_PCOD8114102
_publ_section_title
;
Structure prediction by ZEFSAII (Michael W. Deem and Ramdas Pophale) SiO2 
 PCOD8114102
Probable space group: C 2/M
;
_chemical_formula_sum "Si O2"
_cell_formula_units_Z 56
_cell_length_a 28.422336
_cell_length_b 8.621769
_cell_length_c 14.296633
_cell_angle_alpha 90.000000
_cell_angle_beta 60.028370
_cell_angle_gamma 90.000000
_cell_volume 3034.901746
_symmetry_space_group_name_H-M "C 2/M"
_symmetry_group_IT_number 12
_symmetry_cell_setting 'monoclinic'
loop_
_space_group_symop_operation_xyz
x,y,z
-x,y,-z
-x,-y,-z
x,-y,z
1/2+x,1/2+y,z
1/2-x,1/2+y,-z
1/2-x,1/2-y,-z
1/2+x,1/2-y,z
loop_
_atom_site_type_symbol
_atom_site_label
_atom_site_fract_x
_atom_site_fract_y
_atom_site_fract_z
Si Si1 0.661566 0.674936 0.838742
Si Si2 0.506540 0.817289 0.888955
Si Si3 0.803296 0.181250 0.898535
Si Si4 0.214680 0.674836 0.274416
Si Si5 0.608507 0.179081 0.060462
Si Si6 0.200865 0.817651 0.487924
Si Si7 0.379215 0.815891 0.299993
O O1 0.637872 0.500000 0.863618
O O2 0.722396 0.673804 0.816662
O O3 0.662135 0.745471 0.734789
O O4 0.625853 0.790008 0.936628
O O5 0.455388 0.777853 0.872729
O O6 0.560237 0.753267 0.783490
O O7 0.512130 0.000000 0.895682
O O8 0.500000 0.743991 0.000000
O O9 0.815717 0.252965 0.784526
O O10 0.857395 0.212199 0.904818
O O11 0.793724 0.000000 0.897860
O O12 0.750000 0.250000 0.000000
O O13 0.193797 0.500000 0.313425
O O14 0.204853 0.777376 0.375211
O O15 0.619109 0.000000 0.075346
O O16 0.250000 0.750000 0.500000
O O17 0.142841 0.749196 0.579825
O O18 0.201721 0.000000 0.500506
O O19 0.376232 0.000000 0.303189
#
# Coordination Sequence:
#
# PCOD8114102 Si02
#       7
#     8   8   8   8   8   8   8
#     4  11  21  32  52  83 118 150 188 233 278 336
#     4   9  18  34  56  85 114 149 192 232 277 337
#     4  12  24  38  57  84 116 151 190 233 285 338
#     4  11  23  39  58  83 115 151 192 232 282 341
#     4  11  21  36  58  82 115 154 192 232 279 335
#     4  12  24  38  57  84 116 151 190 233 285 338
#     4  11  21  36  58  82 115 154 192 232 279 335
#
# _framework density 18.451999000000001
#
# number of rings (size 3 to 8) (size 9 to 14) (size 15 to 20)
#    0.000    1.000    4.286    4.286    0.000    1.143 
#    0.000    3.571    0.000    0.857    0.000    6.000 
#    0.000    0.000    0.000    0.000    0.000    0.000 
#
# Total GULP energy -347237.276234 kJ/mol
# GULP energy per Si atom -12401.331294 kJ/mol
# Density = 1.841000 g / cm^3
# Si number density = 18.451999 Si / 1000 Ang^3
#
#
#
# Elastic Constant Matrix: (Units=GPa)
#
#
# Indices 1 2 3 4 5 6 
#
# 1 79.6277 36.1558 45.7566 0.0000 -1.2594 0.0000
# 2 36.1558 89.7689 22.9815 0.0000 -6.9195 0.0000
# 3 45.7566 22.9815 100.4134 0.0000 -5.7984 0.0000
# 4 0.0000 0.0000 0.0000 31.1765 0.0000 4.7430
# 5 -1.2594 -6.9195 -5.7984 0.0000 28.9910 0.0000
# 6 0.0000 0.0000 0.0000 4.7430 0.0000 24.9294
#
#
#
# Elastic Compliance Matrix: (Units=1/GPa)
#
#
# Indices 1 2 3 4 5 6 
#
# 1 0.019749 -0.006144 -0.007717 0.000000 -0.002152 0.000000
# 2 -0.006144 0.013900 -0.000208 0.000000 0.003009 0.000000
# 3 -0.007717 -0.000208 0.013658 0.000000 0.002347 0.000000
# 4 0.000000 0.000000 0.000000 0.033032 0.000000 -0.006284
# 5 -0.002152 0.003009 0.002347 0.000000 0.035588 0.000000
# 6 0.000000 0.000000 0.000000 -0.006284 0.000000 0.041309
#
#
# Mechanical properties :
#
#
# Convention : Reuss Voigt Hill
#
# Bulk Modulus (GPa) = 52.16865 53.28864 52.72864
# Shear Modulus (GPa) = 26.07387 28.01377 27.04382
#
# Velocity S-wave (km/s) = 3.76315 3.90063 3.83251
# Velocity P-wave (km/s) = 6.87137 7.01633 6.94423
#
# Compressibility (1/GPa) = 0.01916860
#
# Stress axis : x y z
#
# Youngs Moduli (GPa) = 50.63573 71.94486 73.21471
#
# Poissons Ratio (x) = 0.44206 0.56501
# Poissons Ratio (y) = 0.31113 0.01519
# Poissons Ratio (z) = 0.39077 0.01493
#
# Static dielectric constant tensor:
#      x y z
#    x 3.382740 0.000000 -0.073320 
#    y 0.000000 3.383320 0.000000 
#    z -0.073320 0.000000 3.443550 
# 
# 
# High freq. dielectric constant tensor:
#      x y z
#    x 1.701710 0.000000 0.001090 
#    y 0.000000 1.720250 0.000000 
#    z 0.001090 0.000000 1.706700 
# 
# From -- ./inp_files/243637.got.cif
#   From: 2010.06.25/outbox.cif.g09.slc.cpg/sg12_122_cif.got.tgz:243637.got - 2010.06.28 00:19:55.
