data_PCOD8114216
_publ_section_title
;
Structure prediction by ZEFSAII (Michael W. Deem and Ramdas Pophale) SiO2 
 PCOD8114216
Probable space group: C 2/M
;
_chemical_formula_sum "Si O2"
_cell_formula_units_Z 56
_cell_length_a 22.343485
_cell_length_b 8.553924
_cell_length_c 14.803494
_cell_angle_alpha 90.000000
_cell_angle_beta 108.319995
_cell_angle_gamma 90.000000
_cell_volume 2685.908792
_symmetry_space_group_name_H-M "C 2/M"
_symmetry_group_IT_number 12
_symmetry_cell_setting 'monoclinic'
loop_
_space_group_symop_operation_xyz
x,y,z
-x,y,-z
-x,-y,-z
x,-y,z
1/2+x,1/2+y,z
1/2-x,1/2+y,-z
1/2-x,1/2-y,-z
1/2+x,1/2-y,z
loop_
_atom_site_type_symbol
_atom_site_label
_atom_site_fract_x
_atom_site_fract_y
_atom_site_fract_z
Si Si1 0.874648 0.681004 0.851218
Si Si2 0.763041 0.183487 0.253840
Si Si3 0.195292 0.683120 0.539488
Si Si4 0.926051 0.673022 0.057249
Si Si5 0.949442 0.313244 0.551066
Si Si6 0.795651 0.673151 0.093242
Si Si7 0.976350 0.318804 0.760174
O O1 0.866561 0.500000 0.873911
O O2 0.805423 0.751885 0.806561
O O3 0.907520 0.704016 0.770520
O O4 0.914026 0.757574 0.954051
O O5 0.787598 0.279194 0.350106
O O6 0.805604 0.220858 0.187070
O O7 0.762527 0.000000 0.276996
O O8 0.194668 0.500000 0.521498
O O9 0.250000 0.750000 0.500000
O O10 0.123202 0.748545 0.492524
O O11 0.955024 0.500000 0.052664
O O12 0.862089 0.658966 0.079282
O O13 0.974635 0.764134 0.146885
O O14 0.947771 0.500000 0.548055
O O15 0.975529 0.246822 0.659271
O O16 0.000000 0.251594 0.500000
O O17 0.770877 0.500000 0.107514
O O18 0.750000 0.750000 0.000000
O O19 0.994822 0.500000 0.759074
#
# Coordination Sequence:
#
# PCOD8114216 Si02
#       7
#     8   8   8   8   8   8   8
#     4   9  16  29  48  77 111 142 180 231 285 334
#     4  11  22  37  58  85 118 154 193 239 290 351
#     4  11  23  40  63  91 120 155 199 252 307 361
#     4   9  17  28  47  77 110 141 180 230 283 337
#     4   9  19  34  53  82 117 151 195 251 299 344
#     4  11  21  35  54  82 116 154 193 237 289 347
#     4   9  16  27  48  75 107 142 178 233 292 332
#
# _framework density 20.849554000000001
#
# number of rings (size 3 to 8) (size 9 to 14) (size 15 to 20)
#    0.000    2.143    1.429    2.571    2.000    4.000 
#    0.000    0.000    0.000    1.714    0.000    4.000 
#    0.000    0.000    0.000    0.000    0.000    0.000 
#
# Total GULP energy -346905.866367 kJ/mol
# GULP energy per Si atom -12389.495227 kJ/mol
# Density = 2.080210 g / cm^3
# Si number density = 20.849554 Si / 1000 Ang^3
#
#
#
# Elastic Constant Matrix: (Units=GPa)
#
#
# Indices 1 2 3 4 5 6 
#
# 1 110.9825 15.7048 62.0963 0.0000 -6.4735 0.0000
# 2 15.7048 29.1259 5.9953 0.0000 2.8379 0.0000
# 3 62.0963 5.9953 173.2054 0.0000 -6.8153 0.0000
# 4 0.0000 0.0000 0.0000 22.8180 0.0000 -1.3914
# 5 -6.4735 2.8379 -6.8153 0.0000 40.6838 0.0000
# 6 0.0000 0.0000 0.0000 -1.3914 0.0000 16.8287
#
#
#
# Elastic Compliance Matrix: (Units=1/GPa)
#
#
# Indices 1 2 3 4 5 6 
#
# 1 0.012252 -0.005921 -0.004122 0.000000 0.001672 0.000000
# 2 -0.005921 0.037723 0.000681 0.000000 -0.003459 0.000000
# 3 -0.004122 0.000681 0.007248 0.000000 0.000511 0.000000
# 4 0.000000 0.000000 0.000000 0.044047 0.000000 0.003642
# 5 0.001672 -0.003459 0.000511 0.000000 0.025173 0.000000
# 6 0.000000 0.000000 0.000000 0.003642 0.000000 0.059723
#
#
# Mechanical properties :
#
#
# Convention : Reuss Voigt Hill
#
# Bulk Modulus (GPa) = 25.97444 53.43407 39.70426
# Shear Modulus (GPa) = 22.96499 31.36725 27.16612
#
# Velocity S-wave (km/s) = 3.32243 3.88294 3.61357
# Velocity P-wave (km/s) = 5.21566 6.76661 6.04111
#
# Compressibility (1/GPa) = 0.03849939
#
# Stress axis : x y z
#
# Youngs Moduli (GPa) = 81.61945 26.50891 137.97428
#
# Poissons Ratio (x) = 0.15695 0.56870
# Poissons Ratio (y) = 0.48325 -0.09394
# Poissons Ratio (z) = 0.33642 -0.01805
#
# Static dielectric constant tensor:
#      x y z
#    x 3.684900 0.000000 -0.006540 
#    y 0.000000 3.259480 0.000000 
#    z -0.006540 0.000000 4.154100 
# 
# 
# High freq. dielectric constant tensor:
#      x y z
#    x 1.828120 0.000000 -0.003140 
#    y 0.000000 1.745510 0.000000 
#    z -0.003140 0.000000 1.838650 
# 
# From -- ./inp_files/239037.got.cif
#   From: 2010.06.25/outbox.cif.g09.slc.cpg/sg12_120_cif.got.tgz:239037.got - 2010.06.28 00:19:55.
