data_PCOD8114068
_publ_section_title
;
Structure prediction by ZEFSAII (Michael W. Deem and Ramdas Pophale) SiO2 
 PCOD8114068
Probable space group: C 2/M
;
_chemical_formula_sum "Si O2"
_cell_formula_units_Z 48
_cell_length_a 13.462169
_cell_length_b 23.097222
_cell_length_c 9.972477
_cell_angle_alpha 90.000000
_cell_angle_beta 105.242079
_cell_angle_gamma 90.000000
_cell_volume 2991.753331
_symmetry_space_group_name_H-M "C 2/M"
_symmetry_group_IT_number 12
_symmetry_cell_setting 'monoclinic'
loop_
_space_group_symop_operation_xyz
x,y,z
-x,y,-z
-x,-y,-z
x,-y,z
1/2+x,1/2+y,z
1/2-x,1/2+y,-z
1/2-x,1/2-y,-z
1/2+x,1/2-y,z
loop_
_atom_site_type_symbol
_atom_site_label
_atom_site_fract_x
_atom_site_fract_y
_atom_site_fract_z
Si Si1 0.440872 0.676729 0.346043
Si Si2 0.505711 0.229672 0.157582
Si Si3 0.831962 0.934786 0.907369
Si Si4 0.770666 0.713681 0.801125
Si Si5 0.299011 0.171501 0.103174
Si Si6 0.021782 0.934549 0.791743
O O1 0.500000 0.696219 0.500000
O O2 0.481242 0.713606 0.234530
O O3 0.319322 0.688933 0.326000
O O4 0.460465 0.609116 0.324778
O O5 0.618908 0.204507 0.231373
O O6 0.422598 0.179263 0.158699
O O7 0.500000 0.248922 0.000000
O O8 0.734406 0.892066 0.860087
O O9 0.906905 0.926047 0.807704
O O10 0.788242 0.000000 0.893980
O O11 0.895016 0.921471 0.064174
O O12 0.757734 0.782091 0.822544
O O13 0.762885 0.679538 0.937896
O O14 0.035330 0.000000 0.742739
#
# Coordination Sequence:
#
# PCOD8114068 Si02
#       6
#     8   8   8   8   8   8
#     4  11  21  30  46  70  96 124 153 186 226 271
#     4   9  19  31  49  68  89 124 155 186 225 277
#     4   9  16  27  48  72  91 114 152 195 225 262
#     4   9  17  29  45  66  94 123 149 185 226 274
#     4   9  15  27  48  70  89 117 153 186 231 269
#     4   9  18  29  44  67  94 122 150 186 229 268
#
# _framework density 16.044103
#
# number of rings (size 3 to 8) (size 9 to 14) (size 15 to 20)
#    0.000    2.667    1.667    3.000    2.333    1.000 
#    0.000    0.000    0.000    5.500    0.000    0.000 
#    0.000   13.333    0.000    0.000    0.000    0.000 
#
# Total GULP energy -297555.833481 kJ/mol
# GULP energy per Si atom -12398.159728 kJ/mol
# Density = 1.600759 g / cm^3
# Si number density = 16.044103 Si / 1000 Ang^3
#
#
#
# Elastic Constant Matrix: (Units=GPa)
#
#
# Indices 1 2 3 4 5 6 
#
# 1 125.3658 59.4472 34.8155 0.0000 19.1614 0.0000
# 2 59.4472 106.6727 21.7878 0.0000 3.6439 0.0000
# 3 34.8155 21.7878 45.0056 0.0000 13.1034 0.0000
# 4 0.0000 0.0000 0.0000 10.3532 0.0000 -0.6090
# 5 19.1614 3.6439 13.1034 0.0000 18.5389 0.0000
# 6 0.0000 0.0000 0.0000 -0.6090 0.0000 27.7822
#
#
#
# Elastic Compliance Matrix: (Units=1/GPa)
#
#
# Indices 1 2 3 4 5 6 
#
# 1 0.013807 -0.006388 -0.004783 0.000000 -0.009634 0.000000
# 2 -0.006388 0.013413 -0.003408 0.000000 0.006375 0.000000
# 3 -0.004783 -0.003408 0.032655 0.000000 -0.017467 0.000000
# 4 0.000000 0.000000 0.000000 0.096713 0.000000 0.002120
# 5 -0.009634 0.006375 -0.017467 0.000000 0.074991 0.000000
# 6 0.000000 0.000000 0.000000 0.002120 0.000000 0.036041
#
#
# Mechanical properties :
#
#
# Convention : Reuss Voigt Hill
#
# Bulk Modulus (GPa) = 32.55565 56.57168 44.56367
# Shear Modulus (GPa) = 16.28581 22.06776 19.17678
#
# Velocity S-wave (km/s) = 3.18946 3.71272 3.46100
# Velocity P-wave (km/s) = 5.82228 7.32910 6.61871
#
# Compressibility (1/GPa) = 0.03071663
#
# Stress axis : x y z
#
# Youngs Moduli (GPa) = 72.42855 74.55569 30.62341
#
# Poissons Ratio (x) = 0.47628 0.14647
# Poissons Ratio (y) = 0.46269 0.10435
# Poissons Ratio (z) = 0.34643 0.25405
#
# Static dielectric constant tensor:
#      x y z
#    x 3.150810 0.000000 0.096390 
#    y 0.000000 2.910260 0.000000 
#    z 0.096390 0.000000 2.672990 
# 
# 
# High freq. dielectric constant tensor:
#      x y z
#    x 1.617920 0.000000 0.003270 
#    y 0.000000 1.604630 0.000000 
#    z 0.003270 0.000000 1.577660 
# 
# From -- ./inp_files/63608.got.cif
#   From: 2010.06.25/outbox.cif.g09.slc.cpg/sg12_32_cif.got.tgz:63608.got - 2010.06.28 00:19:55.
