data_PCOD8114545
_publ_section_title
;
Structure prediction by ZEFSAII (Michael W. Deem and Ramdas Pophale) SiO2 
 PCOD8114545
Probable space group: C 2/M
;
_chemical_formula_sum "Si O2"
_cell_formula_units_Z 48
_cell_length_a 14.137052
_cell_length_b 17.469807
_cell_length_c 9.087439
_cell_angle_alpha 90.000000
_cell_angle_beta 95.561441
_cell_angle_gamma 90.000000
_cell_volume 2233.774628
_symmetry_space_group_name_H-M "C 2/M"
_symmetry_group_IT_number 12
_symmetry_cell_setting 'monoclinic'
loop_
_space_group_symop_operation_xyz
x,y,z
-x,y,-z
-x,-y,-z
x,-y,z
1/2+x,1/2+y,z
1/2-x,1/2+y,-z
1/2-x,1/2-y,-z
1/2+x,1/2-y,z
loop_
_atom_site_type_symbol
_atom_site_label
_atom_site_fract_x
_atom_site_fract_y
_atom_site_fract_z
Si Si1 0.538075 0.584980 0.355246
Si Si2 0.825945 0.151362 0.849399
Si Si3 0.384921 0.652424 0.176112
Si Si4 0.991766 0.697656 0.323657
Si Si5 0.368635 0.088143 0.123601
Si Si6 0.175400 0.678479 0.169017
O O1 0.500000 0.623407 0.500000
O O2 0.579342 0.500000 0.387429
O O3 0.617262 0.638968 0.293645
O O4 0.444986 0.579831 0.239342
O O5 0.740179 0.091263 0.839084
O O6 0.785435 0.236688 0.859907
O O7 0.892857 0.144390 0.001708
O O8 0.439654 0.728419 0.245289
O O9 0.276909 0.638975 0.220215
O O10 0.934540 0.622791 0.261652
O O11 0.000000 0.702172 0.500000
O O12 0.100910 0.685821 0.289314
O O13 0.397665 0.000000 0.099990
O O14 0.378560 0.136751 0.974105
#
# Coordination Sequence:
#
# PCOD8114545 Si02
#       6
#     8   8   8   8   8   8
#     4  11  25  41  61  97 138 169 202 257 327 387
#     4  11  21  41  70  95 124 166 217 265 315 377
#     4  11  22  40  64  95 126 165 214 267 311 371
#     4  12  25  40  64  99 130 171 215 259 320 388
#     4  11  24  44  67  94 129 170 217 271 321 372
#     4  11  23  41  68  95 126 164 216 268 316 376
#
# _framework density 21.488291
#
# number of rings (size 3 to 8) (size 9 to 14) (size 15 to 20)
#    0.000    0.833    5.000    3.000    0.000    7.667 
#    0.000    0.000    0.000    0.000    0.000    0.000 
#    0.000    0.000    0.000    0.000    0.000    0.000 
#
# Total GULP energy -297364.570197 kJ/mol
# GULP energy per Si atom -12390.190425 kJ/mol
# Density = 2.143938 g / cm^3
# Si number density = 21.488291 Si / 1000 Ang^3
#
#
#
# Elastic Constant Matrix: (Units=GPa)
#
#
# Indices 1 2 3 4 5 6 
#
# 1 84.1459 1.2809 25.1629 0.0000 -24.8400 0.0000
# 2 1.2809 95.4066 18.3226 0.0000 -3.2224 0.0000
# 3 25.1629 18.3226 100.6113 0.0000 -33.7870 0.0000
# 4 0.0000 0.0000 0.0000 25.4561 0.0000 3.0322
# 5 -24.8400 -3.2224 -33.7870 0.0000 35.8056 0.0000
# 6 0.0000 0.0000 0.0000 3.0322 0.0000 27.3191
#
#
#
# Elastic Compliance Matrix: (Units=1/GPa)
#
#
# Indices 1 2 3 4 5 6 
#
# 1 0.014959 0.000218 -0.000424 0.000000 0.009997 0.000000
# 2 0.000218 0.010906 -0.002430 0.000000 -0.001161 0.000000
# 3 -0.000424 -0.002430 0.015101 0.000000 0.013737 0.000000
# 4 0.000000 0.000000 0.000000 0.039810 0.000000 -0.004419
# 5 0.009997 -0.001161 0.013737 0.000000 0.047722 0.000000
# 6 0.000000 0.000000 0.000000 -0.004419 0.000000 0.037095
#
#
# Mechanical properties :
#
#
# Convention : Reuss Voigt Hill
#
# Bulk Modulus (GPa) = 28.01584 41.07739 34.54662
# Shear Modulus (GPa) = 27.35795 33.40934 30.38365
#
# Velocity S-wave (km/s) = 3.57200 3.94733 3.76435
# Velocity P-wave (km/s) = 5.48437 6.31925 5.91655
#
# Compressibility (1/GPa) = 0.03569409
#
# Stress axis : x y z
#
# Youngs Moduli (GPa) = 66.85056 91.69196 66.22121
#
# Poissons Ratio (x) = -0.02001 0.02805
# Poissons Ratio (y) = -0.01459 0.16095
# Poissons Ratio (z) = 0.02832 0.22285
#
# Static dielectric constant tensor:
#      x y z
#    x 3.927000 0.000000 0.041670 
#    y 0.000000 3.781440 0.000000 
#    z 0.041670 0.000000 3.830390 
# 
# 
# High freq. dielectric constant tensor:
#      x y z
#    x 1.855210 0.000000 -0.007030 
#    y 0.000000 1.835490 0.000000 
#    z -0.007030 0.000000 1.833840 
# 
# From -- ./inp_files/61705.got.cif
#   From: 2010.06.25/outbox.cif.g09.slc.cpg/sg12_31_cif.got.tgz:61705.got - 2010.06.28 00:19:55.
