data_PCOD8114073
_publ_section_title
;
Structure prediction by ZEFSAII (Michael W. Deem and Ramdas Pophale) SiO2 
 PCOD8114073
Probable space group: C 2/M
;
_chemical_formula_sum "Si O2"
_cell_formula_units_Z 48
_cell_length_a 30.638382
_cell_length_b 8.990232
_cell_length_c 9.881944
_cell_angle_alpha 90.000000
_cell_angle_beta 86.569763
_cell_angle_gamma 90.000000
_cell_volume 2717.066892
_symmetry_space_group_name_H-M "C 2/M"
_symmetry_group_IT_number 12
_symmetry_cell_setting 'monoclinic'
loop_
_space_group_symop_operation_xyz
x,y,z
-x,y,-z
-x,-y,-z
x,-y,z
1/2+x,1/2+y,z
1/2-x,1/2+y,-z
1/2-x,1/2-y,-z
1/2+x,1/2-y,z
loop_
_atom_site_type_symbol
_atom_site_label
_atom_site_fract_x
_atom_site_fract_y
_atom_site_fract_z
Si Si1 0.782947 0.335543 0.671401
Si Si2 0.885773 0.176306 0.381088
Si Si3 0.200754 0.665239 0.649566
Si Si4 0.378897 0.822709 0.669424
Si Si5 0.953477 0.676065 0.175161
Si Si6 0.447764 0.824876 0.872815
O O1 0.771727 0.500000 0.727488
O O2 0.788346 0.339464 0.509715
O O3 0.742982 0.229128 0.721764
O O4 0.829324 0.280233 0.723779
O O5 0.841537 0.233230 0.316725
O O6 0.891729 0.243584 0.528392
O O7 0.926862 0.228615 0.286940
O O8 0.884039 0.000000 0.390945
O O9 0.191134 0.500000 0.707014
O O10 0.411136 0.759614 0.778927
O O11 0.382659 0.000000 0.646060
O O12 0.945467 0.500000 0.197294
O O13 0.004177 0.718600 0.188717
O O14 0.939603 0.730048 0.027403
O O15 0.443789 0.000000 0.875482
#
# Coordination Sequence:
#
# PCOD8114073 Si02
#       6
#     8   8   8   8   8   8
#     4   8  14  24  41  66  95 122 149 187 235 282
#     4  11  21  31  45  70 101 129 158 195 238 279
#     4   9  16  27  44  65  91 124 159 193 231 277
#     4   9  17  31  50  73  98 125 158 195 236 280
#     4   9  17  33  54  73  93 122 161 199 236 281
#     4   8  16  32  55  75  91 120 162 200 234 281
#
# _framework density 17.666108999999999
#
# number of rings (size 3 to 8) (size 9 to 14) (size 15 to 20)
#    0.000    3.000    0.000    4.000    0.000    4.667 
#    0.000    6.667    0.000    1.000    0.000    0.000 
#    0.000    0.000    0.000    0.000    0.000    0.000 
#
# Total GULP energy -297470.270380 kJ/mol
# GULP energy per Si atom -12394.594599 kJ/mol
# Density = 1.762590 g / cm^3
# Si number density = 17.666109 Si / 1000 Ang^3
#
#
#
# Elastic Constant Matrix: (Units=GPa)
#
#
# Indices 1 2 3 4 5 6 
#
# 1 126.0387 37.3734 50.1874 0.0000 38.6885 0.0000
# 2 37.3734 72.9321 26.3140 0.0000 12.3655 0.0000
# 3 50.1874 26.3140 50.5047 0.0000 21.6314 0.0000
# 4 0.0000 0.0000 0.0000 6.9695 0.0000 -0.5785
# 5 38.6885 12.3655 21.6314 0.0000 16.7187 0.0000
# 6 0.0000 0.0000 0.0000 -0.5785 0.0000 26.7762
#
#
#
# Elastic Compliance Matrix: (Units=1/GPa)
#
#
# Indices 1 2 3 4 5 6 
#
# 1 0.028386 -0.004181 0.001751 0.000000 -0.064862 0.000000
# 2 -0.004181 0.017547 -0.008014 0.000000 0.007066 0.000000
# 3 0.001751 -0.008014 0.048072 0.000000 -0.060321 0.000000
# 4 0.000000 0.000000 0.000000 0.143741 0.000000 0.003105
# 5 -0.064862 0.007066 -0.060321 0.000000 0.282729 0.000000
# 6 0.000000 0.000000 0.000000 0.003105 0.000000 0.037414
#
#
# Mechanical properties :
#
#
# Convention : Reuss Voigt Hill
#
# Bulk Modulus (GPa) = 13.67670 53.02502 33.35086
# Shear Modulus (GPa) = 8.28982 19.13291 13.71136
#
# Velocity S-wave (km/s) = 2.16857 3.29451 2.78895
# Velocity P-wave (km/s) = 3.74551 6.67473 5.41206
#
# Compressibility (1/GPa) = 0.07311704
#
# Stress axis : x y z
#
# Youngs Moduli (GPa) = 35.22813 56.98844 20.80220
#
# Poissons Ratio (x) = 0.23826 -0.03642
# Poissons Ratio (y) = 0.14729 0.16671
# Poissons Ratio (z) = -0.06168 0.45672
#
# Static dielectric constant tensor:
#      x y z
#    x 3.767070 0.000000 0.367670 
#    y 0.000000 3.165100 0.000000 
#    z 0.367670 0.000000 3.139230 
# 
# 
# High freq. dielectric constant tensor:
#      x y z
#    x 1.698820 0.000000 0.006980 
#    y 0.000000 1.664320 0.000000 
#    z 0.006980 0.000000 1.640110 
# 
# From -- ./inp_files/185503.got.cif
#   From: 2010.06.25/outbox.cif.g09.slc.cpg/sg12_93_cif.got.tgz:185503.got - 2010.06.28 00:19:55.
