data_PCOD8114949
_publ_section_title
;
Structure prediction by ZEFSAII (Michael W. Deem and Ramdas Pophale) SiO2 
 PCOD8114949
Probable space group: C 2/M
;
_chemical_formula_sum "Si O2"
_cell_formula_units_Z 48
_cell_length_a 9.107407
_cell_length_b 18.060531
_cell_length_c 16.274073
_cell_angle_alpha 90.000000
_cell_angle_beta 124.582830
_cell_angle_gamma 90.000000
_cell_volume 2203.855235
_symmetry_space_group_name_H-M "C 2/M"
_symmetry_group_IT_number 12
_symmetry_cell_setting 'monoclinic'
loop_
_space_group_symop_operation_xyz
x,y,z
-x,y,-z
-x,-y,-z
x,-y,z
1/2+x,1/2+y,z
1/2-x,1/2+y,-z
1/2-x,1/2-y,-z
1/2+x,1/2-y,z
loop_
_atom_site_type_symbol
_atom_site_label
_atom_site_fract_x
_atom_site_fract_y
_atom_site_fract_z
Si Si1 0.292618 0.416710 0.777758
Si Si2 0.391282 0.833410 0.816333
Si Si3 0.729332 0.083958 0.946368
Si Si4 0.896707 0.182773 0.137011
Si Si5 0.512739 0.163253 0.591538
Si Si6 0.181635 0.184766 0.593058
O O1 0.315943 0.500000 0.755623
O O2 0.310306 0.408653 0.881127
O O3 0.444534 0.369531 0.780148
O O4 0.099748 0.387907 0.688431
O O5 0.515481 0.903471 0.877700
O O6 0.262330 0.813265 0.849394
O O7 0.527162 0.765116 0.847266
O O8 0.274207 0.856210 0.699485
O O9 0.764415 0.000000 0.990814
O O10 0.824016 0.147197 0.029846
O O11 0.500000 0.119925 0.500000
O O12 0.320019 0.188913 0.561904
O O13 0.634847 0.234303 0.612089
O O14 0.000000 0.146081 0.500000
#
# Coordination Sequence:
#
# PCOD8114949 Si02
#       6
#     8   8   8   8   8   8
#     4  11  24  43  66  92 130 175 219 268 327 389
#     4  12  24  42  69  99 132 169 217 276 321 383
#     4  11  25  46  66  92 135 178 216 266 327 386
#     4  12  25  41  67  98 130 171 223 268 320 385
#     4  11  22  39  67  95 130 165 213 271 327 389
#     4  11  22  39  67 100 129 166 209 265 331 379
#
# _framework density 21.780016
#
# number of rings (size 3 to 8) (size 9 to 14) (size 15 to 20)
#    0.000    0.667    3.333    6.000    2.333    5.000 
#    0.000    0.000    0.000    1.000    0.000    0.000 
#    0.000    0.000    0.000    0.000    0.000    0.000 
#
# Total GULP energy -297554.684166 kJ/mol
# GULP energy per Si atom -12398.111840 kJ/mol
# Density = 2.173044 g / cm^3
# Si number density = 21.780016 Si / 1000 Ang^3
#
#
#
# Elastic Constant Matrix: (Units=GPa)
#
#
# Indices 1 2 3 4 5 6 
#
# 1 126.7585 17.9532 0.4402 0.0000 7.5131 0.0000
# 2 17.9532 41.4065 10.9479 0.0000 8.5262 0.0000
# 3 0.4402 10.9479 116.0864 0.0000 9.1832 0.0000
# 4 0.0000 0.0000 0.0000 12.2329 0.0000 -11.1640
# 5 7.5131 8.5262 9.1832 0.0000 34.4286 0.0000
# 6 0.0000 0.0000 0.0000 -11.1640 0.0000 10.6302
#
#
#
# Elastic Compliance Matrix: (Units=1/GPa)
#
#
# Indices 1 2 3 4 5 6 
#
# 1 0.008453 -0.003547 0.000387 0.000000 -0.001069 0.000000
# 2 -0.003547 0.027373 -0.002138 0.000000 -0.005434 0.000000
# 3 0.000387 -0.002138 0.008968 0.000000 -0.001947 0.000000
# 4 0.000000 0.000000 0.000000 1.967023 0.000000 2.065788
# 5 -0.001069 -0.005434 -0.001947 0.000000 0.031144 0.000000
# 6 0.000000 0.000000 0.000000 2.065788 0.000000 2.263584
#
#
# Mechanical properties :
#
#
# Convention : Reuss Voigt Hill
#
# Bulk Modulus (GPa) = 29.24124 38.10376 33.67250
# Shear Modulus (GPa) = 1.15512 28.45235 14.80374
#
# Velocity S-wave (km/s) = 0.72905 3.61827 2.60992
# Velocity P-wave (km/s) = 3.76345 5.91512 4.95743
#
# Compressibility (1/GPa) = 0.03419828
#
# Stress axis : x y z
#
# Youngs Moduli (GPa) = 118.29424 36.53196 111.50157
#
# Poissons Ratio (x) = 0.12959 -0.04316
# Poissons Ratio (y) = 0.41964 0.23841
# Poissons Ratio (z) = -0.04579 0.07811
#
# Static dielectric constant tensor:
#      x y z
#    x 4.025540 0.000000 0.142340 
#    y 0.000000 3.728470 0.000000 
#    z 0.142340 0.000000 4.484930 
# 
# 
# High freq. dielectric constant tensor:
#      x y z
#    x 1.868710 0.000000 0.011340 
#    y 0.000000 1.823820 0.000000 
#    z 0.011340 0.000000 1.874550 
# 
# From -- ./inp_files/258287.got.cif
#   From: 2010.06.25/outbox.cif.g09.slc.cpg/sg12_130_cif.got.tgz:258287.got - 2010.06.28 00:19:55.
