data_PCOD8114777
_publ_section_title
;
Structure prediction by ZEFSAII (Michael W. Deem and Ramdas Pophale) SiO2 
 PCOD8114777
Probable space group: C 2/M
;
_chemical_formula_sum "Si O2"
_cell_formula_units_Z 64
_cell_length_a 16.182612
_cell_length_b 8.839873
_cell_length_c 27.375675
_cell_angle_alpha 90.000000
_cell_angle_beta 126.988526
_cell_angle_gamma 90.000000
_cell_volume 3128.049551
_symmetry_space_group_name_H-M "C 2/M"
_symmetry_group_IT_number 12
_symmetry_cell_setting 'monoclinic'
loop_
_space_group_symop_operation_xyz
x,y,z
-x,y,-z
-x,-y,-z
x,-y,z
1/2+x,1/2+y,z
1/2-x,1/2+y,-z
1/2-x,1/2-y,-z
1/2+x,1/2-y,z
loop_
_atom_site_type_symbol
_atom_site_label
_atom_site_fract_x
_atom_site_fract_y
_atom_site_fract_z
Si Si1 0.796962 0.827410 0.721471
Si Si2 0.721535 0.322520 0.139178
Si Si3 0.140401 0.823456 0.733122
Si Si4 0.309740 0.177720 0.065762
Si Si5 0.458173 0.175962 0.618528
Si Si6 0.533270 0.673648 0.139699
Si Si7 0.775969 0.175062 0.601549
Si Si8 0.914637 0.164145 0.507549
O O1 0.713130 0.713472 0.713202
O O2 0.905906 0.802584 0.787721
O O3 0.805159 0.789296 0.667731
O O4 0.758981 0.000000 0.716341
O O5 0.736012 0.500000 0.153992
O O6 0.810280 0.234836 0.199432
O O7 0.742383 0.279626 0.090135
O O8 0.607412 0.275571 0.119953
O O9 0.031206 0.742387 0.686722
O O10 0.120772 0.000000 0.730358
O O11 0.428647 0.231198 0.107321
O O12 0.311945 0.000000 0.059885
O O13 0.250000 0.250000 0.000000
O O14 0.341499 0.211402 0.591943
O O15 0.475928 0.258992 0.573831
O O16 0.478871 0.000000 0.619490
O O17 0.500997 0.500000 0.120618
O O18 0.660555 0.215525 0.544988
O O19 0.798087 0.000000 0.597503
O O20 0.000000 0.121270 0.500000
O O21 0.863500 0.000000 0.504355
#
# Coordination Sequence:
#
# PCOD8114777 Si02
#       8
#     8   8   8   8   8   8   8   8
#     4   9  20  39  62  88 121 159 197 241 302 366
#     4   9  21  42  64  89 125 170 210 251 311 377
#     4  11  22  37  61  91 121 154 199 250 300 358
#     4  11  24  41  63  93 127 165 210 256 307 368
#     4  12  25  40  59  84 118 157 197 246 303 361
#     4   9  19  39  64  90 124 165 209 255 308 366
#     4  11  23  39  60  88 119 154 198 245 299 360
#     4  11  24  42  62  84 113 152 198 248 301 359
#
# _framework density 20.460034
#
# number of rings (size 3 to 8) (size 9 to 14) (size 15 to 20)
#    0.000    1.625    0.000    5.250    1.750    7.500 
#    0.000    2.500    0.000    0.000    0.000    0.000 
#    0.000    0.000    0.000    0.000    0.000    0.000 
#
# Total GULP energy -396713.812250 kJ/mol
# GULP energy per Si atom -12397.306633 kJ/mol
# Density = 2.041347 g / cm^3
# Si number density = 20.460034 Si / 1000 Ang^3
#
#
#
# Elastic Constant Matrix: (Units=GPa)
#
#
# Indices 1 2 3 4 5 6 
#
# 1 76.5757 32.4325 26.8782 0.0000 -6.5666 0.0000
# 2 32.4325 104.8463 44.3507 0.0000 -10.1270 0.0000
# 3 26.8782 44.3507 91.4507 0.0000 -4.9441 0.0000
# 4 0.0000 0.0000 0.0000 48.8966 0.0000 3.1471
# 5 -6.5666 -10.1270 -4.9441 0.0000 34.3526 0.0000
# 6 0.0000 0.0000 0.0000 3.1471 0.0000 31.8238
#
#
#
# Elastic Compliance Matrix: (Units=1/GPa)
#
#
# Indices 1 2 3 4 5 6 
#
# 1 0.015666 -0.003502 -0.002822 0.000000 0.001556 0.000000
# 2 -0.003502 0.013040 -0.005163 0.000000 0.002432 0.000000
# 3 -0.002822 -0.005163 0.014268 0.000000 -0.000008 0.000000
# 4 0.000000 0.000000 0.000000 0.020582 0.000000 -0.002035
# 5 0.001556 0.002432 -0.000008 0.000000 0.030123 0.000000
# 6 0.000000 0.000000 0.000000 -0.002035 0.000000 0.031624
#
#
# Mechanical properties :
#
#
# Convention : Reuss Voigt Hill
#
# Bulk Modulus (GPa) = 50.00114 53.35505 51.67810
# Shear Modulus (GPa) = 32.26958 34.29533 33.28246
#
# Velocity S-wave (km/s) = 3.97571 4.09860 4.03762
# Velocity P-wave (km/s) = 6.75030 6.96651 6.85926
#
# Compressibility (1/GPa) = 0.01999954
#
# Stress axis : x y z
#
# Youngs Moduli (GPa) = 63.83186 76.68686 70.08785
#
# Poissons Ratio (x) = 0.26856 0.19778
# Poissons Ratio (y) = 0.22354 0.36188
# Poissons Ratio (z) = 0.18013 0.39595
#
# Static dielectric constant tensor:
#      x y z
#    x 3.786280 0.000000 -0.083160 
#    y 0.000000 3.673310 0.000000 
#    z -0.083160 0.000000 3.783920 
# 
# 
# High freq. dielectric constant tensor:
#      x y z
#    x 1.801520 0.000000 -0.003010 
#    y 0.000000 1.803790 0.000000 
#    z -0.003010 0.000000 1.803010 
# 
# From -- ./inp_files/375532.got.cif
#   From: 2010.06.25/outbox.cif.g09.slc.cpg/sg12_188_cif.got.tgz:375532.got - 2010.06.28 00:19:55.
