data_PCOD8114196
_publ_section_title
;
Structure prediction by ZEFSAII (Michael W. Deem and Ramdas Pophale) SiO2 
 PCOD8114196
Probable space group: C 2/M
;
_chemical_formula_sum "Si O2"
_cell_formula_units_Z 56
_cell_length_a 9.257670
_cell_length_b 17.528052
_cell_length_c 30.854650
_cell_angle_alpha 90.000000
_cell_angle_beta 144.348232
_cell_angle_gamma 90.000000
_cell_volume 2918.221670
_symmetry_space_group_name_H-M "C 2/M"
_symmetry_group_IT_number 12
_symmetry_cell_setting 'monoclinic'
loop_
_space_group_symop_operation_xyz
x,y,z
-x,y,-z
-x,-y,-z
x,-y,z
1/2+x,1/2+y,z
1/2-x,1/2+y,-z
1/2-x,1/2-y,-z
1/2+x,1/2-y,z
loop_
_atom_site_type_symbol
_atom_site_label
_atom_site_fract_x
_atom_site_fract_y
_atom_site_fract_z
Si Si1 0.202481 0.909965 0.142604
Si Si2 0.356794 0.912555 0.688603
Si Si3 0.063560 0.587667 0.449283
Si Si4 0.306790 0.830090 0.992662
Si Si5 0.275748 0.187028 0.585897
Si Si6 0.124280 0.861157 0.396160
Si Si7 0.703923 0.916236 0.926322
O O1 0.375526 0.893790 0.226017
O O2 0.346102 0.880176 0.133821
O O3 0.942801 0.867577 0.087155
O O4 0.146981 0.000000 0.123477
O O5 0.287734 0.852111 0.635212
O O6 0.146818 0.898656 0.673919
O O7 0.348320 0.000000 0.669789
O O8 0.135608 0.500000 0.457858
O O9 0.052336 0.635213 0.402490
O O10 0.269119 0.626710 0.529615
O O11 0.792576 0.592245 0.403814
O O12 0.500000 0.825129 0.000000
O O13 0.250000 0.750000 0.000000
O O14 0.415094 0.875268 0.060830
O O15 0.384976 0.271565 0.616625
O O16 0.000000 0.190732 0.500000
O O17 0.587817 0.000000 0.900018
O O18 0.000000 0.916909 0.000000
#
# Coordination Sequence:
#
# PCOD8114196 Si02
#       7
#     8   8   8   8   8   8   8
#     4   9  20  40  61  86 121 157 191 238 297 360
#     4  11  23  40  61  85 118 160 201 242 302 367
#     4  11  21  34  56  83 111 144 202 262 297 350
#     4  11  21  36  61  91 121 153 192 241 281 343
#     4  12  22  37  57  84 117 155 202 259 309 353
#     4  11  21  37  56  80 111 153 194 246 310 361
#     4   8  15  32  58  83 110 147 186 225 274 338
#
# _framework density 19.189768000000001
#
# number of rings (size 3 to 8) (size 9 to 14) (size 15 to 20)
#    0.000    1.571    2.857    6.000    0.000    1.714 
#    5.143    1.429    0.000    3.429    0.000    0.000 
#    0.000    0.000    0.000    0.000    0.000    0.000 
#
# Total GULP energy -347038.920530 kJ/mol
# GULP energy per Si atom -12394.247162 kJ/mol
# Density = 1.914609 g / cm^3
# Si number density = 19.189768 Si / 1000 Ang^3
#
#
#
# Elastic Constant Matrix: (Units=GPa)
#
#
# Indices 1 2 3 4 5 6 
#
# 1 107.6573 28.3679 27.1875 -0.0004 -0.0117 -0.0002
# 2 28.3679 103.5473 29.3396 -0.0002 0.5102 0.0000
# 3 27.1875 29.3396 69.5536 0.0000 8.4429 -0.0003
# 4 -0.0004 -0.0002 0.0000 4.6657 -0.0006 3.5218
# 5 -0.0117 0.5102 8.4429 -0.0006 21.9279 -0.0003
# 6 -0.0002 0.0000 -0.0003 3.5218 -0.0003 32.0035
#
#
#
# Elastic Compliance Matrix: (Units=1/GPa)
#
#
# Indices 1 2 3 4 5 6 
#
# 1 0.010691 -0.001934 -0.003534 0.000001 0.001412 0.000000
# 2 -0.001934 0.011372 -0.004205 0.000000 0.001354 0.000000
# 3 -0.003534 -0.004205 0.018380 -0.000001 -0.006981 0.000000
# 4 0.000001 0.000000 -0.000001 0.233746 0.000006 -0.025723
# 5 0.001412 0.001354 -0.006981 0.000006 0.048261 0.000000
# 6 0.000000 0.000000 0.000000 -0.025723 0.000000 0.034077
#
#
# Mechanical properties :
#
#
# Convention : Reuss Voigt Hill
#
# Bulk Modulus (GPa) = 47.40356 50.06092 48.73224
# Shear Modulus (GPa) = 13.05795 24.77697 18.91746
#
# Velocity S-wave (km/s) = 2.61140 3.59716 3.14317
# Velocity P-wave (km/s) = 5.81796 6.58762 6.21472
#
# Compressibility (1/GPa) = 0.02109546
#
# Stress axis : x y z
#
# Youngs Moduli (GPa) = 93.53502 87.93321 54.40627
#
# Poissons Ratio (x) = 0.17010 0.19229
# Poissons Ratio (y) = 0.18094 0.22879
# Poissons Ratio (z) = 0.33059 0.36978
#
# Static dielectric constant tensor:
#      x y z
#    x 3.645040 0.000000 -0.157590 
#    y 0.000000 3.637360 0.000000 
#    z -0.157590 0.000000 3.438600 
# 
# 
# High freq. dielectric constant tensor:
#      x y z
#    x 1.747870 0.000000 -0.010690 
#    y 0.000000 1.756250 0.000000 
#    z -0.010690 0.000000 1.715610 
# 
# From -- ./inp_files/372801.got.cif
#   From: 2010.06.25/outbox.cif.g09.slc.cpg/sg12_187_cif.got.tgz:372801.got - 2010.06.28 00:19:55.
