data_PCOD8114986
_publ_section_title
;
Structure prediction by ZEFSAII (Michael W. Deem and Ramdas Pophale) SiO2 
 PCOD8114986
Probable space group: C 2/M
;
_chemical_formula_sum "Si O2"
_cell_formula_units_Z 64
_cell_length_a 23.378619
_cell_length_b 8.694590
_cell_length_c 15.126113
_cell_angle_alpha 90.000000
_cell_angle_beta 87.695258
_cell_angle_gamma 90.000000
_cell_volume 3072.160106
_symmetry_space_group_name_H-M "C 2/M"
_symmetry_group_IT_number 12
_symmetry_cell_setting 'monoclinic'
loop_
_space_group_symop_operation_xyz
x,y,z
-x,y,-z
-x,-y,-z
x,-y,z
1/2+x,1/2+y,z
1/2-x,1/2+y,-z
1/2-x,1/2-y,-z
1/2+x,1/2-y,z
loop_
_atom_site_type_symbol
_atom_site_label
_atom_site_fract_x
_atom_site_fract_y
_atom_site_fract_z
Si Si1 0.210337 0.818823 0.078857
Si Si2 0.969060 0.677482 0.132081
Si Si3 0.089855 0.677252 0.047458
Si Si4 0.163126 0.819483 0.436321
Si Si5 0.455036 0.322521 0.309666
Si Si6 0.456335 0.824573 0.582021
Si Si7 0.342810 0.179380 0.383560
Si Si8 0.261409 0.320055 0.728537
O O1 0.143734 0.781816 0.068347
O O2 0.229213 0.749869 0.173864
O O3 0.219370 0.000000 0.076243
O O4 0.250000 0.750000 0.000000
O O5 0.962125 0.500000 0.159925
O O6 0.943049 0.787284 0.208166
O O7 0.036009 0.716232 0.113329
O O8 0.930274 0.713043 0.050120
O O9 0.108061 0.500000 0.056238
O O10 0.096254 0.788500 0.428975
O O11 0.186501 0.732625 0.522666
O O12 0.194756 0.752374 0.347190
O O13 0.175476 0.000000 0.446617
O O14 0.467297 0.500000 0.325659
O O15 0.511051 0.224255 0.331090
O O16 0.400953 0.273725 0.371083
O O17 0.500000 0.800494 0.500000
O O18 0.434857 0.000000 0.590651
O O19 0.302407 0.215542 0.302358
O O20 0.357704 0.000000 0.388298
O O21 0.272754 0.500000 0.734428
#
# Coordination Sequence:
#
# PCOD8114986 Si02
#       8
#     8   8   8   8   8   8   8   8
#     4  11  24  43  64  91 124 164 208 260 312 366
#     4   9  20  40  65  91 124 161 201 246 305 374
#     4   9  20  41  66  92 121 160 203 251 307 368
#     4  11  22  40  65  94 125 158 201 260 315 364
#     4  12  25  38  59  92 126 160 203 255 306 357
#     4  11  23  40  61  87 121 164 206 242 297 367
#     4  11  22  41  64  88 122 168 211 251 304 370
#     4   9  23  43  64  89 122 163 205 251 313 370
#
# _framework density 20.832246999999999
#
# number of rings (size 3 to 8) (size 9 to 14) (size 15 to 20)
#    0.000    1.625    1.250    3.750    3.500    1.500 
#    0.000    6.875    0.000    0.000    0.000    0.000 
#    0.000    0.000    0.000    0.000    0.000    0.000 
#
# Total GULP energy -396840.779389 kJ/mol
# GULP energy per Si atom -12401.274356 kJ/mol
# Density = 2.078483 g / cm^3
# Si number density = 20.832247 Si / 1000 Ang^3
#
#
#
# Elastic Constant Matrix: (Units=GPa)
#
#
# Indices 1 2 3 4 5 6 
#
# 1 74.9922 21.2991 41.2370 0.0000 10.6602 0.0000
# 2 21.2991 55.7080 31.6736 0.0000 0.2937 0.0000
# 3 41.2370 31.6736 143.3071 0.0000 1.9317 0.0000
# 4 0.0000 0.0000 0.0000 31.6099 0.0000 -1.3724
# 5 10.6602 0.2937 1.9317 0.0000 29.9905 0.0000
# 6 0.0000 0.0000 0.0000 -1.3724 0.0000 30.4886
#
#
#
# Elastic Compliance Matrix: (Units=1/GPa)
#
#
# Indices 1 2 3 4 5 6 
#
# 1 0.017653 -0.004433 -0.004019 0.000000 -0.005972 0.000000
# 2 -0.004433 0.021644 -0.003530 0.000000 0.001591 0.000000
# 3 -0.004019 -0.003530 0.008903 0.000000 0.000890 0.000000
# 4 0.000000 0.000000 0.000000 0.031698 0.000000 0.001427
# 5 -0.005972 0.001591 0.000890 0.000000 0.035394 0.000000
# 6 0.000000 0.000000 0.000000 0.001427 0.000000 0.032863
#
#
# Mechanical properties :
#
#
# Convention : Reuss Voigt Hill
#
# Bulk Modulus (GPa) = 41.26059 51.38075 46.32067
# Shear Modulus (GPa) = 27.74747 30.40430 29.07588
#
# Velocity S-wave (km/s) = 3.65355 3.82446 3.73998
# Velocity P-wave (km/s) = 6.13571 6.64978 6.39791
#
# Compressibility (1/GPa) = 0.02423620
#
# Stress axis : x y z
#
# Youngs Moduli (GPa) = 56.64795 46.20232 112.32446
#
# Poissons Ratio (x) = 0.20479 0.45149
# Poissons Ratio (y) = 0.25109 0.39647
# Poissons Ratio (z) = 0.22770 0.16308
#
# Static dielectric constant tensor:
#      x y z
#    x 3.704480 0.000000 0.035220 
#    y 0.000000 3.536520 0.000000 
#    z 0.035220 0.000000 4.097490 
# 
# 
# High freq. dielectric constant tensor:
#      x y z
#    x 1.818800 0.000000 0.003730 
#    y 0.000000 1.799050 0.000000 
#    z 0.003730 0.000000 1.829430 
# 
# From -- ./inp_files/238595.got.cif
#   From: 2010.06.25/outbox.cif.g09.slc.cpg/sg12_120_cif.got.tgz:238595.got - 2010.06.28 00:19:55.
