data_PCOD8114451
_publ_section_title
;
Structure prediction by ZEFSAII (Michael W. Deem and Ramdas Pophale) SiO2 
 PCOD8114451
Probable space group: C 2/M
;
_chemical_formula_sum "Si O2"
_cell_formula_units_Z 40
_cell_length_a 8.119921
_cell_length_b 18.499786
_cell_length_c 11.916761
_cell_angle_alpha 90.000000
_cell_angle_beta 82.690892
_cell_angle_gamma 90.000000
_cell_volume 1775.551794
_symmetry_space_group_name_H-M "C 2/M"
_symmetry_group_IT_number 12
_symmetry_cell_setting 'monoclinic'
loop_
_space_group_symop_operation_xyz
x,y,z
-x,y,-z
-x,-y,-z
x,-y,z
1/2+x,1/2+y,z
1/2-x,1/2+y,-z
1/2-x,1/2-y,-z
1/2+x,1/2-y,z
loop_
_atom_site_type_symbol
_atom_site_label
_atom_site_fract_x
_atom_site_fract_y
_atom_site_fract_z
Si Si1 0.821919 0.079846 0.458655
Si Si2 0.048955 0.200628 0.697998
Si Si3 0.052097 0.582966 0.123191
Si Si4 0.179335 0.653760 0.673520
Si Si5 0.162777 0.809107 0.928104
O O1 0.826562 0.137974 0.357352
O O2 0.689773 0.100726 0.565847
O O3 0.000000 0.079793 0.500000
O O4 0.777760 0.000000 0.414986
O O5 0.081168 0.276545 0.632095
O O6 0.096001 0.226579 0.819635
O O7 0.859848 0.176529 0.704248
O O8 0.086323 0.500000 0.149575
O O9 0.221896 0.626068 0.121778
O O10 0.911425 0.612616 0.217891
O O11 0.000000 0.593812 0.000000
O O12 0.250000 0.750000 0.000000
O O13 0.000000 0.842938 0.000000
#
# Coordination Sequence:
#
# PCOD8114451 Si02
#       5
#     8   8   8   8   8
#     4   9  20  38  60  88 124 165 207 255 312 369
#     4  11  22  37  64  93 122 162 212 257 304 371
#     4  11  24  41  62  90 124 162 205 255 314 374
#     4  11  21  39  63  91 125 164 206 255 309 368
#     4  12  24  41  64  91 124 162 205 257 311 367
#
# _framework density 22.528209
#
# number of rings (size 3 to 8) (size 9 to 14) (size 15 to 20)
#    0.000    1.200    0.000    7.800    0.000    2.000 
#    0.000    3.000    0.000    6.000    0.000    0.000 
#    0.000    0.000    0.000    0.000    0.000    0.000 
#
# Total GULP energy -247950.156486 kJ/mol
# GULP energy per Si atom -12397.507824 kJ/mol
# Density = 2.247693 g / cm^3
# Si number density = 22.528209 Si / 1000 Ang^3
#
#
#
# Elastic Constant Matrix: (Units=GPa)
#
#
# Indices 1 2 3 4 5 6 
#
# 1 97.1725 37.3250 43.3715 0.0000 -29.2920 0.0000
# 2 37.3250 136.4452 47.5372 0.0000 -30.2746 0.0000
# 3 43.3715 47.5372 118.4020 0.0000 -32.3568 0.0000
# 4 0.0000 0.0000 0.0000 41.1628 0.0000 -6.4351
# 5 -29.2920 -30.2746 -32.3568 0.0000 48.1079 0.0000
# 6 0.0000 0.0000 0.0000 -6.4351 0.0000 22.8040
#
#
#
# Elastic Compliance Matrix: (Units=1/GPa)
#
#
# Indices 1 2 3 4 5 6 
#
# 1 0.013855 -0.001545 -0.002959 0.000000 0.005474 0.000000
# 2 -0.001545 0.009284 -0.002232 0.000000 0.003400 0.000000
# 3 -0.002959 -0.002232 0.011700 0.000000 0.004663 0.000000
# 4 0.000000 0.000000 0.000000 0.025415 0.000000 0.007172
# 5 0.005474 0.003400 0.004663 0.000000 0.029396 0.000000
# 6 0.000000 0.000000 0.000000 0.007172 0.000000 0.045876
#
#
# Mechanical properties :
#
#
# Convention : Reuss Voigt Hill
#
# Bulk Modulus (GPa) = 46.80123 67.60969 57.20546
# Shear Modulus (GPa) = 32.02667 37.33400 34.68034
#
# Velocity S-wave (km/s) = 3.77454 4.07530 3.92780
# Velocity P-wave (km/s) = 6.30997 7.22637 6.78366
#
# Compressibility (1/GPa) = 0.02136696
#
# Stress axis : x y z
#
# Youngs Moduli (GPa) = 72.17551 107.71595 85.46799
#
# Poissons Ratio (x) = 0.16638 0.25292
# Poissons Ratio (y) = 0.11148 0.19079
# Poissons Ratio (z) = 0.21358 0.24045
#
# Static dielectric constant tensor:
#      x y z
#    x 4.022410 0.000000 -0.261130 
#    y 0.000000 4.338550 0.000000 
#    z -0.261130 0.000000 4.231520 
# 
# 
# High freq. dielectric constant tensor:
#      x y z
#    x 1.885070 0.000000 -0.016960 
#    y 0.000000 1.893870 0.000000 
#    z -0.016960 0.000000 1.899700 
# 
# From -- ./inp_files/118952.got.cif
#   From: 2010.06.25/outbox.cif.g09.slc.cpg/sg12_60_cif.got.tgz:118952.got - 2010.06.28 00:19:55.
