data_PCOD8114626
_publ_section_title
;
Structure prediction by ZEFSAII (Michael W. Deem and Ramdas Pophale) SiO2 
 PCOD8114626
Probable space group: C 2/M
;
_chemical_formula_sum "Si O2"
_cell_formula_units_Z 64
_cell_length_a 9.679315
_cell_length_b 18.618799
_cell_length_c 23.889810
_cell_angle_alpha 90.000000
_cell_angle_beta 52.600605
_cell_angle_gamma 90.000000
_cell_volume 3420.264694
_symmetry_space_group_name_H-M "C 2/M"
_symmetry_group_IT_number 12
_symmetry_cell_setting 'monoclinic'
loop_
_space_group_symop_operation_xyz
x,y,z
-x,y,-z
-x,-y,-z
x,-y,z
1/2+x,1/2+y,z
1/2-x,1/2+y,-z
1/2-x,1/2-y,-z
1/2+x,1/2-y,z
loop_
_atom_site_type_symbol
_atom_site_label
_atom_site_fract_x
_atom_site_fract_y
_atom_site_fract_z
Si Si1 0.222113 0.415995 0.080086
Si Si2 0.209407 0.839720 0.336335
Si Si3 0.529240 0.415908 0.082719
Si Si4 0.390611 0.825284 0.181743
Si Si5 0.320840 0.333996 0.432371
Si Si6 0.443057 0.678022 0.816662
Si Si7 0.762822 0.669751 0.666031
Si Si8 0.640737 0.163279 0.587183
O O1 0.183842 0.500000 0.091398
O O2 0.337437 0.393828 0.106358
O O3 0.038153 0.376405 0.120701
O O4 0.329013 0.395320 0.998578
O O5 0.312605 0.865559 0.255777
O O6 0.237544 0.755161 0.332862
O O7 0.271678 0.871885 0.380097
O O8 0.013046 0.865565 0.381063
O O9 0.532710 0.500000 0.094702
O O10 0.585054 0.375573 0.125155
O O11 0.485837 0.751981 0.175448
O O12 0.236254 0.811246 0.174307
O O13 0.225681 0.360056 0.399889
O O14 0.330488 0.247894 0.428368
O O15 0.222065 0.368409 0.509961
O O16 0.591069 0.642669 0.740428
O O17 0.941338 0.642053 0.648641
#
# Coordination Sequence:
#
# PCOD8114626 Si02
#       8
#     8   8   8   8   8   8   8   8
#     4   9  20  40  63  84 107 136 172 217 266 318
#     4   9  17  26  39  63  96 135 174 215 259 309
#     4   9  20  40  63  84 107 136 172 217 266 318
#     4  11  22  34  53  79 112 149 180 219 266 316
#     4   9  14  26  36  58  92 131 176 214 257 309
#     4  11  22  34  53  79 112 149 180 219 266 316
#     4   9  17  26  39  63  96 135 174 215 259 309
#     4   9  16  22  40  58  88 135 176 214 261 307
#
# _framework density 18.712001999999998
#
# number of rings (size 3 to 8) (size 9 to 14) (size 15 to 20)
#    0.000    2.500    1.250    2.250    7.000    4.500 
#    0.000    1.250    0.000    0.000    0.000    0.000 
#    0.000    6.000    0.000    0.000    0.000    0.000 
#
# Total GULP energy -396460.168149 kJ/mol
# GULP energy per Si atom -12389.380255 kJ/mol
# Density = 1.866941 g / cm^3
# Si number density = 18.712002 Si / 1000 Ang^3
#
#
#
# Elastic Constant Matrix: (Units=GPa)
#
#
# Indices 1 2 3 4 5 6 
#
# 1 91.8700 19.9245 41.4597 0.0020 2.6658 -0.0003
# 2 19.9245 23.8737 29.3268 0.0022 0.3680 -0.0003
# 3 41.4597 29.3268 108.4502 0.0016 -0.0538 0.0001
# 4 0.0020 0.0022 0.0016 -3.8992 -0.0012 -0.7454
# 5 2.6658 0.3680 -0.0538 -0.0012 36.9941 0.0002
# 6 -0.0003 -0.0003 0.0001 -0.7454 0.0002 19.8067
#
#
#
# Elastic Compliance Matrix: (Units=1/GPa)
#
#
# Indices 1 2 3 4 5 6 
#
# 1 0.014066 -0.007665 -0.003305 0.000002 -0.000942 0.000000
# 2 -0.007665 0.066914 -0.015165 0.000026 -0.000135 0.000002
# 3 -0.003305 -0.015165 0.014585 -0.000004 0.000410 -0.000001
# 4 0.000002 0.000026 -0.000004 -0.254630 -0.000008 -0.009582
# 5 -0.000942 -0.000135 0.000410 -0.000008 0.027101 -0.000001
# 6 0.000000 0.000002 -0.000001 -0.009582 -0.000001 0.050127
#
#
# Mechanical properties :
#
#
# Convention : Reuss Voigt Hill
#
# Bulk Modulus (GPa) = 23.09640 45.06845 34.08242
# Shear Modulus (GPa) = -330.37097 19.47917 -155.44590
#
# Velocity S-wave (km/s) = -13.30184 3.22995 -9.12432
# Velocity P-wave (km/s) = 14.95155 6.16828 9.63071
#
# Compressibility (1/GPa) = 0.04329679
#
# Stress axis : x y z
#
# Youngs Moduli (GPa) = 71.09248 14.94446 68.56184
#
# Poissons Ratio (x) = 0.11454 0.22661
# Poissons Ratio (y) = 0.54490 1.03972
# Poissons Ratio (z) = 0.23498 0.22663
#
# Static dielectric constant tensor:
#      x y z
#    x 3.700930 0.000000 0.061920 
#    y 0.000000 2.755560 0.000000 
#    z 0.061920 0.000000 3.673450 
# 
# 
# High freq. dielectric constant tensor:
#      x y z
#    x 1.743680 0.000000 0.000890 
#    y 0.000000 1.649700 0.000000 
#    z 0.000890 0.000000 1.742380 
# 
# From -- ./inp_files/333721.got.cif
#   From: 2010.06.25/outbox.cif.g09.slc.cpg/sg12_167_cif.got.tgz:333721.got - 2010.06.28 00:19:55.
