data_PCOD8114300
_publ_section_title
;
Structure prediction by ZEFSAII (Michael W. Deem and Ramdas Pophale) SiO2 
 PCOD8114300
Probable space group: C 2/M
;
_chemical_formula_sum "Si O2"
_cell_formula_units_Z 56
_cell_length_a 23.541671
_cell_length_b 8.424694
_cell_length_c 15.719884
_cell_angle_alpha 90.000000
_cell_angle_beta 116.285234
_cell_angle_gamma 90.000000
_cell_volume 2795.373072
_symmetry_space_group_name_H-M "C 2/M"
_symmetry_group_IT_number 12
_symmetry_cell_setting 'monoclinic'
loop_
_space_group_symop_operation_xyz
x,y,z
-x,y,-z
-x,-y,-z
x,-y,z
1/2+x,1/2+y,z
1/2-x,1/2+y,-z
1/2-x,1/2-y,-z
1/2+x,1/2-y,z
loop_
_atom_site_type_symbol
_atom_site_label
_atom_site_fract_x
_atom_site_fract_y
_atom_site_fract_z
Si Si1 0.275627 0.185165 0.256654
Si Si2 0.860985 0.315556 0.830310
Si Si3 0.403018 0.187106 0.419578
Si Si4 0.472117 0.317387 0.804825
Si Si5 0.486851 0.811910 0.628473
Si Si6 0.594321 0.815596 0.954841
Si Si7 0.195596 0.185013 0.904105
O O1 0.212814 0.283837 0.235008
O O2 0.330791 0.244519 0.357831
O O3 0.301892 0.216201 0.180324
O O4 0.260489 0.000000 0.257566
O O5 0.875517 0.500000 0.829492
O O6 0.900884 0.221737 0.786393
O O7 0.880971 0.256020 0.937382
O O8 0.449575 0.251053 0.376142
O O9 0.427287 0.236884 0.529061
O O10 0.406878 0.000000 0.413685
O O11 0.487236 0.500000 0.830877
O O12 0.479708 0.279552 0.711191
O O13 0.519550 0.214471 0.895149
O O14 0.488521 0.000000 0.646974
O O15 0.628268 0.713923 0.903959
O O16 0.610395 0.000000 0.953181
O O17 0.206188 0.000000 0.891934
O O18 0.250000 0.250000 0.000000
#
# Coordination Sequence:
#
# PCOD8114300 Si02
#       7
#     8   8   8   8   8   8   8
#     4  11  21  36  59  88 122 155 193 240 295 347
#     4  11  24  41  59  80 112 156 203 242 286 345
#     4   8  17  34  62  93 116 148 188 234 288 348
#     4  12  25  39  58  86 117 150 194 242 295 348
#     4   9  17  37  64  88 117 150 191 234 285 347
#     4  11  23  40  61  84 113 152 199 244 291 345
#     4  12  23  36  56  85 120 156 193 236 286 338
#
# _framework density 20.033104000000002
#
# number of rings (size 3 to 8) (size 9 to 14) (size 15 to 20)
#    0.000    1.429    1.429    6.000    0.000    4.571 
#    0.000    4.286    0.000    0.000    0.000    0.000 
#    0.000    0.000    0.000    0.000    0.000    0.000 
#
# Total GULP energy -347296.430391 kJ/mol
# GULP energy per Si atom -12403.443943 kJ/mol
# Density = 1.998751 g / cm^3
# Si number density = 20.033104 Si / 1000 Ang^3
#
#
#
# Elastic Constant Matrix: (Units=GPa)
#
#
# Indices 1 2 3 4 5 6 
#
# 1 107.0210 17.3700 46.7386 0.0000 12.1544 0.0000
# 2 17.3700 53.1377 21.8864 0.0000 -0.9566 0.0000
# 3 46.7386 21.8864 104.7130 0.0000 23.2390 0.0000
# 4 0.0000 0.0000 0.0000 24.1389 0.0000 1.2146
# 5 12.1544 -0.9566 23.2390 0.0000 30.2108 0.0000
# 6 0.0000 0.0000 0.0000 1.2146 0.0000 30.1356
#
#
#
# Elastic Compliance Matrix: (Units=1/GPa)
#
#
# Indices 1 2 3 4 5 6 
#
# 1 0.011810 -0.002005 -0.004563 0.000000 -0.001305 0.000000
# 2 -0.002005 0.021520 -0.004743 0.000000 0.005137 0.000000
# 3 -0.004563 -0.004743 0.014716 0.000000 -0.009635 0.000000
# 4 0.000000 0.000000 0.000000 0.041511 0.000000 -0.001673
# 5 -0.001305 0.005137 -0.009635 0.000000 0.041200 0.000000
# 6 0.000000 0.000000 0.000000 -0.001673 0.000000 0.033251
#
#
# Mechanical properties :
#
#
# Convention : Reuss Voigt Hill
#
# Bulk Modulus (GPa) = 39.33101 48.54019 43.93560
# Shear Modulus (GPa) = 25.62723 28.82219 27.22471
#
# Velocity S-wave (km/s) = 3.58053 3.79717 3.69044
# Velocity P-wave (km/s) = 6.06376 6.59600 6.33548
#
# Compressibility (1/GPa) = 0.02542523
#
# Stress axis : x y z
#
# Youngs Moduli (GPa) = 84.67211 46.46737 67.95267
#
# Poissons Ratio (x) = 0.09316 0.31006
# Poissons Ratio (y) = 0.16975 0.32231
# Poissons Ratio (z) = 0.38635 0.22040
#
# Static dielectric constant tensor:
#      x y z
#    x 3.691870 0.000000 0.132070 
#    y 0.000000 3.497690 0.000000 
#    z 0.132070 0.000000 3.720410 
# 
# 
# High freq. dielectric constant tensor:
#      x y z
#    x 1.782410 0.000000 0.010950 
#    y 0.000000 1.771320 0.000000 
#    z 0.010950 0.000000 1.780910 
# 
# From -- ./inp_files/238942.got.cif
#   From: 2010.06.25/outbox.cif.g09.slc.cpg/sg12_120_cif.got.tgz:238942.got - 2010.06.28 00:19:55.
