data_PCOD8114775
_publ_section_title
;
Structure prediction by ZEFSAII (Michael W. Deem and Ramdas Pophale) SiO2 
 PCOD8114775
Probable space group: C 2/M
;
_chemical_formula_sum "Si O2"
_cell_formula_units_Z 48
_cell_length_a 15.326916
_cell_length_b 9.004727
_cell_length_c 17.222791
_cell_angle_alpha 90.000000
_cell_angle_beta 87.715600
_cell_angle_gamma 90.000000
_cell_volume 2375.109199
_symmetry_space_group_name_H-M "C 2/M"
_symmetry_group_IT_number 12
_symmetry_cell_setting 'monoclinic'
loop_
_space_group_symop_operation_xyz
x,y,z
-x,y,-z
-x,-y,-z
x,-y,z
1/2+x,1/2+y,z
1/2-x,1/2+y,-z
1/2-x,1/2-y,-z
1/2+x,1/2-y,z
loop_
_atom_site_type_symbol
_atom_site_label
_atom_site_fract_x
_atom_site_fract_y
_atom_site_fract_z
Si Si1 0.342146 0.328063 0.500095
Si Si2 0.656374 0.666487 0.669700
Si Si3 0.136554 0.330825 0.353230
Si Si4 0.749767 0.676619 0.916683
Si Si5 0.910775 0.326517 0.810468
Si Si6 0.394156 0.172403 0.179151
O O1 0.327111 0.500000 0.517795
O O2 0.250000 0.250000 0.500000
O O3 0.387202 0.305465 0.413844
O O4 0.397286 0.258880 0.569593
O O5 0.633828 0.500000 0.699949
O O6 0.759924 0.683460 0.659885
O O7 0.619416 0.787258 0.730333
O O8 0.107140 0.500000 0.366412
O O9 0.094091 0.259545 0.276725
O O10 0.750770 0.500000 0.925334
O O11 0.834956 0.738481 0.868285
O O12 0.663453 0.725157 0.874003
O O13 0.750000 0.750000 0.000000
O O14 0.892037 0.500000 0.801582
O O15 0.004708 0.295620 0.845626
O O16 0.370773 0.000000 0.167205
#
# Coordination Sequence:
#
# PCOD8114775 Si02
#       6
#     8   8   8   8   8   8
#     4   9  17  28  46  76 111 150 194 239 287 334
#     4   9  17  32  53  77 113 157 193 235 293 339
#     4   9  16  32  55  77 107 153 198 234 283 337
#     4  11  23  44  67  88 118 151 185 229 287 346
#     4   9  20  39  61  84 118 158 189 228 287 349
#     4  11  22  37  61  91 116 149 197 237 279 339
#
# _framework density 20.209596999999999
#
# number of rings (size 3 to 8) (size 9 to 14) (size 15 to 20)
#    0.000    2.333    1.667    2.500    0.000    4.000 
#    0.000    9.167    0.000    5.000    0.000    0.000 
#    0.000    0.000    0.000    0.000    0.000    0.000 
#
# Total GULP energy -297496.465827 kJ/mol
# GULP energy per Si atom -12395.686076 kJ/mol
# Density = 2.016360 g / cm^3
# Si number density = 20.209597 Si / 1000 Ang^3
#
#
#
# Elastic Constant Matrix: (Units=GPa)
#
#
# Indices 1 2 3 4 5 6 
#
# 1 77.0118 29.0881 48.7403 0.0000 11.5610 0.0000
# 2 29.0881 83.6087 53.0876 0.0000 4.6460 0.0000
# 3 48.7403 53.0876 156.3554 0.0000 9.6198 0.0000
# 4 0.0000 0.0000 0.0000 40.1976 0.0000 3.3773
# 5 11.5610 4.6460 9.6198 0.0000 6.6334 0.0000
# 6 0.0000 0.0000 0.0000 3.3773 0.0000 21.6651
#
#
#
# Elastic Compliance Matrix: (Units=1/GPa)
#
#
# Indices 1 2 3 4 5 6 
#
# 1 0.020848 -0.003381 -0.003581 0.000000 -0.028773 0.000000
# 2 -0.003381 0.015869 -0.004406 0.000000 0.001167 0.000000
# 3 -0.003581 -0.004406 0.009260 0.000000 -0.004103 0.000000
# 4 0.000000 0.000000 0.000000 0.025207 0.000000 -0.003929
# 5 -0.028773 0.001167 -0.004103 0.000000 0.206031 0.000000
# 6 0.000000 0.000000 0.000000 -0.003929 0.000000 0.046770
#
#
# Mechanical properties :
#
#
# Convention : Reuss Voigt Hill
#
# Bulk Modulus (GPa) = 43.02453 64.31198 53.66826
# Shear Modulus (GPa) = 14.10566 26.10323 20.10445
#
# Velocity S-wave (km/s) = 2.64478 3.59782 3.15746
# Velocity P-wave (km/s) = 5.53731 7.01075 6.31714
#
# Compressibility (1/GPa) = 0.02324255
#
# Stress axis : x y z
#
# Youngs Moduli (GPa) = 47.96733 63.01410 107.98755
#
# Poissons Ratio (x) = 0.21303 0.38666
# Poissons Ratio (y) = 0.16216 0.47581
# Poissons Ratio (z) = 0.17175 0.27765
#
# Static dielectric constant tensor:
#      x y z
#    x 3.473320 0.000000 0.062050 
#    y 0.000000 3.685420 0.000000 
#    z 0.062050 0.000000 3.981820 
# 
# 
# High freq. dielectric constant tensor:
#      x y z
#    x 1.768640 0.000000 0.008950 
#    y 0.000000 1.773910 0.000000 
#    z 0.008950 0.000000 1.799910 
# 
# From -- ./inp_files/267724.got.cif
#   From: 2010.06.25/outbox.cif.g09.slc.cpg/sg12_134_cif.got.tgz:267724.got - 2010.06.28 00:19:55.
