data_PCOD8114515
_publ_section_title
;
Structure prediction by ZEFSAII (Michael W. Deem and Ramdas Pophale) SiO2 
 PCOD8114515
Probable space group: C 2/M
;
_chemical_formula_sum "Si O2"
_cell_formula_units_Z 56
_cell_length_a 12.186209
_cell_length_b 26.752553
_cell_length_c 8.903791
_cell_angle_alpha 90.000000
_cell_angle_beta 69.665471
_cell_angle_gamma 90.000000
_cell_volume 2721.844560
_symmetry_space_group_name_H-M "C 2/M"
_symmetry_group_IT_number 12
_symmetry_cell_setting 'monoclinic'
loop_
_space_group_symop_operation_xyz
x,y,z
-x,y,-z
-x,-y,-z
x,-y,z
1/2+x,1/2+y,z
1/2-x,1/2+y,-z
1/2-x,1/2-y,-z
1/2+x,1/2-y,z
loop_
_atom_site_type_symbol
_atom_site_label
_atom_site_fract_x
_atom_site_fract_y
_atom_site_fract_z
Si Si1 0.180834 0.848121 0.731728
Si Si2 0.325385 0.443798 0.694154
Si Si3 0.828239 0.294135 0.907083
Si Si4 0.082577 0.943747 0.679176
Si Si5 0.613230 0.124732 0.878548
Si Si6 0.467087 0.733169 0.354573
Si Si7 0.106167 0.334593 0.560703
O O1 0.249401 0.831356 0.845860
O O2 0.123851 0.902981 0.782847
O O3 0.077624 0.808886 0.738284
O O4 0.270938 0.855814 0.553007
O O5 0.276248 0.500000 0.727715
O O6 0.443533 0.438550 0.732657
O O7 0.354189 0.430964 0.508188
O O8 0.229986 0.407985 0.816099
O O9 0.930023 0.268057 0.762555
O O10 0.750000 0.250000 0.000000
O O11 0.871319 0.325225 0.029723
O O12 0.115465 0.000000 0.716247
O O13 0.573271 0.140386 0.732561
O O14 0.500000 0.095113 0.000000
O O15 0.500000 0.707651 0.500000
O O16 0.369280 0.774946 0.436316
O O17 0.000000 0.347574 0.500000
#
# Coordination Sequence:
#
# PCOD8114515 Si02
#       7
#     8   8   8   8   8   8   8
#     4  12  23  40  68  91 126 172 218 263 325 385
#     4   9  20  40  65  97 127 159 214 274 324 379
#     4  12  28  41  57  94 137 166 209 261 322 386
#     4   9  20  40  69 100 124 157 220 286 320 362
#     4  12  23  40  65  89 130 174 207 256 326 389
#     4  11  24  40  62  91 124 171 221 264 310 385
#     4  11  21  41  61  90 124 167 219 265 306 376
#
# _framework density 20.574283000000001
#
# number of rings (size 3 to 8) (size 9 to 14) (size 15 to 20)
#    0.000    1.143    5.714    2.143    6.000    0.286 
#    0.000    0.714    0.000    5.143    0.000    0.000 
#    0.000    0.000    0.000    0.000    0.000    0.000 
#
# Total GULP energy -347041.371575 kJ/mol
# GULP energy per Si atom -12394.334699 kJ/mol
# Density = 2.052746 g / cm^3
# Si number density = 20.574283 Si / 1000 Ang^3
#
#
#
# Elastic Constant Matrix: (Units=GPa)
#
#
# Indices 1 2 3 4 5 6 
#
# 1 97.8560 67.4252 42.8613 0.0000 -0.3402 0.0000
# 2 67.4252 117.0074 37.1455 0.0000 -0.0944 0.0000
# 3 42.8613 37.1455 93.5242 0.0000 0.5296 0.0000
# 4 0.0000 0.0000 0.0000 23.7719 0.0000 0.9797
# 5 -0.3402 -0.0944 0.5296 0.0000 36.0754 0.0000
# 6 0.0000 0.0000 0.0000 0.9797 0.0000 35.4293
#
#
#
# Elastic Compliance Matrix: (Units=1/GPa)
#
#
# Indices 1 2 3 4 5 6 
#
# 1 0.018739 -0.009236 -0.004921 0.000000 0.000225 0.000000
# 2 -0.009236 0.014332 -0.001459 0.000000 -0.000028 0.000000
# 3 -0.004921 -0.001459 0.013529 0.000000 -0.000249 0.000000
# 4 0.000000 0.000000 0.000000 0.042114 0.000000 -0.001165
# 5 0.000225 -0.000028 -0.000249 0.000000 0.027725 0.000000
# 6 0.000000 0.000000 0.000000 -0.001165 0.000000 0.028257
#
#
# Mechanical properties :
#
#
# Convention : Reuss Voigt Hill
#
# Bulk Modulus (GPa) = 65.07380 67.02795 66.05088
# Shear Modulus (GPa) = 27.61642 29.78570 28.70106
#
# Velocity S-wave (km/s) = 3.66769 3.80901 3.73902
# Velocity P-wave (km/s) = 7.04509 7.21069 7.12837
#
# Compressibility (1/GPa) = 0.01536717
#
# Stress axis : x y z
#
# Youngs Moduli (GPa) = 53.36461 69.77436 73.91713
#
# Poissons Ratio (x) = 0.64443 0.36374
# Poissons Ratio (y) = 0.49287 0.10787
# Poissons Ratio (z) = 0.26260 0.10183
#
# Static dielectric constant tensor:
#      x y z
#    x 3.588170 0.000000 -0.470400 
#    y 0.000000 3.483000 0.000000 
#    z -0.470400 0.000000 2.869690 
# 
# 
# High freq. dielectric constant tensor:
#      x y z
#    x 1.809560 0.000000 -0.008430 
#    y 0.000000 1.792490 0.000000 
#    z -0.008430 0.000000 1.802440 
# 
# From -- ./inp_files/53194.got.cif
#   From: 2010.06.25/outbox.cif.g09.slc.cpg/sg12_27_cif.got.tgz:53194.got - 2010.06.28 00:19:55.
