data_PCOD8114029
_publ_section_title
;
Structure prediction by ZEFSAII (Michael W. Deem and Ramdas Pophale) SiO2 
 PCOD8114029
Probable space group: C 2/M
;
_chemical_formula_sum "Si O2"
_cell_formula_units_Z 56
_cell_length_a 25.085379
_cell_length_b 14.315282
_cell_length_c 8.585561
_cell_angle_alpha 90.000000
_cell_angle_beta 58.694799
_cell_angle_gamma 90.000000
_cell_volume 2634.246569
_symmetry_space_group_name_H-M "C 2/M"
_symmetry_group_IT_number 12
_symmetry_cell_setting 'monoclinic'
loop_
_space_group_symop_operation_xyz
x,y,z
-x,y,-z
-x,-y,-z
x,-y,z
1/2+x,1/2+y,z
1/2-x,1/2+y,-z
1/2-x,1/2-y,-z
1/2+x,1/2-y,z
loop_
_atom_site_type_symbol
_atom_site_label
_atom_site_fract_x
_atom_site_fract_y
_atom_site_fract_z
Si Si1 0.363811 0.753434 0.812368
Si Si2 0.565838 0.601456 0.468975
Si Si3 0.685269 0.893716 0.351302
Si Si4 0.943065 0.398801 0.871616
Si Si5 0.422949 0.851677 0.245346
Si Si6 0.562606 0.636923 0.821996
Si Si7 0.824165 0.104274 0.121971
O O1 0.386876 0.683195 0.644737
O O2 0.319337 0.828013 0.794819
O O3 0.419861 0.812144 0.804207
O O4 0.330169 0.688881 0.990592
O O5 0.500000 0.633392 0.500000
O O6 0.584364 0.500000 0.368286
O O7 0.564899 0.586308 0.654129
O O8 0.639349 0.863518 0.559490
O O9 0.756242 0.884423 0.305146
O O10 0.670196 0.000000 0.324654
O O11 0.923175 0.500000 0.831272
O O12 0.018252 0.399032 0.759490
O O13 0.912890 0.394478 0.089753
O O14 0.442014 0.745841 0.196304
O O15 0.623491 0.610303 0.826478
O O16 0.500000 0.600711 0.000000
O O17 0.828452 0.000000 0.038128
#
# Coordination Sequence:
#
# PCOD8114029 Si02
#       7
#     8   8   8   8   8   8   8
#     4  12  23  42  64  92 133 169 215 264 324 379
#     4  11  24  40  63  97 131 165 209 267 328 382
#     4  11  25  43  65  93 130 173 218 267 322 384
#     4  11  22  38  66  98 131 168 211 263 323 384
#     4  11  20  41  64  94 131 165 212 267 318 377
#     4  12  22  43  71  97 126 167 213 267 324 385
#     4  11  25  45  66  93 127 171 221 267 320 383
#
# _framework density 21.258448999999999
#
# number of rings (size 3 to 8) (size 9 to 14) (size 15 to 20)
#    0.000    0.714    4.286    5.143    0.000    2.857 
#    0.000    1.429    0.000    5.143    0.000    0.000 
#    0.000    0.000    0.000    0.000    0.000    0.000 
#
# Total GULP energy -347096.805874 kJ/mol
# GULP energy per Si atom -12396.314496 kJ/mol
# Density = 2.121006 g / cm^3
# Si number density = 21.258449 Si / 1000 Ang^3
#
#
#
# Elastic Constant Matrix: (Units=GPa)
#
#
# Indices 1 2 3 4 5 6 
#
# 1 123.8830 21.6851 61.6033 0.0000 -8.2266 0.0000
# 2 21.6851 133.2235 30.6341 0.0000 -5.1292 0.0000
# 3 61.6033 30.6341 122.7131 0.0000 -8.5857 0.0000
# 4 0.0000 0.0000 0.0000 59.3901 0.0000 26.5538
# 5 -8.2266 -5.1292 -8.5857 0.0000 22.7199 0.0000
# 6 0.0000 0.0000 0.0000 26.5538 0.0000 51.2627
#
#
#
# Elastic Compliance Matrix: (Units=1/GPa)
#
#
# Indices 1 2 3 4 5 6 
#
# 1 0.010870 -0.000502 -0.005202 0.000000 0.001857 0.000000
# 2 -0.000502 0.008012 -0.001679 0.000000 0.000993 0.000000
# 3 -0.005202 -0.001679 0.011320 0.000000 0.002015 0.000000
# 4 0.000000 0.000000 0.000000 0.021913 0.000000 -0.011351
# 5 0.001857 0.000993 0.002015 0.000000 0.045672 0.000000
# 6 0.000000 0.000000 0.000000 -0.011351 0.000000 0.025387
#
#
# Mechanical properties :
#
#
# Convention : Reuss Voigt Hill
#
# Bulk Modulus (GPa) = 64.77469 67.51828 66.14649
# Shear Modulus (GPa) = 34.94426 44.40102 39.67264
#
# Velocity S-wave (km/s) = 4.05876 4.57511 4.32465
# Velocity P-wave (km/s) = 7.24575 7.72907 7.49131
#
# Compressibility (1/GPa) = 0.01543813
#
# Stress axis : x y z
#
# Youngs Moduli (GPa) = 91.99737 124.81112 88.33552
#
# Poissons Ratio (x) = 0.06262 0.45949
# Poissons Ratio (y) = 0.04616 0.14830
# Poissons Ratio (z) = 0.47854 0.20953
#
# Static dielectric constant tensor:
#      x y z
#    x 3.731450 0.000000 -0.014210 
#    y 0.000000 4.179480 0.000000 
#    z -0.014210 0.000000 3.811500 
# 
# 
# High freq. dielectric constant tensor:
#      x y z
#    x 1.820460 0.000000 -0.000030 
#    y 0.000000 1.869100 0.000000 
#    z -0.000030 0.000000 1.821100 
# 
# From -- ./inp_files/96789.got.cif
#   From: 2010.06.25/outbox.cif.g09.slc.cpg/sg12_49_cif.got.tgz:96789.got - 2010.06.28 00:19:55.
