data_PCOD8114009
_publ_section_title
;
Structure prediction by ZEFSAII (Michael W. Deem and Ramdas Pophale) SiO2 
 PCOD8114009
Probable space group: C 2/M
;
_chemical_formula_sum "Si O2"
_cell_formula_units_Z 40
_cell_length_a 18.998133
_cell_length_b 11.923489
_cell_length_c 8.362384
_cell_angle_alpha 90.000000
_cell_angle_beta 89.212747
_cell_angle_gamma 90.000000
_cell_volume 1894.102113
_symmetry_space_group_name_H-M "C 2/M"
_symmetry_group_IT_number 12
_symmetry_cell_setting 'monoclinic'
loop_
_space_group_symop_operation_xyz
x,y,z
-x,y,-z
-x,-y,-z
x,-y,z
1/2+x,1/2+y,z
1/2-x,1/2+y,-z
1/2-x,1/2-y,-z
1/2+x,1/2-y,z
loop_
_atom_site_type_symbol
_atom_site_label
_atom_site_fract_x
_atom_site_fract_y
_atom_site_fract_z
Si Si1 0.888358 0.369721 0.327839
Si Si2 0.018596 0.759535 0.185184
Si Si3 0.876156 0.000000 0.071985
Si Si4 0.031652 0.000000 0.200160
Si Si5 0.356466 0.129253 0.695792
Si Si6 0.216477 0.789107 0.837069
O O1 0.888684 0.500000 0.283381
O O2 0.881923 0.349492 0.515832
O O3 0.822809 0.315672 0.239154
O O4 0.961549 0.317292 0.271341
O O5 0.027407 0.877463 0.285682
O O6 0.092907 0.695286 0.184094
O O7 0.000000 0.785123 0.000000
O O8 0.838050 0.110211 0.136404
O O9 0.957974 0.000000 0.109253
O O10 0.888844 0.000000 0.880751
O O11 0.276846 0.171459 0.714370
O O12 0.360103 0.000000 0.744566
O O13 0.250000 0.750000 0.000000
#
# Coordination Sequence:
#
# PCOD8114009 Si02
#       6
#     8   8   4   4   8   8
#     4  11  25  44  64  92 132 174 216 263 326 390
#     4  12  22  41  68  96 127 169 220 271 318 382
#     4  11  20  40  65  93 132 160 204 270 329 370
#     4  11  20  40  64  96 130 160 208 268 324 378
#     4  11  25  44  64  92 133 172 213 267 328 388
#     4  12  24  41  69  97 127 168 217 272 323 386
#
# _framework density 21.118185
#
# number of rings (size 3 to 8) (size 9 to 14) (size 15 to 20)
#    0.000    0.600    5.000    4.200    1.400    4.800 
#    1.800    3.000    0.000    0.000    0.000    0.000 
#    0.000    0.000    0.000    0.000    0.000    0.000 
#
# Total GULP energy -247861.351714 kJ/mol
# GULP energy per Si atom -12393.067586 kJ/mol
# Density = 2.107012 g / cm^3
# Si number density = 21.118185 Si / 1000 Ang^3
#
#
#
# Elastic Constant Matrix: (Units=GPa)
#
#
# Indices 1 2 3 4 5 6 
#
# 1 143.8117 73.5499 25.7396 0.0000 -21.2215 0.0000
# 2 73.5499 187.0681 43.0732 0.0000 -9.8350 0.0000
# 3 25.7396 43.0732 44.1847 0.0000 -8.7008 0.0000
# 4 0.0000 0.0000 0.0000 20.0897 0.0000 -5.2617
# 5 -21.2215 -9.8350 -8.7008 0.0000 34.4325 0.0000
# 6 0.0000 0.0000 0.0000 -5.2617 0.0000 40.7515
#
#
#
# Elastic Compliance Matrix: (Units=1/GPa)
#
#
# Indices 1 2 3 4 5 6 
#
# 1 0.009515 -0.003136 -0.001587 0.000000 0.004568 0.000000
# 2 -0.003136 0.007929 -0.006143 0.000000 -0.001220 0.000000
# 3 -0.001587 -0.006143 0.030526 0.000000 0.004981 0.000000
# 4 0.000000 0.000000 0.000000 0.051519 0.000000 0.006652
# 5 0.004568 -0.001220 0.004981 0.000000 0.032768 0.000000
# 6 0.000000 0.000000 0.000000 0.006652 0.000000 0.025398
#
#
# Mechanical properties :
#
#
# Convention : Reuss Voigt Hill
#
# Bulk Modulus (GPa) = 38.11091 73.31001 55.71046
# Shear Modulus (GPa) = 26.57710 34.56819 30.57264
#
# Velocity S-wave (km/s) = 3.55137 4.05024 3.80898
# Velocity P-wave (km/s) = 5.90779 7.52742 6.76624
#
# Compressibility (1/GPa) = 0.02623920
#
# Stress axis : x y z
#
# Youngs Moduli (GPa) = 105.09444 126.12289 32.75893
#
# Poissons Ratio (x) = 0.39547 0.05198
# Poissons Ratio (y) = 0.32953 0.20124
# Poissons Ratio (z) = 0.16677 0.77477
#
# Static dielectric constant tensor:
#      x y z
#    x 4.144160 0.000000 -0.188810 
#    y 0.000000 8.560100 0.000000 
#    z -0.188810 0.000000 3.688150 
# 
# 
# High freq. dielectric constant tensor:
#      x y z
#    x 1.849590 0.000000 -0.017090 
#    y 0.000000 1.855870 0.000000 
#    z -0.017090 0.000000 1.799050 
# 
# From -- ./inp_files/71361.got.cif
#   From: 2010.06.25/outbox.cif.g09.slc.cpg/sg12_36_cif.got.tgz:71361.got - 2010.06.28 00:19:55.
