data_PCOD8114246
_publ_section_title
;
Structure prediction by ZEFSAII (Michael W. Deem and Ramdas Pophale) SiO2 
 PCOD8114246
Probable space group: C 2/M
;
_chemical_formula_sum "Si O2"
_cell_formula_units_Z 56
_cell_length_a 18.308406
_cell_length_b 29.116143
_cell_length_c 9.308022
_cell_angle_alpha 90.000000
_cell_angle_beta 142.254189
_cell_angle_gamma 90.000000
_cell_volume 3037.430513
_symmetry_space_group_name_H-M "C 2/M"
_symmetry_group_IT_number 12
_symmetry_cell_setting 'monoclinic'
loop_
_space_group_symop_operation_xyz
x,y,z
-x,y,-z
-x,-y,-z
x,-y,z
1/2+x,1/2+y,z
1/2-x,1/2+y,-z
1/2-x,1/2-y,-z
1/2+x,1/2-y,z
loop_
_atom_site_type_symbol
_atom_site_label
_atom_site_fract_x
_atom_site_fract_y
_atom_site_fract_z
Si Si1 0.187033 0.049892 0.849558
Si Si2 0.391321 0.701274 0.095221
Si Si3 0.755163 0.645807 0.899891
Si Si4 0.461083 0.549901 0.671170
Si Si5 0.479372 0.201725 0.306619
Si Si6 0.121364 0.855311 0.391764
Si Si7 0.235202 0.706793 0.580151
O O1 0.278488 0.092495 0.980837
O O2 0.108150 0.050146 0.585204
O O3 0.100854 0.057172 0.852978
O O4 0.252878 0.000000 0.965327
O O5 0.323657 0.668659 0.099483
O O6 0.433236 0.746285 0.244824
O O7 0.503351 0.675578 0.200019
O O8 0.301687 0.717653 0.831740
O O9 0.681544 0.650604 0.639682
O O10 0.882498 0.669475 0.079143
O O11 0.442238 0.500000 0.718521
O O12 0.413044 0.591593 0.694978
O O13 0.500000 0.183768 0.500000
O O14 0.596666 0.197761 0.392744
O O15 0.211723 0.839075 0.409211
O O16 0.250000 0.750000 0.500000
#
# Coordination Sequence:
#
# PCOD8114246 Si02
#       7
#     8   8   8   8   8   8   8
#     4   8  14  27  51  85 114 139 180 231 276 324
#     4  12  23  38  58  82 114 148 186 232 279 330
#     4  11  21  36  60  85 112 149 188 231 277 329
#     4   8  14  27  51  83 116 143 175 226 283 333
#     4  12  25  40  58  79 112 153 195 226 266 337
#     4  11  21  35  59  87 116 144 183 235 287 328
#     4  12  26  41  55  80 113 155 188 229 278 332
#
# _framework density 18.436636
#
# number of rings (size 3 to 8) (size 9 to 14) (size 15 to 20)
#    0.000    1.429    4.286    3.857    0.000    1.714 
#    0.000    0.000    0.000    3.857    0.000    4.000 
#    0.000    0.000    0.000    0.000    0.000    0.000 
#
# Total GULP energy -347163.631623 kJ/mol
# GULP energy per Si atom -12398.701129 kJ/mol
# Density = 1.839467 g / cm^3
# Si number density = 18.436636 Si / 1000 Ang^3
#
#
#
# Elastic Constant Matrix: (Units=GPa)
#
#
# Indices 1 2 3 4 5 6 
#
# 1 84.2930 31.9902 14.7486 0.0000 18.8978 0.0000
# 2 31.9902 127.6325 21.6056 0.0000 23.2350 0.0000
# 3 14.7486 21.6056 59.2568 0.0000 11.7891 0.0000
# 4 0.0000 0.0000 0.0000 19.2655 0.0000 3.2543
# 5 18.8978 23.2350 11.7891 0.0000 29.9405 0.0000
# 6 0.0000 0.0000 0.0000 3.2543 0.0000 26.4250
#
#
#
# Elastic Compliance Matrix: (Units=1/GPa)
#
#
# Indices 1 2 3 4 5 6 
#
# 1 0.014474 -0.002123 -0.001452 0.000000 -0.006916 0.000000
# 2 -0.002123 0.009678 -0.001923 0.000000 -0.005413 0.000000
# 3 -0.001452 -0.001923 0.018943 0.000000 -0.005049 0.000000
# 4 0.000000 0.000000 0.000000 0.053009 0.000000 -0.006528
# 5 -0.006916 -0.005413 -0.005049 0.000000 0.043954 0.000000
# 6 0.000000 0.000000 0.000000 -0.006528 0.000000 0.038647
#
#
# Mechanical properties :
#
#
# Convention : Reuss Voigt Hill
#
# Bulk Modulus (GPa) = 31.15493 45.31901 38.23697
# Shear Modulus (GPa) = 24.94991 28.64871 26.79931
#
# Velocity S-wave (km/s) = 3.68268 3.94623 3.81673
# Velocity P-wave (km/s) = 5.91760 6.73780 6.34098
#
# Compressibility (1/GPa) = 0.03209765
#
# Stress axis : x y z
#
# Youngs Moduli (GPa) = 69.09084 103.32566 52.78970
#
# Poissons Ratio (x) = 0.21934 0.07667
# Poissons Ratio (y) = 0.14667 0.10154
# Poissons Ratio (z) = 0.10035 0.19874
#
# Static dielectric constant tensor:
#      x y z
#    x 3.359930 0.000000 -0.034580 
#    y 0.000000 3.963730 0.000000 
#    z -0.034580 0.000000 3.772340 
# 
# 
# High freq. dielectric constant tensor:
#      x y z
#    x 1.699170 0.000000 -0.002720 
#    y 0.000000 1.724830 0.000000 
#    z -0.002720 0.000000 1.695070 
# 
# From -- ./inp_files/54155.got.cif
#   From: 2010.06.25/outbox.cif.g09.slc.cpg/sg12_28_cif.got.tgz:54155.got - 2010.06.28 00:19:55.
