data_PCOD8114101
_publ_section_title
;
Structure prediction by ZEFSAII (Michael W. Deem and Ramdas Pophale) SiO2 
 PCOD8114101
Probable space group: C 2/M
;
_chemical_formula_sum "Si O2"
_cell_formula_units_Z 40
_cell_length_a 14.468129
_cell_length_b 9.119190
_cell_length_c 27.534511
_cell_angle_alpha 90.000000
_cell_angle_beta 143.471879
_cell_angle_gamma 90.000000
_cell_volume 2162.327715
_symmetry_space_group_name_H-M "C 2/M"
_symmetry_group_IT_number 12
_symmetry_cell_setting 'monoclinic'
loop_
_space_group_symop_operation_xyz
x,y,z
-x,y,-z
-x,-y,-z
x,-y,z
1/2+x,1/2+y,z
1/2-x,1/2+y,-z
1/2-x,1/2-y,-z
1/2+x,1/2-y,z
loop_
_atom_site_type_symbol
_atom_site_label
_atom_site_fract_x
_atom_site_fract_y
_atom_site_fract_z
Si Si1 0.925209 0.674311 0.296962
Si Si2 0.198759 0.671706 0.129864
Si Si3 0.348835 0.829293 0.000647
Si Si4 0.926932 0.173522 0.394155
Si Si5 0.230072 0.173376 0.574260
O O1 0.917393 0.500000 0.295114
O O2 0.825976 0.731024 0.210160
O O3 0.860842 0.741266 0.319735
O O4 0.100376 0.736120 0.365609
O O5 0.230152 0.500000 0.151610
O O6 0.212991 0.711146 0.079012
O O7 0.029977 0.714931 0.079770
O O8 0.329887 0.000000 0.002183
O O9 0.250000 0.750000 0.000000
O O10 0.819099 0.225501 0.392953
O O11 0.103815 0.224666 0.480931
O O12 0.916669 0.000000 0.380693
O O13 0.231623 0.000000 0.574938
#
# Coordination Sequence:
#
# PCOD8114101 Si02
#       5
#     8   8   8   8   8
#     4  11  21  32  49  78 108 131 164 216 259 290
#     4   9  20  38  54  74 104 138 169 198 244 312
#     4   9  19  37  60  79 100 131 168 206 248 299
#     4   9  17  34  55  71  95 138 179 209 249 306
#     4   8  17  33  52  72  98 135 177 211 249 302
#
# _framework density 18.498584000000001
#
# number of rings (size 3 to 8) (size 9 to 14) (size 15 to 20)
#    0.000    2.800    0.000    3.600    0.000    3.200 
#    0.000   13.000    0.000    0.000    0.000    0.000 
#    0.000    0.000    0.000    0.000    0.000    0.000 
#
# Total GULP energy -247948.375773 kJ/mol
# GULP energy per Si atom -12397.418789 kJ/mol
# Density = 1.845648 g / cm^3
# Si number density = 18.498584 Si / 1000 Ang^3
#
#
#
# Elastic Constant Matrix: (Units=GPa)
#
#
# Indices 1 2 3 4 5 6 
#
# 1 111.8673 39.4751 41.2757 0.0000 -8.4260 0.0000
# 2 39.4751 55.6143 36.7188 0.0000 -7.5286 0.0000
# 3 41.2757 36.7188 84.8681 0.0000 -15.5716 0.0000
# 4 0.0000 0.0000 0.0000 32.4450 0.0000 -3.3519
# 5 -8.4260 -7.5286 -15.5716 0.0000 23.6124 0.0000
# 6 0.0000 0.0000 0.0000 -3.3519 0.0000 31.3191
#
#
#
# Elastic Compliance Matrix: (Units=1/GPa)
#
#
# Indices 1 2 3 4 5 6 
#
# 1 0.012497 -0.006795 -0.003091 0.000000 0.000254 0.000000
# 2 -0.006795 0.028885 -0.009042 0.000000 0.000822 0.000000
# 3 -0.003091 -0.009042 0.018734 0.000000 0.008368 0.000000
# 4 0.000000 0.000000 0.000000 0.031166 0.000000 0.003336
# 5 0.000254 0.000822 0.008368 0.000000 0.048222 0.000000
# 6 0.000000 0.000000 0.000000 0.003336 0.000000 0.032286
#
#
# Mechanical properties :
#
#
# Convention : Reuss Voigt Hill
#
# Bulk Modulus (GPa) = 44.92392 54.14322 49.53357
# Shear Modulus (GPa) = 23.03452 26.46729 24.75091
#
# Velocity S-wave (km/s) = 3.53257 3.78666 3.66182
# Velocity P-wave (km/s) = 6.40129 6.96066 6.68683
#
# Compressibility (1/GPa) = 0.02225986
#
# Stress axis : x y z
#
# Youngs Moduli (GPa) = 80.02186 34.62021 53.37926
#
# Poissons Ratio (x) = 0.23523 0.16501
# Poissons Ratio (y) = 0.54372 0.48264
# Poissons Ratio (z) = 0.24737 0.31303
#
# Static dielectric constant tensor:
#      x y z
#    x 3.562830 0.000000 0.144550 
#    y 0.000000 3.067880 0.000000 
#    z 0.144550 0.000000 3.518040 
# 
# 
# High freq. dielectric constant tensor:
#      x y z
#    x 1.725770 0.000000 -0.004550 
#    y 0.000000 1.694880 0.000000 
#    z -0.004550 0.000000 1.717980 
# 
# From -- ./inp_files/211458.got.cif
#   From: 2010.06.25/outbox.cif.g09.slc.cpg/sg12_106_cif.got.tgz:211458.got - 2010.06.28 00:19:55.
