data_PCOD8114445
_publ_section_title
;
Structure prediction by ZEFSAII (Michael W. Deem and Ramdas Pophale) SiO2 
 PCOD8114445
Probable space group: C 2/M
;
_chemical_formula_sum "Si O2"
_cell_formula_units_Z 56
_cell_length_a 10.006466
_cell_length_b 21.256326
_cell_length_c 13.948799
_cell_angle_alpha 90.000000
_cell_angle_beta 89.587073
_cell_angle_gamma 90.000000
_cell_volume 2966.842308
_symmetry_space_group_name_H-M "C 2/M"
_symmetry_group_IT_number 12
_symmetry_cell_setting 'monoclinic'
loop_
_space_group_symop_operation_xyz
x,y,z
-x,y,-z
-x,-y,-z
x,-y,z
1/2+x,1/2+y,z
1/2-x,1/2+y,-z
1/2-x,1/2-y,-z
1/2+x,1/2-y,z
loop_
_atom_site_type_symbol
_atom_site_label
_atom_site_fract_x
_atom_site_fract_y
_atom_site_fract_z
Si Si1 0.332866 0.315675 0.094399
Si Si2 0.883862 0.133685 0.696583
Si Si3 0.344703 0.927558 0.414070
Si Si4 0.123292 0.253195 0.433555
Si Si5 0.350756 0.572336 0.234334
Si Si6 0.868486 0.615843 0.623619
Si Si7 0.369646 0.290912 0.880712
O O1 0.328118 0.384997 0.140364
O O2 0.470154 0.279471 0.122355
O O3 0.207195 0.275107 0.132292
O O4 0.324986 0.324011 0.979957
O O5 0.774419 0.085663 0.658409
O O6 0.908560 0.189124 0.620863
O O7 0.829196 0.161733 0.796426
O O8 0.020236 0.095453 0.708139
O O9 0.481277 0.907721 0.361485
O O10 0.321401 0.891674 0.513801
O O11 0.350361 0.000000 0.440657
O O12 0.250000 0.250000 0.500000
O O13 0.142184 0.309185 0.355366
O O14 0.000000 0.272530 0.500000
O O15 0.368517 0.500000 0.201609
O O16 0.224473 0.577042 0.304715
#
# Coordination Sequence:
#
# PCOD8114445 Si02
#       7
#     8   8   8   8   8   8   8
#     4   9  19  38  61  87 115 144 186 236 292 337
#     4  11  23  36  56  85 115 147 187 233 287 338
#     4  11  22  38  55  76 109 152 193 228 272 337
#     4  12  21  36  54  80 111 141 183 239 285 324
#     4  11  23  38  57  85 117 154 193 230 280 344
#     4  11  21  39  57  78 107 151 193 236 279 332
#     4   9  19  37  60  88 114 144 185 237 290 340
#
# _framework density 18.875287
#
# number of rings (size 3 to 8) (size 9 to 14) (size 15 to 20)
#    0.000    1.429    2.857    3.857    0.000    4.571 
#    0.000    7.857    0.000    0.000    0.000   10.000 
#    0.000    0.000    0.000    0.000    0.000    0.000 
#
# Total GULP energy -347277.191674 kJ/mol
# GULP energy per Si atom -12402.756846 kJ/mol
# Density = 1.883233 g / cm^3
# Si number density = 18.875287 Si / 1000 Ang^3
#
#
#
# Elastic Constant Matrix: (Units=GPa)
#
#
# Indices 1 2 3 4 5 6 
#
# 1 85.7108 47.9613 35.6756 0.0000 -3.5575 0.0000
# 2 47.9613 134.7416 30.0557 0.0000 0.6864 0.0000
# 3 35.6756 30.0557 67.5828 0.0000 0.5504 0.0000
# 4 0.0000 0.0000 0.0000 23.4947 0.0000 3.1539
# 5 -3.5575 0.6864 0.5504 0.0000 25.1519 0.0000
# 6 0.0000 0.0000 0.0000 3.1539 0.0000 25.3544
#
#
#
# Elastic Compliance Matrix: (Units=1/GPa)
#
#
# Indices 1 2 3 4 5 6 
#
# 1 0.017311 -0.004588 -0.007120 0.000000 0.002729 0.000000
# 2 -0.004588 0.009455 -0.001776 0.000000 -0.000868 0.000000
# 3 -0.007120 -0.001776 0.019356 0.000000 -0.001382 0.000000
# 4 0.000000 0.000000 0.000000 0.043286 0.000000 -0.005384
# 5 0.002729 -0.000868 -0.001382 0.000000 0.040198 0.000000
# 6 0.000000 0.000000 0.000000 -0.005384 0.000000 0.040111
#
#
# Mechanical properties :
#
#
# Convention : Reuss Voigt Hill
#
# Bulk Modulus (GPa) = 52.20619 57.26893 54.73756
# Shear Modulus (GPa) = 24.62200 26.42304 25.52252
#
# Velocity S-wave (km/s) = 3.61565 3.74555 3.68117
# Velocity P-wave (km/s) = 6.71930 7.00800 6.86517
#
# Compressibility (1/GPa) = 0.01915482
#
# Stress axis : x y z
#
# Youngs Moduli (GPa) = 57.76618 105.76215 51.66233
#
# Poissons Ratio (x) = 0.48519 0.36785
# Poissons Ratio (y) = 0.26501 0.09176
# Poissons Ratio (z) = 0.41131 0.18785
#
# Static dielectric constant tensor:
#      x y z
#    x 3.425260 0.000000 0.027930 
#    y 0.000000 3.454270 0.000000 
#    z 0.027930 0.000000 3.402720 
# 
# 
# High freq. dielectric constant tensor:
#      x y z
#    x 1.742550 0.000000 0.000720 
#    y 0.000000 1.733080 0.000000 
#    z 0.000720 0.000000 1.725090 
# 
# From -- ./inp_files/197514.got.cif
#   From: 2010.06.25/outbox.cif.g09.slc.cpg/sg12_99_cif.got.tgz:197514.got - 2010.06.28 00:19:55.
