data_PCOD8114888
_publ_section_title
;
Structure prediction by ZEFSAII (Michael W. Deem and Ramdas Pophale) SiO2 
 PCOD8114888
Probable space group: C 2/M
;
_chemical_formula_sum "Si O2"
_cell_formula_units_Z 64
_cell_length_a 24.844841
_cell_length_b 17.010310
_cell_length_c 21.648578
_cell_angle_alpha 90.000000
_cell_angle_beta 158.670325
_cell_angle_gamma 90.000000
_cell_volume 3327.832051
_symmetry_space_group_name_H-M "C 2/M"
_symmetry_group_IT_number 12
_symmetry_cell_setting 'monoclinic'
loop_
_space_group_symop_operation_xyz
x,y,z
-x,y,-z
-x,-y,-z
x,-y,z
1/2+x,1/2+y,z
1/2-x,1/2+y,-z
1/2-x,1/2-y,-z
1/2+x,1/2-y,z
loop_
_atom_site_type_symbol
_atom_site_label
_atom_site_fract_x
_atom_site_fract_y
_atom_site_fract_z
Si Si1 0.619103 0.706758 0.782678
Si Si2 0.706976 0.090045 0.466117
Si Si3 0.158569 0.283281 0.696291
Si Si4 0.355053 0.409780 0.492972
Si Si5 0.157754 0.690194 0.197906
Si Si6 0.103789 0.911423 0.051760
Si Si7 0.595995 0.309412 0.237425
Si Si8 0.941901 0.307215 0.166054
O O1 0.649724 0.764577 0.758881
O O2 0.505291 0.638505 0.641954
O O3 0.547370 0.758925 0.759380
O O4 0.773646 0.668606 0.970459
O O5 0.803321 0.101746 0.507773
O O6 0.766854 0.150554 0.581295
O O7 0.536055 0.112634 0.271727
O O8 0.713951 0.000000 0.496686
O O9 0.233904 0.209270 0.742983
O O10 0.249008 0.362186 0.780209
O O11 0.000000 0.300831 0.500000
O O12 0.389531 0.500000 0.514950
O O13 0.224329 0.382277 0.307474
O O14 0.150718 0.767291 0.233574
O O15 0.000000 0.666755 0.000000
O O16 0.151436 0.000000 0.088328
O O17 0.000000 0.905527 0.000000
O O18 0.018100 0.878467 0.900612
O O19 0.512371 0.245046 0.187960
#
# Coordination Sequence:
#
# PCOD8114888 Si02
#       8
#     8   8   8   8   8   8   8   8
#     4  11  23  41  62  91 122 167 204 247 306 378
#     4  11  24  39  61  95 127 159 203 262 315 360
#     4  12  23  39  63  89 123 163 207 249 302 372
#     4  11  24  42  63  93 128 161 205 264 317 358
#     4  12  22  40  68  92 118 162 215 260 299 362
#     4  11  23  40  62  93 127 162 205 256 311 362
#     4  12  19  39  67  92 119 160 209 259 301 367
#     4  11  22  38  67  89 118 162 213 251 302 370
#
# _framework density 19.231739000000001
#
# number of rings (size 3 to 8) (size 9 to 14) (size 15 to 20)
#    0.000    0.625    7.500    1.500    0.000    1.000 
#    0.000    1.875    0.000    0.000    0.000    0.000 
#    0.000    0.000    0.000    0.000    0.000    0.000 
#
# Total GULP energy -396937.912121 kJ/mol
# GULP energy per Si atom -12404.309754 kJ/mol
# Density = 1.918797 g / cm^3
# Si number density = 19.231739 Si / 1000 Ang^3
#
#
#
# Elastic Constant Matrix: (Units=GPa)
#
#
# Indices 1 2 3 4 5 6 
#
# 1 43.7471 16.4593 23.6694 -0.0109 -1.6515 -0.0012
# 2 16.4593 95.2109 54.8267 -0.0306 1.6527 -0.0096
# 3 23.6694 54.8267 137.5536 -0.0316 -0.2801 -0.0078
# 4 -0.0109 -0.0306 -0.0316 -69.5475 -0.0070 -81.7174
# 5 -1.6515 1.6527 -0.2801 -0.0070 31.3925 0.0022
# 6 -0.0012 -0.0096 -0.0078 -81.7174 0.0022 -44.9445
#
#
#
# Elastic Compliance Matrix: (Units=1/GPa)
#
#
# Indices 1 2 3 4 5 6 
#
# 1 0.025706 -0.002497 -0.003425 0.000002 0.001453 -0.000003
# 2 -0.002497 0.013893 -0.005110 0.000001 -0.000908 -0.000004
# 3 -0.003425 -0.005110 0.009896 0.000001 0.000177 -0.000002
# 4 0.000002 0.000001 0.000001 0.012653 0.000004 -0.023006
# 5 0.001453 -0.000908 0.000177 0.000004 0.031981 -0.000006
# 6 -0.000003 -0.000004 -0.000002 -0.023006 -0.000006 0.019580
#
#
# Mechanical properties :
#
#
# Convention : Reuss Voigt Hill
#
# Bulk Modulus (GPa) = 36.45387 51.82472 44.13929
# Shear Modulus (GPa) = 34.50265 -4.51614 14.99326
#
# Velocity S-wave (km/s) = 4.24021 -1.53407 2.79518
# Velocity P-wave (km/s) = 6.55506 4.88551 5.78087
#
# Compressibility (1/GPa) = 0.02743193
#
# Stress axis : x y z
#
# Youngs Moduli (GPa) = 38.90126 71.98007 101.04806
#
# Poissons Ratio (x) = 0.17971 0.34612
# Poissons Ratio (y) = 0.09712 0.51632
# Poissons Ratio (z) = 0.13325 0.36779
#
# Static dielectric constant tensor:
#      x y z
#    x 3.639440 0.000000 -0.073410 
#    y 0.000000 3.431020 -0.000010 
#    z -0.073410 -0.000010 3.731730 
# 
# 
# High freq. dielectric constant tensor:
#      x y z
#    x 1.756150 0.000000 -0.004720 
#    y 0.000000 1.733300 0.000000 
#    z -0.004720 0.000000 1.762890 
# 
# From -- ./inp_files/97770.got.cif
#   From: 2010.06.25/outbox.cif.g09.slc.cpg/sg12_49_cif.got.tgz:97770.got - 2010.06.28 00:19:55.
