data_PCOD8114997
_publ_section_title
;
Structure prediction by ZEFSAII (Michael W. Deem and Ramdas Pophale) SiO2 
 PCOD8114997
Probable space group: C 2/M
;
_chemical_formula_sum "Si O2"
_cell_formula_units_Z 40
_cell_length_a 14.807840
_cell_length_b 10.591926
_cell_length_c 24.476098
_cell_angle_alpha 90.000000
_cell_angle_beta 28.972656
_cell_angle_gamma 90.000000
_cell_volume 1859.541774
_symmetry_space_group_name_H-M "C 2/M"
_symmetry_group_IT_number 12
_symmetry_cell_setting 'monoclinic'
loop_
_space_group_symop_operation_xyz
x,y,z
-x,y,-z
-x,-y,-z
x,-y,z
1/2+x,1/2+y,z
1/2-x,1/2+y,-z
1/2-x,1/2-y,-z
1/2+x,1/2-y,z
loop_
_atom_site_type_symbol
_atom_site_label
_atom_site_fract_x
_atom_site_fract_y
_atom_site_fract_z
Si Si1 0.259171 0.500000 0.397924
Si Si2 0.795137 0.645066 0.126789
Si Si3 0.179886 0.858487 0.497262
Si Si4 0.720898 0.267875 0.284075
Si Si5 0.612535 0.000000 0.353535
Si Si6 0.563757 0.245537 0.721341
O O1 0.169566 0.500000 0.386024
O O2 0.380019 0.374860 0.339307
O O3 0.111524 0.500000 0.525985
O O4 0.752947 0.500000 0.131436
O O5 0.782558 0.652912 0.199122
O O6 0.659488 0.747550 0.168642
O O7 0.000000 0.685509 0.000000
O O8 0.250000 0.750000 0.500000
O O9 0.324919 0.864135 0.369634
O O10 0.970480 0.822033 0.588429
O O11 0.171668 0.000000 0.527272
O O12 0.885305 0.268912 0.242041
O O13 0.687464 0.123142 0.282660
#
# Coordination Sequence:
#
# PCOD8114997 Si02
#       6
#     4   8   8   8   4   8
#     4   9  16  32  59  96 127 165 210 248 311 403
#     4  11  25  45  67  91 124 173 233 286 332 390
#     4  12  26  39  64 102 141 176 212 264 336 406
#     4  11  23  39  68  98 133 172 218 272 332 399
#     4   9  18  32  59  96 129 165 208 254 323 395
#     4  11  22  40  67  96 134 174 214 271 332 398
#
# _framework density 21.510676
#
# number of rings (size 3 to 8) (size 9 to 14) (size 15 to 20)
#    0.000    1.200    5.000    1.200    2.800    3.200 
#    0.000    0.500    0.000    0.000    0.000    0.000 
#    0.000    0.000    0.000    0.000    0.000    0.000 
#
# Total GULP energy -247896.984165 kJ/mol
# GULP energy per Si atom -12394.849208 kJ/mol
# Density = 2.146172 g / cm^3
# Si number density = 21.510676 Si / 1000 Ang^3
#
#
#
# Elastic Constant Matrix: (Units=GPa)
#
#
# Indices 1 2 3 4 5 6 
#
# 1 122.9148 22.6811 51.3729 0.0012 -20.1216 -0.0011
# 2 22.6811 105.5227 14.6894 0.0009 -7.5144 -0.0007
# 3 51.3729 14.6894 121.7459 0.0011 -25.6190 -0.0068
# 4 0.0012 0.0009 0.0011 15.0490 -0.0026 -2.0815
# 5 -20.1216 -7.5144 -25.6190 -0.0026 24.8625 0.0020
# 6 -0.0011 -0.0007 -0.0068 -2.0815 0.0020 12.8815
#
#
#
# Elastic Compliance Matrix: (Units=1/GPa)
#
#
# Indices 1 2 3 4 5 6 
#
# 1 0.010551 -0.001475 -0.003283 0.000000 0.004710 -0.000002
# 2 -0.001475 0.009939 -0.000250 0.000000 0.001552 0.000000
# 3 -0.003283 -0.000250 0.011561 0.000002 0.009180 0.000005
# 4 0.000000 0.000000 0.000002 0.067969 0.000008 0.010983
# 5 0.004710 0.001552 0.009180 0.000008 0.053962 -0.000002
# 6 -0.000002 0.000000 0.000005 0.010983 -0.000002 0.079406
#
#
# Mechanical properties :
#
#
# Convention : Reuss Voigt Hill
#
# Bulk Modulus (GPa) = 45.38325 58.63003 52.00664
# Shear Modulus (GPa) = 19.94019 27.98793 23.96406
#
# Velocity S-wave (km/s) = 3.04796 3.61101 3.34137
# Velocity P-wave (km/s) = 5.79055 6.68590 6.25427
#
# Compressibility (1/GPa) = 0.02203456
#
# Stress axis : x y z
#
# Youngs Moduli (GPa) = 94.77547 100.61273 86.49648
#
# Poissons Ratio (x) = 0.14845 0.28397
# Poissons Ratio (y) = 0.13984 0.02162
# Poissons Ratio (z) = 0.31115 0.02515
#
# Static dielectric constant tensor:
#      x y z
#    x 3.792310 0.000000 -0.198850 
#    y 0.000000 4.136890 0.000000 
#    z -0.198850 0.000000 3.745100 
# 
# 
# High freq. dielectric constant tensor:
#      x y z
#    x 1.853310 0.000000 -0.013910 
#    y 0.000000 1.841660 0.000000 
#    z -0.013910 0.000000 1.809290 
# 
# From -- ./inp_files/339464.got.cif
#   From: 2010.06.25/outbox.cif.g09.slc.cpg/sg12_170_cif.got.tgz:339464.got - 2010.06.28 00:19:55.
