data_PCOD8114355
_publ_section_title
;
Structure prediction by ZEFSAII (Michael W. Deem and Ramdas Pophale) SiO2 
 PCOD8114355
Probable space group: C 2/M
;
_chemical_formula_sum "Si O2"
_cell_formula_units_Z 56
_cell_length_a 14.898597
_cell_length_b 8.927039
_cell_length_c 24.215146
_cell_angle_alpha 90.000000
_cell_angle_beta 63.256082
_cell_angle_gamma 90.000000
_cell_volume 2876.102428
_symmetry_space_group_name_H-M "C 2/M"
_symmetry_group_IT_number 12
_symmetry_cell_setting 'monoclinic'
loop_
_space_group_symop_operation_xyz
x,y,z
-x,y,-z
-x,-y,-z
x,-y,z
1/2+x,1/2+y,z
1/2-x,1/2+y,-z
1/2-x,1/2-y,-z
1/2+x,1/2-y,z
loop_
_atom_site_type_symbol
_atom_site_label
_atom_site_fract_x
_atom_site_fract_y
_atom_site_fract_z
Si Si1 0.818793 0.176657 0.934520
Si Si2 0.742404 0.321778 0.846183
Si Si3 0.476925 0.675341 0.066194
Si Si4 0.726790 0.327549 0.638882
Si Si5 0.181802 0.176103 0.285167
Si Si6 0.538988 0.675113 0.615560
Si Si7 0.843003 0.672444 0.502417
O O1 0.801717 0.251036 0.880554
O O2 0.934534 0.212308 0.916013
O O3 0.797154 0.000000 0.938843
O O4 0.750000 0.250000 0.000000
O O5 0.750342 0.500000 0.847060
O O6 0.627444 0.262808 0.880414
O O7 0.792153 0.264548 0.776899
O O8 0.464184 0.500000 0.060472
O O9 0.500000 0.749730 0.000000
O O10 0.716241 0.500000 0.660599
O O11 0.740998 0.224026 0.688263
O O12 0.625147 0.276286 0.635501
O O13 0.826319 0.307326 0.572747
O O14 0.068780 0.224190 0.331876
O O15 0.191259 0.000000 0.272214
O O16 0.545059 0.500000 0.602844
O O17 0.556354 0.753538 0.550817
O O18 0.843944 0.500000 0.485738
O O19 0.750000 0.750000 0.500000
#
# Coordination Sequence:
#
# PCOD8114355 Si02
#       7
#     8   8   8   8   8   8   8
#     4  11  21  37  62  90 118 148 185 229 279 335
#     4  11  23  41  61  83 115 153 193 234 281 342
#     4   9  18  36  61  86 114 150 184 217 275 344
#     4   9  19  37  58  81 111 150 192 234 285 344
#     4  11  24  40  57  82 115 152 194 240 286 339
#     4   9  20  38  58  80 114 155 193 234 290 350
#     4   9  17  31  55  85 115 147 190 241 291 342
#
# _framework density 19.470794999999999
#
# number of rings (size 3 to 8) (size 9 to 14) (size 15 to 20)
#    0.000    2.143    1.429    2.571    0.000    5.714 
#    0.000   12.143    0.000    0.000    0.000    0.000 
#    0.000    0.000    0.000    0.000    0.000    0.000 
#
# Total GULP energy -347146.520515 kJ/mol
# GULP energy per Si atom -12398.090018 kJ/mol
# Density = 1.942648 g / cm^3
# Si number density = 19.470795 Si / 1000 Ang^3
#
#
#
# Elastic Constant Matrix: (Units=GPa)
#
#
# Indices 1 2 3 4 5 6 
#
# 1 70.0503 27.4787 31.5866 0.0000 0.0718 0.0000
# 2 27.4787 69.7152 35.9583 0.0000 4.2978 0.0000
# 3 31.5866 35.9583 97.8637 0.0000 3.2329 0.0000
# 4 0.0000 0.0000 0.0000 37.3292 0.0000 3.0712
# 5 0.0718 4.2978 3.2329 0.0000 33.3415 0.0000
# 6 0.0000 0.0000 0.0000 3.0712 0.0000 29.1616
#
#
#
# Elastic Compliance Matrix: (Units=1/GPa)
#
#
# Indices 1 2 3 4 5 6 
#
# 1 0.018085 -0.005136 -0.003983 0.000000 0.001009 0.000000
# 2 -0.005136 0.019248 -0.005350 0.000000 -0.001951 0.000000
# 3 -0.003983 -0.005350 0.013490 0.000000 -0.000610 0.000000
# 4 0.000000 0.000000 0.000000 0.027023 0.000000 -0.002846
# 5 0.001009 -0.001951 -0.000610 0.000000 0.030301 0.000000
# 6 0.000000 0.000000 0.000000 -0.002846 0.000000 0.034591
#
#
# Mechanical properties :
#
#
# Convention : Reuss Voigt Hill
#
# Bulk Modulus (GPa) = 45.69517 47.51960 46.60738
# Shear Modulus (GPa) = 27.93711 29.47350 28.70530
#
# Velocity S-wave (km/s) = 3.79201 3.89489 3.84379
# Velocity P-wave (km/s) = 6.53391 6.68472 6.60974
#
# Compressibility (1/GPa) = 0.02188415
#
# Stress axis : x y z
#
# Youngs Moduli (GPa) = 55.29347 51.95235 74.12896
#
# Poissons Ratio (x) = 0.26683 0.29529
# Poissons Ratio (y) = 0.28399 0.39661
# Poissons Ratio (z) = 0.22026 0.27796
#
# Static dielectric constant tensor:
#      x y z
#    x 3.559420 0.000000 -0.218240 
#    y 0.000000 3.460380 0.000000 
#    z -0.218240 0.000000 3.699010 
# 
# 
# High freq. dielectric constant tensor:
#      x y z
#    x 1.757760 0.000000 -0.002860 
#    y 0.000000 1.750730 0.000000 
#    z -0.002860 0.000000 1.762720 
# 
# From -- ./inp_files/338560.got.cif
#   From: 2010.06.25/outbox.cif.g09.slc.cpg/sg12_170_cif.got.tgz:338560.got - 2010.06.28 00:19:55.
