data_PCOD8114646
_publ_section_title
;
Structure prediction by ZEFSAII (Michael W. Deem and Ramdas Pophale) SiO2 
 PCOD8114646
Probable space group: C 2/M
;
_chemical_formula_sum "Si O2"
_cell_formula_units_Z 48
_cell_length_a 18.678170
_cell_length_b 8.900613
_cell_length_c 31.723083
_cell_angle_alpha 90.000000
_cell_angle_beta 151.116073
_cell_angle_gamma 90.000000
_cell_volume 2547.474374
_symmetry_space_group_name_H-M "C 2/M"
_symmetry_group_IT_number 12
_symmetry_cell_setting 'monoclinic'
loop_
_space_group_symop_operation_xyz
x,y,z
-x,y,-z
-x,-y,-z
x,-y,z
1/2+x,1/2+y,z
1/2-x,1/2+y,-z
1/2-x,1/2-y,-z
1/2+x,1/2-y,z
loop_
_atom_site_type_symbol
_atom_site_label
_atom_site_fract_x
_atom_site_fract_y
_atom_site_fract_z
Si Si1 0.834372 0.827551 0.926708
Si Si2 0.089948 0.177333 0.420943
Si Si3 0.447905 0.828850 0.270032
Si Si4 0.575994 0.321370 0.581268
Si Si5 0.590321 0.176285 0.255033
Si Si6 0.817270 0.176326 0.075541
O O1 0.725288 0.805373 0.830561
O O2 0.787214 0.716981 0.939302
O O3 0.823369 0.000000 0.936886
O O4 0.000000 0.783201 0.000000
O O5 0.250000 0.250000 0.500000
O O6 0.988046 0.219644 0.328835
O O7 0.011030 0.238085 0.422637
O O8 0.109147 0.000000 0.432638
O O9 0.549420 0.786915 0.282278
O O10 0.479348 0.000000 0.300102
O O11 0.500000 0.255365 0.500000
O O12 0.573377 0.500000 0.578475
O O13 0.745060 0.264798 0.669668
O O14 0.483065 0.263290 0.167985
O O15 0.571475 0.000000 0.236733
O O16 0.823312 0.000000 0.072524
O O17 0.750000 0.250000 0.000000
#
# Coordination Sequence:
#
# PCOD8114646 Si02
#       6
#     8   8   8   8   8   8
#     4   9  19  37  59  82 110 145 183 223 272 327
#     4  11  22  35  54  79 106 137 175 219 266 318
#     4   9  18  34  56  79 106 139 172 213 266 320
#     4   9  18  34  56  79 103 136 178 219 260 311
#     4   9  18  36  59  79 103 139 182 223 266 316
#     4  11  22  36  55  80 112 147 185 227 272 323
#
# _framework density 18.842189999999999
#
# number of rings (size 3 to 8) (size 9 to 14) (size 15 to 20)
#    0.000    2.333    0.000    4.000    0.000    7.000 
#    0.000    5.000    0.000    3.500    0.000    0.000 
#    0.000    0.000    0.000    0.000    0.000    0.000 
#
# Total GULP energy -297646.208874 kJ/mol
# GULP energy per Si atom -12401.925370 kJ/mol
# Density = 1.879930 g / cm^3
# Si number density = 18.842190 Si / 1000 Ang^3
#
#
#
# Elastic Constant Matrix: (Units=GPa)
#
#
# Indices 1 2 3 4 5 6 
#
# 1 124.8420 42.9822 97.5265 -0.0001 9.9907 0.0001
# 2 42.9822 76.1901 55.6586 -0.0004 -5.7042 0.0005
# 3 97.5265 55.6586 166.5595 0.0000 8.4600 0.0001
# 4 -0.0001 -0.0004 0.0000 33.0703 0.0001 -4.3902
# 5 9.9907 -5.7042 8.4600 0.0001 43.1928 -0.0001
# 6 0.0001 0.0005 0.0001 -4.3902 -0.0001 27.3888
#
#
#
# Elastic Compliance Matrix: (Units=1/GPa)
#
#
# Indices 1 2 3 4 5 6 
#
# 1 0.015427 -0.003146 -0.007858 0.000000 -0.002445 0.000000
# 2 -0.003146 0.018534 -0.004558 0.000000 0.004068 0.000000
# 3 -0.007858 -0.004558 0.012188 0.000000 -0.001172 0.000000
# 4 0.000000 0.000000 0.000000 0.030896 0.000000 0.004952
# 5 -0.002445 0.004068 -0.001172 0.000000 0.024484 0.000000
# 6 0.000000 0.000000 0.000000 0.004952 0.000000 0.037305
#
#
# Mechanical properties :
#
#
# Convention : Reuss Voigt Hill
#
# Bulk Modulus (GPa) = 66.55390 84.43625 75.49507
# Shear Modulus (GPa) = 28.57682 32.15866 30.36774
#
# Velocity S-wave (km/s) = 3.89863 4.13575 4.01894
# Velocity P-wave (km/s) = 7.46084 8.22894 7.85429
#
# Compressibility (1/GPa) = 0.01502542
#
# Stress axis : x y z
#
# Youngs Moduli (GPa) = 64.81937 53.95429 82.05084
#
# Poissons Ratio (x) = 0.16974 0.64474
# Poissons Ratio (y) = 0.20392 0.37399
# Poissons Ratio (z) = 0.50934 0.24593
#
# Static dielectric constant tensor:
#      x y z
#    x 3.391020 0.000000 0.126580 
#    y 0.000000 3.249050 0.000000 
#    z 0.126580 0.000000 3.663730 
# 
# 
# High freq. dielectric constant tensor:
#      x y z
#    x 1.729360 0.000000 0.003610 
#    y 0.000000 1.711660 0.000000 
#    z 0.003610 0.000000 1.748430 
# 
# From -- ./inp_files/274023.got.cif
#   From: 2010.06.25/outbox.cif.g09.slc.cpg/sg12_138_cif.got.tgz:274023.got - 2010.06.28 00:19:55.
