data_PCOD8114591
_publ_section_title
;
Structure prediction by ZEFSAII (Michael W. Deem and Ramdas Pophale) SiO2 
 PCOD8114591
Probable space group: C 2/M
;
_chemical_formula_sum "Si O2"
_cell_formula_units_Z 56
_cell_length_a 28.054749
_cell_length_b 9.105246
_cell_length_c 18.526604
_cell_angle_alpha 90.000000
_cell_angle_beta 47.978330
_cell_angle_gamma 90.000000
_cell_volume 3515.761414
_symmetry_space_group_name_H-M "C 2/M"
_symmetry_group_IT_number 12
_symmetry_cell_setting 'monoclinic'
loop_
_space_group_symop_operation_xyz
x,y,z
-x,y,-z
-x,-y,-z
x,-y,z
1/2+x,1/2+y,z
1/2-x,1/2+y,-z
1/2-x,1/2-y,-z
1/2+x,1/2-y,z
loop_
_atom_site_type_symbol
_atom_site_label
_atom_site_fract_x
_atom_site_fract_y
_atom_site_fract_z
Si Si1 0.998510 0.325273 0.675922
Si Si2 0.368562 0.825182 0.532801
Si Si3 0.251391 0.326410 0.575410
Si Si4 0.434287 0.827954 0.604408
Si Si5 0.377144 0.829783 0.211109
Si Si6 0.432298 0.665803 0.028971
Si Si7 0.508193 0.827448 0.156244
O O1 0.996851 0.500000 0.679695
O O2 0.941677 0.265506 0.679138
O O3 0.985737 0.263336 0.768819
O O4 0.068923 0.278747 0.576678
O O5 0.309249 0.734564 0.563844
O O6 0.377568 0.773959 0.608268
O O7 0.356259 0.000000 0.538976
O O8 0.258225 0.500000 0.557859
O O9 0.250000 0.250000 0.500000
O O10 0.186313 0.284162 0.682214
O O11 0.500000 0.785417 0.500000
O O12 0.426602 0.000000 0.618164
O O13 0.379384 0.741769 0.133487
O O14 0.436966 0.788845 0.201286
O O15 0.378069 0.000000 0.189762
O O16 0.410543 0.500000 0.036155
O O17 0.500000 0.674775 0.000000
O O18 0.437864 0.749020 0.947008
O O19 0.521327 0.000000 0.139441
#
# Coordination Sequence:
#
# PCOD8114591 Si02
#       7
#     8   8   8   8   8   8   8
#     4   8  13  23  42  67  90 114 145 177 210 252
#     4   9  16  28  45  64  88 117 149 181 211 246
#     4  11  22  33  45  63  88 117 149 180 209 246
#     4   7  11  21  40  64  86 110 143 180 211 245
#     4   9  18  31  44  59  82 114 147 174 203 246
#     4   9  17  28  42  61  84 108 136 172 214 257
#     4   9  15  25  43  63  84 110 140 174 210 250
#
# _framework density 15.928269999999999
#
# number of rings (size 3 to 8) (size 9 to 14) (size 15 to 20)
#    0.000    3.143    0.000    3.429    0.000    5.143 
#    0.000    3.571    0.000    4.714    0.000    1.000 
#    0.000    0.000    0.000    0.000    0.000    0.000 
#
# Total GULP energy -346887.671827 kJ/mol
# GULP energy per Si atom -12388.845422 kJ/mol
# Density = 1.589202 g / cm^3
# Si number density = 15.928270 Si / 1000 Ang^3
#
#
#
# Elastic Constant Matrix: (Units=GPa)
#
#
# Indices 1 2 3 4 5 6 
#
# 1 115.8471 39.3907 67.5736 0.0005 23.5221 0.0002
# 2 39.3907 51.8957 50.5078 0.0028 7.6234 -0.0013
# 3 67.5736 50.5078 124.0687 0.0026 25.0544 -0.0007
# 4 0.0005 0.0028 0.0026 20.0536 -0.0004 -2.1680
# 5 23.5221 7.6234 25.0544 -0.0004 26.4766 -0.0004
# 6 0.0002 -0.0013 -0.0007 -2.1680 -0.0004 17.0860
#
#
#
# Elastic Compliance Matrix: (Units=1/GPa)
#
#
# Indices 1 2 3 4 5 6 
#
# 1 0.014496 -0.006107 -0.003911 0.000001 -0.007419 -0.000001
# 2 -0.006107 0.034805 -0.012257 -0.000003 0.007003 0.000002
# 3 -0.003911 -0.012257 0.017018 -0.000001 -0.009100 -0.000001
# 4 0.000001 -0.000003 -0.000001 0.050560 0.000001 0.006415
# 5 -0.007419 0.007003 -0.009100 0.000001 0.050955 0.000002
# 6 -0.000001 0.000002 -0.000001 0.006415 0.000002 0.059342
#
#
# Mechanical properties :
#
#
# Convention : Reuss Voigt Hill
#
# Bulk Modulus (GPa) = 45.93646 67.41732 56.67689
# Shear Modulus (GPa) = 17.92225 21.67919 19.80072
#
# Velocity S-wave (km/s) = 3.35802 3.69324 3.52961
# Velocity P-wave (km/s) = 6.62852 7.78487 7.22985
#
# Compressibility (1/GPa) = 0.02176920
#
# Stress axis : x y z
#
# Youngs Moduli (GPa) = 68.98303 28.73114 58.76269
#
# Poissons Ratio (x) = 0.17546 0.22982
# Poissons Ratio (y) = 0.42127 0.72026
# Poissons Ratio (z) = 0.26979 0.35216
#
# Static dielectric constant tensor:
#      x y z
#    x 3.277920 0.000000 0.360360 
#    y 0.000000 2.803360 0.000000 
#    z 0.360360 0.000000 3.088040 
# 
# 
# High freq. dielectric constant tensor:
#      x y z
#    x 1.600420 0.000000 0.025790 
#    y 0.000000 1.587460 0.000000 
#    z 0.025790 0.000000 1.597320 
# 
# From -- ./inp_files/291806.got.cif
#   From: 2010.06.25/outbox.cif.g09.slc.cpg/sg12_146_cif.got.tgz:291806.got - 2010.06.28 00:19:55.
