data_PCOD8114594
_publ_section_title
;
Structure prediction by ZEFSAII (Michael W. Deem and Ramdas Pophale) SiO2 
 PCOD8114594
Probable space group: C 2/M
;
_chemical_formula_sum "Si O2"
_cell_formula_units_Z 48
_cell_length_a 14.263157
_cell_length_b 9.147026
_cell_length_c 20.503409
_cell_angle_alpha 90.000000
_cell_angle_beta 109.764676
_cell_angle_gamma 90.000000
_cell_volume 2517.401846
_symmetry_space_group_name_H-M "C 2/M"
_symmetry_group_IT_number 12
_symmetry_cell_setting 'monoclinic'
loop_
_space_group_symop_operation_xyz
x,y,z
-x,y,-z
-x,-y,-z
x,-y,z
1/2+x,1/2+y,z
1/2-x,1/2+y,-z
1/2-x,1/2-y,-z
1/2+x,1/2-y,z
loop_
_atom_site_type_symbol
_atom_site_label
_atom_site_fract_x
_atom_site_fract_y
_atom_site_fract_z
Si Si1 0.554454 0.670881 0.611695
Si Si2 0.151587 0.169849 0.499353
Si Si3 0.506155 0.672257 0.161523
Si Si4 0.595672 0.173793 0.753491
Si Si5 0.705671 0.327066 0.132977
Si Si6 0.097476 0.826638 0.986996
O O1 0.560800 0.500000 0.630959
O O2 0.626173 0.708462 0.568035
O O3 0.441203 0.715208 0.567967
O O4 0.591989 0.769035 0.679495
O O5 0.250000 0.250000 0.500000
O O6 0.172158 0.000000 0.496893
O O7 0.502967 0.500000 0.175534
O O8 0.495891 0.761053 0.226338
O O9 0.610699 0.718144 0.154094
O O10 0.413581 0.720859 0.091440
O O11 0.695928 0.237946 0.810631
O O12 0.590226 0.000000 0.751578
O O13 0.715359 0.500000 0.134117
O O14 0.691147 0.270038 0.053558
O O15 0.096347 0.000000 0.989482
O O16 0.000000 0.765952 0.000000
#
# Coordination Sequence:
#
# PCOD8114594 Si02
#       6
#     8   8   8   8   8   8
#     4   9  20  39  56  75 107 140 168 199 240 299
#     4   9  19  37  62  85 104 131 166 204 246 292
#     4   9  17  32  53  72  94 132 177 215 256 308
#     4  11  22  33  48  75 108 137 166 208 257 297
#     4   8  16  31  49  70  98 132 172 215 257 303
#     4   7  11  24  48  71  89 121 173 220 252 296
#
# _framework density 19.067278000000002
#
# number of rings (size 3 to 8) (size 9 to 14) (size 15 to 20)
#    0.000    3.167    0.000    3.500    0.000    3.333 
#    0.000    8.333    0.000    5.500    0.000    0.000 
#    0.000    0.000    0.000    0.000    0.000    0.000 
#
# Total GULP energy -297326.055732 kJ/mol
# GULP energy per Si atom -12388.585656 kJ/mol
# Density = 1.902388 g / cm^3
# Si number density = 19.067278 Si / 1000 Ang^3
#
#
#
# Elastic Constant Matrix: (Units=GPa)
#
#
# Indices 1 2 3 4 5 6 
#
# 1 78.2460 29.1099 35.2941 0.0000 -1.0275 0.0000
# 2 29.1099 45.0756 37.7646 0.0000 -5.1124 0.0000
# 3 35.2941 37.7646 114.7420 0.0000 -6.2245 0.0000
# 4 0.0000 0.0000 0.0000 28.3404 0.0000 -0.1514
# 5 -1.0275 -5.1124 -6.2245 0.0000 22.3716 0.0000
# 6 0.0000 0.0000 0.0000 -0.1514 0.0000 23.8748
#
#
#
# Elastic Compliance Matrix: (Units=1/GPa)
#
#
# Indices 1 2 3 4 5 6 
#
# 1 0.017325 -0.009473 -0.002321 0.000000 -0.002015 0.000000
# 2 -0.009473 0.036216 -0.008712 0.000000 0.005417 0.000000
# 3 -0.002321 -0.008712 0.012369 0.000000 0.001344 0.000000
# 4 0.000000 0.000000 0.000000 0.035287 0.000000 0.000224
# 5 -0.002015 0.005417 0.001344 0.000000 0.046219 0.000000
# 6 0.000000 0.000000 0.000000 0.000224 0.000000 0.041887
#
#
# Mechanical properties :
#
#
# Convention : Reuss Voigt Hill
#
# Bulk Modulus (GPa) = 40.16172 49.15565 44.65869
# Shear Modulus (GPa) = 20.95457 23.97702 22.46580
#
# Velocity S-wave (km/s) = 3.31868 3.54997 3.43627
# Velocity P-wave (km/s) = 5.98279 6.52986 6.26230
#
# Compressibility (1/GPa) = 0.02489933
#
# Stress axis : x y z
#
# Youngs Moduli (GPa) = 57.72153 27.61236 80.84563
#
# Poissons Ratio (x) = 0.26156 0.18761
# Poissons Ratio (y) = 0.54677 0.70432
# Poissons Ratio (z) = 0.13395 0.24056
#
# Static dielectric constant tensor:
#      x y z
#    x 3.954670 0.000000 0.248530 
#    y 0.000000 3.028110 0.000000 
#    z 0.248530 0.000000 3.810840 
# 
# 
# High freq. dielectric constant tensor:
#      x y z
#    x 1.735660 0.000000 0.000060 
#    y 0.000000 1.703390 0.000000 
#    z 0.000060 0.000000 1.753260 
# 
# From -- ./inp_files/308578.got.cif
#   From: 2010.06.25/outbox.cif.g09.slc.cpg/sg12_155_cif.got.tgz:308578.got - 2010.06.28 00:19:55.
