data_PCOD8114538
_publ_section_title
;
Structure prediction by ZEFSAII (Michael W. Deem and Ramdas Pophale) SiO2 
 PCOD8114538
Probable space group: C 2/M
;
_chemical_formula_sum "Si O2"
_cell_formula_units_Z 32
_cell_length_a 13.125565
_cell_length_b 18.416212
_cell_length_c 11.375155
_cell_angle_alpha 90.000000
_cell_angle_beta 148.705955
_cell_angle_gamma 90.000000
_cell_volume 1428.245673
_symmetry_space_group_name_H-M "C 2/M"
_symmetry_group_IT_number 12
_symmetry_cell_setting 'monoclinic'
loop_
_space_group_symop_operation_xyz
x,y,z
-x,y,-z
-x,-y,-z
x,-y,z
1/2+x,1/2+y,z
1/2-x,1/2+y,-z
1/2-x,1/2-y,-z
1/2+x,1/2-y,z
loop_
_atom_site_type_symbol
_atom_site_label
_atom_site_fract_x
_atom_site_fract_y
_atom_site_fract_z
Si Si1 0.717701 0.313251 0.762914
Si Si2 0.086055 0.084304 0.827360
Si Si3 0.304612 0.170396 0.594539
Si Si4 0.138122 0.343371 0.746655
O O1 0.500000 0.306985 0.500000
O O2 0.722269 0.376542 0.863681
O O3 0.855152 0.330045 0.784712
O O4 0.754625 0.233252 0.853315
O O5 0.865475 0.114457 0.608411
O O6 0.077851 0.000000 0.789915
O O7 0.187658 0.098622 0.055384
O O8 0.250000 0.250000 0.500000
O O9 0.504522 0.149968 0.729856
O O10 0.000000 0.363227 0.500000
#
# Coordination Sequence:
#
# PCOD8114538 Si02
#       4
#     8   8   8   8
#     4   9  19  38  65  95 120 163 214 268 310 371
#     4  11  25  42  63  97 134 168 210 265 326 379
#     4  11  21  41  68  97 122 168 217 265 319 375
#     4  11  22  42  65  92 129 171 220 263 309 379
#
# _framework density 22.405107999999998
#
# number of rings (size 3 to 8) (size 9 to 14) (size 15 to 20)
#    0.000    1.500    7.500    0.750    0.000    8.000 
#    0.000    2.500    0.000    0.000    0.000    0.000 
#    0.000    0.000    0.000    0.000    0.000    0.000 
#
# Total GULP energy -198304.959322 kJ/mol
# GULP energy per Si atom -12394.059958 kJ/mol
# Density = 2.235411 g / cm^3
# Si number density = 22.405108 Si / 1000 Ang^3
#
#
#
# Elastic Constant Matrix: (Units=GPa)
#
#
# Indices 1 2 3 4 5 6 
#
# 1 116.4181 35.2325 19.2308 0.0000 4.4581 0.0000
# 2 35.2325 126.1729 61.0220 0.0000 -18.4131 0.0000
# 3 19.2308 61.0220 98.3239 0.0000 -15.3530 0.0000
# 4 0.0000 0.0000 0.0000 29.4589 0.0000 -1.5333
# 5 4.4581 -18.4131 -15.3530 0.0000 9.3886 0.0000
# 6 0.0000 0.0000 0.0000 -1.5333 0.0000 10.0057
#
#
#
# Elastic Compliance Matrix: (Units=1/GPa)
#
#
# Indices 1 2 3 4 5 6 
#
# 1 0.011020 -0.004691 -0.002011 0.000000 -0.017721 0.000000
# 2 -0.004691 0.014982 -0.004626 0.000000 0.024045 0.000000
# 3 -0.002011 -0.004626 0.016340 0.000000 0.018602 0.000000
# 4 0.000000 0.000000 0.000000 0.034218 0.000000 0.005244
# 5 -0.017721 0.024045 0.018602 0.000000 0.192503 -0.000001
# 6 0.000000 0.000000 0.000000 0.005244 -0.000001 0.100746
#
#
# Mechanical properties :
#
#
# Convention : Reuss Voigt Hill
#
# Bulk Modulus (GPa) = 50.79935 63.54284 57.17109
# Shear Modulus (GPa) = 12.53045 24.79930 18.66487
#
# Velocity S-wave (km/s) = 2.36745 3.33056 2.88941
# Velocity P-wave (km/s) = 5.49504 6.57363 6.05838
#
# Compressibility (1/GPa) = 0.01968529
#
# Stress axis : x y z
#
# Youngs Moduli (GPa) = 90.74276 66.74765 61.20109
#
# Poissons Ratio (x) = 0.31309 0.12310
# Poissons Ratio (y) = 0.42564 0.28312
# Poissons Ratio (z) = 0.18252 0.30878
#
# Static dielectric constant tensor:
#      x y z
#    x -10.127950 0.000000 -0.075550 
#    y 0.000000 3.693000 0.000000 
#    z -0.075550 0.000000 4.626810 
# 
# 
# High freq. dielectric constant tensor:
#      x y z
#    x 1.883950 0.000000 -0.005370 
#    y 0.000000 1.843850 0.000000 
#    z -0.005370 0.000000 1.911490 
# 
# From -- ./inp_files/58231.got.cif
#   From: 2010.06.25/outbox.cif.g09.slc.cpg/sg12_30_cif.got.tgz:58231.got - 2010.06.28 00:19:55.
