data_PCOD8114143
_publ_section_title
;
Structure prediction by ZEFSAII (Michael W. Deem and Ramdas Pophale) SiO2 
 PCOD8114143
Probable space group: C 2/M
;
_chemical_formula_sum "Si O2"
_cell_formula_units_Z 40
_cell_length_a 18.533850
_cell_length_b 8.950297
_cell_length_c 16.242157
_cell_angle_alpha 90.000000
_cell_angle_beta 52.489175
_cell_angle_gamma 90.000000
_cell_volume 2137.226135
_symmetry_space_group_name_H-M "C 2/M"
_symmetry_group_IT_number 12
_symmetry_cell_setting 'monoclinic'
loop_
_space_group_symop_operation_xyz
x,y,z
-x,y,-z
-x,-y,-z
x,-y,z
1/2+x,1/2+y,z
1/2-x,1/2+y,-z
1/2-x,1/2-y,-z
1/2+x,1/2-y,z
loop_
_atom_site_type_symbol
_atom_site_label
_atom_site_fract_x
_atom_site_fract_y
_atom_site_fract_z
Si Si1 0.324878 0.673900 0.189970
Si Si2 0.387819 0.334375 0.387220
Si Si3 0.517606 0.822921 0.821819
Si Si4 0.671545 0.674854 0.002522
Si Si5 0.298139 0.835155 0.583206
O O1 0.347921 0.500000 0.192217
O O2 0.410365 0.770933 0.159786
O O3 0.305001 0.703643 0.108954
O O4 0.233923 0.721175 0.304068
O O5 0.430175 0.500000 0.364269
O O6 0.455117 0.228993 0.288855
O O7 0.373880 0.271456 0.489658
O O8 0.291198 0.340021 0.410546
O O9 0.510121 0.000000 0.828277
O O10 0.422284 0.751834 0.910552
O O11 0.665524 0.500000 0.026767
O O12 0.750000 0.750000 0.000000
O O13 0.341429 0.000000 0.559107
#
# Coordination Sequence:
#
# PCOD8114143 Si02
#       5
#     8   8   8   8   8
#     4   9  19  35  55  78 106 139 172 211 259 308
#     4   9  16  27  45  72 105 137 167 205 255 304
#     4  11  21  33  53  80 107 137 175 216 256 302
#     4  11  23  39  56  75 103 138 175 215 262 312
#     4   8  14  26  45  72 103 133 166 204 250 304
#
# _framework density 18.715848999999999
#
# number of rings (size 3 to 8) (size 9 to 14) (size 15 to 20)
#    0.000    2.400    0.000    4.800    0.000    8.800 
#    0.000    0.000    0.000    1.200    0.000    8.400 
#    0.000    0.000    0.000    0.000    0.000    0.000 
#
# Total GULP energy -247948.677525 kJ/mol
# GULP energy per Si atom -12397.433876 kJ/mol
# Density = 1.867325 g / cm^3
# Si number density = 18.715849 Si / 1000 Ang^3
#
#
#
# Elastic Constant Matrix: (Units=GPa)
#
#
# Indices 1 2 3 4 5 6 
#
# 1 58.7275 52.3022 56.3811 0.0000 19.0670 0.0000
# 2 52.3022 145.5784 76.3801 0.0000 14.9743 0.0001
# 3 56.3811 76.3801 141.5751 0.0000 34.0769 0.0000
# 4 0.0000 0.0000 0.0000 35.7848 0.0000 -0.3969
# 5 19.0670 14.9743 34.0769 0.0000 4.9827 0.0000
# 6 0.0000 0.0001 0.0000 -0.3969 0.0000 22.1296
#
#
#
# Elastic Compliance Matrix: (Units=1/GPa)
#
#
# Indices 1 2 3 4 5 6 
#
# 1 0.023112 -0.003438 -0.017723 0.000000 0.043096 0.000000
# 2 -0.003438 0.009772 0.000001 0.000000 -0.016220 0.000000
# 3 -0.017723 0.000001 0.003408 0.000000 0.044506 0.000000
# 4 0.000000 0.000000 0.000000 0.027950 0.000000 0.000501
# 5 0.043096 -0.016220 0.044506 0.000000 -0.219851 0.000000
# 6 0.000000 0.000000 0.000000 0.000501 0.000000 0.045197
#
#
# Mechanical properties :
#
#
# Convention : Reuss Voigt Hill
#
# Bulk Modulus (GPa) = -165.93366 79.55642 -43.18862
# Shear Modulus (GPa) = -71.32620 23.30059 -24.01280
#
# Velocity S-wave (km/s) = -6.18003 3.53223 -3.58581
# Velocity P-wave (km/s) = 11.82267 7.69645 6.34587
#
# Compressibility (1/GPa) = -0.00602650
#
# Stress axis : x y z
#
# Youngs Moduli (GPa) = 43.26733 102.33218 293.40865
#
# Poissons Ratio (x) = 0.35182 5.19998
# Poissons Ratio (y) = 0.14875 -0.00035
# Poissons Ratio (z) = 0.76681 -0.00012
#
# Static dielectric constant tensor:
#      x y z
#    x 2.888310 0.000000 0.309090 
#    y 0.000000 3.614210 0.000000 
#    z 0.309090 0.000000 3.934500 
# 
# 
# High freq. dielectric constant tensor:
#      x y z
#    x 1.670070 0.000000 0.015950 
#    y 0.000000 1.734790 0.000000 
#    z 0.015950 0.000000 1.748310 
# 
# From -- ./inp_files/220549.got.cif
#   From: 2010.06.25/outbox.cif.g09.slc.cpg/sg12_111_cif.got.tgz:220549.got - 2010.06.28 00:19:55.
