data_PCOD8114463
_publ_section_title
;
Structure prediction by ZEFSAII (Michael W. Deem and Ramdas Pophale) SiO2 
 PCOD8114463
Probable space group: C 2/M
;
_chemical_formula_sum "Si O2"
_cell_formula_units_Z 64
_cell_length_a 9.071636
_cell_length_b 18.656157
_cell_length_c 28.802480
_cell_angle_alpha 90.000000
_cell_angle_beta 39.804682
_cell_angle_gamma 90.000000
_cell_volume 3120.575447
_symmetry_space_group_name_H-M "C 2/M"
_symmetry_group_IT_number 12
_symmetry_cell_setting 'monoclinic'
loop_
_space_group_symop_operation_xyz
x,y,z
-x,y,-z
-x,-y,-z
x,-y,z
1/2+x,1/2+y,z
1/2-x,1/2+y,-z
1/2-x,1/2-y,-z
1/2+x,1/2-y,z
loop_
_atom_site_type_symbol
_atom_site_label
_atom_site_fract_x
_atom_site_fract_y
_atom_site_fract_z
Si Si1 0.046755 0.189110 0.709246
Si Si2 0.923660 0.583379 0.735274
Si Si3 0.122459 0.420863 0.019643
Si Si4 0.566966 0.916540 0.375305
Si Si5 0.007994 0.161313 0.885231
Si Si6 0.323427 0.324493 0.669211
Si Si7 0.699961 0.826143 0.490070
Si Si8 0.208694 0.696873 0.874171
O O1 0.192282 0.117065 0.666125
O O2 0.222211 0.256213 0.666129
O O3 0.861258 0.199145 0.713298
O O4 0.912680 0.181807 0.789326
O O5 0.886596 0.500000 0.753579
O O6 0.969844 0.599847 0.670059
O O7 0.698468 0.624399 0.807041
O O8 0.143568 0.610345 0.710896
O O9 0.122494 0.500000 0.043172
O O10 0.986328 0.364350 0.085072
O O11 0.387277 0.395824 0.948695
O O12 0.000000 0.426590 0.000000
O O13 0.359352 0.881808 0.454697
O O14 0.575174 0.000000 0.384427
O O15 0.111874 0.223868 0.891214
O O16 0.810016 0.195441 0.901217
O O17 0.563461 0.352465 0.590327
O O18 0.500000 0.821829 0.500000
O O19 0.750000 0.750000 0.500000
#
# Coordination Sequence:
#
# PCOD8114463 Si02
#       8
#     8   8   8   8   8   8   8   8
#     4  12  22  41  65  95 126 167 206 268 313 377
#     4  11  25  43  65  93 128 169 212 263 321 380
#     4   9  20  38  61  92 128 168 213 257 312 375
#     4  11  25  43  64  94 126 165 212 262 322 378
#     4  11  21  39  65  95 128 167 212 263 314 372
#     4  12  24  41  67  93 127 162 217 257 319 381
#     4  12  25  42  67  93 124 167 209 264 319 379
#     4  11  22  36  67  95 124 164 215 261 313 373
#
# _framework density 20.509038
#
# number of rings (size 3 to 8) (size 9 to 14) (size 15 to 20)
#    0.000    0.875    5.000    2.250    1.750    2.250 
#    0.000    1.250    0.000    0.750    0.000    0.000 
#    0.000    0.000    0.000    0.000    0.000    0.000 
#
# Total GULP energy -396917.348310 kJ/mol
# GULP energy per Si atom -12403.667135 kJ/mol
# Density = 2.046236 g / cm^3
# Si number density = 20.509038 Si / 1000 Ang^3
#
#
#
# Elastic Constant Matrix: (Units=GPa)
#
#
# Indices 1 2 3 4 5 6 
#
# 1 95.9916 42.6913 15.3583 0.0028 -11.2718 0.0001
# 2 42.6913 149.3826 48.2190 0.0136 -8.5730 -0.0016
# 3 15.3583 48.2190 109.5875 0.0179 -24.8932 -0.0083
# 4 0.0028 0.0136 0.0179 39.8076 -0.0056 -0.3538
# 5 -11.2718 -8.5730 -24.8932 -0.0056 19.5073 0.0029
# 6 0.0001 -0.0016 -0.0083 -0.3538 0.0029 26.5654
#
#
#
# Elastic Compliance Matrix: (Units=1/GPa)
#
#
# Indices 1 2 3 4 5 6 
#
# 1 0.012724 -0.003712 0.001619 0.000001 0.007787 -0.000001
# 2 -0.003712 0.008910 -0.004222 -0.000001 -0.003616 0.000000
# 3 0.001619 -0.004222 0.014852 -0.000003 0.018033 0.000002
# 4 0.000001 -0.000001 -0.000003 0.025124 0.000003 0.000335
# 5 0.007787 -0.003616 0.018033 0.000003 0.077184 -0.000003
# 6 -0.000001 0.000000 0.000002 0.000335 -0.000003 0.037647
#
#
# Mechanical properties :
#
#
# Convention : Reuss Voigt Hill
#
# Bulk Modulus (GPa) = 41.91784 63.05542 52.48663
# Shear Modulus (GPa) = 25.37773 33.75561 29.56667
#
# Velocity S-wave (km/s) = 3.52148 4.06136 3.80101
# Velocity P-wave (km/s) = 6.08420 7.26669 6.70158
#
# Compressibility (1/GPa) = 0.02385619
#
# Stress axis : x y z
#
# Youngs Moduli (GPa) = 78.59314 112.23039 67.33081
#
# Poissons Ratio (x) = 0.41659 -0.10900
# Poissons Ratio (y) = 0.29173 0.28426
# Poissons Ratio (z) = -0.12723 0.47382
#
# Static dielectric constant tensor:
#      x y z
#    x 3.729520 -0.000020 -0.162540 
#    y -0.000020 3.817140 0.000030 
#    z -0.162540 0.000030 3.998480 
# 
# 
# High freq. dielectric constant tensor:
#      x y z
#    x 1.790010 0.000000 -0.008010 
#    y 0.000000 1.803140 0.000000 
#    z -0.008010 0.000000 1.816150 
# 
# From -- ./inp_files/372884.got.cif
#   From: 2010.06.25/outbox.cif.g09.slc.cpg/sg12_187_cif.got.tgz:372884.got - 2010.06.28 00:19:55.
