data_PCOD8114729
_publ_section_title
;
Structure prediction by ZEFSAII (Michael W. Deem and Ramdas Pophale) SiO2 
 PCOD8114729
Probable space group: C 2/M
;
_chemical_formula_sum "Si O2"
_cell_formula_units_Z 48
_cell_length_a 14.041417
_cell_length_b 21.393654
_cell_length_c 12.894702
_cell_angle_alpha 90.000000
_cell_angle_beta 143.537613
_cell_angle_gamma 90.000000
_cell_volume 2302.020860
_symmetry_space_group_name_H-M "C 2/M"
_symmetry_group_IT_number 12
_symmetry_cell_setting 'monoclinic'
loop_
_space_group_symop_operation_xyz
x,y,z
-x,y,-z
-x,-y,-z
x,-y,z
1/2+x,1/2+y,z
1/2-x,1/2+y,-z
1/2-x,1/2-y,-z
1/2+x,1/2-y,z
loop_
_atom_site_type_symbol
_atom_site_label
_atom_site_fract_x
_atom_site_fract_y
_atom_site_fract_z
Si Si1 0.157206 0.605290 0.595738
Si Si2 0.445786 0.336553 0.337234
Si Si3 0.390183 0.207633 0.005133
Si Si4 0.030824 0.929815 0.241632
Si Si5 0.649726 0.656706 0.060018
Si Si6 0.585651 0.214505 0.377767
O O1 0.304947 0.564494 0.682322
O O2 0.199024 0.642652 0.737089
O O3 0.115337 0.653831 0.470625
O O4 0.000000 0.566771 0.500000
O O5 0.500000 0.355057 0.500000
O O6 0.548125 0.384617 0.355796
O O7 0.481744 0.264212 0.349578
O O8 0.254510 0.341407 0.145354
O O9 0.497989 0.188113 0.197826
O O10 0.500000 0.208128 0.000000
O O11 0.322900 0.277674 0.975504
O O12 0.984366 0.000000 0.235047
O O13 0.886065 0.901195 0.047362
O O14 0.500000 0.669301 0.000000
O O15 0.750000 0.250000 0.500000
#
# Coordination Sequence:
#
# PCOD8114729 Si02
#       6
#     8   8   8   8   8   8
#     4  11  23  37  65  93 128 159 204 266 325 380
#     4  12  24  40  65  95 129 169 209 257 317 379
#     4  11  22  36  64 100 129 161 203 259 327 386
#     4  11  25  44  64  86 122 174 221 258 305 374
#     4   9  18  38  59  89 123 159 196 250 317 380
#     4  12  20  37  63  99 135 164 197 257 329 388
#
# _framework density 20.851244000000001
#
# number of rings (size 3 to 8) (size 9 to 14) (size 15 to 20)
#    0.000    1.000    3.333    6.000    2.333    3.667 
#    0.000    0.000    0.000    0.500    0.000    0.000 
#    0.000    0.000    0.000    0.000    0.000    0.000 
#
# Total GULP energy -297384.451028 kJ/mol
# GULP energy per Si atom -12391.018793 kJ/mol
# Density = 2.080379 g / cm^3
# Si number density = 20.851244 Si / 1000 Ang^3
#
#
#
# Elastic Constant Matrix: (Units=GPa)
#
#
# Indices 1 2 3 4 5 6 
#
# 1 68.5467 12.3748 35.3238 0.0000 5.6686 0.0000
# 2 12.3748 81.9394 21.7564 0.0000 -9.5429 0.0000
# 3 35.3238 21.7564 160.2346 0.0000 -15.9558 0.0000
# 4 0.0000 0.0000 0.0000 10.8677 0.0000 7.0399
# 5 5.6686 -9.5429 -15.9558 0.0000 42.6499 0.0000
# 6 0.0000 0.0000 0.0000 7.0399 0.0000 16.7850
#
#
#
# Elastic Compliance Matrix: (Units=1/GPa)
#
#
# Indices 1 2 3 4 5 6 
#
# 1 0.017359 -0.002063 -0.003970 0.000000 -0.004254 0.000000
# 2 -0.002063 0.013122 -0.001046 0.000000 0.002819 0.000000
# 3 -0.003970 -0.001046 0.007569 0.000000 0.003125 0.000000
# 4 0.000000 0.000000 0.000000 0.126342 0.000000 -0.052990
# 5 -0.004254 0.002819 0.003125 0.000000 0.025812 0.000000
# 6 0.000000 0.000000 0.000000 -0.052990 0.000000 0.081802
#
#
# Mechanical properties :
#
#
# Convention : Reuss Voigt Hill
#
# Bulk Modulus (GPa) = 41.85633 49.95895 45.90764
# Shear Modulus (GPa) = 16.99940 30.14490 23.57215
#
# Velocity S-wave (km/s) = 2.85839 3.80638 3.36593
# Velocity P-wave (km/s) = 5.56877 6.58253 6.09676
#
# Compressibility (1/GPa) = 0.02389125
#
# Stress axis : x y z
#
# Youngs Moduli (GPa) = 57.60775 76.20941 132.11142
#
# Poissons Ratio (x) = 0.15721 0.52452
# Poissons Ratio (y) = 0.11884 0.13822
# Poissons Ratio (z) = 0.22872 0.07973
#
# Static dielectric constant tensor:
#      x y z
#    x 0.495130 0.000000 -4.381560 
#    y 0.000000 3.320000 0.000000 
#    z -4.381560 0.000000 -1.818430 
# 
# 
# High freq. dielectric constant tensor:
#      x y z
#    x 1.829370 0.000000 0.003270 
#    y 0.000000 1.768340 0.000000 
#    z 0.003270 0.000000 1.833320 
# 
# From -- ./inp_files/148006.got.cif
#   From: 2010.06.25/outbox.cif.g09.slc.cpg/sg12_75_cif.got.tgz:148006.got - 2010.06.28 00:19:55.
