data_PCOD8114120
_publ_section_title
;
Structure prediction by ZEFSAII (Michael W. Deem and Ramdas Pophale) SiO2 
 PCOD8114120
Probable space group: C 2/M
;
_chemical_formula_sum "Si O2"
_cell_formula_units_Z 32
_cell_length_a 19.329260
_cell_length_b 8.969682
_cell_length_c 25.967973
_cell_angle_alpha 90.000000
_cell_angle_beta 156.488234
_cell_angle_gamma 90.000000
_cell_volume 1796.118807
_symmetry_space_group_name_H-M "C 2/M"
_symmetry_group_IT_number 12
_symmetry_cell_setting 'monoclinic'
loop_
_space_group_symop_operation_xyz
x,y,z
-x,y,-z
-x,-y,-z
x,-y,z
1/2+x,1/2+y,z
1/2-x,1/2+y,-z
1/2-x,1/2-y,-z
1/2+x,1/2-y,z
loop_
_atom_site_type_symbol
_atom_site_label
_atom_site_fract_x
_atom_site_fract_y
_atom_site_fract_z
Si Si1 0.336846 0.334485 0.633798
Si Si2 0.472385 0.335615 0.610687
Si Si3 0.667307 0.823032 0.893894
Si Si4 0.687174 0.824626 0.106606
O O1 0.339853 0.500000 0.660066
O O2 0.392963 0.340045 0.613221
O O3 0.139663 0.272479 0.502427
O O4 0.467150 0.228556 0.753993
O O5 0.464720 0.500000 0.580670
O O6 0.672246 0.282430 0.753042
O O7 0.777857 0.770100 0.920416
O O8 0.673329 0.000000 0.902077
O O9 0.750000 0.750000 0.000000
O O10 0.702671 0.000000 0.103480
O O11 0.500000 0.780930 0.000000
#
# Coordination Sequence:
#
# PCOD8114120 Si02
#       4
#     8   8   8   8
#     4   9  16  27  44  67  94 123 158 199 241 282
#     4   8  14  25  43  68  95 123 156 194 236 281
#     4  11  21  33  50  72  99 129 163 201 243 289
#     4   9  18  33  52  74 101 131 162 197 239 288
#
# _framework density 17.816192999999998
#
# number of rings (size 3 to 8) (size 9 to 14) (size 15 to 20)
#    0.000    2.750    0.000    4.500    0.000    6.500 
#    0.000    0.000    0.000    1.500    0.000   10.500 
#    0.000    0.000    0.000    0.000    0.000    0.000 
#
# Total GULP energy -198321.082864 kJ/mol
# GULP energy per Si atom -12395.067679 kJ/mol
# Density = 1.777564 g / cm^3
# Si number density = 17.816193 Si / 1000 Ang^3
#
#
#
# Elastic Constant Matrix: (Units=GPa)
#
#
# Indices 1 2 3 4 5 6 
#
# 1 33.9492 40.3970 53.6252 -0.0004 2.9554 -0.0006
# 2 40.3970 142.3058 81.9117 -0.0010 -2.6610 0.0026
# 3 53.6252 81.9117 177.6549 -0.0063 15.8474 0.0021
# 4 -0.0004 -0.0010 -0.0063 34.6521 0.0020 -3.0475
# 5 2.9554 -2.6610 15.8474 0.0020 25.5206 0.0001
# 6 -0.0006 0.0026 0.0021 -3.0475 0.0001 18.3908
#
#
#
# Elastic Compliance Matrix: (Units=1/GPa)
#
#
# Indices 1 2 3 4 5 6 
#
# 1 0.064901 -0.009640 -0.015229 -0.000002 0.000936 0.000005
# 2 -0.009640 0.011390 -0.002697 -0.000001 0.003979 -0.000002
# 3 -0.015229 -0.002697 0.012002 0.000002 -0.005970 -0.000001
# 4 -0.000002 -0.000001 0.000002 0.029285 -0.000003 0.004853
# 5 0.000936 0.003979 -0.005970 -0.000003 0.043198 -0.000001
# 6 0.000005 -0.000002 -0.000001 0.004853 -0.000001 0.055179
#
#
# Mechanical properties :
#
#
# Convention : Reuss Voigt Hill
#
# Bulk Modulus (GPa) = 30.15606 78.41974 54.28790
# Shear Modulus (GPa) = 17.72166 27.57778 22.64972
#
# Velocity S-wave (km/s) = 3.15730 3.93861 3.56940
# Velocity P-wave (km/s) = 5.50039 8.04954 6.89382
#
# Compressibility (1/GPa) = 0.03316083
#
# Stress axis : x y z
#
# Youngs Moduli (GPa) = 15.40815 87.79284 83.32154
#
# Poissons Ratio (x) = 0.84636 1.26889
# Poissons Ratio (y) = 0.14854 0.22470
# Poissons Ratio (z) = 0.23465 0.23676
#
# Static dielectric constant tensor:
#      x y z
#    x 2.755710 0.000000 0.152220 
#    y 0.000000 3.504370 0.000000 
#    z 0.152220 0.000000 3.794010 
# 
# 
# High freq. dielectric constant tensor:
#      x y z
#    x 1.620100 0.000000 0.006350 
#    y 0.000000 1.695620 0.000000 
#    z 0.006350 0.000000 1.711950 
# 
# From -- ./inp_files/138627.got.cif
#   From: 2010.06.25/outbox.cif.g09.slc.cpg/sg12_70_cif.got.tgz:138627.got - 2010.06.28 00:19:55.
