data_PCOD8114488
_publ_section_title
;
Structure prediction by ZEFSAII (Michael W. Deem and Ramdas Pophale) SiO2 
 PCOD8114488
Probable space group: C 2/M
;
_chemical_formula_sum "Si O2"
_cell_formula_units_Z 40
_cell_length_a 15.535545
_cell_length_b 21.047344
_cell_length_c 10.114591
_cell_angle_alpha 90.000000
_cell_angle_beta 33.959201
_cell_angle_gamma 90.000000
_cell_volume 1847.459532
_symmetry_space_group_name_H-M "C 2/M"
_symmetry_group_IT_number 12
_symmetry_cell_setting 'monoclinic'
loop_
_space_group_symop_operation_xyz
x,y,z
-x,y,-z
-x,-y,-z
x,-y,z
1/2+x,1/2+y,z
1/2-x,1/2+y,-z
1/2-x,1/2-y,-z
1/2+x,1/2-y,z
loop_
_atom_site_type_symbol
_atom_site_label
_atom_site_fract_x
_atom_site_fract_y
_atom_site_fract_z
Si Si1 0.871175 0.573150 0.322044
Si Si2 0.334394 0.317842 0.915980
Si Si3 0.807956 0.634012 0.148558
Si Si4 0.646885 0.867956 0.387203
Si Si5 0.658740 0.737091 0.485448
O O1 0.920584 0.500000 0.253937
O O2 0.761610 0.589171 0.334641
O O3 0.796401 0.588803 0.560636
O O4 0.018891 0.618843 0.117215
O O5 0.299226 0.369640 0.844571
O O6 0.517608 0.310649 0.688511
O O7 0.250000 0.250000 0.000000
O O8 0.287772 0.354161 0.109918
O O9 0.785323 0.706959 0.224941
O O10 0.500000 0.899984 0.500000
O O11 0.585587 0.800895 0.520530
O O12 0.750000 0.750000 0.500000
#
# Coordination Sequence:
#
# PCOD8114488 Si02
#       5
#     8   8   8   8   8
#     4  11  25  44  69  96 130 183 244 283 317 396
#     4  12  23  38  64  99 146 172 212 270 351 419
#     4  11  21  40  65  93 132 170 224 274 339 385
#     4  12  22  41  64 100 136 174 218 277 344 403
#     4  12  24  39  67 104 139 176 213 277 349 421
#
# _framework density 21.651353
#
# number of rings (size 3 to 8) (size 9 to 14) (size 15 to 20)
#    0.000    0.400    8.000    1.800    2.800    1.200 
#    0.000    0.000    0.000   13.200    0.000    0.000 
#    0.000    0.000    0.000    0.000    0.000    0.000 
#
# Total GULP energy -247794.818246 kJ/mol
# GULP energy per Si atom -12389.740912 kJ/mol
# Density = 2.160207 g / cm^3
# Si number density = 21.651353 Si / 1000 Ang^3
#
#
#
# Elastic Constant Matrix: (Units=GPa)
#
#
# Indices 1 2 3 4 5 6 
#
# 1 165.2454 36.8660 65.8656 0.0044 26.5926 -0.0016
# 2 36.8660 71.9812 34.7080 0.0019 5.6021 -0.0001
# 3 65.8656 34.7080 87.2945 0.0059 13.4726 -0.0041
# 4 0.0044 0.0019 0.0059 17.4094 -0.0044 4.7995
# 5 26.5926 5.6021 13.4726 -0.0044 44.5123 0.0036
# 6 -0.0016 -0.0001 -0.0041 4.7995 0.0036 15.4676
#
#
#
# Elastic Compliance Matrix: (Units=1/GPa)
#
#
# Indices 1 2 3 4 5 6 
#
# 1 0.009323 -0.001696 -0.005804 -0.000001 -0.003599 0.000001
# 2 -0.001696 0.017497 -0.005763 0.000001 0.000555 -0.000002
# 3 -0.005804 -0.005763 0.018336 -0.000006 -0.001357 0.000007
# 4 -0.000001 0.000001 -0.000006 0.062814 0.000010 -0.019490
# 5 -0.003599 0.000555 -0.001357 0.000010 0.024957 -0.000010
# 6 0.000001 -0.000002 0.000007 -0.019490 -0.000010 0.070699
#
#
# Mechanical properties :
#
#
# Convention : Reuss Voigt Hill
#
# Bulk Modulus (GPa) = 53.67991 66.60003 60.13997
# Shear Modulus (GPa) = 21.15418 27.94996 24.55207
#
# Velocity S-wave (km/s) = 3.12915 3.59682 3.37111
# Velocity P-wave (km/s) = 6.15647 6.93372 6.55662
#
# Compressibility (1/GPa) = 0.01862894
#
# Stress axis : x y z
#
# Youngs Moduli (GPa) = 107.26383 57.15420 54.53832
#
# Poissons Ratio (x) = 0.09692 0.31657
# Poissons Ratio (y) = 0.18190 0.31429
# Poissons Ratio (z) = 0.62261 0.32936
#
# Static dielectric constant tensor:
#      x y z
#    x 4.249790 -0.000080 0.575450 
#    y -0.000080 3.697350 0.000020 
#    z 0.575450 0.000020 3.952410 
# 
# 
# High freq. dielectric constant tensor:
#      x y z
#    x 1.871380 0.000000 0.034410 
#    y 0.000000 1.806050 0.000000 
#    z 0.034410 0.000000 1.836340 
# 
# From -- ./inp_files/159399.got.cif
#   From: 2010.06.25/outbox.cif.g09.slc.cpg/sg12_80_cif.got.tgz:159399.got - 2010.06.28 00:19:55.
