data_PCOD8114580
_publ_section_title
;
Structure prediction by ZEFSAII (Michael W. Deem and Ramdas Pophale) SiO2 
 PCOD8114580
Probable space group: C 2/M
;
_chemical_formula_sum "Si O2"
_cell_formula_units_Z 32
_cell_length_a 21.960621
_cell_length_b 14.550853
_cell_length_c 7.793035
_cell_angle_alpha 90.000000
_cell_angle_beta 148.903473
_cell_angle_gamma 90.000000
_cell_volume 1286.158238
_symmetry_space_group_name_H-M "C 2/M"
_symmetry_group_IT_number 12
_symmetry_cell_setting 'monoclinic'
loop_
_space_group_symop_operation_xyz
x,y,z
-x,y,-z
-x,-y,-z
x,-y,z
1/2+x,1/2+y,z
1/2-x,1/2+y,-z
1/2-x,1/2-y,-z
1/2+x,1/2-y,z
loop_
_atom_site_type_symbol
_atom_site_label
_atom_site_fract_x
_atom_site_fract_y
_atom_site_fract_z
Si Si1 0.685618 0.341157 0.509291
Si Si2 0.768721 0.820742 0.894562
Si Si3 0.142049 0.500000 0.140823
Si Si4 0.527785 0.391876 0.804441
Si Si5 0.370526 0.000000 0.484040
O O1 0.727679 0.234570 0.621189
O O2 0.797198 0.409020 0.788538
O O3 0.605601 0.357714 0.489054
O O4 0.606903 0.362471 0.156597
O O5 0.688404 0.909162 0.735750
O O6 0.750000 0.750000 0.000000
O O7 0.906334 0.850076 0.204415
O O8 0.152466 0.500000 0.369819
O O9 0.006448 0.500000 0.756930
O O10 0.530116 0.500000 0.791430
#
# Coordination Sequence:
#
# PCOD8114580 Si02
#       5
#     8   8   4   8   4
#     4  11  22  41  74 106 129 184 233 290 353 403
#     4  12  27  45  67  99 148 190 228 284 352 434
#     4  11  22  43  78 107 142 172 234 304 347 413
#     4  11  21  45  73  99 141 175 245 298 332 413
#     4  11  26  46  69 108 144 183 231 293 362 406
#
# _framework density 24.880296999999999
#
# number of rings (size 3 to 8) (size 9 to 14) (size 15 to 20)
#    0.000    0.750    6.250    1.500    3.500    4.000 
#    0.000    2.500    0.000    0.000    0.000    0.000 
#    0.000    0.000    0.000    0.000    0.000    0.000 
#
# Total GULP energy -198437.729360 kJ/mol
# GULP energy per Si atom -12402.358085 kJ/mol
# Density = 2.482367 g / cm^3
# Si number density = 24.880297 Si / 1000 Ang^3
#
#
#
# Elastic Constant Matrix: (Units=GPa)
#
#
# Indices 1 2 3 4 5 6 
#
# 1 105.3850 31.3523 41.7295 0.0000 54.0937 0.0000
# 2 31.3523 201.3934 63.7220 0.0000 34.1498 0.0000
# 3 41.7295 63.7220 102.2013 0.0000 56.7088 0.0000
# 4 0.0000 0.0000 0.0000 34.5956 0.0000 2.8994
# 5 54.0937 34.1498 56.7088 0.0000 50.2228 0.0000
# 6 0.0000 0.0000 0.0000 2.8994 0.0000 46.9100
#
#
#
# Elastic Compliance Matrix: (Units=1/GPa)
#
#
# Indices 1 2 3 4 5 6 
#
# 1 0.027042 -0.001226 0.014517 0.000000 -0.044684 0.000000
# 2 -0.001226 0.006244 -0.004738 0.000000 0.002425 0.000000
# 3 0.014517 -0.004738 0.036682 0.000000 -0.053834 0.000000
# 4 0.000000 0.000000 0.000000 0.029056 0.000000 -0.001796
# 5 -0.044684 0.002425 -0.053834 0.000000 0.127177 0.000000
# 6 0.000000 0.000000 0.000000 -0.001796 0.000000 0.021428
#
#
# Mechanical properties :
#
#
# Convention : Reuss Voigt Hill
#
# Bulk Modulus (GPa) = 11.48442 75.84301 43.66372
# Shear Modulus (GPa) = 19.26425 44.49073 31.87749
#
# Velocity S-wave (km/s) = 2.78560 4.23329 3.58332
# Velocity P-wave (km/s) = 3.86937 7.37859 5.89133
#
# Compressibility (1/GPa) = 0.08707445
#
# Stress axis : x y z
#
# Youngs Moduli (GPa) = 36.98015 160.14672 27.26109
#
# Poissons Ratio (x) = 0.19635 -0.39576
# Poissons Ratio (y) = 0.04534 0.12916
# Poissons Ratio (z) = -0.53685 0.75877
#
# Static dielectric constant tensor:
#      x y z
#    x 5.212700 0.000000 0.358470 
#    y 0.000000 4.771660 0.000000 
#    z 0.358470 0.000000 5.454610 
# 
# 
# High freq. dielectric constant tensor:
#      x y z
#    x 2.017940 0.000000 0.008640 
#    y 0.000000 1.997640 0.000000 
#    z 0.008640 0.000000 1.996150 
# 
# From -- ./inp_files/96046.got.cif
#   From: 2010.06.25/outbox.cif.g09.slc.cpg/sg12_49_cif.got.tgz:96046.got - 2010.06.28 00:19:55.
