data_PCOD8114492
_publ_section_title
;
Structure prediction by ZEFSAII (Michael W. Deem and Ramdas Pophale) SiO2 
 PCOD8114492
Probable space group: C 2/M
;
_chemical_formula_sum "Si O2"
_cell_formula_units_Z 56
_cell_length_a 9.896513
_cell_length_b 16.641577
_cell_length_c 18.504019
_cell_angle_alpha 90.000000
_cell_angle_beta 113.626604
_cell_angle_gamma 90.000000
_cell_volume 2792.042370
_symmetry_space_group_name_H-M "C 2/M"
_symmetry_group_IT_number 12
_symmetry_cell_setting 'monoclinic'
loop_
_space_group_symop_operation_xyz
x,y,z
-x,y,-z
-x,-y,-z
x,-y,z
1/2+x,1/2+y,z
1/2-x,1/2+y,-z
1/2-x,1/2-y,-z
1/2+x,1/2-y,z
loop_
_atom_site_type_symbol
_atom_site_label
_atom_site_fract_x
_atom_site_fract_y
_atom_site_fract_z
Si Si1 0.417956 0.736025 0.551723
Si Si2 0.917054 0.203457 0.826438
Si Si3 0.652201 0.091662 0.820357
Si Si4 0.396055 0.177774 0.690499
Si Si5 0.028007 0.359470 0.088274
Si Si6 0.595120 0.592243 0.634190
Si Si7 0.147056 0.911310 0.812210
O O1 0.500000 0.772989 0.500000
O O2 0.250000 0.750000 0.500000
O O3 0.466261 0.782807 0.634230
O O4 0.457878 0.641492 0.570934
O O5 0.784455 0.147977 0.823642
O O6 0.869601 0.253992 0.745631
O O7 0.959341 0.263462 0.900331
O O8 0.064318 0.152484 0.844355
O O9 0.509114 0.110569 0.741858
O O10 0.609863 0.106967 0.894959
O O11 0.700426 0.000000 0.818872
O O12 0.243590 0.134636 0.637300
O O13 0.177896 0.399044 0.149516
O O14 0.000000 0.383384 0.000000
O O15 0.587008 0.500000 0.605971
O O16 0.587678 0.597599 0.718711
O O17 0.110987 0.000000 0.834001
#
# Coordination Sequence:
#
# PCOD8114492 Si02
#       7
#     8   8   8   8   8   8   8
#     4  12  25  42  65  95 127 168 209 256 319 375
#     4  11  22  38  64  92 125 163 206 260 313 372
#     4  11  23  39  64  96 125 161 206 261 318 367
#     4  11  21  40  66  91 125 164 212 256 304 379
#     4  11  24  41  63  91 125 168 216 258 304 372
#     4  11  22  40  66  94 124 165 213 258 304 378
#     4  11  22  39  63  92 124 165 208 255 316 374
#
# _framework density 20.057002000000001
#
# number of rings (size 3 to 8) (size 9 to 14) (size 15 to 20)
#    0.000    0.857    5.714    3.857    0.000    3.714 
#    0.000    0.000    0.000    4.714    0.000    0.000 
#    0.000    0.000    0.000    0.000    0.000    0.000 
#
# Total GULP energy -347263.886983 kJ/mol
# GULP energy per Si atom -12402.281678 kJ/mol
# Density = 2.001135 g / cm^3
# Si number density = 20.057002 Si / 1000 Ang^3
#
#
#
# Elastic Constant Matrix: (Units=GPa)
#
#
# Indices 1 2 3 4 5 6 
#
# 1 99.5383 35.8312 21.7279 0.0000 -7.9952 0.0000
# 2 35.8312 127.8392 24.9190 0.0000 -5.1303 0.0000
# 3 21.7279 24.9190 75.5583 0.0000 -21.8199 0.0000
# 4 0.0000 0.0000 0.0000 9.5310 0.0000 -5.6368
# 5 -7.9952 -5.1303 -21.8199 0.0000 29.9207 0.0000
# 6 0.0000 0.0000 0.0000 -5.6368 0.0000 28.3412
#
#
#
# Elastic Compliance Matrix: (Units=1/GPa)
#
#
# Indices 1 2 3 4 5 6 
#
# 1 0.011599 -0.002798 -0.002098 0.000000 0.001090 0.000000
# 2 -0.002798 0.009048 -0.002467 0.000000 -0.000995 0.000000
# 3 -0.002098 -0.002467 0.018201 0.000000 0.012289 0.000000
# 4 0.000000 0.000000 0.000000 0.118908 0.000000 0.023649
# 5 0.001090 -0.000995 0.012289 0.000000 0.042504 0.000000
# 6 0.000000 0.000000 0.000000 0.023649 0.000000 0.039988
#
#
# Mechanical properties :
#
#
# Convention : Reuss Voigt Hill
#
# Bulk Modulus (GPa) = 41.45674 51.98799 46.72236
# Shear Modulus (GPa) = 19.01043 28.25577 23.63310
#
# Velocity S-wave (km/s) = 3.08201 3.75743 3.43636
# Velocity P-wave (km/s) = 5.77749 6.69334 6.25221
#
# Compressibility (1/GPa) = 0.02412153
#
# Stress axis : x y z
#
# Youngs Moduli (GPa) = 86.21270 110.52752 54.94352
#
# Poissons Ratio (x) = 0.30930 0.11527
# Poissons Ratio (y) = 0.24126 0.13552
# Poissons Ratio (z) = 0.18087 0.27262
#
# Static dielectric constant tensor:
#      x y z
#    x 3.687230 0.000000 -0.146060 
#    y 0.000000 3.916950 0.000000 
#    z -0.146060 0.000000 3.595150 
# 
# 
# High freq. dielectric constant tensor:
#      x y z
#    x 1.785810 0.000000 -0.006260 
#    y 0.000000 1.789330 0.000000 
#    z -0.006260 0.000000 1.774950 
# 
# From -- ./inp_files/257155.got.cif
#   From: 2010.06.25/outbox.cif.g09.slc.cpg/sg12_129_cif.got.tgz:257155.got - 2010.06.28 00:19:55.
