data_PCOD8114549
_publ_section_title
;
Structure prediction by ZEFSAII (Michael W. Deem and Ramdas Pophale) SiO2 
 PCOD8114549
Probable space group: C 2/M
;
_chemical_formula_sum "Si O2"
_cell_formula_units_Z 40
_cell_length_a 13.681923
_cell_length_b 26.435374
_cell_length_c 13.952581
_cell_angle_alpha 90.000000
_cell_angle_beta 159.646560
_cell_angle_gamma 90.000000
_cell_volume 1755.211918
_symmetry_space_group_name_H-M "C 2/M"
_symmetry_group_IT_number 12
_symmetry_cell_setting 'monoclinic'
loop_
_space_group_symop_operation_xyz
x,y,z
-x,y,-z
-x,-y,-z
x,-y,z
1/2+x,1/2+y,z
1/2-x,1/2+y,-z
1/2-x,1/2-y,-z
1/2+x,1/2-y,z
loop_
_atom_site_type_symbol
_atom_site_label
_atom_site_fract_x
_atom_site_fract_y
_atom_site_fract_z
Si Si1 0.901248 0.500000 0.557507
Si Si2 0.817426 0.000000 0.109037
Si Si3 0.205144 0.090347 0.773789
Si Si4 0.986132 0.809369 0.381147
Si Si5 0.000000 0.413906 0.500000
Si Si6 0.000000 0.841594 0.000000
Si Si7 0.533366 0.747435 0.888919
O O1 0.879202 0.449660 0.472431
O O2 0.651094 0.500000 0.403325
O O3 0.184440 0.500000 0.880476
O O4 0.722126 0.952290 0.082916
O O5 0.069123 0.135818 0.717608
O O6 0.000000 0.070515 0.500000
O O7 0.500000 0.109004 0.000000
O O8 0.000000 0.830369 0.500000
O O9 0.255382 0.776873 0.595771
O O10 0.706559 0.775387 0.130473
O O11 0.767787 0.377583 0.239743
O O12 0.030819 0.807961 0.126469
O O13 0.750000 0.750000 0.000000
#
# Coordination Sequence:
#
# PCOD8114549 Si02
#       7
#     4   4   8   8   4   4   8
#     4  11  26  47  70  99 132 181 218 287 354 407
#     4  12  24  42  70 103 142 169 234 292 330 406
#     4  11  23  40  66  99 137 190 225 272 338 412
#     4  11  21  42  63  88 135 180 221 267 342 409
#     4  11  26  48  72  96 134 176 230 277 356 406
#     4  12  24  45  72  98 136 177 226 292 338 404
#     4  12  25  41  66  99 133 173 228 284 335 398
#
# _framework density 22.789272
#
# number of rings (size 3 to 8) (size 9 to 14) (size 15 to 20)
#    0.000    0.600    2.000    7.200    0.000    6.400 
#    0.000    0.000    0.000    0.000    0.000    0.000 
#    0.000    0.000    0.000    0.000    0.000    0.000 
#
# Total GULP energy -247795.326658 kJ/mol
# GULP energy per Si atom -12389.766333 kJ/mol
# Density = 2.273740 g / cm^3
# Si number density = 22.789272 Si / 1000 Ang^3
#
#
#
# Elastic Constant Matrix: (Units=GPa)
#
#
# Indices 1 2 3 4 5 6 
#
# 1 87.2375 48.7648 19.1835 0.0019 14.7646 -0.0046
# 2 48.7648 167.2017 50.6896 0.0002 11.7706 -0.0012
# 3 19.1835 50.6896 114.9863 -0.0021 18.9695 -0.0090
# 4 0.0019 0.0002 -0.0021 24.5738 -0.0004 18.3510
# 5 14.7646 11.7706 18.9695 -0.0004 39.0348 -0.0076
# 6 -0.0046 -0.0012 -0.0090 18.3510 -0.0076 6.6024
#
#
#
# Elastic Compliance Matrix: (Units=1/GPa)
#
#
# Indices 1 2 3 4 5 6 
#
# 1 0.014357 -0.003895 0.000026 0.000004 -0.004269 -0.000007
# 2 -0.003895 0.007975 -0.002949 -0.000003 0.000501 0.000004
# 3 0.000026 -0.002949 0.010705 0.000006 -0.004323 -0.000006
# 4 0.000004 -0.000003 0.000006 -0.037833 0.000017 0.105155
# 5 -0.004269 0.000501 -0.004323 0.000017 0.029182 -0.000022
# 6 -0.000007 0.000004 -0.000006 0.105155 -0.000022 -0.140813
#
#
# Mechanical properties :
#
#
# Convention : Reuss Voigt Hill
#
# Bulk Modulus (GPa) = 51.53924 67.41125 59.47524
# Shear Modulus (GPa) = -51.90851 30.76137 -10.57357
#
# Velocity S-wave (km/s) = -4.77777 3.67797 -2.15634
# Velocity P-wave (km/s) = 2.78772 6.90515 4.46709
#
# Compressibility (1/GPa) = 0.01940269
#
# Stress axis : x y z
#
# Youngs Moduli (GPa) = 69.65388 125.38703 93.41042
#
# Poissons Ratio (x) = 0.48832 -0.00241
# Poissons Ratio (y) = 0.27127 0.27544
# Poissons Ratio (z) = -0.00180 0.36973
#
# Static dielectric constant tensor:
#      x y z
#    x 3.553460 -0.000770 1.112400 
#    y -0.000770 2.581470 0.003410 
#    z 1.112400 0.003410 0.222110 
# 
# 
# High freq. dielectric constant tensor:
#      x y z
#    x 1.886180 0.000000 0.003650 
#    y 0.000000 1.916650 0.000000 
#    z 0.003650 0.000000 1.917490 
# 
# From -- ./inp_files/219211.got.cif
#   From: 2010.06.25/outbox.cif.g09.slc.cpg/sg12_110_cif.got.tgz:219211.got - 2010.06.28 00:19:55.
