data_PCOD8114070
_publ_section_title
;
Structure prediction by ZEFSAII (Michael W. Deem and Ramdas Pophale) SiO2 
 PCOD8114070
Probable space group: C 2/M
;
_chemical_formula_sum "Si O2"
_cell_formula_units_Z 56
_cell_length_a 22.865969
_cell_length_b 9.145109
_cell_length_c 16.372217
_cell_angle_alpha 90.000000
_cell_angle_beta 96.947851
_cell_angle_gamma 90.000000
_cell_volume 3398.482599
_symmetry_space_group_name_H-M "C 2/M"
_symmetry_group_IT_number 12
_symmetry_cell_setting 'monoclinic'
loop_
_space_group_symop_operation_xyz
x,y,z
-x,y,-z
-x,-y,-z
x,-y,z
1/2+x,1/2+y,z
1/2-x,1/2+y,-z
1/2-x,1/2-y,-z
1/2+x,1/2-y,z
loop_
_atom_site_type_symbol
_atom_site_label
_atom_site_fract_x
_atom_site_fract_y
_atom_site_fract_z
Si Si1 0.217823 0.166550 0.096211
Si Si2 0.458706 0.174126 0.377426
Si Si3 0.167035 0.166916 0.926809
Si Si4 0.246590 0.834971 0.274274
Si Si5 0.624299 0.168928 0.775886
Si Si6 0.582284 0.826612 0.455663
Si Si7 0.790108 0.673615 0.573534
O O1 0.266932 0.285368 0.083681
O O2 0.201721 0.184743 0.189508
O O3 0.242646 0.000000 0.087856
O O4 0.161853 0.190004 0.025147
O O5 0.425753 0.237296 0.291937
O O6 0.425814 0.232812 0.453342
O O7 0.527004 0.225982 0.390582
O O8 0.454299 0.000000 0.375834
O O9 0.120177 0.257036 0.864851
O O10 0.157910 0.000000 0.900645
O O11 0.312547 0.802602 0.254629
O O12 0.229882 0.718999 0.339868
O O13 0.242697 0.000000 0.309078
O O14 0.612310 0.000000 0.788522
O O15 0.643207 0.768904 0.428383
O O16 0.582542 0.000000 0.458303
O O17 0.785007 0.500000 0.563120
O O18 0.750000 0.750000 0.500000
#
# Coordination Sequence:
#
# PCOD8114070 Si02
#       7
#     8   8   8   8   8   8   8
#     4   8  15  27  40  55  80 114 146 173 203 243
#     4   8  13  25  45  63  79 104 138 174 209 243
#     4   9  15  23  38  60  85 111 138 171 210 249
#     4   9  17  29  43  61  86 114 142 170 203 246
#     4   9  16  26  42  64  88 112 138 170 210 253
#     4   8  15  27  43  62  81 104 139 177 206 238
#     4  11  21  31  44  64  88 112 139 171 206 246
#
# _framework density 16.477941999999999
#
# number of rings (size 3 to 8) (size 9 to 14) (size 15 to 20)
#    0.000    3.143    0.000    3.429    0.000    5.143 
#    0.000    0.000    0.000    1.714    0.000    7.000 
#    0.000    8.000    0.000    0.000    0.000    0.000 
#
# Total GULP energy -346865.458489 kJ/mol
# GULP energy per Si atom -12388.052089 kJ/mol
# Density = 1.644044 g / cm^3
# Si number density = 16.477942 Si / 1000 Ang^3
#
#
#
# Elastic Constant Matrix: (Units=GPa)
#
#
# Indices 1 2 3 4 5 6 
#
# 1 64.6493 24.3305 49.9513 0.0000 15.5337 0.0000
# 2 24.3305 46.8224 41.4390 0.0000 5.4550 0.0000
# 3 49.9513 41.4390 153.0121 0.0000 32.5336 0.0000
# 4 0.0000 0.0000 0.0000 28.6016 0.0000 1.3079
# 5 15.5337 5.4550 32.5336 0.0000 26.2144 0.0000
# 6 0.0000 0.0000 0.0000 1.3079 0.0000 12.3521
#
#
#
# Elastic Compliance Matrix: (Units=1/GPa)
#
#
# Indices 1 2 3 4 5 6 
#
# 1 0.023142 -0.007704 -0.003931 0.000000 -0.007232 0.000000
# 2 -0.007704 0.031123 -0.007482 0.000000 0.007374 0.000000
# 3 -0.003931 -0.007482 0.012251 0.000000 -0.011319 0.000000
# 4 0.000000 0.000000 0.000000 0.035133 0.000000 -0.003720
# 5 -0.007232 0.007374 -0.011319 0.000000 0.054945 0.000000
# 6 0.000000 0.000000 0.000000 -0.003720 0.000000 0.081352
#
#
# Mechanical properties :
#
#
# Convention : Reuss Voigt Hill
#
# Bulk Modulus (GPa) = 35.35618 55.10281 45.22950
# Shear Modulus (GPa) = 17.50655 23.35114 20.42885
#
# Velocity S-wave (km/s) = 3.26302 3.76854 3.52486
# Velocity P-wave (km/s) = 5.97492 7.24216 6.63884
#
# Compressibility (1/GPa) = 0.02828360
#
# Stress axis : x y z
#
# Youngs Moduli (GPa) = 43.21101 32.13065 81.62334
#
# Poissons Ratio (x) = 0.24754 0.32084
# Poissons Ratio (y) = 0.33290 0.61067
# Poissons Ratio (z) = 0.16985 0.24039
#
# Static dielectric constant tensor:
#      x y z
#    x 2.950390 0.000000 0.292000 
#    y 0.000000 2.896540 0.000000 
#    z 0.292000 0.000000 3.605940 
# 
# 
# High freq. dielectric constant tensor:
#      x y z
#    x 1.582900 0.000000 0.025040 
#    y 0.000000 1.611720 0.000000 
#    z 0.025040 0.000000 1.652010 
# 
# From -- ./inp_files/287074.got.cif
#   From: 2010.06.25/outbox.cif.g09.slc.cpg/sg12_144_cif.got.tgz:287074.got - 2010.06.28 00:19:55.
