data_PCOD8114830
_publ_section_title
;
Structure prediction by ZEFSAII (Michael W. Deem and Ramdas Pophale) SiO2 
 PCOD8114830
Probable space group: C 2/M
;
_chemical_formula_sum "Si O2"
_cell_formula_units_Z 64
_cell_length_a 22.646758
_cell_length_b 27.354284
_cell_length_c 15.599286
_cell_angle_alpha 90.000000
_cell_angle_beta 161.585878
_cell_angle_gamma 90.000000
_cell_volume 3052.546094
_symmetry_space_group_name_H-M "C 2/M"
_symmetry_group_IT_number 12
_symmetry_cell_setting 'monoclinic'
loop_
_space_group_symop_operation_xyz
x,y,z
-x,y,-z
-x,-y,-z
x,-y,z
1/2+x,1/2+y,z
1/2-x,1/2+y,-z
1/2-x,1/2-y,-z
1/2+x,1/2-y,z
loop_
_atom_site_type_symbol
_atom_site_label
_atom_site_fract_x
_atom_site_fract_y
_atom_site_fract_z
Si Si1 0.398475 0.552945 0.270133
Si Si2 0.811987 0.880616 0.401819
Si Si3 0.031598 0.695237 0.721090
Si Si4 0.910419 0.804709 0.142993
Si Si5 0.650686 0.660135 0.129295
Si Si6 0.084546 0.052741 0.023987
Si Si7 0.407556 0.111710 0.072740
Si Si8 0.287421 0.055408 0.592184
O O1 0.500000 0.547472 0.500000
O O2 0.332834 0.500000 0.146088
O O3 0.541205 0.574794 0.398809
O O4 0.226391 0.589329 0.039883
O O5 0.673374 0.902316 0.282810
O O6 0.920634 0.831269 0.574490
O O7 0.704836 0.871545 0.166167
O O8 0.838220 0.691083 0.403048
O O9 0.055981 0.747887 0.796237
O O10 0.006072 0.659842 0.767153
O O11 0.206598 0.681380 0.900687
O O12 0.932028 0.817973 0.072592
O O13 0.500000 0.665348 0.000000
O O14 0.707233 0.602574 0.191751
O O15 0.919186 0.060787 0.728689
O O16 0.187802 0.000000 0.145106
O O17 0.000000 0.046360 0.000000
O O18 0.561189 0.069632 0.270905
O O19 0.328146 0.000000 0.680464
#
# Coordination Sequence:
#
# PCOD8114830 Si02
#       8
#     8   8   8   8   8   8   8   8
#     4   9  18  34  57  83 119 165 205 252 315 380
#     4  11  22  39  60  90 131 169 211 270 321 392
#     4  11  26  44  70  94 128 176 223 270 330 387
#     4  11  25  46  67  95 128 175 223 269 329 387
#     4  11  23  45  71  99 135 167 215 278 328 390
#     4   9  18  35  62  90 126 172 213 257 322 391
#     4  11  22  38  60  95 128 165 216 270 319 389
#     4  11  22  38  62  95 134 173 215 265 333 403
#
# _framework density 20.966104999999999
#
# number of rings (size 3 to 8) (size 9 to 14) (size 15 to 20)
#    0.000    1.500    2.500    3.000    1.750    2.500 
#    0.000    0.625    0.000    0.750    0.000    0.000 
#    0.000    0.000    0.000    0.000    0.000    0.000 
#
# Total GULP energy -396578.352615 kJ/mol
# GULP energy per Si atom -12393.073519 kJ/mol
# Density = 2.091838 g / cm^3
# Si number density = 20.966105 Si / 1000 Ang^3
#
#
#
# Elastic Constant Matrix: (Units=GPa)
#
#
# Indices 1 2 3 4 5 6 
#
# 1 68.7287 21.1349 8.3014 0.0000 -6.7242 0.0000
# 2 21.1349 101.0202 17.1479 0.0000 0.6124 0.0000
# 3 8.3014 17.1479 45.8686 -0.0001 2.6521 0.0001
# 4 0.0000 0.0000 -0.0001 31.0853 0.0000 4.0139
# 5 -6.7242 0.6124 2.6521 0.0000 28.5691 0.0000
# 6 0.0000 0.0000 0.0001 4.0139 0.0000 37.2195
#
#
#
# Elastic Compliance Matrix: (Units=1/GPa)
#
#
# Indices 1 2 3 4 5 6 
#
# 1 0.016129 -0.003058 -0.002010 0.000000 0.004048 0.000000
# 2 -0.003058 0.011150 -0.003579 0.000000 -0.000626 0.000000
# 3 -0.002010 -0.003579 0.023653 0.000000 -0.002592 0.000000
# 4 0.000000 0.000000 0.000000 0.032624 0.000000 -0.003518
# 5 0.004048 -0.000626 -0.002592 0.000000 0.036210 0.000000
# 6 0.000000 0.000000 0.000000 -0.003518 0.000000 0.027247
#
#
# Mechanical properties :
#
#
# Convention : Reuss Voigt Hill
#
# Bulk Modulus (GPa) = 29.72745 34.30954 32.01849
# Shear Modulus (GPa) = 28.48694 30.64367 29.56531
#
# Velocity S-wave (km/s) = 3.69007 3.82721 3.75927
# Velocity P-wave (km/s) = 5.68903 5.99415 5.84359
#
# Compressibility (1/GPa) = 0.03363895
#
# Stress axis : x y z
#
# Youngs Moduli (GPa) = 61.99963 89.68587 42.27796
#
# Poissons Ratio (x) = 0.27424 0.08498
# Poissons Ratio (y) = 0.18958 0.15130
# Poissons Ratio (z) = 0.12462 0.32097
#
# Static dielectric constant tensor:
#      x y z
#    x 3.778270 0.000000 0.036060 
#    y 0.000000 4.027780 0.000000 
#    z 0.036060 0.000000 3.612240 
# 
# 
# High freq. dielectric constant tensor:
#      x y z
#    x 1.821040 0.000000 -0.005990 
#    y 0.000000 1.831260 0.000000 
#    z -0.005990 0.000000 1.806310 
# 
# From -- ./inp_files/236012.got.cif
#   From: 2010.06.25/outbox.cif.g09.slc.cpg/sg12_119_cif.got.tgz:236012.got - 2010.06.28 00:19:55.
