data_PCOD8114330
_publ_section_title
;
Structure prediction by ZEFSAII (Michael W. Deem and Ramdas Pophale) SiO2 
 PCOD8114330
Probable space group: C 2/M
;
_chemical_formula_sum "Si O2"
_cell_formula_units_Z 48
_cell_length_a 11.398509
_cell_length_b 15.885355
_cell_length_c 19.785343
_cell_angle_alpha 90.000000
_cell_angle_beta 40.675136
_cell_angle_gamma 90.000000
_cell_volume 2334.976339
_symmetry_space_group_name_H-M "C 2/M"
_symmetry_group_IT_number 12
_symmetry_cell_setting 'monoclinic'
loop_
_space_group_symop_operation_xyz
x,y,z
-x,y,-z
-x,-y,-z
x,-y,z
1/2+x,1/2+y,z
1/2-x,1/2+y,-z
1/2-x,1/2-y,-z
1/2+x,1/2-y,z
loop_
_atom_site_type_symbol
_atom_site_label
_atom_site_fract_x
_atom_site_fract_y
_atom_site_fract_z
Si Si1 0.503177 0.183934 0.126697
Si Si2 0.486738 0.500000 0.617301
Si Si3 0.232154 0.090103 0.078334
Si Si4 0.201903 0.500000 0.627055
Si Si5 0.537825 0.364962 0.906744
Si Si6 0.889649 0.163713 0.733659
Si Si7 0.559613 0.842984 0.253718
O O1 0.544410 0.273779 0.075633
O O2 0.291082 0.170061 0.231613
O O3 0.595829 0.171938 0.158598
O O4 0.583748 0.117478 0.038642
O O5 0.300556 0.500000 0.656524
O O6 0.655701 0.500000 0.494809
O O7 0.503165 0.584402 0.656148
O O8 0.169070 0.154582 0.162952
O O9 0.072015 0.074170 0.094348
O O10 0.270516 0.000000 0.096116
O O11 0.085340 0.415464 0.669540
O O12 0.749975 0.371661 0.797978
O O13 0.500000 0.390067 0.000000
O O14 0.997696 0.253477 0.685380
#
# Coordination Sequence:
#
# PCOD8114330 Si02
#       7
#     8   4   8   4   8   8   8
#     4  11  21  37  58  92 128 171 207 250 304 368
#     4  11  24  46  73  94 124 152 220 275 329 377
#     4  12  24  34  56  92 132 170 212 250 302 372
#     4  11  26  46  69  99 118 159 212 285 326 377
#     4  11  22  37  57  85 131 177 208 245 298 375
#     4  11  23  41  65  95 125 172 207 263 316 378
#     4  11  23  40  67  91 133 165 211 258 321 375
#
# _framework density 20.556953
#
# number of rings (size 3 to 8) (size 9 to 14) (size 15 to 20)
#    0.000    0.833    5.833    3.000    3.500    1.667 
#    0.000    0.000    0.000    2.000    0.000    0.000 
#    0.000    0.000    0.000    0.000    0.000    0.000 
#
# Total GULP energy -297542.554934 kJ/mol
# GULP energy per Si atom -12397.606456 kJ/mol
# Density = 2.051016 g / cm^3
# Si number density = 20.556953 Si / 1000 Ang^3
#
#
#
# Elastic Constant Matrix: (Units=GPa)
#
#
# Indices 1 2 3 4 5 6 
#
# 1 57.4610 21.3288 14.3744 0.0028 -4.3338 -0.0010
# 2 21.3288 154.8130 46.2834 -0.0009 -9.7059 0.0003
# 3 14.3744 46.2834 66.8967 -0.0045 -1.5120 0.0017
# 4 0.0028 -0.0009 -0.0045 24.7773 0.0004 -3.7437
# 5 -4.3338 -9.7059 -1.5120 0.0004 24.4729 0.0001
# 6 -0.0010 0.0003 0.0017 -3.7437 0.0001 27.0321
#
#
#
# Elastic Compliance Matrix: (Units=1/GPa)
#
#
# Indices 1 2 3 4 5 6 
#
# 1 0.018909 -0.001574 -0.002917 -0.000003 0.002544 0.000001
# 2 -0.001574 0.008484 -0.005469 -0.000001 0.002748 0.000000
# 3 -0.002917 -0.005469 0.019325 0.000004 -0.001492 -0.000001
# 4 -0.000003 -0.000001 0.000004 0.041222 -0.000001 0.005709
# 5 0.002544 0.002748 -0.001492 -0.000001 0.042310 0.000000
# 6 0.000001 0.000000 -0.000001 0.005709 0.000000 0.037784
#
#
# Mechanical properties :
#
#
# Convention : Reuss Voigt Hill
#
# Bulk Modulus (GPa) = 37.31550 49.23820 43.27685
# Shear Modulus (GPa) = 25.39549 28.40208 26.89878
#
# Velocity S-wave (km/s) = 3.51860 3.72106 3.62124
# Velocity P-wave (km/s) = 5.89059 6.51658 6.21148
#
# Compressibility (1/GPa) = 0.02679851
#
# Stress axis : x y z
#
# Youngs Moduli (GPa) = 52.88555 117.87474 51.74529
#
# Poissons Ratio (x) = 0.18548 0.15093
# Poissons Ratio (y) = 0.08322 0.28301
# Poissons Ratio (z) = 0.15426 0.64469
#
# Static dielectric constant tensor:
#      x y z
#    x 3.885320 0.000000 -0.047110 
#    y 0.000000 3.821020 0.000000 
#    z -0.047110 0.000000 3.233980 
# 
# 
# High freq. dielectric constant tensor:
#      x y z
#    x 1.813700 0.000000 -0.003500 
#    y 0.000000 1.821870 0.000000 
#    z -0.003500 0.000000 1.759090 
# 
# From -- ./inp_files/205616.got.cif
#   From: 2010.06.25/outbox.cif.g09.slc.cpg/sg12_103_cif.got.tgz:205616.got - 2010.06.28 00:19:55.
