data_PCOD8114603
_publ_section_title
;
Structure prediction by ZEFSAII (Michael W. Deem and Ramdas Pophale) SiO2 
 PCOD8114603
Probable space group: C 2/M
;
_chemical_formula_sum "Si O2"
_cell_formula_units_Z 56
_cell_length_a 22.378236
_cell_length_b 9.422222
_cell_length_c 18.529433
_cell_angle_alpha 90.000000
_cell_angle_beta 118.859251
_cell_angle_gamma 90.000000
_cell_volume 3421.765389
_symmetry_space_group_name_H-M "C 2/M"
_symmetry_group_IT_number 12
_symmetry_cell_setting 'monoclinic'
loop_
_space_group_symop_operation_xyz
x,y,z
-x,y,-z
-x,-y,-z
x,-y,z
1/2+x,1/2+y,z
1/2-x,1/2+y,-z
1/2-x,1/2-y,-z
1/2+x,1/2-y,z
loop_
_atom_site_type_symbol
_atom_site_label
_atom_site_fract_x
_atom_site_fract_y
_atom_site_fract_z
Si Si1 0.013119 0.665990 0.778418
Si Si2 0.053938 0.839811 0.929479
Si Si3 0.390130 0.167619 0.455773
Si Si4 0.982172 0.333979 0.378441
Si Si5 0.636749 0.162850 0.255415
Si Si6 0.260696 0.331316 0.431922
Si Si7 0.899769 0.840241 0.892960
O O1 0.028161 0.500000 0.792593
O O2 0.934451 0.702322 0.748363
O O3 0.063579 0.741104 0.865064
O O4 0.029419 0.729042 0.708324
O O5 0.976451 0.832591 0.909671
O O6 0.073720 0.000000 0.919766
O O7 0.101460 0.787353 0.024108
O O8 0.447690 0.222090 0.545284
O O9 0.417175 0.198569 0.390674
O O10 0.325088 0.266051 0.428523
O O11 0.373238 0.000000 0.456265
O O12 0.993221 0.500000 0.377326
O O13 0.695446 0.203234 0.345303
O O14 0.647680 0.245740 0.186387
O O15 0.639257 0.000000 0.235074
O O16 0.269677 0.500000 0.449931
O O17 0.250000 0.250000 0.500000
O O18 0.871829 0.000000 0.872794
#
# Coordination Sequence:
#
# PCOD8114603 Si02
#       7
#     8   8   8   8   8   8   8
#     4   9  15  25  42  64  87 114 147 178 210 258
#     4   8  14  24  37  58  87 115 140 173 216 258
#     4   9  17  32  51  67  86 117 152 185 221 262
#     4   8  15  29  49  68  88 116 149 183 222 265
#     4   9  18  29  42  62  89 117 146 179 215 254
#     4  11  22  34  47  66  92 120 149 184 221 260
#     4   8  14  25  40  57  83 116 146 173 209 260
#
# _framework density 16.365819999999999
#
# number of rings (size 3 to 8) (size 9 to 14) (size 15 to 20)
#    0.000    3.143    0.000    3.000    0.000    4.000 
#    0.000    8.571    0.000    0.000    0.000    1.000 
#    0.000    0.000    0.000    0.000    0.000    0.000 
#
# Total GULP energy -347003.168169 kJ/mol
# GULP energy per Si atom -12392.970292 kJ/mol
# Density = 1.632857 g / cm^3
# Si number density = 16.365820 Si / 1000 Ang^3
#
#
#
# Elastic Constant Matrix: (Units=GPa)
#
#
# Indices 1 2 3 4 5 6 
#
# 1 55.4106 36.5108 49.7470 0.0000 -10.2038 0.0000
# 2 36.5108 68.4332 70.6022 0.0000 -6.9622 0.0000
# 3 49.7470 70.6022 161.7246 0.0000 -26.3242 0.0000
# 4 0.0000 0.0000 0.0000 30.4131 0.0000 0.2074
# 5 -10.2038 -6.9622 -26.3242 0.0000 23.0224 0.0000
# 6 0.0000 0.0000 0.0000 0.2074 0.0000 19.6883
#
#
#
# Elastic Compliance Matrix: (Units=1/GPa)
#
#
# Indices 1 2 3 4 5 6 
#
# 1 0.029888 -0.012525 -0.002686 0.000000 0.006388 0.000000
# 2 -0.012525 0.032634 -0.011907 0.000000 -0.009297 0.000000
# 3 -0.002686 -0.011907 0.014041 0.000000 0.011264 0.000000
# 4 0.000000 0.000000 0.000000 0.032883 0.000000 -0.000346
# 5 0.006388 -0.009297 0.011264 0.000000 0.056335 0.000000
# 6 0.000000 0.000000 0.000000 -0.000346 0.000000 0.050795
#
#
# Mechanical properties :
#
#
# Convention : Reuss Voigt Hill
#
# Bulk Modulus (GPa) = 44.78965 66.58759 55.68862
# Shear Modulus (GPa) = 17.96924 23.20532 20.58728
#
# Velocity S-wave (km/s) = 3.31716 3.76960 3.55060
# Velocity P-wave (km/s) = 6.48835 7.72799 7.13514
#
# Compressibility (1/GPa) = 0.02232658
#
# Stress axis : x y z
#
# Youngs Moduli (GPa) = 33.45871 30.64305 71.21908
#
# Poissons Ratio (x) = 0.38380 0.19129
# Poissons Ratio (y) = 0.41906 0.84802
# Poissons Ratio (z) = 0.08987 0.36487
#
# Static dielectric constant tensor:
#      x y z
#    x 2.835430 0.000000 -0.254440 
#    y 0.000000 3.024440 0.000000 
#    z -0.254440 0.000000 3.576210 
# 
# 
# High freq. dielectric constant tensor:
#      x y z
#    x 1.586240 0.000000 -0.016040 
#    y 0.000000 1.615630 0.000000 
#    z -0.016040 0.000000 1.642470 
# 
# From -- ./inp_files/282791.got.cif
#   From: 2010.06.25/outbox.cif.g09.slc.cpg/sg12_142_cif.got.tgz:282791.got - 2010.06.28 00:19:55.
