data_PCOD8114641
_publ_section_title
;
Structure prediction by ZEFSAII (Michael W. Deem and Ramdas Pophale) SiO2 
 PCOD8114641
Probable space group: C 2/M
;
_chemical_formula_sum "Si O2"
_cell_formula_units_Z 64
_cell_length_a 9.620835
_cell_length_b 21.652658
_cell_length_c 19.775466
_cell_angle_alpha 90.000000
_cell_angle_beta 125.167349
_cell_angle_gamma 90.000000
_cell_volume 3367.629167
_symmetry_space_group_name_H-M "C 2/M"
_symmetry_group_IT_number 12
_symmetry_cell_setting 'monoclinic'
loop_
_space_group_symop_operation_xyz
x,y,z
-x,y,-z
-x,-y,-z
x,-y,z
1/2+x,1/2+y,z
1/2-x,1/2+y,-z
1/2-x,1/2-y,-z
1/2+x,1/2-y,z
loop_
_atom_site_type_symbol
_atom_site_label
_atom_site_fract_x
_atom_site_fract_y
_atom_site_fract_z
Si Si1 0.159040 0.930059 0.502111
Si Si2 0.098042 0.073535 0.859126
Si Si3 0.878495 0.432789 0.029575
Si Si4 0.683790 0.875621 0.578907
Si Si5 0.309968 0.738534 0.441359
Si Si6 0.174732 0.425981 0.200287
Si Si7 0.719618 0.072139 0.732974
Si Si8 0.875828 0.623784 0.670834
O O1 0.177647 0.888769 0.440550
O O2 0.320791 0.923969 0.596742
O O3 0.000000 0.904786 0.500000
O O4 0.133504 0.000000 0.471489
O O5 0.175273 0.095582 0.808539
O O6 0.903003 0.093699 0.812896
O O7 0.117701 0.000000 0.866611
O O8 0.207832 0.101702 0.953608
O O9 0.824285 0.500000 0.042371
O O10 0.990937 0.400933 0.120244
O O11 0.000000 0.441802 0.000000
O O12 0.500000 0.895389 0.500000
O O13 0.688628 0.803120 0.599289
O O14 0.724697 0.917540 0.654265
O O15 0.500000 0.710832 0.500000
O O16 0.250000 0.750000 0.500000
O O17 0.182894 0.692344 0.366870
O O18 0.171779 0.500000 0.208067
O O19 0.208825 0.393581 0.281485
O O20 0.580208 0.115513 0.730735
O O21 0.686061 0.000000 0.739115
#
# Coordination Sequence:
#
# PCOD8114641 Si02
#       8
#     8   8   8   8   8   8   8   8
#     4  11  23  35  51  77 106 136 171 214 271 325
#     4   8  16  30  50  75 106 143 179 211 250 320
#     4   7  11  25  47  72 103 140 176 207 251 316
#     4  11  22  39  57  73  95 141 183 225 267 312
#     4  11  23  41  58  73  96 137 191 229 264 308
#     4   9  17  29  50  78 108 140 174 218 270 316
#     4  11  22  35  52  78 110 141 175 216 268 324
#     4  12  22  35  50  75 108 141 172 223 266 315
#
# _framework density 19.004467999999999
#
# number of rings (size 3 to 8) (size 9 to 14) (size 15 to 20)
#    0.000    2.000    2.500    4.125    1.750    0.500 
#    0.000    0.625    0.000    3.000    0.000    0.875 
#    0.000    0.000    0.000    0.000    0.000    0.000 
#
# Total GULP energy -396536.032467 kJ/mol
# GULP energy per Si atom -12391.751015 kJ/mol
# Density = 1.896121 g / cm^3
# Si number density = 19.004468 Si / 1000 Ang^3
#
#
#
# Elastic Constant Matrix: (Units=GPa)
#
#
# Indices 1 2 3 4 5 6 
#
# 1 87.0563 18.9642 11.7661 0.0000 16.6243 0.0000
# 2 18.9642 60.0888 19.2298 0.0000 6.3075 0.0000
# 3 11.7661 19.2298 51.8908 0.0000 13.1309 0.0000
# 4 0.0000 0.0000 0.0000 13.8849 0.0000 1.9755
# 5 16.6243 6.3075 13.1309 0.0000 36.3066 0.0000
# 6 0.0000 0.0000 0.0000 1.9755 0.0000 12.6062
#
#
#
# Elastic Compliance Matrix: (Units=1/GPa)
#
#
# Indices 1 2 3 4 5 6 
#
# 1 0.013327 -0.003529 -0.000358 0.000000 -0.005360 0.000000
# 2 -0.003529 0.019838 -0.006702 0.000000 0.000593 0.000000
# 3 -0.000358 -0.006702 0.023666 0.000000 -0.007231 0.000000
# 4 0.000000 0.000000 0.000000 0.073663 0.000000 -0.011544
# 5 -0.005360 0.000593 -0.007231 0.000000 0.032510 0.000000
# 6 0.000000 0.000000 0.000000 -0.011544 0.000000 0.081135
#
#
# Mechanical properties :
#
#
# Convention : Reuss Voigt Hill
#
# Bulk Modulus (GPa) = 28.04700 33.21734 30.63217
# Shear Modulus (GPa) = 18.03748 22.49794 20.26771
#
# Velocity S-wave (km/s) = 3.08412 3.44441 3.26923
# Velocity P-wave (km/s) = 5.24142 5.77367 5.51397
#
# Compressibility (1/GPa) = 0.03565443
#
# Stress axis : x y z
#
# Youngs Moduli (GPa) = 75.03293 50.40784 42.25530
#
# Poissons Ratio (x) = 0.17789 0.01512
# Poissons Ratio (y) = 0.26480 0.28318
# Poissons Ratio (z) = 0.02685 0.33781
#
# Static dielectric constant tensor:
#      x y z
#    x 3.546350 0.000000 0.213290 
#    y 0.000000 3.186230 0.000000 
#    z 0.213290 0.000000 3.755450 
# 
# 
# High freq. dielectric constant tensor:
#      x y z
#    x 1.743290 0.000000 0.010740 
#    y 0.000000 1.688620 0.000000 
#    z 0.010740 0.000000 1.733630 
# 
# From -- ./inp_files/301770.got.cif
#   From: 2010.06.25/outbox.cif.g09.slc.cpg/sg12_151_cif.got.tgz:301770.got - 2010.06.28 00:19:55.
