data_PCOD8114255
_publ_section_title
;
Structure prediction by ZEFSAII (Michael W. Deem and Ramdas Pophale) SiO2 
 PCOD8114255
Probable space group: C 2/M
;
_chemical_formula_sum "Si O2"
_cell_formula_units_Z 40
_cell_length_a 11.474912
_cell_length_b 16.680604
_cell_length_c 20.339958
_cell_angle_alpha 90.000000
_cell_angle_beta 147.289731
_cell_angle_gamma 90.000000
_cell_volume 2103.872432
_symmetry_space_group_name_H-M "C 2/M"
_symmetry_group_IT_number 12
_symmetry_cell_setting 'monoclinic'
loop_
_space_group_symop_operation_xyz
x,y,z
-x,y,-z
-x,-y,-z
x,-y,z
1/2+x,1/2+y,z
1/2-x,1/2+y,-z
1/2-x,1/2-y,-z
1/2+x,1/2-y,z
loop_
_atom_site_type_symbol
_atom_site_label
_atom_site_fract_x
_atom_site_fract_y
_atom_site_fract_z
Si Si1 0.516440 0.594971 0.613804
Si Si2 0.262091 0.330939 0.896598
Si Si3 0.659741 0.909026 0.980506
Si Si4 0.660930 0.094278 0.346002
Si Si5 0.279968 0.350871 0.166276
O O1 0.517860 0.500000 0.625920
O O2 0.296363 0.623579 0.473785
O O3 0.718884 0.621147 0.664097
O O4 0.526291 0.640049 0.689158
O O5 0.206746 0.344370 0.946493
O O6 0.267181 0.239400 0.877048
O O7 0.081479 0.372674 0.765522
O O8 0.500000 0.368828 0.000000
O O9 0.423429 0.891588 0.895551
O O10 0.672052 0.000000 0.958663
O O11 0.828704 0.898055 0.121224
O O12 0.651624 0.000000 0.342922
#
# Coordination Sequence:
#
# PCOD8114255 Si02
#       5
#     8   8   8   8   8
#     4   9  17  35  61  85 108 145 197 248 279 324
#     4  12  24  36  56  85 127 154 185 230 297 349
#     4  11  22  38  58  84 114 155 200 234 278 342
#     4   9  19  35  58  84 113 149 195 237 281 338
#     4  11  21  35  61  85 115 150 192 246 289 326
#
# _framework density 19.012560000000001
#
# number of rings (size 3 to 8) (size 9 to 14) (size 15 to 20)
#    0.000    1.600    4.000    4.800    0.000    2.400 
#    0.000    0.000    0.000    1.200    0.000    4.200 
#    0.000    0.000    0.000    0.000    0.000    0.000 
#
# Total GULP energy -247861.882564 kJ/mol
# GULP energy per Si atom -12393.094128 kJ/mol
# Density = 1.896929 g / cm^3
# Si number density = 19.012560 Si / 1000 Ang^3
#
#
#
# Elastic Constant Matrix: (Units=GPa)
#
#
# Indices 1 2 3 4 5 6 
#
# 1 55.0017 29.7934 55.8713 -0.0100 -16.6372 -0.0089
# 2 29.7934 57.5311 45.6810 0.0116 -9.0772 0.0103
# 3 55.8713 45.6810 161.2697 0.0238 -17.0340 0.0248
# 4 -0.0100 0.0116 0.0238 -106.3478 0.0017 -108.0366
# 5 -16.6372 -9.0772 -17.0340 0.0017 41.7110 0.0027
# 6 -0.0089 0.0103 0.0248 -108.0366 0.0027 -47.2543
#
#
#
# Elastic Compliance Matrix: (Units=1/GPa)
#
#
# Indices 1 2 3 4 5 6 
#
# 1 0.034445 -0.010007 -0.008233 -0.000005 0.008199 -0.000001
# 2 -0.010007 0.025563 -0.003771 0.000002 0.000032 0.000001
# 3 -0.008233 -0.003771 0.010124 0.000003 0.000030 0.000000
# 4 -0.000005 0.000002 0.000003 0.007110 0.000000 -0.016255
# 5 0.008199 0.000032 0.000030 0.000000 0.027264 -0.000001
# 6 -0.000001 0.000001 0.000000 -0.016255 -0.000001 0.016001
#
#
# Mechanical properties :
#
#
# Convention : Reuss Voigt Hill
#
# Bulk Modulus (GPa) = 38.29769 59.61042 48.95406
# Shear Modulus (GPa) = 28.86309 -12.88107 7.99101
#
# Velocity S-wave (km/s) = 3.90052 -2.60571 2.05235
# Velocity P-wave (km/s) = 6.36180 4.72951 5.60539
#
# Compressibility (1/GPa) = 0.02611124
#
# Stress axis : x y z
#
# Youngs Moduli (GPa) = 29.03190 39.11852 98.77299
#
# Poissons Ratio (x) = 0.39147 0.81316
# Poissons Ratio (y) = 0.29053 0.37244
# Poissons Ratio (z) = 0.23901 0.14750
#
# Static dielectric constant tensor:
#      x y z
#    x 3.669660 0.000000 0.354580 
#    y 0.000000 3.288720 -0.000010 
#    z 0.354580 -0.000010 6.030910 
# 
# 
# High freq. dielectric constant tensor:
#      x y z
#    x 1.709140 0.000000 -0.028620 
#    y 0.000000 1.726550 0.000000 
#    z -0.028620 0.000000 1.753040 
# 
# From -- ./inp_files/306305.got.cif
#   From: 2010.06.25/outbox.cif.g09.slc.cpg/sg12_154_cif.got.tgz:306305.got - 2010.06.28 00:19:55.
