data_PCOD8114550
_publ_section_title
;
Structure prediction by ZEFSAII (Michael W. Deem and Ramdas Pophale) SiO2 
 PCOD8114550
Probable space group: C 2/M
;
_chemical_formula_sum "Si O2"
_cell_formula_units_Z 56
_cell_length_a 13.457521
_cell_length_b 17.840896
_cell_length_c 17.183127
_cell_angle_alpha 90.000000
_cell_angle_beta 41.755364
_cell_angle_gamma 90.000000
_cell_volume 2747.429359
_symmetry_space_group_name_H-M "C 2/M"
_symmetry_group_IT_number 12
_symmetry_cell_setting 'monoclinic'
loop_
_space_group_symop_operation_xyz
x,y,z
-x,y,-z
-x,-y,-z
x,-y,z
1/2+x,1/2+y,z
1/2-x,1/2+y,-z
1/2-x,1/2-y,-z
1/2+x,1/2-y,z
loop_
_atom_site_type_symbol
_atom_site_label
_atom_site_fract_x
_atom_site_fract_y
_atom_site_fract_z
Si Si1 0.596409 0.818413 0.138753
Si Si2 0.239910 0.916407 0.076766
Si Si3 0.662409 0.327034 0.563632
Si Si4 0.660083 0.708385 0.874670
Si Si5 0.813329 0.587200 0.345125
Si Si6 0.176472 0.849218 0.274748
Si Si7 0.048418 0.155941 0.792940
O O1 0.732516 0.819996 0.120337
O O2 0.465419 0.867099 0.251430
O O3 0.546365 0.733734 0.153453
O O4 0.649671 0.855686 0.026651
O O5 0.229634 0.904208 0.175152
O O6 0.072566 0.910030 0.141012
O O7 0.300556 0.000000 0.024815
O O8 0.750000 0.250000 0.500000
O O9 0.738291 0.393942 0.471516
O O10 0.491647 0.319729 0.635955
O O11 0.665134 0.347403 0.653422
O O12 0.719986 0.776959 0.788671
O O13 0.637165 0.644430 0.821842
O O14 0.500000 0.732328 0.000000
O O15 0.849823 0.500000 0.320275
O O16 0.698679 0.609303 0.343588
#
# Coordination Sequence:
#
# PCOD8114550 Si02
#       7
#     8   8   8   8   8   8   8
#     4  12  22  43  64  95 132 172 221 263 324 390
#     4  11  23  39  61  95 135 169 207 265 328 388
#     4  11  21  42  64  91 131 173 221 263 312 384
#     4  12  21  38  69 100 127 165 219 271 317 388
#     4  12  26  42  65  97 136 173 212 274 340 390
#     4  11  23  38  67  99 132 168 211 267 330 398
#     4  11  22  39  67  92 125 168 219 266 316 386
#
# _framework density 20.38269
#
# number of rings (size 3 to 8) (size 9 to 14) (size 15 to 20)
#    0.000    0.571    7.143    2.571    0.000    3.429 
#    0.000    4.286    0.000    0.857    0.000    0.000 
#    0.000    0.000    0.000    0.000    0.000    0.000 
#
# Total GULP energy -347220.240041 kJ/mol
# GULP energy per Si atom -12400.722859 kJ/mol
# Density = 2.033630 g / cm^3
# Si number density = 20.382690 Si / 1000 Ang^3
#
#
#
# Elastic Constant Matrix: (Units=GPa)
#
#
# Indices 1 2 3 4 5 6 
#
# 1 97.0186 15.5470 25.5392 0.0008 -0.6683 -0.0008
# 2 15.5470 66.2241 20.7416 0.0003 4.0400 -0.0004
# 3 25.5392 20.7416 121.9528 0.0001 0.7900 -0.0006
# 4 0.0008 0.0003 0.0001 21.8613 -0.0007 6.1245
# 5 -0.6683 4.0400 0.7900 -0.0007 30.0999 0.0007
# 6 -0.0008 -0.0004 -0.0006 6.1245 0.0007 15.2896
#
#
#
# Elastic Compliance Matrix: (Units=1/GPa)
#
#
# Indices 1 2 3 4 5 6 
#
# 1 0.011162 -0.002030 -0.001996 -0.000001 0.000573 0.000001
# 2 -0.002030 0.016449 -0.002358 0.000000 -0.002191 0.000000
# 3 -0.001996 -0.002358 0.009019 0.000000 0.000035 0.000000
# 4 -0.000001 0.000000 0.000000 0.051525 0.000002 -0.020639
# 5 0.000573 -0.002191 0.000035 0.000002 0.033529 -0.000002
# 6 0.000001 0.000000 0.000000 -0.020639 -0.000002 0.073671
#
#
# Mechanical properties :
#
#
# Convention : Reuss Voigt Hill
#
# Bulk Modulus (GPa) = 41.90942 45.42788 43.66865
# Shear Modulus (GPa) = 23.13988 28.34135 25.74061
#
# Velocity S-wave (km/s) = 3.37303 3.73293 3.55754
# Velocity P-wave (km/s) = 5.98128 6.39653 6.19239
#
# Compressibility (1/GPa) = 0.02386099
#
# Stress axis : x y z
#
# Youngs Moduli (GPa) = 89.58971 60.79336 110.88011
#
# Poissons Ratio (x) = 0.12342 0.22131
# Poissons Ratio (y) = 0.18189 0.26149
# Poissons Ratio (z) = 0.17882 0.14337
#
# Static dielectric constant tensor:
#      x y z
#    x 3.906910 0.000000 0.128380 
#    y 0.000000 3.474490 0.000000 
#    z 0.128380 0.000000 4.068620 
# 
# 
# High freq. dielectric constant tensor:
#      x y z
#    x 1.800220 0.000000 0.005370 
#    y 0.000000 1.771570 0.000000 
#    z 0.005370 0.000000 1.815870 
# 
# From -- ./inp_files/271383.got.cif
#   From: 2010.06.25/outbox.cif.g09.slc.cpg/sg12_136_cif.got.tgz:271383.got - 2010.06.28 00:19:55.
