data_PCOD8114034
_publ_section_title
;
Structure prediction by ZEFSAII (Michael W. Deem and Ramdas Pophale) SiO2 
 PCOD8114034
Probable space group: C 2/M
;
_chemical_formula_sum "Si O2"
_cell_formula_units_Z 56
_cell_length_a 14.962877
_cell_length_b 18.995315
_cell_length_c 11.935969
_cell_angle_alpha 90.000000
_cell_angle_beta 53.581662
_cell_angle_gamma 90.000000
_cell_volume 2729.954162
_symmetry_space_group_name_H-M "C 2/M"
_symmetry_group_IT_number 12
_symmetry_cell_setting 'monoclinic'
loop_
_space_group_symop_operation_xyz
x,y,z
-x,y,-z
-x,-y,-z
x,-y,z
1/2+x,1/2+y,z
1/2-x,1/2+y,-z
1/2-x,1/2-y,-z
1/2+x,1/2-y,z
loop_
_atom_site_type_symbol
_atom_site_label
_atom_site_fract_x
_atom_site_fract_y
_atom_site_fract_z
Si Si1 0.743781 0.184020 0.299744
Si Si2 0.097558 0.188799 0.507610
Si Si3 0.713551 0.324060 0.980691
Si Si4 0.264747 0.082211 0.494018
Si Si5 0.665120 0.077131 0.944431
Si Si6 0.519653 0.726121 0.805175
Si Si7 0.556886 0.882617 0.807775
O O1 0.668271 0.249021 0.396926
O O2 0.724622 0.163314 0.184379
O O3 0.724835 0.115185 0.390008
O O4 0.871115 0.206017 0.209208
O O5 0.174636 0.123493 0.485809
O O6 0.036920 0.219877 0.660248
O O7 0.000000 0.160712 0.500000
O O8 0.747015 0.384574 0.041920
O O9 0.750000 0.250000 0.000000
O O10 0.579438 0.322901 0.074826
O O11 0.385044 0.092381 0.349074
O O12 0.232221 0.000000 0.526850
O O13 0.544898 0.065595 0.091600
O O14 0.714627 0.000000 0.882370
O O15 0.649012 0.117897 0.838595
O O16 0.495413 0.807678 0.846140
#
# Coordination Sequence:
#
# PCOD8114034 Si02
#       7
#     8   8   8   8   8   8   8
#     4  11  23  42  64  92 130 170 215 264 317 383
#     4  11  23  39  64  93 130 161 211 271 323 367
#     4  12  24  38  65  96 127 166 217 267 316 379
#     4  11  23  41  66  92 126 174 214 256 323 390
#     4  11  25  40  60  95 133 168 210 266 325 380
#     4  11  21  39  64  95 123 163 216 266 315 373
#     4  11  20  41  66  92 126 167 214 263 319 386
#
# _framework density 20.513165000000001
#
# number of rings (size 3 to 8) (size 9 to 14) (size 15 to 20)
#    0.000    0.857    4.286    4.714    4.000    0.857 
#    0.000    2.857    0.000    6.429    0.000    0.000 
#    0.000    0.000    0.000    0.000    0.000    0.000 
#
# Total GULP energy -347183.296200 kJ/mol
# GULP energy per Si atom -12399.403436 kJ/mol
# Density = 2.046648 g / cm^3
# Si number density = 20.513165 Si / 1000 Ang^3
#
#
#
# Elastic Constant Matrix: (Units=GPa)
#
#
# Indices 1 2 3 4 5 6 
#
# 1 74.8752 33.7820 28.2433 0.0000 7.2071 0.0000
# 2 33.7820 123.5146 29.1259 0.0000 3.6614 0.0000
# 3 28.2433 29.1259 108.6708 0.0000 -0.1067 0.0000
# 4 0.0000 0.0000 0.0000 16.1212 0.0000 -3.3141
# 5 7.2071 3.6614 -0.1067 0.0000 30.0632 0.0000
# 6 0.0000 0.0000 0.0000 -3.3141 0.0000 19.2696
#
#
#
# Elastic Compliance Matrix: (Units=1/GPa)
#
#
# Indices 1 2 3 4 5 6 
#
# 1 0.016603 -0.003648 -0.003341 0.000000 -0.003548 0.000000
# 2 -0.003648 0.009478 -0.001592 0.000000 -0.000285 0.000000
# 3 -0.003341 -0.001592 0.010498 0.000000 0.001032 0.000000
# 4 0.000000 0.000000 0.000000 0.064304 0.000000 0.011059
# 5 -0.003548 -0.000285 0.001032 0.000000 0.034152 0.000000
# 6 0.000000 0.000000 0.000000 0.011059 0.000000 0.053797
#
#
# Mechanical properties :
#
#
# Convention : Reuss Voigt Hill
#
# Bulk Modulus (GPa) = 51.50236 54.37367 52.93801
# Shear Modulus (GPa) = 23.53302 27.48476 25.50889
#
# Velocity S-wave (km/s) = 3.39073 3.66438 3.53021
# Velocity P-wave (km/s) = 6.36325 6.66842 6.51762
#
# Compressibility (1/GPa) = 0.01941659
#
# Stress axis : x y z
#
# Youngs Moduli (GPa) = 60.22937 105.50795 95.25447
#
# Poissons Ratio (x) = 0.38490 0.31823
# Poissons Ratio (y) = 0.21972 0.15169
# Poissons Ratio (z) = 0.20122 0.16801
#
# Static dielectric constant tensor:
#      x y z
#    x 3.855970 0.000000 -0.063050 
#    y 0.000000 3.586970 0.000000 
#    z -0.063050 0.000000 4.026110 
# 
# 
# High freq. dielectric constant tensor:
#      x y z
#    x 1.798940 0.000000 0.001910 
#    y 0.000000 1.785880 0.000000 
#    z 0.001910 0.000000 1.818300 
# 
# From -- ./inp_files/146043.got.cif
#   From: 2010.06.25/outbox.cif.g09.slc.cpg/sg12_74_cif.got.tgz:146043.got - 2010.06.28 00:19:55.
