data_PCOD8114903
_publ_section_title
;
Structure prediction by ZEFSAII (Michael W. Deem and Ramdas Pophale) SiO2 
 PCOD8114903
Probable space group: C 2/M
;
_chemical_formula_sum "Si O2"
_cell_formula_units_Z 64
_cell_length_a 14.204816
_cell_length_b 28.485830
_cell_length_c 9.299853
_cell_angle_alpha 90.000000
_cell_angle_beta 124.216355
_cell_angle_gamma 90.000000
_cell_volume 3111.745858
_symmetry_space_group_name_H-M "C 2/M"
_symmetry_group_IT_number 12
_symmetry_cell_setting 'monoclinic'
loop_
_space_group_symop_operation_xyz
x,y,z
-x,y,-z
-x,-y,-z
x,-y,z
1/2+x,1/2+y,z
1/2-x,1/2+y,-z
1/2-x,1/2-y,-z
1/2+x,1/2-y,z
loop_
_atom_site_type_symbol
_atom_site_label
_atom_site_fract_x
_atom_site_fract_y
_atom_site_fract_z
Si Si1 0.801590 0.689138 0.698777
Si Si2 0.572078 0.446539 0.352106
Si Si3 0.392450 0.884297 0.986298
Si Si4 0.394840 0.257156 0.308503
Si Si5 0.199418 0.137648 0.342791
Si Si6 0.046488 0.773528 0.190051
Si Si7 0.607305 0.152186 0.697305
Si Si8 0.827388 0.053187 0.248061
O O1 0.877000 0.663272 0.882283
O O2 0.694720 0.710089 0.690770
O O3 0.762379 0.652377 0.544282
O O4 0.872563 0.731074 0.682309
O O5 0.586536 0.500000 0.309098
O O6 0.629078 0.410457 0.291746
O O7 0.637554 0.440110 0.557633
O O8 0.438484 0.433840 0.249499
O O9 0.278168 0.914579 0.884179
O O10 0.500000 0.910311 0.000000
O O11 0.422429 0.872931 0.177746
O O12 0.500000 0.249811 0.500000
O O13 0.439555 0.282431 0.202761
O O14 0.348847 0.205210 0.233091
O O15 0.114651 0.178904 0.226300
O O16 0.288642 0.126787 0.293298
O O17 0.000000 0.755584 0.000000
O O18 0.500000 0.149469 0.500000
O O19 0.790039 0.000000 0.185716
#
# Coordination Sequence:
#
# PCOD8114903 Si02
#       8
#     8   8   8   8   8   8   8   8
#     4  12  23  41  62  90 123 173 223 265 310 371
#     4   9  20  41  70 101 129 160 204 273 336 383
#     4  12  25  41  67  94 127 172 220 264 313 388
#     4  11  22  39  61  84 121 172 219 270 309 366
#     4  12  23  40  66  94 126 169 216 265 323 391
#     4  12  26  38  56  90 131 169 218 265 321 377
#     4  11  25  42  61  89 133 175 213 259 322 376
#     4   9  20  41  71 101 127 157 210 273 326 378
#
# _framework density 20.567233000000002
#
# number of rings (size 3 to 8) (size 9 to 14) (size 15 to 20)
#    0.000    1.000    3.750    5.250    3.500    1.250 
#    0.000    0.625    0.000    2.625    0.000    0.000 
#    0.000    0.000    0.000    0.000    0.000    0.000 
#
# Total GULP energy -396802.754266 kJ/mol
# GULP energy per Si atom -12400.086071 kJ/mol
# Density = 2.052042 g / cm^3
# Si number density = 20.567233 Si / 1000 Ang^3
#
#
#
# Elastic Constant Matrix: (Units=GPa)
#
#
# Indices 1 2 3 4 5 6 
#
# 1 145.8192 50.4503 39.4951 0.0000 -12.6116 0.0000
# 2 50.4503 94.4727 22.9342 0.0000 6.5959 0.0000
# 3 39.4951 22.9342 79.6886 0.0000 -3.9112 0.0000
# 4 0.0000 0.0000 0.0000 14.0674 0.0000 1.5936
# 5 -12.6116 6.5959 -3.9112 0.0000 33.3396 0.0000
# 6 0.0000 0.0000 0.0000 1.5936 0.0000 40.0291
#
#
#
# Elastic Compliance Matrix: (Units=1/GPa)
#
#
# Indices 1 2 3 4 5 6 
#
# 1 0.009734 -0.004701 -0.003264 0.000000 0.004229 0.000000
# 2 -0.004701 0.013888 -0.001900 0.000000 -0.004749 0.000000
# 3 -0.003264 -0.001900 0.014756 0.000000 0.000872 0.000000
# 4 0.000000 0.000000 0.000000 0.071408 0.000000 -0.002843
# 5 0.004229 -0.004749 0.000872 0.000000 0.032636 0.000000
# 6 0.000000 0.000000 0.000000 -0.002843 0.000000 0.025095
#
#
# Mechanical properties :
#
#
# Convention : Reuss Voigt Hill
#
# Bulk Modulus (GPa) = 53.62399 60.63773 57.13086
# Shear Modulus (GPa) = 25.84453 31.29396 28.56925
#
# Velocity S-wave (km/s) = 3.54868 3.90493 3.73106
# Velocity P-wave (km/s) = 6.55134 7.06244 6.81168
#
# Compressibility (1/GPa) = 0.01864837
#
# Stress axis : x y z
#
# Youngs Moduli (GPa) = 102.73165 72.00245 67.76845
#
# Poissons Ratio (x) = 0.33849 0.22118
# Poissons Ratio (y) = 0.48296 0.12877
# Poissons Ratio (z) = 0.33530 0.13682
#
# Static dielectric constant tensor:
#      x y z
#    x 3.888040 0.000000 0.077240 
#    y 0.000000 3.656850 0.000000 
#    z 0.077240 0.000000 3.674320 
# 
# 
# High freq. dielectric constant tensor:
#      x y z
#    x 1.822240 0.000000 0.004020 
#    y 0.000000 1.783880 0.000000 
#    z 0.004020 0.000000 1.797660 
# 
# From -- ./inp_files/68283.got.cif
#   From: 2010.06.25/outbox.cif.g09.slc.cpg/sg12_35_cif.got.tgz:68283.got - 2010.06.28 00:19:55.
