data_PCOD8114529
_publ_section_title
;
Structure prediction by ZEFSAII (Michael W. Deem and Ramdas Pophale) SiO2 
 PCOD8114529
Probable space group: C 2/M
;
_chemical_formula_sum "Si O2"
_cell_formula_units_Z 56
_cell_length_a 11.526116
_cell_length_b 30.447917
_cell_length_c 16.042381
_cell_angle_alpha 90.000000
_cell_angle_beta 27.505276
_cell_angle_gamma 90.000000
_cell_volume 2600.110550
_symmetry_space_group_name_H-M "C 2/M"
_symmetry_group_IT_number 12
_symmetry_cell_setting 'monoclinic'
loop_
_space_group_symop_operation_xyz
x,y,z
-x,y,-z
-x,-y,-z
x,-y,z
1/2+x,1/2+y,z
1/2-x,1/2+y,-z
1/2-x,1/2-y,-z
1/2+x,1/2-y,z
loop_
_atom_site_type_symbol
_atom_site_label
_atom_site_fract_x
_atom_site_fract_y
_atom_site_fract_z
Si Si1 0.894749 0.451315 0.732118
Si Si2 0.463919 0.425746 0.902337
Si Si3 0.250842 0.786938 0.619099
Si Si4 0.304539 0.808774 0.395780
Si Si5 0.874634 0.097287 0.498276
Si Si6 0.210113 0.950780 0.166666
Si Si7 0.623467 0.675097 0.010197
O O1 0.998690 0.500000 0.645735
O O2 0.764494 0.430822 0.731163
O O3 0.113663 0.421902 0.631326
O O4 0.681549 0.454296 0.937371
O O5 0.377879 0.446925 0.871610
O O6 0.386700 0.375261 0.956633
O O7 0.500000 0.808176 0.500000
O O8 0.235439 0.807928 0.537669
O O9 0.297530 0.734782 0.583046
O O10 0.009208 0.797346 0.830981
O O11 0.162701 0.851915 0.454003
O O12 0.593620 0.809985 0.184548
O O13 0.000000 0.074300 0.500000
O O14 0.072853 0.088983 0.299695
O O15 0.137062 0.000000 0.244342
O O16 0.500000 0.942522 0.000000
O O17 0.500000 0.683917 0.000000
#
# Coordination Sequence:
#
# PCOD8114529 Si02
#       7
#     8   8   8   8   8   8   8
#     4  11  22  38  65  97 128 176 222 274 341 401
#     4  11  21  41  65  97 135 173 220 287 336 409
#     4  11  24  41  69  98 134 179 224 288 351 419
#     4  11  24  45  65  99 135 175 232 288 347 419
#     4  12  25  44  67  92 135 178 228 287 347 421
#     4  11  25  43  65  96 134 181 232 286 347 414
#     4  12  21  41  70 100 135 179 228 279 359 415
#
# _framework density 21.537547
#
# number of rings (size 3 to 8) (size 9 to 14) (size 15 to 20)
#    0.000    0.714    4.286    4.714    0.000    2.857 
#    0.000    1.429    0.000    0.000    0.000    0.000 
#    0.000    0.000    0.000    0.000    0.000    0.000 
#
# Total GULP energy -346990.474585 kJ/mol
# GULP energy per Si atom -12392.516949 kJ/mol
# Density = 2.148853 g / cm^3
# Si number density = 21.537547 Si / 1000 Ang^3
#
#
#
# Elastic Constant Matrix: (Units=GPa)
#
#
# Indices 1 2 3 4 5 6 
#
# 1 141.5129 23.8597 45.5703 -0.0001 -16.4451 0.0002
# 2 23.8597 82.4075 26.0340 -0.0001 -1.8571 0.0000
# 3 45.5703 26.0340 125.5474 -0.0001 4.1119 0.0004
# 4 -0.0001 -0.0001 -0.0001 28.7561 0.0000 -9.0138
# 5 -16.4451 -1.8571 4.1119 0.0000 33.5605 -0.0002
# 6 0.0002 0.0000 0.0004 -9.0138 -0.0002 59.0584
#
#
#
# Elastic Compliance Matrix: (Units=1/GPa)
#
#
# Indices 1 2 3 4 5 6 
#
# 1 0.008837 -0.001491 -0.003050 0.000000 0.004621 0.000000
# 2 -0.001491 0.013274 -0.002220 0.000000 0.000276 0.000000
# 3 -0.003050 -0.002220 0.009624 0.000000 -0.002796 0.000000
# 4 0.000000 0.000000 0.000000 0.036523 0.000000 0.005574
# 5 0.004621 0.000276 -0.002796 0.000000 0.032419 0.000000
# 6 0.000000 0.000000 0.000000 0.005574 0.000000 0.017783
#
#
# Mechanical properties :
#
#
# Convention : Reuss Voigt Hill
#
# Bulk Modulus (GPa) = 54.90599 60.04397 57.47498
# Shear Modulus (GPa) = 36.21775 41.20858 38.71316
#
# Velocity S-wave (km/s) = 4.10519 4.37892 4.24426
# Velocity P-wave (km/s) = 6.92955 7.31477 7.12476
#
# Compressibility (1/GPa) = 0.01821295
#
# Stress axis : x y z
#
# Youngs Moduli (GPa) = 113.16014 75.33406 103.90543
#
# Poissons Ratio (x) = 0.11232 0.31689
# Poissons Ratio (y) = 0.16872 0.23072
# Poissons Ratio (z) = 0.34511 0.16728
#
# Static dielectric constant tensor:
#      x y z
#    x -8.932010 0.000000 4.701880 
#    y 0.000000 3.892270 0.000000 
#    z 4.701880 0.000000 2.139210 
# 
# 
# High freq. dielectric constant tensor:
#      x y z
#    x 1.861690 0.000000 -0.006160 
#    y 0.000000 1.849840 0.000000 
#    z -0.006160 0.000000 1.841130 
# 
# From -- ./inp_files/210017.got.cif
#   From: 2010.06.25/outbox.cif.g09.slc.cpg/sg12_106_cif.got.tgz:210017.got - 2010.06.28 00:19:55.
