data_PCOD8114229
_publ_section_title
;
Structure prediction by ZEFSAII (Michael W. Deem and Ramdas Pophale) SiO2 
 PCOD8114229
Probable space group: C 2/M
;
_chemical_formula_sum "Si O2"
_cell_formula_units_Z 48
_cell_length_a 9.228623
_cell_length_b 18.985870
_cell_length_c 20.818899
_cell_angle_alpha 90.000000
_cell_angle_beta 136.030232
_cell_angle_gamma 90.000000
_cell_volume 2532.555767
_symmetry_space_group_name_H-M "C 2/M"
_symmetry_group_IT_number 12
_symmetry_cell_setting 'monoclinic'
loop_
_space_group_symop_operation_xyz
x,y,z
-x,y,-z
-x,-y,-z
x,-y,z
1/2+x,1/2+y,z
1/2-x,1/2+y,-z
1/2-x,1/2-y,-z
1/2+x,1/2-y,z
loop_
_atom_site_type_symbol
_atom_site_label
_atom_site_fract_x
_atom_site_fract_y
_atom_site_fract_z
Si Si1 0.830384 0.578520 0.581841
Si Si2 0.632400 0.178519 0.978748
Si Si3 0.501589 0.582259 0.075604
Si Si4 0.363867 0.830670 0.252423
Si Si5 0.159870 0.312628 0.229393
Si Si6 0.944540 0.078686 0.378867
O O1 0.916818 0.500000 0.595106
O O2 0.677004 0.602235 0.475025
O O3 0.705230 0.576810 0.608024
O O4 0.020553 0.633324 0.649694
O O5 0.481642 0.156328 0.872550
O O6 0.500000 0.191210 0.000000
O O7 0.750000 0.250000 0.000000
O O8 0.799290 0.116922 0.044005
O O9 0.492953 0.500000 0.086772
O O10 0.712485 0.612009 0.172921
O O11 0.500000 0.600283 0.000000
O O12 0.235625 0.764906 0.236615
O O13 0.529901 0.805127 0.253031
O O14 0.356176 0.365553 0.299381
O O15 0.951436 0.000000 0.350638
#
# Coordination Sequence:
#
# PCOD8114229 Si02
#       6
#     8   8   8   8   8   8
#     4   8  15  31  55  80 109 141 181 232 276 321
#     4  12  23  39  60  81 116 153 189 228 278 332
#     4  11  23  39  59  84 111 146 191 235 279 335
#     4  11  21  35  56  85 113 146 187 226 280 335
#     4  11  22  34  57  83 110 149 185 229 279 328
#     4   8  16  32  54  81 108 140 184 231 276 325
#
# _framework density 18.953185000000001
#
# number of rings (size 3 to 8) (size 9 to 14) (size 15 to 20)
#    0.000    1.833    3.333    3.000    0.000    2.333 
#    0.000    0.000    0.000    0.000    0.000    2.333 
#    0.000    0.000    0.000    0.000    0.000    0.000 
#
# Total GULP energy -297614.462915 kJ/mol
# GULP energy per Si atom -12400.602621 kJ/mol
# Density = 1.891005 g / cm^3
# Si number density = 18.953185 Si / 1000 Ang^3
#
#
#
# Elastic Constant Matrix: (Units=GPa)
#
#
# Indices 1 2 3 4 5 6 
#
# 1 75.5228 35.1920 20.9183 0.0000 8.0007 0.0001
# 2 35.1920 108.5051 56.2694 0.0000 10.6175 0.0000
# 3 20.9183 56.2694 132.7798 0.0001 11.9140 0.0001
# 4 0.0000 0.0000 0.0001 36.2001 0.0000 -1.2357
# 5 8.0007 10.6175 11.9140 0.0000 21.3657 0.0001
# 6 0.0001 0.0000 0.0001 -1.2357 0.0001 10.4383
#
#
#
# Elastic Compliance Matrix: (Units=1/GPa)
#
#
# Indices 1 2 3 4 5 6 
#
# 1 0.015855 -0.004701 -0.000192 0.000000 -0.003494 0.000000
# 2 -0.004701 0.013423 -0.004745 0.000000 -0.002264 0.000000
# 3 -0.000192 -0.004745 0.009847 0.000000 -0.003061 0.000000
# 4 0.000000 0.000000 0.000000 0.027736 0.000000 0.003283
# 5 -0.003494 -0.002264 -0.003061 0.000000 0.050945 0.000000
# 6 0.000000 0.000000 0.000000 0.003283 0.000000 0.096189
#
#
# Mechanical properties :
#
#
# Convention : Reuss Voigt Hill
#
# Bulk Modulus (GPa) = 50.37912 60.17413 55.27662
# Shear Modulus (GPa) = 20.84321 27.22935 24.03628
#
# Velocity S-wave (km/s) = 3.31980 3.79445 3.56503
# Velocity P-wave (km/s) = 6.42910 7.14247 6.79515
#
# Compressibility (1/GPa) = 0.01984949
#
# Stress axis : x y z
#
# Youngs Moduli (GPa) = 63.07221 74.49993 101.55506
#
# Poissons Ratio (x) = 0.35020 0.01952
# Poissons Ratio (y) = 0.29648 0.48184
# Poissons Ratio (z) = 0.01212 0.35347
#
# Static dielectric constant tensor:
#      x y z
#    x 3.158930 0.000000 0.169910 
#    y 0.000000 3.590390 0.000000 
#    z 0.169910 0.000000 3.912970 
# 
# 
# High freq. dielectric constant tensor:
#      x y z
#    x 1.700110 0.000000 0.014140 
#    y 0.000000 1.740320 0.000000 
#    z 0.014140 0.000000 1.753800 
# 
# From -- ./inp_files/196487.got.cif
#   From: 2010.06.25/outbox.cif.g09.slc.cpg/sg12_99_cif.got.tgz:196487.got - 2010.06.28 00:19:55.
