data_PCOD8114392
_publ_section_title
;
Structure prediction by ZEFSAII (Michael W. Deem and Ramdas Pophale) SiO2 
 PCOD8114392
Probable space group: C 2/M
;
_chemical_formula_sum "Si O2"
_cell_formula_units_Z 48
_cell_length_a 13.043036
_cell_length_b 32.658967
_cell_length_c 10.769845
_cell_angle_alpha 90.000000
_cell_angle_beta 32.915192
_cell_angle_gamma 90.000000
_cell_volume 2492.917299
_symmetry_space_group_name_H-M "C 2/M"
_symmetry_group_IT_number 12
_symmetry_cell_setting 'monoclinic'
loop_
_space_group_symop_operation_xyz
x,y,z
-x,y,-z
-x,-y,-z
x,-y,z
1/2+x,1/2+y,z
1/2-x,1/2+y,-z
1/2-x,1/2-y,-z
1/2+x,1/2-y,z
loop_
_atom_site_type_symbol
_atom_site_label
_atom_site_fract_x
_atom_site_fract_y
_atom_site_fract_z
Si Si1 0.485711 0.566981 0.161092
Si Si2 0.305052 0.000000 0.550074
Si Si3 0.299690 0.291767 0.647326
Si Si4 0.355761 0.203785 0.534122
Si Si5 0.308842 0.204621 0.976390
Si Si6 0.721180 0.000000 0.129641
Si Si7 0.055193 0.156818 0.717833
O O1 0.301033 0.540985 0.385047
O O2 0.470956 0.608326 0.254433
O O3 0.500000 0.576262 0.000000
O O4 0.667185 0.541087 0.022587
O O5 0.514227 0.000000 0.278144
O O6 0.303527 0.000000 0.698930
O O7 0.500000 0.280070 0.500000
O O8 0.248271 0.247827 0.638527
O O9 0.326578 0.328981 0.524063
O O10 0.167974 0.302980 0.898912
O O11 0.500000 0.195333 0.500000
O O12 0.479710 0.196546 0.284243
O O13 0.182037 0.171316 0.707206
O O14 0.250000 0.250000 0.000000
O O15 0.154820 0.175437 0.068323
#
# Coordination Sequence:
#
# PCOD8114392 Si02
#       7
#     8   4   8   8   8   4   8
#     4   9  19  31  49  82 110 141 180 216 280 335
#     4   8  15  33  54  75 107 141 178 214 266 345
#     4   9  19  37  53  73 103 145 197 231 271 327
#     4  11  22  37  51  78 107 147 196 228 277 327
#     4  11  21  38  55  74 104 148 195 237 272 324
#     4   8  15  33  56  73 105 148 172 215 274 338
#     4  11  23  35  52  81 115 145 183 240 275 319
#
# _framework density 19.254549999999998
#
# number of rings (size 3 to 8) (size 9 to 14) (size 15 to 20)
#    0.000    2.167    5.000    1.500    2.333    2.000 
#    3.000    0.000    0.000    0.000    0.000   21.000 
#    0.000   17.333    0.000    0.000    0.000    0.000 
#
# Total GULP energy -297401.178835 kJ/mol
# GULP energy per Si atom -12391.715785 kJ/mol
# Density = 1.921073 g / cm^3
# Si number density = 19.254550 Si / 1000 Ang^3
#
#
#
# Elastic Constant Matrix: (Units=GPa)
#
#
# Indices 1 2 3 4 5 6 
#
# 1 59.6929 45.2290 32.2300 0.0000 -13.2081 0.0000
# 2 45.2290 166.3167 52.4778 0.0000 -15.9438 0.0000
# 3 32.2300 52.4778 97.0814 0.0000 -11.7810 0.0000
# 4 0.0000 0.0000 0.0000 17.1223 0.0000 3.9085
# 5 -13.2081 -15.9438 -11.7810 0.0000 34.0950 0.0000
# 6 0.0000 0.0000 0.0000 3.9085 0.0000 17.5058
#
#
#
# Elastic Compliance Matrix: (Units=1/GPa)
#
#
# Indices 1 2 3 4 5 6 
#
# 1 0.023986 -0.004452 -0.004887 0.000000 0.005522 0.000000
# 2 -0.004452 0.008226 -0.002830 0.000000 0.001144 0.000000
# 3 -0.004887 -0.002830 0.013634 0.000000 0.001495 0.000000
# 4 0.000000 0.000000 0.000000 0.061540 0.000000 -0.013740
# 5 0.005522 0.001144 0.001495 0.000000 0.032520 0.000000
# 6 0.000000 0.000000 0.000000 -0.013740 0.000000 0.060192
#
#
# Mechanical properties :
#
#
# Convention : Reuss Voigt Hill
#
# Bulk Modulus (GPa) = 46.49114 64.77384 55.63249
# Shear Modulus (GPa) = 21.58868 26.62157 24.10513
#
# Velocity S-wave (km/s) = 3.35210 3.72238 3.54208
# Velocity P-wave (km/s) = 6.25940 7.22417 6.75902
#
# Compressibility (1/GPa) = 0.02150947
#
# Stress axis : x y z
#
# Youngs Moduli (GPa) = 41.69185 121.56920 73.34631
#
# Poissons Ratio (x) = 0.54117 0.35841
# Poissons Ratio (y) = 0.18559 0.20755
# Poissons Ratio (z) = 0.20373 0.34401
#
# Static dielectric constant tensor:
#      x y z
#    x 2.664430 0.000000 -1.842280 
#    y 0.000000 3.258180 0.000000 
#    z -1.842280 0.000000 1.363800 
# 
# 
# High freq. dielectric constant tensor:
#      x y z
#    x 1.738330 0.000000 -0.022050 
#    y 0.000000 1.720020 0.000000 
#    z -0.022050 0.000000 1.750950 
# 
# From -- ./inp_files/149681.got.cif
#   From: 2010.06.25/outbox.cif.g09.slc.cpg/sg12_75_cif.got.tgz:149681.got - 2010.06.28 00:19:55.
