data_PCOD8114020
_publ_section_title
;
Structure prediction by ZEFSAII (Michael W. Deem and Ramdas Pophale) SiO2 
 PCOD8114020
Probable space group: C 2/M
;
_chemical_formula_sum "Si O2"
_cell_formula_units_Z 56
_cell_length_a 8.720164
_cell_length_b 15.332052
_cell_length_c 19.482351
_cell_angle_alpha 90.000000
_cell_angle_beta 80.469378
_cell_angle_gamma 90.000000
_cell_volume 2568.798784
_symmetry_space_group_name_H-M "C 2/M"
_symmetry_group_IT_number 12
_symmetry_cell_setting 'monoclinic'
loop_
_space_group_symop_operation_xyz
x,y,z
-x,y,-z
-x,-y,-z
x,-y,z
1/2+x,1/2+y,z
1/2-x,1/2+y,-z
1/2-x,1/2-y,-z
1/2+x,1/2-y,z
loop_
_atom_site_type_symbol
_atom_site_label
_atom_site_fract_x
_atom_site_fract_y
_atom_site_fract_z
Si Si1 0.712117 0.833254 0.878367
Si Si2 0.232135 0.400950 0.281843
Si Si3 0.674668 0.279474 0.357260
Si Si4 0.601047 0.214301 0.549402
Si Si5 0.588167 0.404613 0.246016
Si Si6 0.137518 0.650394 0.145525
Si Si7 0.826769 0.902041 0.005647
O O1 0.817640 0.905180 0.832269
O O2 0.779686 0.741863 0.849305
O O3 0.534239 0.840747 0.871081
O O4 0.729161 0.844349 0.958969
O O5 0.210470 0.500000 0.314144
O O6 0.190640 0.325452 0.340623
O O7 0.408788 0.383978 0.245109
O O8 0.128355 0.395229 0.220637
O O9 0.520016 0.289389 0.415906
O O10 0.823753 0.323915 0.385995
O O11 0.663065 0.331844 0.288584
O O12 0.500000 0.157159 0.500000
O O13 0.750000 0.250000 0.500000
O O14 0.605180 0.500000 0.279004
O O15 0.239661 0.595113 0.084724
O O16 0.839367 0.000000 0.976224
O O17 0.000000 0.861499 0.000000
#
# Coordination Sequence:
#
# PCOD8114020 Si02
#       7
#     8   8   8   8   8   8   8
#     4  12  25  41  63  91 127 169 222 275 330 390
#     4  11  24  41  64  97 134 173 219 274 332 387
#     4  11  20  40  68  95 131 174 214 261 323 384
#     4   9  20  38  68 100 129 171 216 256 315 383
#     4  11  24  41  64  97 133 174 220 272 330 391
#     4  12  25  41  63  91 127 169 221 276 330 390
#     4  11  24  43  64  87 123 171 218 274 336 391
#
# _framework density 21.800072
#
# number of rings (size 3 to 8) (size 9 to 14) (size 15 to 20)
#    0.000    1.000    2.857    4.286    2.000    5.143 
#    0.000    0.000    0.000   17.143    0.000    0.000 
#    0.000    0.000    0.000    0.000    0.000    0.000 
#
# Total GULP energy -346913.208022 kJ/mol
# GULP energy per Si atom -12389.757429 kJ/mol
# Density = 2.175045 g / cm^3
# Si number density = 21.800072 Si / 1000 Ang^3
#
#
#
# Elastic Constant Matrix: (Units=GPa)
#
#
# Indices 1 2 3 4 5 6 
#
# 1 150.7359 24.2447 39.4361 0.0000 15.6773 0.0000
# 2 24.2447 92.2937 23.5276 0.0000 7.5386 0.0000
# 3 39.4361 23.5276 102.8478 0.0000 15.4330 0.0000
# 4 0.0000 0.0000 0.0000 5.3797 0.0000 -0.2672
# 5 15.6773 7.5386 15.4330 0.0000 50.6433 0.0000
# 6 0.0000 0.0000 0.0000 -0.2672 0.0000 23.2592
#
#
#
# Elastic Compliance Matrix: (Units=1/GPa)
#
#
# Indices 1 2 3 4 5 6 
#
# 1 0.007619 -0.001268 -0.002416 0.000000 -0.001434 0.000000
# 2 -0.001268 0.011761 -0.002096 0.000000 -0.000719 0.000000
# 3 -0.002416 -0.002096 0.011496 0.000000 -0.002443 0.000000
# 4 0.000000 0.000000 0.000000 0.185991 0.000000 0.002137
# 5 -0.001434 -0.000719 -0.002443 0.000000 0.021041 0.000000
# 6 0.000000 0.000000 0.000000 0.002137 0.000000 0.043018
#
#
# Mechanical properties :
#
#
# Convention : Reuss Voigt Hill
#
# Bulk Modulus (GPa) = 51.77466 57.81049 54.79257
# Shear Modulus (GPa) = 16.72650 33.10104 24.91377
#
# Velocity S-wave (km/s) = 2.77297 3.90088 3.38424
# Velocity P-wave (km/s) = 5.83556 6.84582 6.36078
#
# Compressibility (1/GPa) = 0.01931447
#
# Stress axis : x y z
#
# Youngs Moduli (GPa) = 131.24386 85.02453 86.98859
#
# Poissons Ratio (x) = 0.10785 0.21019
# Poissons Ratio (y) = 0.16648 0.18235
# Poissons Ratio (z) = 0.31713 0.17823
#
# Static dielectric constant tensor:
#      x y z
#    x 4.327450 0.000000 0.268910 
#    y 0.000000 3.689820 0.000000 
#    z 0.268910 0.000000 4.265740 
# 
# 
# High freq. dielectric constant tensor:
#      x y z
#    x 1.880400 0.000000 0.006070 
#    y 0.000000 1.819640 0.000000 
#    z 0.006070 0.000000 1.865870 
# 
# From -- ./inp_files/300136.got.cif
#   From: 2010.06.25/outbox.cif.g09.slc.cpg/sg12_151_cif.got.tgz:300136.got - 2010.06.28 00:19:55.
