data_PCOD8114139
_publ_section_title
;
Structure prediction by ZEFSAII (Michael W. Deem and Ramdas Pophale) SiO2 
 PCOD8114139
Probable space group: C 2/M
;
_chemical_formula_sum "Si O2"
_cell_formula_units_Z 56
_cell_length_a 27.333692
_cell_length_b 14.493262
_cell_length_c 27.361357
_cell_angle_alpha 90.000000
_cell_angle_beta 163.491768
_cell_angle_gamma 90.000000
_cell_volume 3080.026632
_symmetry_space_group_name_H-M "C 2/M"
_symmetry_group_IT_number 12
_symmetry_cell_setting 'monoclinic'
loop_
_space_group_symop_operation_xyz
x,y,z
-x,y,-z
-x,-y,-z
x,-y,z
1/2+x,1/2+y,z
1/2-x,1/2+y,-z
1/2-x,1/2-y,-z
1/2+x,1/2-y,z
loop_
_atom_site_type_symbol
_atom_site_label
_atom_site_fract_x
_atom_site_fract_y
_atom_site_fract_z
Si Si1 0.657048 0.105208 0.848986
Si Si2 0.211950 0.643656 0.460143
Si Si3 0.934114 0.606284 0.781595
Si Si4 0.760316 0.789368 0.112283
Si Si5 0.172765 0.108928 0.727224
Si Si6 0.918175 0.898804 0.184262
Si Si7 0.288662 0.391740 0.343075
O O1 0.456394 0.113500 0.670914
O O2 0.710299 0.178534 0.857602
O O3 0.692975 0.000000 0.865838
O O4 0.782295 0.133844 0.013307
O O5 0.250000 0.750000 0.500000
O O6 0.193418 0.611480 0.386346
O O7 0.385391 0.596523 0.647772
O O8 0.994726 0.500000 0.846989
O O9 0.844206 0.646737 0.744450
O O10 0.091075 0.675703 0.921198
O O11 0.741400 0.830922 0.148226
O O12 0.916862 0.831036 0.230018
O O13 0.268254 0.131441 0.767138
O O14 0.978404 0.145783 0.536323
O O15 0.186768 0.000000 0.752846
O O16 0.859910 0.000000 0.145873
O O17 0.301880 0.500000 0.362102
#
# Coordination Sequence:
#
# PCOD8114139 Si02
#       7
#     8   8   8   8   8   8   8
#     4  11  24  41  53  74 111 145 187 236 267 305
#     4  12  22  36  55  78 110 147 186 219 263 315
#     4  11  21  33  52  82 116 142 174 221 269 327
#     4  12  21  33  52  78 104 143 182 219 266 320
#     4   9  17  32  52  77 109 140 173 212 262 327
#     4  11  21  35  55  76 105 144 180 217 268 323
#     4   8  17  32  50  76 110 142 169 208 264 328
#
# _framework density 18.181660999999998
#
# number of rings (size 3 to 8) (size 9 to 14) (size 15 to 20)
#    0.000    1.429    2.857    5.571    0.000    1.714 
#    0.000    2.143    0.000    0.000    0.000    4.000 
#    0.000    0.000    0.000    0.000    0.000    0.000 
#
# Total GULP energy -347017.973850 kJ/mol
# GULP energy per Si atom -12393.499066 kJ/mol
# Density = 1.814028 g / cm^3
# Si number density = 18.181661 Si / 1000 Ang^3
#
#
#
# Elastic Constant Matrix: (Units=GPa)
#
#
# Indices 1 2 3 4 5 6 
#
# 1 73.7906 34.6098 14.4239 -0.0211 4.5133 0.0109
# 2 34.6098 100.4808 8.8368 -0.1171 0.1343 0.0245
# 3 14.4239 8.8368 77.7689 -0.2021 11.2186 0.0352
# 4 -0.0211 -0.1171 -0.2021 23.5194 -0.0806 1.2002
# 5 4.5133 0.1343 11.2186 -0.0806 23.8246 0.0080
# 6 0.0109 0.0245 0.0352 1.2002 0.0080 14.3366
#
#
#
# Elastic Compliance Matrix: (Units=1/GPa)
#
#
# Indices 1 2 3 4 5 6 
#
# 1 0.016714 -0.005564 -0.002162 -0.000039 -0.002117 0.000007
# 2 -0.005564 0.011911 -0.000497 0.000055 0.001221 -0.000020
# 3 -0.002162 -0.000497 0.014223 0.000098 -0.006285 -0.000037
# 4 -0.000039 0.000055 0.000098 0.042702 0.000106 -0.003575
# 5 -0.002117 0.001221 -0.006285 0.000106 0.045327 -0.000019
# 6 0.000007 -0.000020 -0.000037 -0.003575 -0.000019 0.070051
#
#
# Mechanical properties :
#
#
# Convention : Reuss Voigt Hill
#
# Bulk Modulus (GPa) = 37.87907 40.86459 39.37183
# Shear Modulus (GPa) = 22.10675 25.28077 23.69376
#
# Velocity S-wave (km/s) = 3.49073 3.73293 3.61386
# Velocity P-wave (km/s) = 6.09310 6.41125 6.25420
#
# Compressibility (1/GPa) = 0.02639980
#
# Stress axis : x y z
#
# Youngs Moduli (GPa) = 59.83137 83.95752 70.30829
#
# Poissons Ratio (x) = 0.46713 0.15204
# Poissons Ratio (y) = 0.33290 0.03498
# Poissons Ratio (z) = 0.12938 0.04177
#
# Static dielectric constant tensor:
#      x y z
#    x 3.427440 0.000010 0.231930 
#    y 0.000010 3.167790 0.000600 
#    z 0.231930 0.000600 3.648000 
# 
# 
# High freq. dielectric constant tensor:
#      x y z
#    x 1.679310 0.000000 0.010250 
#    y 0.000000 1.675860 -0.000010 
#    z 0.010250 -0.000010 1.716540 
# 
# From -- ./inp_files/349791.got.cif
#   From: 2010.06.25/outbox.cif.g09.slc.cpg/sg12_175_cif.got.tgz:349791.got - 2010.06.28 00:19:55.
