data_PCOD8114347
_publ_section_title
;
Structure prediction by ZEFSAII (Michael W. Deem and Ramdas Pophale) SiO2 
 PCOD8114347
Probable space group: C 2/M
;
_chemical_formula_sum "Si O2"
_cell_formula_units_Z 56
_cell_length_a 20.093874
_cell_length_b 8.471503
_cell_length_c 26.373358
_cell_angle_alpha 90.000000
_cell_angle_beta 141.481751
_cell_angle_gamma 90.000000
_cell_volume 2795.844302
_symmetry_space_group_name_H-M "C 2/M"
_symmetry_group_IT_number 12
_symmetry_cell_setting 'monoclinic'
loop_
_space_group_symop_operation_xyz
x,y,z
-x,y,-z
-x,-y,-z
x,-y,z
1/2+x,1/2+y,z
1/2-x,1/2+y,-z
1/2-x,1/2-y,-z
1/2+x,1/2-y,z
loop_
_atom_site_type_symbol
_atom_site_label
_atom_site_fract_x
_atom_site_fract_y
_atom_site_fract_z
Si Si1 0.155272 0.312777 0.978705
Si Si2 0.484561 0.185514 0.433386
Si Si3 0.768729 0.815399 0.258409
Si Si4 0.934279 0.814790 0.808762
Si Si5 0.495920 0.312615 0.735733
Si Si6 0.272330 0.313613 0.147033
Si Si7 0.367558 0.313800 0.563691
O O1 0.143265 0.500000 0.964204
O O2 0.045924 0.224513 0.901756
O O3 0.250000 0.250000 0.000000
O O4 0.180611 0.267097 0.052355
O O5 0.500000 0.247268 0.500000
O O6 0.367533 0.228623 0.343481
O O7 0.578607 0.262175 0.456545
O O8 0.499840 0.000000 0.439945
O O9 0.660481 0.784906 0.223791
O O10 0.749875 0.748886 0.190160
O O11 0.795699 0.000000 0.273909
O O12 0.938043 0.759364 0.752635
O O13 0.910738 0.000000 0.800289
O O14 0.499928 0.500000 0.735782
O O15 0.615658 0.242884 0.806377
O O16 0.434566 0.243395 0.650666
O O17 0.281966 0.500000 0.155600
O O18 0.364905 0.500000 0.564314
O O19 0.250000 0.250000 0.500000
#
# Coordination Sequence:
#
# PCOD8114347 Si02
#       7
#     8   8   8   8   8   8   8
#     4  11  21  37  61  90 121 158 203 252 306 360
#     4  11  25  44  64  89 125 167 203 247 313 374
#     4  11  23  42  65  90 120 158 207 254 301 364
#     4  11  23  40  61  89 126 163 200 247 304 366
#     4   9  18  37  62  85 117 162 199 238 302 365
#     4   9  18  37  63  86 116 160 200 243 306 366
#     4  11  23  41  65  94 125 160 206 255 303 364
#
# _framework density 20.029727000000001
#
# number of rings (size 3 to 8) (size 9 to 14) (size 15 to 20)
#    0.000    1.571    2.857    2.143    2.000    1.714 
#    0.000    9.286    0.000    0.000    0.000    0.000 
#    0.000    0.000    0.000    0.000    0.000    0.000 
#
# Total GULP energy -347212.052684 kJ/mol
# GULP energy per Si atom -12400.430453 kJ/mol
# Density = 1.998414 g / cm^3
# Si number density = 20.029727 Si / 1000 Ang^3
#
#
#
# Elastic Constant Matrix: (Units=GPa)
#
#
# Indices 1 2 3 4 5 6 
#
# 1 147.9793 10.3780 62.6076 0.0000 -9.6546 0.0000
# 2 10.3780 36.6327 13.7834 0.0000 -8.2518 0.0005
# 3 62.6076 13.7834 117.3027 0.0000 -12.7220 -0.0001
# 4 0.0000 0.0000 0.0000 33.0717 0.0000 4.1056
# 5 -9.6546 -8.2518 -12.7220 0.0000 46.3898 0.0000
# 6 0.0000 0.0005 -0.0001 4.1056 0.0000 32.3933
#
#
#
# Elastic Compliance Matrix: (Units=1/GPa)
#
#
# Indices 1 2 3 4 5 6 
#
# 1 0.008758 -0.000668 -0.004546 0.000000 0.000457 0.000000
# 2 -0.000668 0.029464 -0.002631 0.000000 0.004381 0.000000
# 3 -0.004546 -0.002631 0.011448 0.000000 0.001725 0.000000
# 4 0.000000 0.000000 0.000000 0.030721 0.000000 -0.003894
# 5 0.000457 0.004381 0.001725 0.000000 0.022904 0.000000
# 6 0.000000 0.000000 0.000000 -0.003894 0.000000 0.031364
#
#
# Mechanical properties :
#
#
# Convention : Reuss Voigt Hill
#
# Bulk Modulus (GPa) = 29.42890 52.82807 41.12848
# Shear Modulus (GPa) = 30.92652 36.71401 33.82027
#
# Velocity S-wave (km/s) = 3.93368 4.28597 4.11360
# Velocity P-wave (km/s) = 5.94611 7.13616 6.56815
#
# Compressibility (1/GPa) = 0.03398020
#
# Stress axis : x y z
#
# Youngs Moduli (GPa) = 114.18419 33.94006 87.35427
#
# Poissons Ratio (x) = 0.02266 0.39713
# Poissons Ratio (y) = 0.07622 0.22980
# Poissons Ratio (z) = 0.51911 0.08929
#
# Static dielectric constant tensor:
#      x y z
#    x 3.756010 0.000000 -0.341480 
#    y 0.000000 3.395470 0.000000 
#    z -0.341480 0.000000 3.827480 
# 
# 
# High freq. dielectric constant tensor:
#      x y z
#    x 1.794160 0.000000 -0.007240 
#    y 0.000000 1.764080 0.000000 
#    z -0.007240 0.000000 1.794720 
# 
# From -- ./inp_files/363208.got.cif
#   From: 2010.06.25/outbox.cif.g09.slc.cpg/sg12_182_cif.got.tgz:363208.got - 2010.06.28 00:19:55.
