data_PCOD8114410
_publ_section_title
;
Structure prediction by ZEFSAII (Michael W. Deem and Ramdas Pophale) SiO2 
 PCOD8114410
Probable space group: C 2/M
;
_chemical_formula_sum "Si O2"
_cell_formula_units_Z 40
_cell_length_a 25.163265
_cell_length_b 8.281158
_cell_length_c 10.235305
_cell_angle_alpha 90.000000
_cell_angle_beta 65.374544
_cell_angle_gamma 90.000000
_cell_volume 1938.863044
_symmetry_space_group_name_H-M "C 2/M"
_symmetry_group_IT_number 12
_symmetry_cell_setting 'monoclinic'
loop_
_space_group_symop_operation_xyz
x,y,z
-x,y,-z
-x,-y,-z
x,-y,z
1/2+x,1/2+y,z
1/2-x,1/2+y,-z
1/2-x,1/2-y,-z
1/2+x,1/2-y,z
loop_
_atom_site_type_symbol
_atom_site_label
_atom_site_fract_x
_atom_site_fract_y
_atom_site_fract_z
Si Si1 0.110433 0.812512 0.632576
Si Si2 0.689449 0.187493 0.326864
Si Si3 0.508065 0.813113 0.343553
Si Si4 0.371656 0.312538 0.860037
Si Si5 0.821663 0.191512 0.184744
O O1 0.152610 0.791720 0.466144
O O2 0.051181 0.712538 0.675865
O O3 0.141948 0.742412 0.729199
O O4 0.094537 0.000000 0.663708
O O5 0.662863 0.208448 0.210721
O O6 0.755366 0.255429 0.261250
O O7 0.686214 0.000000 0.369758
O O8 0.500000 0.751069 0.500000
O O9 0.558988 0.710713 0.223792
O O10 0.525948 0.000000 0.324369
O O11 0.355702 0.500000 0.859228
O O12 0.351692 0.246154 0.021487
O O13 0.821028 0.000000 0.188339
#
# Coordination Sequence:
#
# PCOD8114410 Si02
#       5
#     8   8   8   8   8
#     4  11  22  39  63  89 117 155 200 241 288 346
#     4  11  21  38  61  88 123 158 194 239 290 343
#     4  11  23  40  61  86 119 153 192 244 299 348
#     4  11  22  39  63  89 117 155 200 241 288 346
#     4   9  22  40  59  88 124 156 191 241 294 345
#
# _framework density 20.630647
#
# number of rings (size 3 to 8) (size 9 to 14) (size 15 to 20)
#    0.000    1.400    2.000    3.600    0.000    1.600 
#    0.000   14.000    0.000    0.000    0.000    0.000 
#    0.000    0.000    0.000    0.000    0.000    0.000 
#
# Total GULP energy -248133.643397 kJ/mol
# GULP energy per Si atom -12406.682170 kJ/mol
# Density = 2.058369 g / cm^3
# Si number density = 20.630647 Si / 1000 Ang^3
#
#
#
# Elastic Constant Matrix: (Units=GPa)
#
#
# Indices 1 2 3 4 5 6 
#
# 1 159.1054 1.5457 54.5212 0.0000 9.0948 0.0000
# 2 1.5457 37.6967 4.9093 0.0000 -0.7695 0.0000
# 3 54.5212 4.9093 80.7019 0.0000 26.9579 0.0000
# 4 0.0000 0.0000 0.0000 16.1797 0.0000 2.7542
# 5 9.0948 -0.7695 26.9579 0.0000 33.5825 0.0000
# 6 0.0000 0.0000 0.0000 2.7542 0.0000 21.9461
#
#
#
# Elastic Compliance Matrix: (Units=1/GPa)
#
#
# Indices 1 2 3 4 5 6 
#
# 1 0.008425 0.000604 -0.006792 0.000000 0.003185 0.000000
# 2 0.000604 0.026953 -0.003005 0.000000 0.002866 0.000000
# 3 -0.006792 -0.003005 0.022643 0.000000 -0.016406 0.000000
# 4 0.000000 0.000000 0.000000 0.063155 0.000000 -0.007926
# 5 0.003185 0.002866 -0.016406 0.000000 0.042150 0.000000
# 6 0.000000 0.000000 0.000000 -0.007926 0.000000 0.046561
#
#
# Mechanical properties :
#
#
# Convention : Reuss Voigt Hill
#
# Bulk Modulus (GPa) = 25.23098 44.38404 34.80751
# Shear Modulus (GPa) = 20.70529 28.77686 24.74107
#
# Velocity S-wave (km/s) = 3.17143 3.73883 3.46676
# Velocity P-wave (km/s) = 5.06626 6.34026 5.73872
#
# Compressibility (1/GPa) = 0.03963382
#
# Stress axis : x y z
#
# Youngs Moduli (GPa) = 118.69815 37.10217 44.16374
#
# Poissons Ratio (x) = -0.02241 0.29997
# Poissons Ratio (y) = -0.07171 0.13272
# Poissons Ratio (z) = 0.80622 0.11150
#
# Static dielectric constant tensor:
#      x y z
#    x 3.882720 0.000000 0.043010 
#    y 0.000000 3.442430 0.000000 
#    z 0.043010 0.000000 3.875940 
# 
# 
# High freq. dielectric constant tensor:
#      x y z
#    x 1.821500 0.000000 -0.000870 
#    y 0.000000 1.792730 0.000000 
#    z -0.000870 0.000000 1.810180 
# 
# From -- ./inp_files/92832.got.cif
#   From: 2010.06.25/outbox.cif.g09.slc.cpg/sg12_47_cif.got.tgz:92832.got - 2010.06.28 00:19:55.
