data_PCOD8114736
_publ_section_title
;
Structure prediction by ZEFSAII (Michael W. Deem and Ramdas Pophale) SiO2 
 PCOD8114736
Probable space group: C 2/M
;
_chemical_formula_sum "Si O2"
_cell_formula_units_Z 32
_cell_length_a 15.138953
_cell_length_b 8.894545
_cell_length_c 13.607634
_cell_angle_alpha 90.000000
_cell_angle_beta 90.552993
_cell_angle_gamma 90.000000
_cell_volume 1832.238350
_symmetry_space_group_name_H-M "C 2/M"
_symmetry_group_IT_number 12
_symmetry_cell_setting 'monoclinic'
loop_
_space_group_symop_operation_xyz
x,y,z
-x,y,-z
-x,-y,-z
x,-y,z
1/2+x,1/2+y,z
1/2-x,1/2+y,-z
1/2-x,1/2-y,-z
1/2+x,1/2-y,z
loop_
_atom_site_type_symbol
_atom_site_label
_atom_site_fract_x
_atom_site_fract_y
_atom_site_fract_z
Si Si1 0.268497 0.678179 0.104314
Si Si2 0.614341 0.169745 0.243338
Si Si3 0.078560 0.330188 0.782896
Si Si4 0.496276 0.677121 0.611995
O O1 0.266116 0.500000 0.093682
O O2 0.193655 0.736113 0.179322
O O3 0.363339 0.730957 0.143525
O O4 0.250000 0.750000 0.000000
O O5 0.522980 0.170924 0.178382
O O6 0.597790 0.271238 0.340872
O O7 0.636599 0.000000 0.277402
O O8 0.115837 0.500000 0.777596
O O9 0.076574 0.256806 0.673038
O O10 0.500000 0.731904 0.500000
O O11 0.507611 0.500000 0.620890
#
# Coordination Sequence:
#
# PCOD8114736 Si02
#       4
#     8   8   8   8
#     4  11  22  37  55  79 108 140 177 219 264 311
#     4   8  19  36  54  76 108 141 174 215 260 313
#     4   9  19  36  55  78 107 140 177 217 260 311
#     4   9  17  32  56  82 107 136 173 218 264 310
#
# _framework density 17.464977000000001
#
# number of rings (size 3 to 8) (size 9 to 14) (size 15 to 20)
#    1.500    1.250    0.000    1.500    0.000    5.000 
#    0.000    6.250    0.000    0.000    0.000    0.000 
#    0.000    0.000    0.000    0.000    0.000    0.000 
#
# Total GULP energy -198222.414554 kJ/mol
# GULP energy per Si atom -12388.900910 kJ/mol
# Density = 1.742523 g / cm^3
# Si number density = 17.464977 Si / 1000 Ang^3
#
#
#
# Elastic Constant Matrix: (Units=GPa)
#
#
# Indices 1 2 3 4 5 6 
#
# 1 42.8067 16.0136 2.4335 0.0000 -5.8803 0.0000
# 2 16.0136 72.7840 30.5593 0.0000 -3.6047 0.0000
# 3 2.4335 30.5593 71.1412 0.0000 -1.0137 0.0000
# 4 0.0000 0.0000 0.0000 32.9650 0.0000 1.9491
# 5 -5.8803 -3.6047 -1.0137 0.0000 31.0680 0.0000
# 6 0.0000 0.0000 0.0000 1.9491 0.0000 26.2017
#
#
#
# Elastic Compliance Matrix: (Units=1/GPa)
#
#
# Indices 1 2 3 4 5 6 
#
# 1 0.026218 -0.006350 0.001892 0.000000 0.004287 0.000000
# 2 -0.006350 0.018392 -0.007674 0.000000 0.000682 0.000000
# 3 0.001892 -0.007674 0.017289 0.000000 0.000032 0.000000
# 4 0.000000 0.000000 0.000000 0.030469 0.000000 -0.002267
# 5 0.004287 0.000682 0.000032 0.000000 0.033079 0.000000
# 6 0.000000 0.000000 0.000000 -0.002267 0.000000 0.038334
#
#
# Mechanical properties :
#
#
# Convention : Reuss Voigt Hill
#
# Bulk Modulus (GPa) = 26.57115 31.63828 29.10472
# Shear Modulus (GPa) = 24.92657 27.22865 26.07761
#
# Velocity S-wave (km/s) = 3.78197 3.95276 3.86831
# Velocity P-wave (km/s) = 5.85816 6.24395 6.05413
#
# Compressibility (1/GPa) = 0.03763480
#
# Stress axis : x y z
#
# Youngs Moduli (GPa) = 38.14198 54.37133 57.84190
#
# Poissons Ratio (x) = 0.34528 -0.10945
# Poissons Ratio (y) = 0.24222 0.44385
# Poissons Ratio (z) = -0.07217 0.41722
#
# Static dielectric constant tensor:
#      x y z
#    x 3.265070 0.000000 -0.033440 
#    y 0.000000 3.242010 0.000000 
#    z -0.033440 0.000000 3.096760 
# 
# 
# High freq. dielectric constant tensor:
#      x y z
#    x 1.656650 0.000000 -0.000670 
#    y 0.000000 1.686440 0.000000 
#    z -0.000670 0.000000 1.658070 
# 
# From -- ./inp_files/138355.got.cif
#   From: 2010.06.25/outbox.cif.g09.slc.cpg/sg12_70_cif.got.tgz:138355.got - 2010.06.28 00:19:55.
