data_PCOD8114428
_publ_section_title
;
Structure prediction by ZEFSAII (Michael W. Deem and Ramdas Pophale) SiO2 
 PCOD8114428
Probable space group: C 2/M
;
_chemical_formula_sum "Si O2"
_cell_formula_units_Z 40
_cell_length_a 9.959590
_cell_length_b 20.313440
_cell_length_c 16.542431
_cell_angle_alpha 90.000000
_cell_angle_beta 40.099365
_cell_angle_gamma 90.000000
_cell_volume 2155.697329
_symmetry_space_group_name_H-M "C 2/M"
_symmetry_group_IT_number 12
_symmetry_cell_setting 'monoclinic'
loop_
_space_group_symop_operation_xyz
x,y,z
-x,y,-z
-x,-y,-z
x,-y,z
1/2+x,1/2+y,z
1/2-x,1/2+y,-z
1/2-x,1/2-y,-z
1/2+x,1/2-y,z
loop_
_atom_site_type_symbol
_atom_site_label
_atom_site_fract_x
_atom_site_fract_y
_atom_site_fract_z
Si Si1 0.156705 0.368638 0.747166
Si Si2 0.283913 0.000000 0.552507
Si Si3 0.745395 0.500000 0.388103
Si Si4 0.760666 0.252666 0.590840
Si Si5 0.662828 0.926379 0.996598
Si Si6 0.998152 0.877294 0.726699
O O1 0.176327 0.437018 0.693965
O O2 0.159728 0.311243 0.679482
O O3 0.343887 0.359030 0.724418
O O4 0.932058 0.374383 0.895094
O O5 0.500000 0.000000 0.500000
O O6 0.148082 0.063719 0.633435
O O7 0.343589 0.000000 0.431403
O O8 0.500000 0.500000 0.500000
O O9 0.750000 0.250000 0.500000
O O10 0.636656 0.314310 0.683700
O O11 0.000000 0.260324 0.500000
O O12 0.703317 0.000000 0.014204
O O13 0.500000 0.934632 0.000000
O O14 0.877052 0.896395 0.864157
#
# Coordination Sequence:
#
# PCOD8114428 Si02
#       6
#     8   4   4   8   8   8
#     4  11  21  38  63  94 119 158 210 256 302 357
#     4  12  24  37  59  93 125 158 204 251 317 366
#     4  12  20  35  65  87 119 156 204 258 297 356
#     4  12  24  40  60  88 130 165 200 248 305 366
#     4   9  18  35  63  94 119 150 202 263 305 351
#     4  11  21  39  63  89 126 160 203 256 303 364
#
# _framework density 18.555478999999998
#
# number of rings (size 3 to 8) (size 9 to 14) (size 15 to 20)
#    0.000    1.000    6.000    2.400    0.000    0.800 
#    0.000    0.000    0.000    4.800    0.000    0.000 
#    0.000    0.000    0.000    0.000    0.000    0.000 
#
# Total GULP energy -247985.773645 kJ/mol
# GULP energy per Si atom -12399.288682 kJ/mol
# Density = 1.851325 g / cm^3
# Si number density = 18.555479 Si / 1000 Ang^3
#
#
#
# Elastic Constant Matrix: (Units=GPa)
#
#
# Indices 1 2 3 4 5 6 
#
# 1 59.5606 15.2885 29.3210 -0.0021 12.1783 0.0010
# 2 15.2885 146.7033 59.2847 -0.0005 3.4440 0.0005
# 3 29.3210 59.2847 129.4235 0.0017 4.1924 0.0009
# 4 -0.0021 -0.0005 0.0017 17.4168 0.0002 28.1518
# 5 12.1783 3.4440 4.1924 0.0002 20.8969 -0.0009
# 6 0.0010 0.0005 0.0009 28.1518 -0.0009 1.5308
#
#
#
# Elastic Compliance Matrix: (Units=1/GPa)
#
#
# Indices 1 2 3 4 5 6 
#
# 1 0.021351 -0.000185 -0.004379 -0.000001 -0.011534 0.000003
# 2 -0.000185 0.008374 -0.003777 0.000000 -0.000515 0.000000
# 3 -0.004379 -0.003777 0.010414 0.000000 0.001085 -0.000001
# 4 -0.000001 0.000000 0.000000 -0.001999 0.000002 0.036758
# 5 -0.011534 -0.000515 0.001085 0.000002 0.054443 -0.000003
# 6 0.000003 0.000000 -0.000001 0.036758 -0.000003 -0.022741
#
#
# Mechanical properties :
#
#
# Convention : Reuss Voigt Hill
#
# Bulk Modulus (GPa) = 42.63119 60.38619 51.50869
# Shear Modulus (GPa) = 52.99812 23.42178 38.20995
#
# Velocity S-wave (km/s) = 5.35014 3.55668 4.54279
# Velocity P-wave (km/s) = 7.82242 7.03426 7.43878
#
# Compressibility (1/GPa) = 0.02345700
#
# Stress axis : x y z
#
# Youngs Moduli (GPa) = 46.83612 119.41236 96.02653
#
# Poissons Ratio (x) = 0.02206 0.42048
# Poissons Ratio (y) = 0.00865 0.36274
# Poissons Ratio (z) = 0.20509 0.45108
#
# Static dielectric constant tensor:
#      x y z
#    x 3.202590 0.000000 -0.093260 
#    y 0.000000 3.550320 0.000000 
#    z -0.093260 0.000000 3.918430 
# 
# 
# High freq. dielectric constant tensor:
#      x y z
#    x 1.692150 0.000000 0.000130 
#    y 0.000000 1.730450 0.000000 
#    z 0.000130 0.000000 1.738960 
# 
# From -- ./inp_files/196786.got.cif
#   From: 2010.06.25/outbox.cif.g09.slc.cpg/sg12_99_cif.got.tgz:196786.got - 2010.06.28 00:19:55.
