data_PCOD8114559
_publ_section_title
;
Structure prediction by ZEFSAII (Michael W. Deem and Ramdas Pophale) SiO2 
 PCOD8114559
Probable space group: C 2/M
;
_chemical_formula_sum "Si O2"
_cell_formula_units_Z 36
_cell_length_a 21.538238
_cell_length_b 9.726761
_cell_length_c 20.741989
_cell_angle_alpha 90.000000
_cell_angle_beta 156.584670
_cell_angle_gamma 90.000000
_cell_volume 1726.829657
_symmetry_space_group_name_H-M "C 2/M"
_symmetry_group_IT_number 12
_symmetry_cell_setting 'monoclinic'
loop_
_space_group_symop_operation_xyz
x,y,z
-x,y,-z
-x,-y,-z
x,-y,z
1/2+x,1/2+y,z
1/2-x,1/2+y,-z
1/2-x,1/2-y,-z
1/2+x,1/2-y,z
loop_
_atom_site_type_symbol
_atom_site_label
_atom_site_fract_x
_atom_site_fract_y
_atom_site_fract_z
Si Si1 0.419267 0.500000 0.992474
Si Si2 0.418501 0.500000 0.717979
Si Si3 0.437676 0.000000 0.816257
Si Si4 0.686498 0.500000 0.679497
Si Si5 0.575133 0.000000 0.347338
Si Si6 0.900285 0.226128 0.185543
Si Si7 0.199537 0.299900 0.109402
O O1 0.313029 0.635748 0.896628
O O2 0.500000 0.500000 0.000000
O O3 0.540280 0.500000 0.167204
O O4 0.233898 0.500000 0.538178
O O5 0.481039 0.633031 0.740737
O O6 0.266246 0.000000 0.685287
O O7 0.399359 0.000000 0.704713
O O8 0.535225 0.864140 0.928882
O O9 0.500000 0.500000 0.500000
O O10 0.751014 0.363272 0.775470
O O11 0.480268 0.131645 0.279757
O O12 0.838483 0.158140 0.192683
O O13 0.750000 0.250000 0.000000
#
# Coordination Sequence:
#
# PCOD8114559 Si02
#       7
#     4   4   4   4   4   8   8
#     4  12  23  42  65  90 127 173 215 250 318 399
#     4  12  25  41  63  99 129 169 214 276 331 371
#     4  11  21  42  69  93 126 171 225 258 317 385
#     4  11  26  45  65  99 129 167 217 276 321 372
#     4  12  25  40  66 101 135 169 206 282 332 381
#     4  12  22  42  68  95 131 169 223 264 323 390
#     4  11  23  42  69  94 124 174 219 264 312 392
#
# _framework density 20.847452000000001
#
# number of rings (size 3 to 8) (size 9 to 14) (size 15 to 20)
#    0.000    0.444    4.444    6.000    3.111    0.000 
#    4.000    0.556    0.000    0.000    0.000    0.000 
#    0.000    0.000    0.000    0.000    0.000    0.000 
#
# Total GULP energy -223244.467457 kJ/mol
# GULP energy per Si atom -12402.470414 kJ/mol
# Density = 2.080000 g / cm^3
# Si number density = 20.847452 Si / 1000 Ang^3
#
#
#
# Elastic Constant Matrix: (Units=GPa)
#
#
# Indices 1 2 3 4 5 6 
#
# 1 125.6198 9.2268 27.4272 0.0005 12.1737 0.0002
# 2 9.2268 137.5438 40.5992 -0.0020 4.0040 -0.0009
# 3 27.4272 40.5992 125.4670 -0.0025 11.4319 -0.0010
# 4 0.0005 -0.0020 -0.0025 31.1764 -0.0014 12.6966
# 5 12.1737 4.0040 11.4319 -0.0014 35.6795 -0.0003
# 6 0.0002 -0.0009 -0.0010 12.6966 -0.0003 26.7842
#
#
#
# Elastic Compliance Matrix: (Units=1/GPa)
#
#
# Indices 1 2 3 4 5 6 
#
# 1 0.008553 -0.000018 -0.001646 0.000000 -0.002389 0.000000
# 2 -0.000018 0.008038 -0.002591 0.000000 -0.000066 0.000000
# 3 -0.001646 -0.002591 0.009364 0.000000 -0.002148 0.000000
# 4 0.000000 0.000000 0.000000 0.039749 0.000001 -0.018842
# 5 -0.002389 -0.000066 -0.002148 0.000001 0.029538 0.000000
# 6 0.000000 0.000000 0.000000 -0.018842 0.000000 0.046267
#
#
# Mechanical properties :
#
#
# Convention : Reuss Voigt Hill
#
# Bulk Modulus (GPa) = 57.32523 60.34857 58.83690
# Shear Modulus (GPa) = 32.08510 39.48653 35.78581
#
# Velocity S-wave (km/s) = 3.92732 4.35681 4.14763
# Velocity P-wave (km/s) = 6.93702 7.37018 7.15688
#
# Compressibility (1/GPa) = 0.01744433
#
# Stress axis : x y z
#
# Youngs Moduli (GPa) = 116.92136 124.40327 106.78962
#
# Poissons Ratio (x) = 0.00228 0.17578
# Poissons Ratio (y) = 0.00214 0.27670
# Poissons Ratio (z) = 0.19246 0.32234
#
# Static dielectric constant tensor:
#      x y z
#    x -15.712750 0.000390 -12.027740 
#    y 0.000390 3.740000 0.000250 
#    z -12.027740 0.000250 -3.744100 
# 
# 
# High freq. dielectric constant tensor:
#      x y z
#    x 1.830080 0.000000 0.008280 
#    y 0.000000 1.830480 0.000000 
#    z 0.008280 0.000000 1.801460 
# 
# From -- ./inp_files/321660.got.cif
#   From: 2010.06.25/outbox.cif.g09.slc.cpg/sg12_161_cif.got.tgz:321660.got - 2010.06.28 00:19:55.
