data_PCOD8114630
_publ_section_title
;
Structure prediction by ZEFSAII (Michael W. Deem and Ramdas Pophale) SiO2 
 PCOD8114630
Probable space group: C 2/M
;
_chemical_formula_sum "Si O2"
_cell_formula_units_Z 40
_cell_length_a 14.009878
_cell_length_b 23.500181
_cell_length_c 14.753437
_cell_angle_alpha 90.000000
_cell_angle_beta 30.106746
_cell_angle_gamma 90.000000
_cell_volume 2436.504406
_symmetry_space_group_name_H-M "C 2/M"
_symmetry_group_IT_number 12
_symmetry_cell_setting 'monoclinic'
loop_
_space_group_symop_operation_xyz
x,y,z
-x,y,-z
-x,-y,-z
x,-y,z
1/2+x,1/2+y,z
1/2-x,1/2+y,-z
1/2-x,1/2-y,-z
1/2+x,1/2-y,z
loop_
_atom_site_type_symbol
_atom_site_label
_atom_site_fract_x
_atom_site_fract_y
_atom_site_fract_z
Si Si1 0.266703 0.436513 0.089847
Si Si2 0.297504 0.563551 0.275818
Si Si3 0.149776 0.678126 0.452569
Si Si4 0.603611 0.823853 0.174739
Si Si5 0.976247 0.757029 0.915377
O O1 0.187374 0.500000 0.137164
O O2 0.267399 0.421716 0.195378
O O3 0.132644 0.392022 0.146835
O O4 0.482321 0.432320 0.877227
O O5 0.220525 0.500000 0.360957
O O6 0.178737 0.609724 0.429385
O O7 0.344967 0.710393 0.273442
O O8 0.000000 0.697475 0.500000
O O9 0.069611 0.694026 0.617203
O O10 0.558430 0.800992 0.111786
O O11 0.797430 0.798389 0.055351
O O12 0.000000 0.739424 0.000000
#
# Coordination Sequence:
#
# PCOD8114630 Si02
#       5
#     8   8   8   8   8
#     4   9  16  30  49  73 102 133 166 200 247 301
#     4   9  17  28  47  74 108 135 157 198 248 305
#     4  12  20  31  52  75 109 134 166 203 246 303
#     4  11  22  34  55  75  98 140 166 210 253 297
#     4  11  22  38  51  72 104 132 177 210 250 290
#
# _framework density 16.416962000000002
#
# number of rings (size 3 to 8) (size 9 to 14) (size 15 to 20)
#    0.000    1.600    6.000    1.800    0.000    1.200 
#    0.000    0.000    0.000    0.600    0.000    0.000 
#    0.000    4.000    0.000    0.000    0.000    0.000 
#
# Total GULP energy -247998.772620 kJ/mol
# GULP energy per Si atom -12399.938631 kJ/mol
# Density = 1.637960 g / cm^3
# Si number density = 16.416962 Si / 1000 Ang^3
#
#
#
# Elastic Constant Matrix: (Units=GPa)
#
#
# Indices 1 2 3 4 5 6 
#
# 1 75.7555 47.7722 37.0301 -0.0117 7.7617 0.0020
# 2 47.7722 103.9678 35.9780 -0.0105 3.4326 -0.0020
# 3 37.0301 35.9780 97.7384 -0.0278 -2.4863 -0.0034
# 4 -0.0117 -0.0105 -0.0278 -4.2936 0.0202 4.3729
# 5 7.7617 3.4326 -2.4863 0.0202 19.9512 -0.0056
# 6 0.0020 -0.0020 -0.0034 4.3729 -0.0056 23.4747
#
#
#
# Elastic Compliance Matrix: (Units=1/GPa)
#
#
# Indices 1 2 3 4 5 6 
#
# 1 0.021580 -0.007749 -0.005520 -0.000038 -0.007750 0.000002
# 2 -0.007749 0.013922 -0.002180 0.000004 0.000348 0.000001
# 3 -0.005520 -0.002180 0.013231 -0.000036 0.004172 0.000010
# 4 -0.000038 0.000004 -0.000036 -0.195761 0.000218 0.036467
# 5 -0.007750 0.000348 0.004172 0.000218 0.053597 -0.000027
# 6 0.000002 0.000001 0.000010 0.036467 -0.000027 0.035806
#
#
# Mechanical properties :
#
#
# Convention : Reuss Voigt Hill
#
# Bulk Modulus (GPa) = 56.07381 57.66914 56.87148
# Shear Modulus (GPa) = -240.60672 18.27187 -111.16742
#
# Velocity S-wave (km/s) = -12.11932 3.33977 -8.23784
# Velocity P-wave (km/s) = 12.71248 7.07645 7.46763
#
# Compressibility (1/GPa) = 0.01783364
#
# Stress axis : x y z
#
# Youngs Moduli (GPa) = 46.33985 71.82854 75.57755
#
# Poissons Ratio (x) = 0.55663 0.41722
# Poissons Ratio (y) = 0.35911 0.16475
# Poissons Ratio (z) = 0.25581 0.15658
#
# Static dielectric constant tensor:
#      x y z
#    x 2.816000 -0.000080 -0.146040 
#    y -0.000080 3.166870 0.000110 
#    z -0.146040 0.000110 3.196550 
# 
# 
# High freq. dielectric constant tensor:
#      x y z
#    x 1.587390 -0.000010 -0.020150 
#    y -0.000010 1.631460 0.000010 
#    z -0.020150 0.000010 1.645460 
# 
# From -- ./inp_files/50049.got.cif
#   From: 2010.06.25/outbox.cif.g09.slc.cpg/sg12_26_cif.got.tgz:50049.got - 2010.06.28 00:19:55.
