data_PCOD8114186
_publ_section_title
;
Structure prediction by ZEFSAII (Michael W. Deem and Ramdas Pophale) SiO2 
 PCOD8114186
Probable space group: C 2/M
;
_chemical_formula_sum "Si O2"
_cell_formula_units_Z 56
_cell_length_a 26.767819
_cell_length_b 8.976604
_cell_length_c 13.304083
_cell_angle_alpha 90.000000
_cell_angle_beta 115.345772
_cell_angle_gamma 90.000000
_cell_volume 2889.042403
_symmetry_space_group_name_H-M "C 2/M"
_symmetry_group_IT_number 12
_symmetry_cell_setting 'monoclinic'
loop_
_space_group_symop_operation_xyz
x,y,z
-x,y,-z
-x,-y,-z
x,-y,z
1/2+x,1/2+y,z
1/2-x,1/2+y,-z
1/2-x,1/2-y,-z
1/2+x,1/2-y,z
loop_
_atom_site_type_symbol
_atom_site_label
_atom_site_fract_x
_atom_site_fract_y
_atom_site_fract_z
Si Si1 0.801187 0.323563 0.099846
Si Si2 0.697992 0.670916 0.319853
Si Si3 0.128861 0.826058 0.444259
Si Si4 0.022434 0.826996 0.248256
Si Si5 0.415782 0.174514 0.103697
Si Si6 0.299260 0.326390 0.310773
Si Si7 0.911881 0.167054 0.895409
O O1 0.794145 0.500000 0.088710
O O2 0.857030 0.267924 0.094350
O O3 0.803632 0.274177 0.216977
O O4 0.750000 0.250000 0.000000
O O5 0.719268 0.500000 0.346813
O O6 0.674622 0.735772 0.405347
O O7 0.746421 0.781345 0.330130
O O8 0.650772 0.681771 0.195152
O O9 0.067386 0.762994 0.367782
O O10 0.146458 0.794884 0.573937
O O11 0.125937 0.000000 0.415320
O O12 0.045640 0.795834 0.156886
O O13 0.964678 0.742848 0.213599
O O14 0.011054 0.000000 0.256860
O O15 0.419818 0.000000 0.117491
O O16 0.422784 0.219079 0.994171
O O17 0.294966 0.500000 0.277944
O O18 0.922762 0.000000 0.945091
#
# Coordination Sequence:
#
# PCOD8114186 Si02
#       7
#     8   8   8   8   8   8   8
#     4  11  25  43  59  78 106 139 178 221 266 317
#     4   9  17  32  54  80 112 146 178 216 264 315
#     4   8  17  34  55  81 111 142 179 220 259 311
#     4   9  18  35  57  79 106 141 178 213 254 312
#     4  11  23  36  52  77 107 137 173 222 272 313
#     4  11  21  34  55  82 110 141 180 223 267 314
#     4   9  18  32  53  80 108 141 177 211 255 316
#
# _framework density 19.383585
#
# number of rings (size 3 to 8) (size 9 to 14) (size 15 to 20)
#    0.000    2.286    0.000    4.714    0.000    7.429 
#    0.000    5.000    0.000    4.286    0.000    0.000 
#    0.000    0.000    0.000    0.000    0.000    0.000 
#
# Total GULP energy -347192.575172 kJ/mol
# GULP energy per Si atom -12399.734828 kJ/mol
# Density = 1.933947 g / cm^3
# Si number density = 19.383585 Si / 1000 Ang^3
#
#
#
# Elastic Constant Matrix: (Units=GPa)
#
#
# Indices 1 2 3 4 5 6 
#
# 1 117.5316 45.7228 52.8875 0.0000 25.7654 0.0000
# 2 45.7228 52.0151 32.7932 0.0000 8.9710 0.0000
# 3 52.8875 32.7932 109.9246 0.0000 10.9124 0.0000
# 4 0.0000 0.0000 0.0000 23.9135 0.0000 0.0752
# 5 25.7654 8.9710 10.9124 0.0000 20.5005 0.0000
# 6 0.0000 0.0000 0.0000 0.0752 0.0000 30.4907
#
#
#
# Elastic Compliance Matrix: (Units=1/GPa)
#
#
# Indices 1 2 3 4 5 6 
#
# 1 0.017757 -0.010469 -0.003864 0.000000 -0.015679 0.000000
# 2 -0.010469 0.030833 -0.004359 0.000000 0.001985 0.000000
# 3 -0.003864 -0.004359 0.012231 0.000000 0.000253 0.000000
# 4 0.000000 0.000000 0.000000 0.041818 0.000000 -0.000103
# 5 -0.015679 0.001985 0.000253 0.000000 0.067482 0.000000
# 6 0.000000 0.000000 0.000000 -0.000103 0.000000 0.032797
#
#
# Mechanical properties :
#
#
# Convention : Reuss Voigt Hill
#
# Bulk Modulus (GPa) = 42.66334 60.25313 51.45823
# Shear Modulus (GPa) = 20.15213 24.85214 22.50213
#
# Velocity S-wave (km/s) = 3.22786 3.58456 3.41087
# Velocity P-wave (km/s) = 5.99582 6.94868 6.48976
#
# Compressibility (1/GPa) = 0.02343933
#
# Stress axis : x y z
#
# Youngs Moduli (GPa) = 56.31669 32.43276 81.75792
#
# Poissons Ratio (x) = 0.33953 0.31588
# Poissons Ratio (y) = 0.58956 0.35634
# Poissons Ratio (z) = 0.21759 0.14136
#
# Static dielectric constant tensor:
#      x y z
#    x 3.635970 0.000000 0.222850 
#    y 0.000000 3.326130 0.000000 
#    z 0.222850 0.000000 3.589240 
# 
# 
# High freq. dielectric constant tensor:
#      x y z
#    x 1.751280 0.000000 0.018850 
#    y 0.000000 1.736750 0.000000 
#    z 0.018850 0.000000 1.757500 
# 
# From -- ./inp_files/180995.got.cif
#   From: 2010.06.25/outbox.cif.g09.slc.cpg/sg12_91_cif.got.tgz:180995.got - 2010.06.28 00:19:55.
