data_PCOD8114414
_publ_section_title
;
Structure prediction by ZEFSAII (Michael W. Deem and Ramdas Pophale) SiO2 
 PCOD8114414
Probable space group: C 2/M
;
_chemical_formula_sum "Si O2"
_cell_formula_units_Z 44
_cell_length_a 18.502384
_cell_length_b 23.612898
_cell_length_c 6.698794
_cell_angle_alpha 90.000000
_cell_angle_beta 133.512439
_cell_angle_gamma 90.000000
_cell_volume 2122.493248
_symmetry_space_group_name_H-M "C 2/M"
_symmetry_group_IT_number 12
_symmetry_cell_setting 'monoclinic'
loop_
_space_group_symop_operation_xyz
x,y,z
-x,y,-z
-x,-y,-z
x,-y,z
1/2+x,1/2+y,z
1/2-x,1/2+y,-z
1/2-x,1/2-y,-z
1/2+x,1/2-y,z
loop_
_atom_site_type_symbol
_atom_site_label
_atom_site_fract_x
_atom_site_fract_y
_atom_site_fract_z
Si Si1 0.000000 0.752278 0.500000
Si Si2 0.000000 0.100116 0.000000
Si Si3 0.108306 0.581260 0.272088
Si Si4 0.858522 0.295168 0.547109
Si Si5 0.774668 0.500000 0.769185
Si Si6 0.890948 0.500000 0.381321
Si Si7 0.957963 0.000000 0.638443
Si Si8 0.872660 0.199805 0.898949
O O1 0.078091 0.711956 0.534315
O O2 0.060683 0.790328 0.775688
O O3 0.005017 0.058827 0.198300
O O4 0.096405 0.140082 0.143205
O O5 0.113398 0.648344 0.282187
O O6 0.188442 0.556785 0.269984
O O7 0.128634 0.556590 0.529398
O O8 0.000000 0.559883 0.000000
O O9 0.889112 0.246148 0.758426
O O10 0.743262 0.298244 0.262109
O O11 0.658356 0.500000 0.556484
O O12 0.808080 0.500000 0.058289
O O13 0.000000 0.500000 0.500000
O O14 0.000000 0.000000 0.500000
#
# Coordination Sequence:
#
# PCOD8114414 Si02
#       8
#     4   4   8   8   4   4   4   8
#     4  12  22  42  66 100 132 170 220 274 324 398
#     4  11  24  50  70  92 138 171 220 276 332 383
#     4  11  22  39  65  95 135 174 212 266 330 396
#     4  11  25  41  66 100 132 173 221 268 332 395
#     4  11  23  44  65  94 134 175 219 274 327 390
#     4  11  21  38  61  95 131 169 212 263 328 384
#     4  11  28  45  72  99 124 174 234 276 321 384
#     4  11  24  45  68  95 134 176 215 273 334 393
#
# _framework density 20.730338
#
# number of rings (size 3 to 8) (size 9 to 14) (size 15 to 20)
#    0.000    0.909    3.636    3.273    2.545    5.818 
#    0.000    0.000    0.000    0.000    0.000    0.000 
#    0.000    0.000    0.000    0.000    0.000    0.000 
#
# Total GULP energy -272815.831859 kJ/mol
# GULP energy per Si atom -12400.719630 kJ/mol
# Density = 2.068315 g / cm^3
# Si number density = 20.730338 Si / 1000 Ang^3
#
#
#
# Elastic Constant Matrix: (Units=GPa)
#
#
# Indices 1 2 3 4 5 6 
#
# 1 159.4934 62.9262 50.9449 0.0000 -7.1151 0.0000
# 2 62.9262 167.2513 55.0776 0.0000 -9.3512 0.0000
# 3 50.9449 55.0776 118.8650 0.0000 -11.7638 0.0000
# 4 0.0000 0.0000 0.0000 181.6670 0.0000 67.5757
# 5 -7.1151 -9.3512 -11.7638 0.0000 34.7260 0.0000
# 6 0.0000 0.0000 0.0000 67.5757 0.0000 48.4945
#
#
#
# Elastic Compliance Matrix: (Units=1/GPa)
#
#
# Indices 1 2 3 4 5 6 
#
# 1 0.007891 -0.002183 -0.002348 0.000000 0.000234 0.000000
# 2 -0.002183 0.007682 -0.002549 0.000000 0.000758 0.000000
# 3 -0.002348 -0.002549 0.010848 0.000000 0.002508 0.000000
# 4 0.000000 0.000000 0.000000 0.011428 0.000000 -0.015925
# 5 0.000234 0.000758 0.002508 0.000000 0.029898 0.000000
# 6 0.000000 0.000000 0.000000 -0.015925 0.000000 0.042812
#
#
# Mechanical properties :
#
#
# Convention : Reuss Voigt Hill
#
# Bulk Modulus (GPa) = 81.54710 87.05635 84.30172
# Shear Modulus (GPa) = 38.81774 71.42156 55.11965
#
# Velocity S-wave (km/s) = 4.33194 5.87601 5.16203
# Velocity P-wave (km/s) = 8.02767 9.38736 8.73401
#
# Compressibility (1/GPa) = 0.01226285
#
# Stress axis : x y z
#
# Youngs Moduli (GPa) = 126.72072 130.17277 92.17979
#
# Poissons Ratio (x) = 0.28415 0.21640
# Poissons Ratio (y) = 0.27661 0.23497
# Poissons Ratio (z) = 0.29749 0.33181
#
# Static dielectric constant tensor:
#      x y z
#    x 3.918160 0.000000 0.055360 
#    y 0.000000 3.742700 0.000000 
#    z 0.055360 0.000000 3.808550 
# 
# 
# High freq. dielectric constant tensor:
#      x y z
#    x 1.826260 0.000000 0.002510 
#    y 0.000000 1.816670 0.000000 
#    z 0.002510 0.000000 1.815780 
# 
# From -- ./inp_files/17055.got.cif
#   From: 2010.06.25/outbox.cif.g09.slc.cpg/sg12_9_cif.got.tgz:17055.got - 2010.06.28 00:19:55.
