data_PCOD8114697
_publ_section_title
;
Structure prediction by ZEFSAII (Michael W. Deem and Ramdas Pophale) SiO2 
 PCOD8114697
Probable space group: C 2/M
;
_chemical_formula_sum "Si O2"
_cell_formula_units_Z 56
_cell_length_a 23.273720
_cell_length_b 8.890163
_cell_length_c 15.258740
_cell_angle_alpha 90.000000
_cell_angle_beta 115.876911
_cell_angle_gamma 90.000000
_cell_volume 2840.587704
_symmetry_space_group_name_H-M "C 2/M"
_symmetry_group_IT_number 12
_symmetry_cell_setting 'monoclinic'
loop_
_space_group_symop_operation_xyz
x,y,z
-x,y,-z
-x,-y,-z
x,-y,z
1/2+x,1/2+y,z
1/2-x,1/2+y,-z
1/2-x,1/2-y,-z
1/2+x,1/2-y,z
loop_
_atom_site_type_symbol
_atom_site_label
_atom_site_fract_x
_atom_site_fract_y
_atom_site_fract_z
Si Si1 0.023592 0.325769 0.190212
Si Si2 0.603038 0.673181 0.579884
Si Si3 0.349977 0.175190 0.824901
Si Si4 0.990986 0.826799 0.636414
Si Si5 0.091485 0.171399 0.969697
Si Si6 0.217938 0.322804 0.734680
Si Si7 0.698504 0.672085 0.905024
O O1 0.006542 0.500000 0.168228
O O2 0.096201 0.291350 0.211504
O O3 0.013399 0.279073 0.283066
O O4 0.979053 0.235174 0.093148
O O5 0.623084 0.500000 0.604820
O O6 0.571535 0.699834 0.464387
O O7 0.553383 0.718076 0.622943
O O8 0.665742 0.776744 0.627236
O O9 0.286468 0.259750 0.751310
O O10 0.334930 0.000000 0.823231
O O11 0.371049 0.232614 0.933874
O O12 0.994948 0.000000 0.669431
O O13 0.129109 0.182018 0.903025
O O14 0.086741 0.000000 0.999495
O O15 0.223026 0.500000 0.746439
O O16 0.194409 0.255519 0.810542
O O17 0.719103 0.500000 0.903538
O O18 0.750000 0.750000 0.000000
#
# Coordination Sequence:
#
# PCOD8114697 Si02
#       7
#     8   8   8   8   8   8   8
#     4  11  24  39  58  85 115 151 194 238 289 341
#     4   9  19  38  63  90 118 149 186 231 287 345
#     4  11  24  41  58  78 113 157 197 240 285 337
#     4   9  19  38  64  90 116 148 188 234 284 340
#     4  11  23  38  59  86 114 150 195 238 285 342
#     4  12  24  37  57  87 118 153 194 235 289 346
#     4  11  22  36  56  83 116 151 188 233 282 336
#
# _framework density 19.714230000000001
#
# number of rings (size 3 to 8) (size 9 to 14) (size 15 to 20)
#    0.000    1.429    1.429    5.143    0.000   10.286 
#    0.000    2.143    0.000    0.000    0.000    0.000 
#    0.000    0.000    0.000    0.000    0.000    0.000 
#
# Total GULP energy -347356.403800 kJ/mol
# GULP energy per Si atom -12405.585850 kJ/mol
# Density = 1.966936 g / cm^3
# Si number density = 19.714230 Si / 1000 Ang^3
#
#
#
# Elastic Constant Matrix: (Units=GPa)
#
#
# Indices 1 2 3 4 5 6 
#
# 1 82.1306 47.7350 29.8965 0.0000 18.3555 0.0000
# 2 47.7350 124.1917 29.8778 0.0000 17.8492 0.0000
# 3 29.8965 29.8778 64.5360 0.0000 23.1308 0.0000
# 4 0.0000 0.0000 0.0000 35.4306 0.0000 0.8313
# 5 18.3555 17.8492 23.1308 0.0000 31.5523 0.0000
# 6 0.0000 0.0000 0.0000 0.8313 0.0000 30.4155
#
#
#
# Elastic Compliance Matrix: (Units=1/GPa)
#
#
# Indices 1 2 3 4 5 6 
#
# 1 0.017677 -0.005156 -0.004288 0.000000 -0.004223 0.000000
# 2 -0.005156 0.010749 -0.002012 0.000000 -0.001606 0.000000
# 3 -0.004288 -0.002012 0.023210 0.000000 -0.013382 0.000000
# 4 0.000000 0.000000 0.000000 0.028242 0.000000 -0.000772
# 5 -0.004223 -0.001606 -0.013382 0.000000 0.044869 0.000000
# 6 0.000000 0.000000 0.000000 -0.000772 0.000000 0.032899
#
#
# Mechanical properties :
#
#
# Convention : Reuss Voigt Hill
#
# Bulk Modulus (GPa) = 34.81555 53.98633 44.40094
# Shear Modulus (GPa) = 26.29740 30.36963 28.33352
#
# Velocity S-wave (km/s) = 3.65626 3.92917 3.79517
# Velocity P-wave (km/s) = 5.96010 6.93025 6.46340
#
# Compressibility (1/GPa) = 0.02872280
#
# Stress axis : x y z
#
# Youngs Moduli (GPa) = 56.56994 93.03445 43.08555
#
# Poissons Ratio (x) = 0.47967 0.18477
# Poissons Ratio (y) = 0.29167 0.08669
# Poissons Ratio (z) = 0.24259 0.18720
#
# Static dielectric constant tensor:
#      x y z
#    x 3.675900 0.000000 0.110030 
#    y 0.000000 3.660660 0.000000 
#    z 0.110030 0.000000 3.493380 
# 
# 
# High freq. dielectric constant tensor:
#      x y z
#    x 1.770580 0.000000 0.012110 
#    y 0.000000 1.775580 0.000000 
#    z 0.012110 0.000000 1.763450 
# 
# From -- ./inp_files/239007.got.cif
#   From: 2010.06.25/outbox.cif.g09.slc.cpg/sg12_120_cif.got.tgz:239007.got - 2010.06.28 00:19:55.
