data_PCOD8114382
_publ_section_title
;
Structure prediction by ZEFSAII (Michael W. Deem and Ramdas Pophale) SiO2 
 PCOD8114382
Probable space group: C 2/M
;
_chemical_formula_sum "Si O2"
_cell_formula_units_Z 48
_cell_length_a 20.523581
_cell_length_b 8.689682
_cell_length_c 28.842549
_cell_angle_alpha 90.000000
_cell_angle_beta 28.918966
_cell_angle_gamma 90.000000
_cell_volume 2487.436172
_symmetry_space_group_name_H-M "C 2/M"
_symmetry_group_IT_number 12
_symmetry_cell_setting 'monoclinic'
loop_
_space_group_symop_operation_xyz
x,y,z
-x,y,-z
-x,-y,-z
x,-y,z
1/2+x,1/2+y,z
1/2-x,1/2+y,-z
1/2-x,1/2-y,-z
1/2+x,1/2-y,z
loop_
_atom_site_type_symbol
_atom_site_label
_atom_site_fract_x
_atom_site_fract_y
_atom_site_fract_z
Si Si1 0.023838 0.317958 0.934128
Si Si2 0.267222 0.176518 0.439314
Si Si3 0.261669 0.183186 0.043475
Si Si4 0.028129 0.681446 0.534143
Si Si5 0.423221 0.821959 0.764970
Si Si6 0.177203 0.818954 0.266609
O O1 0.022656 0.500000 0.939543
O O2 0.167952 0.264383 0.824493
O O3 0.000000 0.245424 0.000000
O O4 0.905915 0.262408 0.973565
O O5 0.250000 0.250000 0.500000
O O6 0.169994 0.252859 0.462482
O O7 0.417767 0.198176 0.327159
O O8 0.226186 0.000000 0.469807
O O9 0.143588 0.257060 0.147196
O O10 0.247042 0.000000 0.052588
O O11 0.250000 0.250000 0.000000
O O12 0.038971 0.500000 0.528653
O O13 0.000000 0.743102 0.500000
O O14 0.906544 0.731189 0.642634
O O15 0.374486 0.722154 0.752112
O O16 0.384980 0.000000 0.780770
O O17 0.160516 0.000000 0.284437
#
# Coordination Sequence:
#
# PCOD8114382 Si02
#       6
#     8   8   8   8   8   8
#     4   9  18  36  61  89 118 155 201 247 295 357
#     4  11  23  39  64  92 123 161 207 256 306 369
#     4  11  23  41  63  89 126 162 202 252 305 363
#     4  11  25  43  61  88 128 164 201 256 313 366
#     4  11  23  39  61  92 125 158 202 253 305 364
#     4  11  21  37  65  92 117 158 207 252 304 364
#
# _framework density 19.296976999999998
#
# number of rings (size 3 to 8) (size 9 to 14) (size 15 to 20)
#    0.000    1.333    3.333    2.500    0.000    4.667 
#    0.000    9.167    0.000    0.000    0.000    0.000 
#    0.000    0.000    0.000    0.000    0.000    0.000 
#
# Total GULP energy -297691.775776 kJ/mol
# GULP energy per Si atom -12403.823991 kJ/mol
# Density = 1.925306 g / cm^3
# Si number density = 19.296977 Si / 1000 Ang^3
#
#
#
# Elastic Constant Matrix: (Units=GPa)
#
#
# Indices 1 2 3 4 5 6 
#
# 1 156.0708 32.2482 67.2860 0.0002 -2.0364 0.0011
# 2 32.2482 55.1928 24.3697 -0.0001 -10.4790 0.0015
# 3 67.2860 24.3697 126.9143 -0.0001 -4.7222 0.0006
# 4 0.0002 -0.0001 -0.0001 30.9804 0.0003 0.9145
# 5 -2.0364 -10.4790 -4.7222 0.0003 36.4562 -0.0001
# 6 0.0011 0.0015 0.0006 0.9145 -0.0001 30.2162
#
#
#
# Elastic Compliance Matrix: (Units=1/GPa)
#
#
# Indices 1 2 3 4 5 6 
#
# 1 0.008888 -0.003603 -0.004060 0.000000 -0.001065 0.000000
# 2 -0.003603 0.022299 -0.002151 0.000000 0.005930 -0.000001
# 3 -0.004060 -0.002151 0.010464 0.000000 0.000510 0.000000
# 4 0.000000 0.000000 0.000000 0.032307 0.000000 -0.000978
# 5 -0.001065 0.005930 0.000510 0.000000 0.029141 0.000000
# 6 0.000000 -0.000001 0.000000 -0.000978 0.000000 0.033124
#
#
# Mechanical properties :
#
#
# Convention : Reuss Voigt Hill
#
# Bulk Modulus (GPa) = 45.40662 65.10951 55.25806
# Shear Modulus (GPa) = 30.63853 33.81550 32.22702
#
# Velocity S-wave (km/s) = 3.98897 4.19068 4.09106
# Velocity P-wave (km/s) = 6.69308 7.56503 7.14237
#
# Compressibility (1/GPa) = 0.02202322
#
# Stress axis : x y z
#
# Youngs Moduli (GPa) = 112.50740 44.84518 95.56650
#
# Poissons Ratio (x) = 0.16157 0.38801
# Poissons Ratio (y) = 0.40534 0.20557
# Poissons Ratio (z) = 0.45680 0.09646
#
# Static dielectric constant tensor:
#      x y z
#    x 3.685970 0.000000 -0.188190 
#    y 0.000000 3.578050 0.000000 
#    z -0.188190 0.000000 4.189840 
# 
# 
# High freq. dielectric constant tensor:
#      x y z
#    x 1.755300 0.000000 -0.007560 
#    y 0.000000 1.751490 0.000000 
#    z -0.007560 0.000000 1.766330 
# 
# From -- ./inp_files/230336.got.cif
#   From: 2010.06.25/outbox.cif.g09.slc.cpg/sg12_116_cif.got.tgz:230336.got - 2010.06.28 00:19:55.
