data_PCOD8114218
_publ_section_title
;
Structure prediction by ZEFSAII (Michael W. Deem and Ramdas Pophale) SiO2 
 PCOD8114218
Probable space group: C 2/M
;
_chemical_formula_sum "Si O2"
_cell_formula_units_Z 56
_cell_length_a 19.047709
_cell_length_b 8.720269
_cell_length_c 27.005371
_cell_angle_alpha 90.000000
_cell_angle_beta 138.932079
_cell_angle_gamma 90.000000
_cell_volume 2946.844591
_symmetry_space_group_name_H-M "C 2/M"
_symmetry_group_IT_number 12
_symmetry_cell_setting 'monoclinic'
loop_
_space_group_symop_operation_xyz
x,y,z
-x,y,-z
-x,-y,-z
x,-y,z
1/2+x,1/2+y,z
1/2-x,1/2+y,-z
1/2-x,1/2-y,-z
1/2+x,1/2-y,z
loop_
_atom_site_type_symbol
_atom_site_label
_atom_site_fract_x
_atom_site_fract_y
_atom_site_fract_z
Si Si1 0.306267 0.333550 0.813215
Si Si2 0.815251 0.820602 0.709178
Si Si3 0.576579 0.816421 0.583661
Si Si4 0.277754 0.179645 0.067689
Si Si5 0.120970 0.675225 0.056853
Si Si6 0.523491 0.681222 0.766343
Si Si7 0.057129 0.668360 0.680776
O O1 0.353576 0.500000 0.855728
O O2 0.355484 0.286737 0.786450
O O3 0.325698 0.196557 0.861470
O O4 0.181842 0.355512 0.740709
O O5 0.696662 0.749171 0.637378
O O6 0.908401 0.753618 0.723328
O O7 0.806287 0.000000 0.694568
O O8 0.500000 0.751696 0.500000
O O9 0.524980 0.763680 0.609414
O O10 0.580663 0.000000 0.585830
O O11 0.174183 0.212083 0.045866
O O12 0.382034 0.247428 0.150235
O O13 0.295753 0.000000 0.071396
O O14 0.250000 0.250000 0.000000
O O15 0.134583 0.500000 0.046620
O O16 0.000000 0.724747 0.000000
O O17 0.532683 0.500000 0.777973
O O18 0.530438 0.720177 0.711948
O O19 0.004940 0.500000 0.662955
#
# Coordination Sequence:
#
# PCOD8114218 Si02
#       7
#     8   8   8   8   8   8   8
#     4   9  17  33  54  74  99 139 185 227 268 320
#     4   8  17  31  50  79 109 142 187 226 270 326
#     4   8  14  29  55  83 110 142 186 233 269 318
#     4  12  26  43  60  80 110 149 190 234 285 336
#     4  11  24  39  55  81 111 138 180 232 279 331
#     4  11  21  35  55  80 113 149 184 230 280 334
#     4   9  17  31  53  80 106 139 183 228 272 326
#
# _framework density 19.003378000000001
#
# number of rings (size 3 to 8) (size 9 to 14) (size 15 to 20)
#    0.000    2.286    1.429    3.857    2.000    1.143 
#    0.000    1.429    0.000    2.143    0.000    0.000 
#    0.000    0.000    0.000    0.000    0.000    0.000 
#
# Total GULP energy -346932.405564 kJ/mol
# GULP energy per Si atom -12390.443056 kJ/mol
# Density = 1.896013 g / cm^3
# Si number density = 19.003378 Si / 1000 Ang^3
#
#
#
# Elastic Constant Matrix: (Units=GPa)
#
#
# Indices 1 2 3 4 5 6 
#
# 1 140.4743 35.4061 65.3155 0.0000 -11.5442 0.0000
# 2 35.4061 63.4219 30.9544 -0.0001 -3.4196 0.0002
# 3 65.3155 30.9544 108.8823 0.0000 -20.9685 0.0000
# 4 0.0000 -0.0001 0.0000 15.0826 0.0000 -3.8815
# 5 -11.5442 -3.4196 -20.9685 0.0000 29.2341 0.0000
# 6 0.0000 0.0002 0.0000 -3.8815 0.0000 36.7879
#
#
#
# Elastic Compliance Matrix: (Units=1/GPa)
#
#
# Indices 1 2 3 4 5 6 
#
# 1 0.010406 -0.003203 -0.005352 0.000000 -0.000104 0.000000
# 2 -0.003203 0.019380 -0.003939 0.000000 -0.001823 0.000000
# 3 -0.005352 -0.003939 0.015105 0.000000 0.008260 0.000000
# 4 0.000000 0.000000 0.000000 0.068152 0.000000 0.007191
# 5 -0.000104 -0.001823 0.008260 0.000000 0.039877 0.000000
# 6 0.000000 0.000000 0.000000 0.007191 0.000000 0.027942
#
#
# Mechanical properties :
#
#
# Convention : Reuss Voigt Hill
#
# Bulk Modulus (GPa) = 50.24337 64.01451 57.12894
# Shear Modulus (GPa) = 23.53119 28.29439 25.91279
#
# Velocity S-wave (km/s) = 3.52271 3.86283 3.69669
# Velocity P-wave (km/s) = 6.56069 7.32491 6.95330
#
# Compressibility (1/GPa) = 0.01990312
#
# Stress axis : x y z
#
# Youngs Moduli (GPa) = 96.10056 51.59999 66.20209
#
# Poissons Ratio (x) = 0.16526 0.35429
# Poissons Ratio (y) = 0.30779 0.26080
# Poissons Ratio (z) = 0.51430 0.20328
#
# Static dielectric constant tensor:
#      x y z
#    x 3.841940 0.000000 -0.119670 
#    y 0.000000 3.170480 0.000000 
#    z -0.119670 0.000000 3.469340 
# 
# 
# High freq. dielectric constant tensor:
#      x y z
#    x 1.748130 0.000000 -0.009520 
#    y 0.000000 1.709600 0.000000 
#    z -0.009520 0.000000 1.727030 
# 
# From -- ./inp_files/363239.got.cif
#   From: 2010.06.25/outbox.cif.g09.slc.cpg/sg12_182_cif.got.tgz:363239.got - 2010.06.28 00:19:55.
