data_PCOD8114505
_publ_section_title
;
Structure prediction by ZEFSAII (Michael W. Deem and Ramdas Pophale) SiO2 
 PCOD8114505
Probable space group: C 2/M
;
_chemical_formula_sum "Si O2"
_cell_formula_units_Z 48
_cell_length_a 27.434452
_cell_length_b 19.773115
_cell_length_c 12.086115
_cell_angle_alpha 90.000000
_cell_angle_beta 159.181245
_cell_angle_gamma 90.000000
_cell_volume 2330.190069
_symmetry_space_group_name_H-M "C 2/M"
_symmetry_group_IT_number 12
_symmetry_cell_setting 'monoclinic'
loop_
_space_group_symop_operation_xyz
x,y,z
-x,y,-z
-x,-y,-z
x,-y,z
1/2+x,1/2+y,z
1/2-x,1/2+y,-z
1/2-x,1/2-y,-z
1/2+x,1/2-y,z
loop_
_atom_site_type_symbol
_atom_site_label
_atom_site_fract_x
_atom_site_fract_y
_atom_site_fract_z
Si Si1 0.168676 0.500000 0.968350
Si Si2 0.974501 0.835731 0.070274
Si Si3 0.478165 0.179600 0.077003
Si Si4 0.235199 0.636444 0.216949
Si Si5 0.847972 0.500000 0.326267
Si Si6 0.245875 0.867652 0.234550
Si Si7 0.640768 0.746626 0.861796
O O1 0.245035 0.564672 0.178816
O O2 0.193623 0.500000 0.890077
O O3 0.012103 0.500000 0.677258
O O4 0.928656 0.757400 0.970977
O O5 0.111358 0.840667 0.432986
O O6 0.851411 0.879515 0.864259
O O7 0.000000 0.862948 0.000000
O O8 0.617033 0.172193 0.441560
O O9 0.500000 0.152390 0.000000
O O10 0.355373 0.133348 0.863720
O O11 0.153311 0.688728 0.966611
O O12 0.785832 0.436196 0.257978
O O13 0.154985 0.822178 0.960185
O O14 0.500000 0.748677 0.500000
O O15 0.750000 0.750000 0.000000
#
# Coordination Sequence:
#
# PCOD8114505 Si02
#       7
#     4   8   8   8   4   8   8
#     4  11  26  45  68  93 133 179 221 265 333 395
#     4  11  23  42  69 101 135 171 215 276 338 381
#     4  11  21  40  69 100 131 170 219 272 329 386
#     4  12  23  43  66  99 130 176 217 269 329 387
#     4  11  26  45  68  93 133 181 215 271 331 393
#     4  12  23  44  65 100 131 173 220 272 328 390
#     4  12  24  38  63  97 128 165 219 274 316 381
#
# _framework density 20.599177000000001
#
# number of rings (size 3 to 8) (size 9 to 14) (size 15 to 20)
#    0.000    0.500    5.000    4.000    2.333    3.333 
#    0.000    6.250    0.000    0.000    0.000    0.000 
#    0.000    0.000    0.000    0.000    0.000    0.000 
#
# Total GULP energy -297698.537247 kJ/mol
# GULP energy per Si atom -12404.105719 kJ/mol
# Density = 2.055229 g / cm^3
# Si number density = 20.599177 Si / 1000 Ang^3
#
#
#
# Elastic Constant Matrix: (Units=GPa)
#
#
# Indices 1 2 3 4 5 6 
#
# 1 144.9977 49.1950 16.7653 0.0000 17.0701 0.0000
# 2 49.1950 109.3007 18.9260 0.0000 -9.0476 0.0000
# 3 16.7653 18.9260 84.2198 0.0000 6.2725 0.0000
# 4 0.0000 0.0000 0.0000 17.5709 0.0000 19.3176
# 5 17.0701 -9.0476 6.2725 0.0000 39.0267 0.0000
# 6 0.0000 0.0000 0.0000 19.3176 0.0000 54.8392
#
#
#
# Elastic Compliance Matrix: (Units=1/GPa)
#
#
# Indices 1 2 3 4 5 6 
#
# 1 0.009010 -0.004383 -0.000445 0.000000 -0.004886 0.000000
# 2 -0.004383 0.011916 -0.002180 0.000000 0.005030 0.000000
# 3 -0.000445 -0.002180 0.012626 0.000000 -0.002340 0.000000
# 4 0.000000 0.000000 0.000000 0.092884 0.000000 -0.032719
# 5 -0.004886 0.005030 -0.002340 0.000000 0.029303 0.000000
# 6 0.000000 0.000000 0.000000 -0.032719 0.000000 0.029761
#
#
# Mechanical properties :
#
#
# Convention : Reuss Voigt Hill
#
# Bulk Modulus (GPa) = 51.18434 56.47675 53.83055
# Shear Modulus (GPa) = 24.26865 39.19616 31.73240
#
# Velocity S-wave (km/s) = 3.43612 4.36684 3.92914
# Velocity P-wave (km/s) = 6.37529 7.27340 6.83910
#
# Compressibility (1/GPa) = 0.01953723
#
# Stress axis : x y z
#
# Youngs Moduli (GPa) = 110.98444 83.92419 79.19921
#
# Poissons Ratio (x) = 0.36782 0.03523
# Poissons Ratio (y) = 0.48642 0.17264
# Poissons Ratio (z) = 0.04937 0.18294
#
# Static dielectric constant tensor:
#      x y z
#    x 4.211570 0.000000 0.000060 
#    y 0.000000 3.584070 0.000000 
#    z 0.000060 0.000000 3.687560 
# 
# 
# High freq. dielectric constant tensor:
#      x y z
#    x 1.832790 0.000000 0.003410 
#    y 0.000000 1.782460 0.000000 
#    z 0.003410 0.000000 1.813000 
# 
# From -- ./inp_files/184845.got.cif
#   From: 2010.06.25/outbox.cif.g09.slc.cpg/sg12_93_cif.got.tgz:184845.got - 2010.06.28 00:19:55.
