data_PCOD8114694
_publ_section_title
;
Structure prediction by ZEFSAII (Michael W. Deem and Ramdas Pophale) SiO2 
 PCOD8114694
Probable space group: C 2/M
;
_chemical_formula_sum "Si O2"
_cell_formula_units_Z 56
_cell_length_a 9.205899
_cell_length_b 21.969887
_cell_length_c 17.661541
_cell_angle_alpha 90.000000
_cell_angle_beta 122.392573
_cell_angle_gamma 90.000000
_cell_volume 3016.265020
_symmetry_space_group_name_H-M "C 2/M"
_symmetry_group_IT_number 12
_symmetry_cell_setting 'monoclinic'
loop_
_space_group_symop_operation_xyz
x,y,z
-x,y,-z
-x,-y,-z
x,-y,z
1/2+x,1/2+y,z
1/2-x,1/2+y,-z
1/2-x,1/2-y,-z
1/2+x,1/2-y,z
loop_
_atom_site_type_symbol
_atom_site_label
_atom_site_fract_x
_atom_site_fract_y
_atom_site_fract_z
Si Si1 0.442883 0.117279 0.649604
Si Si2 0.846502 0.067250 0.510881
Si Si3 0.672617 0.930285 0.841145
Si Si4 0.173284 0.572339 0.010517
Si Si5 0.763414 0.859906 0.638194
Si Si6 0.800573 0.230334 0.433130
Si Si7 0.479847 0.429734 0.816223
O O1 0.319566 0.062204 0.590021
O O2 0.530244 0.106599 0.754734
O O3 0.583037 0.117724 0.621486
O O4 0.320666 0.175558 0.626898
O O5 0.802636 0.115413 0.564769
O O6 0.000000 0.091001 0.500000
O O7 0.886935 0.000000 0.555437
O O8 0.685184 0.901814 0.928538
O O9 0.858601 0.924431 0.855307
O O10 0.611684 0.000000 0.827121
O O11 0.175472 0.500000 0.007465
O O12 0.333299 0.593891 0.106072
O O13 0.000000 0.597709 0.000000
O O14 0.743548 0.786821 0.634808
O O15 0.919505 0.884332 0.733341
O O16 0.750000 0.250000 0.500000
O O17 0.000000 0.212299 0.500000
O O18 0.482158 0.500000 0.787601
#
# Coordination Sequence:
#
# PCOD8114694 Si02
#       7
#     8   8   8   8   8   8   8
#     4  11  22  36  56  79 105 142 185 229 270 320
#     4  11  23  35  50  76 110 143 174 219 276 327
#     4   9  18  33  54  80 108 140 179 218 264 323
#     4   9  17  31  51  78 112 143 170 209 264 326
#     4  11  22  37  56  78 105 142 186 227 269 324
#     4  12  22  39  58  79 106 144 191 233 272 321
#     4   9  18  33  55  81 107 139 178 218 265 323
#
# _framework density 18.566008
#
# number of rings (size 3 to 8) (size 9 to 14) (size 15 to 20)
#    0.000    1.714    2.857    2.143    0.000    5.143 
#    0.000    2.857    0.000    0.857    0.000    0.000 
#    0.000    0.000    0.000    0.000    0.000    0.000 
#
# Total GULP energy -346983.615056 kJ/mol
# GULP energy per Si atom -12392.271966 kJ/mol
# Density = 1.852375 g / cm^3
# Si number density = 18.566008 Si / 1000 Ang^3
#
#
#
# Elastic Constant Matrix: (Units=GPa)
#
#
# Indices 1 2 3 4 5 6 
#
# 1 105.0028 25.9721 62.8783 0.0000 19.5144 0.0000
# 2 25.9721 74.5381 40.7468 0.0000 8.9753 0.0000
# 3 62.8783 40.7468 128.9648 0.0000 23.6205 0.0000
# 4 0.0000 0.0000 0.0000 22.9437 0.0000 3.5393
# 5 19.5144 8.9753 23.6205 0.0000 30.9082 0.0000
# 6 0.0000 0.0000 0.0000 3.5393 0.0000 17.0020
#
#
#
# Elastic Compliance Matrix: (Units=1/GPa)
#
#
# Indices 1 2 3 4 5 6 
#
# 1 0.014002 -0.001285 -0.005662 0.000000 -0.004140 0.000000
# 2 -0.001285 0.016357 -0.004442 0.000000 -0.000544 0.000000
# 3 -0.005662 -0.004442 0.012822 0.000000 -0.004934 0.000000
# 4 0.000000 0.000000 0.000000 0.045031 0.000000 -0.009374
# 5 -0.004140 -0.000544 -0.004934 0.000000 0.038896 0.000000
# 6 0.000000 0.000000 0.000000 -0.009374 0.000000 0.060768
#
#
# Mechanical properties :
#
#
# Convention : Reuss Voigt Hill
#
# Bulk Modulus (GPa) = 49.01432 63.07778 56.04605
# Shear Modulus (GPa) = 22.99319 26.09800 24.54559
#
# Velocity S-wave (km/s) = 3.52299 3.75332 3.63997
# Velocity P-wave (km/s) = 6.55789 7.26855 6.92235
#
# Compressibility (1/GPa) = 0.02040220
#
# Stress axis : x y z
#
# Youngs Moduli (GPa) = 71.42087 61.13413 77.99099
#
# Poissons Ratio (x) = 0.07854 0.44162
# Poissons Ratio (y) = 0.09176 0.34645
# Poissons Ratio (z) = 0.40442 0.27157
#
# Static dielectric constant tensor:
#      x y z
#    x 3.532100 0.000000 0.077920 
#    y 0.000000 3.268090 0.000000 
#    z 0.077920 0.000000 3.465980 
# 
# 
# High freq. dielectric constant tensor:
#      x y z
#    x 1.734270 0.000000 0.008170 
#    y 0.000000 1.692710 0.000000 
#    z 0.008170 0.000000 1.718000 
# 
# From -- ./inp_files/258005.got.cif
#   From: 2010.06.25/outbox.cif.g09.slc.cpg/sg12_130_cif.got.tgz:258005.got - 2010.06.28 00:19:55.
