data_PCOD8114238
_publ_section_title
;
Structure prediction by ZEFSAII (Michael W. Deem and Ramdas Pophale) SiO2 
 PCOD8114238
Probable space group: C 2/M
;
_chemical_formula_sum "Si O2"
_cell_formula_units_Z 40
_cell_length_a 30.355956
_cell_length_b 8.666714
_cell_length_c 15.040692
_cell_angle_alpha 90.000000
_cell_angle_beta 150.136804
_cell_angle_gamma 90.000000
_cell_volume 1970.312785
_symmetry_space_group_name_H-M "C 2/M"
_symmetry_group_IT_number 12
_symmetry_cell_setting 'monoclinic'
loop_
_space_group_symop_operation_xyz
x,y,z
-x,y,-z
-x,-y,-z
x,-y,z
1/2+x,1/2+y,z
1/2-x,1/2+y,-z
1/2-x,1/2-y,-z
1/2+x,1/2-y,z
loop_
_atom_site_type_symbol
_atom_site_label
_atom_site_fract_x
_atom_site_fract_y
_atom_site_fract_z
Si Si1 0.967816 0.181812 0.220671
Si Si2 0.217717 0.818369 0.035149
Si Si3 0.049070 0.823703 0.002371
Si Si4 0.249794 0.823243 0.403224
Si Si5 0.839671 0.820129 0.397717
O O1 0.055757 0.217348 0.431729
O O2 0.953809 0.000000 0.184009
O O3 0.880468 0.249073 0.116186
O O4 0.977072 0.254725 0.137506
O O5 0.285358 0.777466 0.231786
O O6 0.214270 0.000000 0.019187
O O7 0.250000 0.750000 0.000000
O O8 0.153526 0.810796 0.192906
O O9 0.016090 0.000000 0.943707
O O10 0.000000 0.740053 0.000000
O O11 0.250000 0.750000 0.500000
O O12 0.315163 0.726669 0.455090
O O13 0.281517 0.000000 0.463993
O O14 0.820356 0.000000 0.349018
#
# Coordination Sequence:
#
# PCOD8114238 Si02
#       5
#     8   8   8   8   8
#     4   9  19  37  61  87 119 162 204 242 296 376
#     4  11  23  43  66  90 122 160 205 253 307 363
#     4   9  16  30  55  83 112 155 204 241 282 355
#     4  11  21  35  57  86 124 165 206 251 302 359
#     4  11  22  39  64  92 121 158 204 252 305 365
#
# _framework density 20.301345000000001
#
# number of rings (size 3 to 8) (size 9 to 14) (size 15 to 20)
#    0.000    1.800    2.000    3.000    0.000    4.000 
#    0.000    8.000    0.000    2.400    0.000    0.000 
#    0.000    0.000    0.000    0.000    0.000    0.000 
#
# Total GULP energy -247974.247688 kJ/mol
# GULP energy per Si atom -12398.712384 kJ/mol
# Density = 2.025514 g / cm^3
# Si number density = 20.301345 Si / 1000 Ang^3
#
#
#
# Elastic Constant Matrix: (Units=GPa)
#
#
# Indices 1 2 3 4 5 6 
#
# 1 159.5162 21.7213 56.8944 0.0000 8.6872 0.0000
# 2 21.7213 47.6113 22.6664 0.0000 4.8272 0.0000
# 3 56.8944 22.6664 100.8798 0.0000 11.4042 0.0000
# 4 0.0000 0.0000 0.0000 25.6851 0.0000 -4.0581
# 5 8.6872 4.8272 11.4042 0.0000 32.7887 0.0000
# 6 0.0000 0.0000 0.0000 -4.0581 0.0000 31.7562
#
#
#
# Elastic Compliance Matrix: (Units=1/GPa)
#
#
# Indices 1 2 3 4 5 6 
#
# 1 0.007971 -0.001652 -0.004074 0.000000 -0.000452 0.000000
# 2 -0.001652 0.023952 -0.004269 0.000000 -0.001604 0.000000
# 3 -0.004074 -0.004269 0.013507 0.000000 -0.002990 0.000000
# 4 0.000000 0.000000 0.000000 0.039735 0.000000 0.005078
# 5 -0.000452 -0.001604 -0.002990 0.000000 0.031894 0.000000
# 6 0.000000 0.000000 0.000000 0.005078 0.000000 0.032139
#
#
# Mechanical properties :
#
#
# Convention : Reuss Voigt Hill
#
# Bulk Modulus (GPa) = 39.30419 56.73017 48.01718
# Shear Modulus (GPa) = 28.14241 31.82768 29.98505
#
# Velocity S-wave (km/s) = 3.72726 3.96379 3.84734
# Velocity P-wave (km/s) = 6.15838 6.99668 6.59087
#
# Compressibility (1/GPa) = 0.02544258
#
# Stress axis : x y z
#
# Youngs Moduli (GPa) = 125.44901 41.75046 74.03359
#
# Poissons Ratio (x) = 0.06896 0.30158
# Poissons Ratio (y) = 0.20719 0.31604
# Poissons Ratio (z) = 0.51102 0.17823
#
# Static dielectric constant tensor:
#      x y z
#    x 3.876680 0.000000 0.276420 
#    y 0.000000 3.112960 0.000000 
#    z 0.276420 0.000000 3.601060 
# 
# 
# High freq. dielectric constant tensor:
#      x y z
#    x 1.803950 0.000000 0.003790 
#    y 0.000000 1.756930 0.000000 
#    z 0.003790 0.000000 1.803820 
# 
# From -- ./inp_files/211175.got.cif
#   From: 2010.06.25/outbox.cif.g09.slc.cpg/sg12_106_cif.got.tgz:211175.got - 2010.06.28 00:19:55.
