data_PCOD8114366
_publ_section_title
;
Structure prediction by ZEFSAII (Michael W. Deem and Ramdas Pophale) SiO2 
 PCOD8114366
Probable space group: C 2/M
;
_chemical_formula_sum "Si O2"
_cell_formula_units_Z 56
_cell_length_a 9.038959
_cell_length_b 18.414214
_cell_length_c 29.258439
_cell_angle_alpha 90.000000
_cell_angle_beta 143.518387
_cell_angle_gamma 90.000000
_cell_volume 2895.489133
_symmetry_space_group_name_H-M "C 2/M"
_symmetry_group_IT_number 12
_symmetry_cell_setting 'monoclinic'
loop_
_space_group_symop_operation_xyz
x,y,z
-x,y,-z
-x,-y,-z
x,-y,z
1/2+x,1/2+y,z
1/2-x,1/2+y,-z
1/2-x,1/2-y,-z
1/2+x,1/2-y,z
loop_
_atom_site_type_symbol
_atom_site_label
_atom_site_fract_x
_atom_site_fract_y
_atom_site_fract_z
Si Si1 0.450146 0.798740 0.723933
Si Si2 0.766067 0.082343 0.556553
Si Si3 0.173687 0.585099 0.140342
Si Si4 0.230416 0.702040 0.950318
Si Si5 0.021839 0.195963 0.187148
Si Si6 0.217942 0.081049 0.728438
Si Si7 0.974691 0.196634 0.546747
O O1 0.693042 0.819612 0.755038
O O2 0.499569 0.729130 0.767505
O O3 0.391151 0.865245 0.742927
O O4 0.231109 0.777802 0.634156
O O5 0.500000 0.120741 0.500000
O O6 0.906859 0.118163 0.549438
O O7 0.930009 0.090611 0.642897
O O8 0.721006 0.000000 0.530508
O O9 0.135543 0.500000 0.118731
O O10 0.367586 0.620422 0.152105
O O11 0.277204 0.596254 0.216903
O O12 0.912918 0.627873 0.072744
O O13 0.094892 0.749130 0.878167
O O14 0.500000 0.677684 0.000000
O O15 0.250000 0.750000 0.000000
O O16 0.312996 0.000000 0.740606
O O17 0.750000 0.250000 0.500000
O O18 0.000000 0.186751 0.500000
#
# Coordination Sequence:
#
# PCOD8114366 Si02
#       7
#     8   8   8   8   8   8   8
#     4  11  21  37  63  85 118 167 213 253 310 379
#     4   9  19  36  58  81 114 162 206 250 312 371
#     4  11  24  42  65  97 131 161 207 260 311 368
#     4  12  23  42  69  94 124 160 202 252 305 379
#     4  12  22  40  63  93 119 164 211 248 307 375
#     4   9  19  37  59  87 121 158 206 261 307 365
#     4  11  23  36  53  86 123 158 204 269 310 353
#
# _framework density 19.340429
#
# number of rings (size 3 to 8) (size 9 to 14) (size 15 to 20)
#    0.000    1.286    4.286    1.286    0.000    5.714 
#    0.000    1.429    0.000    0.000    0.000    0.000 
#    0.000    0.000    0.000    0.000    0.000    0.000 
#
# Total GULP energy -347207.866984 kJ/mol
# GULP energy per Si atom -12400.280964 kJ/mol
# Density = 1.929641 g / cm^3
# Si number density = 19.340429 Si / 1000 Ang^3
#
#
#
# Elastic Constant Matrix: (Units=GPa)
#
#
# Indices 1 2 3 4 5 6 
#
# 1 112.9221 43.9878 45.1587 -0.0005 24.6763 0.0005
# 2 43.9878 111.8550 43.7964 -0.0016 11.8355 -0.0003
# 3 45.1587 43.7964 105.4008 -0.0016 10.3660 -0.0007
# 4 -0.0005 -0.0016 -0.0016 28.2704 -0.0014 4.3905
# 5 24.6763 11.8355 10.3660 -0.0014 40.7211 -0.0005
# 6 0.0005 -0.0003 -0.0007 4.3905 -0.0005 30.0554
#
#
#
# Elastic Compliance Matrix: (Units=1/GPa)
#
#
# Indices 1 2 3 4 5 6 
#
# 1 0.012771 -0.002961 -0.003656 0.000000 -0.005948 0.000000
# 2 -0.002961 0.011529 -0.003455 0.000000 -0.000677 0.000000
# 3 -0.003656 -0.003455 0.012486 0.000000 0.000042 0.000000
# 4 0.000000 0.000000 0.000000 0.036194 0.000001 -0.005287
# 5 -0.005948 -0.000677 0.000042 0.000001 0.028348 0.000000
# 6 0.000000 0.000000 0.000000 -0.005287 0.000000 0.034044
#
#
# Mechanical properties :
#
#
# Convention : Reuss Voigt Hill
#
# Bulk Modulus (GPa) = 60.09543 66.22930 63.16236
# Shear Modulus (GPa) = 31.04345 32.95838 32.00092
#
# Velocity S-wave (km/s) = 4.01072 4.13258 4.07211
# Velocity P-wave (km/s) = 7.25174 7.55574 7.40530
#
# Compressibility (1/GPa) = 0.01664020
#
# Stress axis : x y z
#
# Youngs Moduli (GPa) = 78.30150 86.73580 80.09104
#
# Poissons Ratio (x) = 0.25686 0.29284
# Poissons Ratio (y) = 0.23188 0.27674
# Poissons Ratio (z) = 0.28629 0.29970
#
# Static dielectric constant tensor:
#      x y z
#    x 3.578150 -0.000010 0.101190 
#    y -0.000010 3.673350 0.000000 
#    z 0.101190 0.000000 3.723910 
# 
# 
# High freq. dielectric constant tensor:
#      x y z
#    x 1.755310 0.000000 0.004280 
#    y 0.000000 1.752640 0.000000 
#    z 0.004280 0.000000 1.762990 
# 
# From -- ./inp_files/257012.got.cif
#   From: 2010.06.25/outbox.cif.g09.slc.cpg/sg12_129_cif.got.tgz:257012.got - 2010.06.28 00:19:55.
