data_PCOD8114125
_publ_section_title
;
Structure prediction by ZEFSAII (Michael W. Deem and Ramdas Pophale) SiO2 
 PCOD8114125
Probable space group: C 2/M
;
_chemical_formula_sum "Si O2"
_cell_formula_units_Z 48
_cell_length_a 18.292057
_cell_length_b 8.977469
_cell_length_c 19.081690
_cell_angle_alpha 90.000000
_cell_angle_beta 118.581877
_cell_angle_gamma 90.000000
_cell_volume 2751.656760
_symmetry_space_group_name_H-M "C 2/M"
_symmetry_group_IT_number 12
_symmetry_cell_setting 'monoclinic'
loop_
_space_group_symop_operation_xyz
x,y,z
-x,y,-z
-x,-y,-z
x,-y,z
1/2+x,1/2+y,z
1/2-x,1/2+y,-z
1/2-x,1/2-y,-z
1/2+x,1/2-y,z
loop_
_atom_site_type_symbol
_atom_site_label
_atom_site_fract_x
_atom_site_fract_y
_atom_site_fract_z
Si Si1 0.910869 0.825397 0.664798
Si Si2 0.665054 0.823743 0.985629
Si Si3 0.752123 0.327532 0.575174
Si Si4 0.089924 0.163999 0.075486
Si Si5 0.930114 0.826813 0.516876
Si Si6 0.010686 0.825455 0.843460
O O1 0.825552 0.748400 0.654114
O O2 0.932750 0.760842 0.597420
O O3 0.986350 0.788476 0.752230
O O4 0.892658 0.000000 0.653771
O O5 0.591242 0.769893 0.900756
O O6 0.672960 0.000000 0.985026
O O7 0.750000 0.750000 0.000000
O O8 0.647637 0.777797 0.058632
O O9 0.772847 0.500000 0.575867
O O10 0.750000 0.250000 0.500000
O O11 0.658932 0.303684 0.563107
O O12 0.070636 0.216737 0.146290
O O13 0.132328 0.000000 0.093607
O O14 0.000000 0.154319 0.000000
O O15 0.000000 0.749098 0.500000
O O16 0.951077 0.000000 0.534561
O O17 0.032209 0.000000 0.863819
#
# Coordination Sequence:
#
# PCOD8114125 Si02
#       6
#     8   8   8   8   8   8
#     4   9  17  30  49  70  94 125 157 193 239 287
#     4  11  21  33  51  73  98 127 161 199 240 291
#     4   9  16  27  45  66  89 119 157 198 236 280
#     4   8  15  30  50  69  92 123 157 193 236 285
#     4   8  14  26  45  68  93 123 158 193 230 273
#     4   9  18  33  51  71  97 128 161 200 247 294
#
# _framework density 17.444035
#
# number of rings (size 3 to 8) (size 9 to 14) (size 15 to 20)
#    0.000    3.000    0.000    4.000    0.000    3.667 
#    0.000    1.667    0.000   14.500    0.000    0.000 
#    0.000    0.000    0.000    0.000    0.000    0.000 
#
# Total GULP energy -297336.706663 kJ/mol
# GULP energy per Si atom -12389.029444 kJ/mol
# Density = 1.740433 g / cm^3
# Si number density = 17.444035 Si / 1000 Ang^3
#
#
#
# Elastic Constant Matrix: (Units=GPa)
#
#
# Indices 1 2 3 4 5 6 
#
# 1 126.5531 54.6481 49.6342 0.0000 3.8793 0.0000
# 2 54.6481 88.8527 36.3113 0.0000 8.9573 0.0000
# 3 49.6342 36.3113 82.5198 0.0000 -0.3481 0.0000
# 4 0.0000 0.0000 0.0000 21.7332 0.0000 5.5128
# 5 3.8793 8.9573 -0.3481 0.0000 19.2658 0.0000
# 6 0.0000 0.0000 0.0000 5.5128 0.0000 24.5085
#
#
#
# Elastic Compliance Matrix: (Units=1/GPa)
#
#
# Indices 1 2 3 4 5 6 
#
# 1 0.012206 -0.005496 -0.004923 0.000000 0.000009 0.000000
# 2 -0.005496 0.017059 -0.004230 0.000000 -0.006901 0.000000
# 3 -0.004923 -0.004230 0.016955 0.000000 0.003264 0.000000
# 4 0.000000 0.000000 0.000000 0.048797 0.000000 -0.010976
# 5 0.000009 -0.006901 0.003264 0.000000 0.055171 0.000000
# 6 0.000000 0.000000 0.000000 -0.010976 0.000000 0.043271
#
#
# Mechanical properties :
#
#
# Convention : Reuss Voigt Hill
#
# Bulk Modulus (GPa) = 59.09674 64.34587 61.72131
# Shear Modulus (GPa) = 21.89171 23.59029 22.74100
#
# Velocity S-wave (km/s) = 3.54640 3.68141 3.61453
# Velocity P-wave (km/s) = 7.12185 7.41872 7.27180
#
# Compressibility (1/GPa) = 0.01692141
#
# Stress axis : x y z
#
# Youngs Moduli (GPa) = 81.92941 58.61940 58.98136
#
# Poissons Ratio (x) = 0.32217 0.29037
# Poissons Ratio (y) = 0.45028 0.24949
# Poissons Ratio (z) = 0.40334 0.24796
#
# Static dielectric constant tensor:
#      x y z
#    x 3.662690 0.000000 -0.163260 
#    y 0.000000 3.235370 0.000000 
#    z -0.163260 0.000000 3.465920 
# 
# 
# High freq. dielectric constant tensor:
#      x y z
#    x 1.666980 0.000000 0.001060 
#    y 0.000000 1.657950 0.000000 
#    z 0.001060 0.000000 1.654760 
# 
# From -- ./inp_files/313225.got.cif
#   From: 2010.06.25/outbox.cif.g09.slc.cpg/sg12_157_cif.got.tgz:313225.got - 2010.06.28 00:19:55.
