data_PCOD8114843
_publ_section_title
;
Structure prediction by ZEFSAII (Michael W. Deem and Ramdas Pophale) SiO2 
 PCOD8114843
Probable space group: C 2/M
;
_chemical_formula_sum "Si O2"
_cell_formula_units_Z 48
_cell_length_a 14.719333
_cell_length_b 8.640695
_cell_length_c 27.985451
_cell_angle_alpha 90.000000
_cell_angle_beta 41.813246
_cell_angle_gamma 90.000000
_cell_volume 2373.027089
_symmetry_space_group_name_H-M "C 2/M"
_symmetry_group_IT_number 12
_symmetry_cell_setting 'monoclinic'
loop_
_space_group_symop_operation_xyz
x,y,z
-x,y,-z
-x,-y,-z
x,-y,z
1/2+x,1/2+y,z
1/2-x,1/2+y,-z
1/2-x,1/2-y,-z
1/2+x,1/2-y,z
loop_
_atom_site_type_symbol
_atom_site_label
_atom_site_fract_x
_atom_site_fract_y
_atom_site_fract_z
Si Si1 0.155819 0.183435 0.890519
Si Si2 0.102381 0.818407 0.364750
Si Si3 0.087475 0.681927 0.269134
Si Si4 0.326272 0.319974 0.334395
Si Si5 0.647949 0.316917 0.000869
Si Si6 0.159279 0.681613 0.494060
O O1 0.273009 0.244199 0.809223
O O2 0.185420 0.243641 0.932863
O O3 0.157954 0.000000 0.892069
O O4 0.008397 0.237983 0.928332
O O5 0.057324 0.776279 0.328990
O O6 0.244985 0.732482 0.319142
O O7 0.988724 0.760115 0.446613
O O8 0.120678 0.000000 0.363104
O O9 0.093237 0.500000 0.277687
O O10 0.964146 0.720629 0.281784
O O11 0.363268 0.500000 0.317272
O O12 0.230161 0.278632 0.416575
O O13 0.658758 0.500000 0.999574
O O14 0.750000 0.250000 0.000000
O O15 0.140709 0.500000 0.508901
O O16 0.250000 0.750000 0.500000
#
# Coordination Sequence:
#
# PCOD8114843 Si02
#       6
#     8   8   8   8   8   8
#     4   8  18  36  58  83 115 154 187 226 281 343
#     4  12  25  40  59  85 116 154 198 243 294 348
#     4  11  22  39  61  85 117 155 195 239 292 346
#     4  11  24  41  60  85 115 151 195 243 296 350
#     4   9  17  35  60  86 116 148 188 230 277 334
#     4  11  22  38  62  86 114 149 194 246 298 348
#
# _framework density 20.227329000000001
#
# number of rings (size 3 to 8) (size 9 to 14) (size 15 to 20)
#    0.000    1.667    1.667    4.500    0.000    5.333 
#    0.000    8.333    0.000    0.000    0.000    0.000 
#    0.000    0.000    0.000    0.000    0.000    0.000 
#
# Total GULP energy -297639.642993 kJ/mol
# GULP energy per Si atom -12401.651791 kJ/mol
# Density = 2.018129 g / cm^3
# Si number density = 20.227329 Si / 1000 Ang^3
#
#
#
# Elastic Constant Matrix: (Units=GPa)
#
#
# Indices 1 2 3 4 5 6 
#
# 1 119.0279 19.3599 28.4070 -0.0001 -23.6546 0.0000
# 2 19.3599 65.1336 35.1962 0.0000 -3.6644 0.0014
# 3 28.4070 35.1962 108.0221 0.0001 -20.9108 0.0000
# 4 -0.0001 0.0000 0.0001 19.8717 0.0000 -3.9298
# 5 -23.6546 -3.6644 -20.9108 0.0000 25.3646 0.0000
# 6 0.0000 0.0014 0.0000 -3.9298 0.0000 37.0514
#
#
#
# Elastic Compliance Matrix: (Units=1/GPa)
#
#
# Indices 1 2 3 4 5 6 
#
# 1 0.010750 -0.002584 -0.000139 0.000000 0.009538 0.000000
# 2 -0.002584 0.019418 -0.006629 0.000000 -0.005069 -0.000001
# 3 -0.000139 -0.006629 0.013378 0.000000 0.009942 0.000000
# 4 0.000000 0.000000 0.000000 0.051401 0.000000 0.005452
# 5 0.009538 -0.005069 0.009942 0.000000 0.055784 0.000000
# 6 0.000000 -0.000001 0.000000 0.005452 0.000000 0.027568
#
#
# Mechanical properties :
#
#
# Convention : Reuss Voigt Hill
#
# Bulk Modulus (GPa) = 40.25142 50.90109 45.57626
# Shear Modulus (GPa) = 24.35671 30.40556 27.38113
#
# Velocity S-wave (km/s) = 3.47385 3.88131 3.68322
# Velocity P-wave (km/s) = 6.00274 6.73091 6.37723
#
# Compressibility (1/GPa) = 0.02484384
#
# Stress axis : x y z
#
# Youngs Moduli (GPa) = 93.02136 51.49934 74.74854
#
# Poissons Ratio (x) = 0.13306 0.01038
# Poissons Ratio (y) = 0.24034 0.49547
# Poissons Ratio (z) = 0.01292 0.34137
#
# Static dielectric constant tensor:
#      x y z
#    x 3.799710 0.000000 -0.092880 
#    y 0.000000 3.442710 0.000000 
#    z -0.092880 0.000000 3.956660 
# 
# 
# High freq. dielectric constant tensor:
#      x y z
#    x 1.801480 0.000000 -0.010790 
#    y 0.000000 1.776310 0.000000 
#    z -0.010790 0.000000 1.785650 
# 
# From -- ./inp_files/374911.got.cif
#   From: 2010.06.25/outbox.cif.g09.slc.cpg/sg12_188_cif.got.tgz:374911.got - 2010.06.28 00:19:55.
