data_PCOD8114168
_publ_section_title
;
Structure prediction by ZEFSAII (Michael W. Deem and Ramdas Pophale) SiO2 
 PCOD8114168
Probable space group: C 2/M
;
_chemical_formula_sum "Si O2"
_cell_formula_units_Z 64
_cell_length_a 9.311522
_cell_length_b 21.119599
_cell_length_c 22.411828
_cell_angle_alpha 90.000000
_cell_angle_beta 128.727926
_cell_angle_gamma 90.000000
_cell_volume 3438.334587
_symmetry_space_group_name_H-M "C 2/M"
_symmetry_group_IT_number 12
_symmetry_cell_setting 'monoclinic'
loop_
_space_group_symop_operation_xyz
x,y,z
-x,y,-z
-x,-y,-z
x,-y,z
1/2+x,1/2+y,z
1/2-x,1/2+y,-z
1/2-x,1/2-y,-z
1/2+x,1/2-y,z
loop_
_atom_site_type_symbol
_atom_site_label
_atom_site_fract_x
_atom_site_fract_y
_atom_site_fract_z
Si Si1 0.038605 0.327333 0.656788
Si Si2 0.114677 0.200339 0.330472
Si Si3 0.672664 0.812737 0.506375
Si Si4 0.887956 0.132844 0.178853
Si Si5 0.798983 0.735554 0.945945
Si Si6 0.007279 0.572010 0.072344
Si Si7 0.198394 0.876090 0.074439
Si Si8 0.256611 0.573068 0.784884
O O1 0.218138 0.296421 0.673069
O O2 0.094774 0.386145 0.712452
O O3 0.942958 0.272576 0.670999
O O4 0.897093 0.354721 0.568381
O O5 0.174662 0.161161 0.406751
O O6 0.948258 0.161790 0.257891
O O7 0.500000 0.791701 0.500000
O O8 0.750000 0.750000 0.500000
O O9 0.848127 0.189451 0.122153
O O10 0.708001 0.092497 0.147277
O O11 0.043762 0.089187 0.190104
O O12 0.807573 0.801365 0.911223
O O13 0.750000 0.750000 0.000000
O O14 0.000000 0.702477 0.000000
O O15 0.972876 0.500000 0.082452
O O16 0.848443 0.613562 0.061557
O O17 0.000000 0.580763 0.000000
O O18 0.249809 0.915150 0.146333
O O19 0.000000 0.899723 0.000000
O O20 0.214188 0.500000 0.760867
#
# Coordination Sequence:
#
# PCOD8114168 Si02
#       8
#     8   8   8   8   8   8   8   8
#     4   9  18  33  53  78 108 136 170 213 262 314
#     4   9  18  30  52  81 107 134 166 215 271 318
#     4   8  14  28  49  75 106 133 162 204 257 316
#     4  11  21  35  53  75 104 134 171 216 262 309
#     4  11  21  34  52  74 101 129 162 208 265 314
#     4  11  23  38  55  73  97 134 175 211 249 297
#     4  11  23  38  56  78 103 133 173 218 263 310
#     4  11  23  37  52  73 105 145 182 214 252 304
#
# _framework density 18.613662999999999
#
# number of rings (size 3 to 8) (size 9 to 14) (size 15 to 20)
#    0.000    1.875    0.000    5.625    0.000    6.000 
#    0.000    0.000    0.000   10.125    0.000    0.000 
#    0.000   47.000    0.000    0.000    0.000    0.000 
#
# Total GULP energy -396637.970788 kJ/mol
# GULP energy per Si atom -12394.936587 kJ/mol
# Density = 1.857130 g / cm^3
# Si number density = 18.613663 Si / 1000 Ang^3
#
#
#
# Elastic Constant Matrix: (Units=GPa)
#
#
# Indices 1 2 3 4 5 6 
#
# 1 63.4887 18.4410 32.3889 0.0000 -5.4543 0.0000
# 2 18.4410 93.7886 52.7077 0.0000 -2.7800 0.0000
# 3 32.3889 52.7077 153.6394 0.0000 -6.4971 0.0000
# 4 0.0000 0.0000 0.0000 16.4771 0.0000 0.4600
# 5 -5.4543 -2.7800 -6.4971 0.0000 24.0907 0.0000
# 6 0.0000 0.0000 0.0000 0.4600 0.0000 24.5797
#
#
#
# Elastic Compliance Matrix: (Units=1/GPa)
#
#
# Indices 1 2 3 4 5 6 
#
# 1 0.018093 -0.001729 -0.003091 0.000000 0.003063 0.000000
# 2 -0.001729 0.013376 -0.004224 0.000000 0.000013 0.000000
# 3 -0.003091 -0.004224 0.008658 0.000000 0.001148 0.000000
# 4 0.000000 0.000000 0.000000 0.060722 0.000000 -0.001136
# 5 0.003063 0.000013 0.001148 0.000000 0.042514 0.000000
# 6 0.000000 0.000000 0.000000 -0.001136 0.000000 0.040705
#
#
# Mechanical properties :
#
#
# Convention : Reuss Voigt Hill
#
# Bulk Modulus (GPa) = 45.37520 57.55467 51.46493
# Shear Modulus (GPa) = 23.86580 26.85479 25.36030
#
# Velocity S-wave (km/s) = 3.58462 3.80247 3.69515
# Velocity P-wave (km/s) = 6.44693 7.08986 6.77603
#
# Compressibility (1/GPa) = 0.02203847
#
# Stress axis : x y z
#
# Youngs Moduli (GPa) = 55.26865 74.75849 115.49993
#
# Poissons Ratio (x) = 0.12929 0.35706
# Poissons Ratio (y) = 0.09558 0.48785
# Poissons Ratio (z) = 0.17086 0.31576
#
# Static dielectric constant tensor:
#      x y z
#    x 3.373690 0.000000 -0.047360 
#    y 0.000000 3.338140 0.000000 
#    z -0.047360 0.000000 4.032970 
# 
# 
# High freq. dielectric constant tensor:
#      x y z
#    x 1.726810 0.000000 -0.000850 
#    y 0.000000 1.695680 0.000000 
#    z -0.000850 0.000000 1.735740 
# 
# From -- ./inp_files/301680.got.cif
#   From: 2010.06.25/outbox.cif.g09.slc.cpg/sg12_151_cif.got.tgz:301680.got - 2010.06.28 00:19:55.
