data_PCOD8114887
_publ_section_title
;
Structure prediction by ZEFSAII (Michael W. Deem and Ramdas Pophale) SiO2 
 PCOD8114887
Probable space group: C 2/M
;
_chemical_formula_sum "Si O2"
_cell_formula_units_Z 64
_cell_length_a 9.349831
_cell_length_b 27.442402
_cell_length_c 17.598486
_cell_angle_alpha 90.000000
_cell_angle_beta 139.893167
_cell_angle_gamma 90.000000
_cell_volume 2908.920958
_symmetry_space_group_name_H-M "C 2/M"
_symmetry_group_IT_number 12
_symmetry_cell_setting 'monoclinic'
loop_
_space_group_symop_operation_xyz
x,y,z
-x,y,-z
-x,-y,-z
x,-y,z
1/2+x,1/2+y,z
1/2-x,1/2+y,-z
1/2-x,1/2-y,-z
1/2+x,1/2-y,z
loop_
_atom_site_type_symbol
_atom_site_label
_atom_site_fract_x
_atom_site_fract_y
_atom_site_fract_z
Si Si1 0.066067 0.442912 0.889067
Si Si2 0.082423 0.605696 0.740478
Si Si3 0.624406 0.710025 0.821008
Si Si4 0.886452 0.804090 0.880226
Si Si5 0.849778 0.105117 0.231468
Si Si6 0.131233 0.877387 0.479146
Si Si7 0.737695 0.786978 0.562093
Si Si8 0.510161 0.444554 0.157361
O O1 0.049325 0.500000 0.860898
O O2 0.015424 0.406395 0.798977
O O3 0.872497 0.427534 0.869194
O O4 0.305823 0.430032 0.020219
O O5 0.184206 0.660327 0.771983
O O6 0.260725 0.564450 0.792713
O O7 0.864210 0.598803 0.598992
O O8 0.805320 0.751367 0.877050
O O9 0.572299 0.701175 0.889282
O O10 0.706779 0.661858 0.809173
O O11 0.394015 0.730332 0.693768
O O12 0.000000 0.829280 0.000000
O O13 0.961969 0.090519 0.359087
O O14 0.020111 0.088793 0.235609
O O15 0.178322 0.837113 0.436212
O O16 0.000000 0.857957 0.500000
O O17 0.500000 0.793279 0.500000
O O18 0.750000 0.750000 0.500000
O O19 0.491024 0.500000 0.174717
#
# Coordination Sequence:
#
# PCOD8114887 Si02
#       8
#     8   8   8   8   8   8   8   8
#     4  11  24  44  72 102 133 177 228 280 337 405
#     4  12  24  44  71  99 139 178 225 279 339 399
#     4  11  25  42  64  99 134 178 225 273 333 401
#     4  12  26  44  65  98 138 182 227 272 333 402
#     4  11  24  44  69 101 138 177 223 281 344 396
#     4  11  24  43  64  95 133 179 225 274 335 407
#     4  11  22  38  66  94 129 174 226 280 329 391
#     4  11  24  45  71 101 133 173 229 282 338 405
#
# _framework density 22.001284999999999
#
# number of rings (size 3 to 8) (size 9 to 14) (size 15 to 20)
#    0.000    0.750    2.500    5.250    3.500    4.000 
#    0.000    3.750    0.000    0.000    0.000    0.000 
#    0.000    0.000    0.000    0.000    0.000    0.000 
#
# Total GULP energy -396711.209560 kJ/mol
# GULP energy per Si atom -12397.225299 kJ/mol
# Density = 2.195121 g / cm^3
# Si number density = 22.001285 Si / 1000 Ang^3
#
#
#
# Elastic Constant Matrix: (Units=GPa)
#
#
# Indices 1 2 3 4 5 6 
#
# 1 100.5168 19.4973 39.8651 0.0000 0.6463 0.0000
# 2 19.4973 81.5033 26.9361 0.0000 0.6153 0.0000
# 3 39.8651 26.9361 116.8481 0.0000 4.2047 0.0000
# 4 0.0000 0.0000 0.0000 21.4847 0.0000 -0.3313
# 5 0.6463 0.6153 4.2047 0.0000 41.5157 0.0000
# 6 0.0000 0.0000 0.0000 -0.3313 0.0000 36.4088
#
#
#
# Elastic Compliance Matrix: (Units=1/GPa)
#
#
# Indices 1 2 3 4 5 6 
#
# 1 0.011697 -0.001600 -0.003629 0.000000 0.000209 0.000000
# 2 -0.001600 0.013501 -0.002569 0.000000 0.000085 0.000000
# 3 -0.003629 -0.002569 0.010423 0.000000 -0.000961 0.000000
# 4 0.000000 0.000000 0.000000 0.046551 0.000000 0.000424
# 5 0.000209 0.000085 -0.000961 0.000000 0.024180 0.000000
# 6 0.000000 0.000000 0.000000 0.000424 0.000000 0.027470
#
#
# Mechanical properties :
#
#
# Convention : Reuss Voigt Hill
#
# Bulk Modulus (GPa) = 49.94216 52.38502 51.16359
# Shear Modulus (GPa) = 32.03192 34.05317 33.04254
#
# Velocity S-wave (km/s) = 3.81978 3.93845 3.87957
# Velocity P-wave (km/s) = 6.49640 6.67410 6.58585
#
# Compressibility (1/GPa) = 0.02002316
#
# Stress axis : x y z
#
# Youngs Moduli (GPa) = 85.49176 74.06988 95.93989
#
# Poissons Ratio (x) = 0.11853 0.34820
# Poissons Ratio (y) = 0.13681 0.24650
# Poissons Ratio (z) = 0.31028 0.19031
#
# Static dielectric constant tensor:
#      x y z
#    x 3.954370 0.000000 -0.064250 
#    y 0.000000 3.653000 0.000000 
#    z -0.064250 0.000000 4.194310 
# 
# 
# High freq. dielectric constant tensor:
#      x y z
#    x 1.881820 0.000000 -0.001740 
#    y 0.000000 1.850690 0.000000 
#    z -0.001740 0.000000 1.875870 
# 
# From -- ./inp_files/260351.got.cif
#   From: 2010.06.25/outbox.cif.g09.slc.cpg/sg12_131_cif.got.tgz:260351.got - 2010.06.28 00:19:55.
