data_PCOD8114804
_publ_section_title
;
Structure prediction by ZEFSAII (Michael W. Deem and Ramdas Pophale) SiO2 
 PCOD8114804
Probable space group: C 2/M
;
_chemical_formula_sum "Si O2"
_cell_formula_units_Z 56
_cell_length_a 9.305928
_cell_length_b 18.758435
_cell_length_c 27.386705
_cell_angle_alpha 90.000000
_cell_angle_beta 141.515454
_cell_angle_gamma 90.000000
_cell_volume 2975.077864
_symmetry_space_group_name_H-M "C 2/M"
_symmetry_group_IT_number 12
_symmetry_cell_setting 'monoclinic'
loop_
_space_group_symop_operation_xyz
x,y,z
-x,y,-z
-x,-y,-z
x,-y,z
1/2+x,1/2+y,z
1/2-x,1/2+y,-z
1/2-x,1/2-y,-z
1/2+x,1/2-y,z
loop_
_atom_site_type_symbol
_atom_site_label
_atom_site_fract_x
_atom_site_fract_y
_atom_site_fract_z
Si Si1 0.544098 0.330477 0.714479
Si Si2 0.459952 0.582529 0.838069
Si Si3 0.214498 0.820328 0.522273
Si Si4 0.352072 0.082360 0.865792
Si Si5 0.869540 0.084758 0.012957
Si Si6 0.266834 0.417000 0.560830
Si Si7 0.679060 0.812588 0.700073
O O1 0.747202 0.376015 0.792327
O O2 0.416923 0.379195 0.641597
O O3 0.662343 0.263387 0.721002
O O4 0.361974 0.303597 0.705642
O O5 0.383483 0.500000 0.816238
O O6 0.701255 0.593336 0.874192
O O7 0.256544 0.627753 0.759437
O O8 0.497133 0.610726 0.903071
O O9 0.250000 0.750000 0.500000
O O10 0.165380 0.887169 0.474200
O O11 0.435258 0.837780 0.613990
O O12 0.000000 0.806510 0.500000
O O13 0.607181 0.113144 0.943868
O O14 0.362132 0.000000 0.853192
O O15 0.867001 0.000000 0.012115
O O16 0.000000 0.115208 0.000000
O O17 0.324200 0.500000 0.577207
O O18 0.000000 0.400918 0.500000
#
# Coordination Sequence:
#
# PCOD8114804 Si02
#       7
#     8   8   8   8   8   8   8
#     4  11  22  38  58  87 115 152 196 241 288 351
#     4   9  19  36  58  84 112 147 193 238 284 342
#     4  12  23  40  63  86 118 160 202 239 290 350
#     4   9  18  34  58  83 111 148 190 236 282 342
#     4   9  17  32  55  84 116 148 183 230 293 348
#     4  11  23  40  63  88 117 153 197 246 295 345
#     4  11  23  37  60  85 115 154 195 237 294 346
#
# _framework density 18.823035999999998
#
# number of rings (size 3 to 8) (size 9 to 14) (size 15 to 20)
#    0.000    1.714    2.857    2.143    0.000    4.286 
#    0.000    0.714    0.000    0.000    0.000    0.000 
#    0.000    0.000    0.000    0.000    0.000    0.000 
#
# Total GULP energy -347301.481521 kJ/mol
# GULP energy per Si atom -12403.624340 kJ/mol
# Density = 1.878019 g / cm^3
# Si number density = 18.823036 Si / 1000 Ang^3
#
#
#
# Elastic Constant Matrix: (Units=GPa)
#
#
# Indices 1 2 3 4 5 6 
#
# 1 118.3484 57.7478 72.9795 -0.0003 -13.4102 -0.0007
# 2 57.7478 102.7493 68.2869 -0.0001 -9.7402 -0.0005
# 3 72.9795 68.2869 169.6675 0.0017 -14.8188 -0.0054
# 4 -0.0003 -0.0001 0.0017 25.7354 0.0002 -8.2819
# 5 -13.4102 -9.7402 -14.8188 0.0002 32.0173 -0.0019
# 6 -0.0007 -0.0005 -0.0054 -8.2819 -0.0019 50.5806
#
#
#
# Elastic Compliance Matrix: (Units=1/GPa)
#
#
# Indices 1 2 3 4 5 6 
#
# 1 0.013293 -0.004889 -0.003537 0.000000 0.002443 0.000000
# 2 -0.004889 0.015167 -0.003936 0.000000 0.000744 0.000000
# 3 -0.003537 -0.003936 0.009135 0.000000 0.001549 0.000001
# 4 0.000000 0.000000 0.000000 0.041018 0.000000 0.006716
# 5 0.002443 0.000744 0.001549 0.000000 0.033200 0.000001
# 6 0.000000 0.000000 0.000001 0.006716 0.000001 0.020870
#
#
# Mechanical properties :
#
#
# Convention : Reuss Voigt Hill
#
# Bulk Modulus (GPa) = 77.69660 87.64374 82.67017
# Shear Modulus (GPa) = 30.92210 34.45006 32.68608
#
# Velocity S-wave (km/s) = 4.05752 4.28273 4.17165
# Velocity P-wave (km/s) = 7.95728 8.43320 8.19869
#
# Compressibility (1/GPa) = 0.01287058
#
# Stress axis : x y z
#
# Youngs Moduli (GPa) = 75.22827 65.93363 109.47284
#
# Poissons Ratio (x) = 0.32234 0.38717
# Poissons Ratio (y) = 0.36778 0.43092
# Poissons Ratio (z) = 0.26605 0.25954
#
# Static dielectric constant tensor:
#      x y z
#    x 3.591990 0.000000 -0.098890 
#    y 0.000000 3.415180 0.000000 
#    z -0.098890 0.000000 3.523920 
# 
# 
# High freq. dielectric constant tensor:
#      x y z
#    x 1.734710 0.000000 -0.007730 
#    y 0.000000 1.715610 0.000000 
#    z -0.007730 0.000000 1.746370 
# 
# From -- ./inp_files/258226.got.cif
#   From: 2010.06.25/outbox.cif.g09.slc.cpg/sg12_130_cif.got.tgz:258226.got - 2010.06.28 00:19:55.
