data_PCOD8114876
_publ_section_title
;
Structure prediction by ZEFSAII (Michael W. Deem and Ramdas Pophale) SiO2 
 PCOD8114876
Probable space group: C 2/M
;
_chemical_formula_sum "Si O2"
_cell_formula_units_Z 48
_cell_length_a 23.537667
_cell_length_b 14.862367
_cell_length_c 22.016071
_cell_angle_alpha 90.000000
_cell_angle_beta 18.337657
_cell_angle_gamma 90.000000
_cell_volume 2423.106778
_symmetry_space_group_name_H-M "C 2/M"
_symmetry_group_IT_number 12
_symmetry_cell_setting 'monoclinic'
loop_
_space_group_symop_operation_xyz
x,y,z
-x,y,-z
-x,-y,-z
x,-y,z
1/2+x,1/2+y,z
1/2-x,1/2+y,-z
1/2-x,1/2-y,-z
1/2+x,1/2-y,z
loop_
_atom_site_type_symbol
_atom_site_label
_atom_site_fract_x
_atom_site_fract_y
_atom_site_fract_z
Si Si1 0.706425 0.854008 0.047219
Si Si2 0.792917 0.353084 0.468392
Si Si3 0.728726 0.600101 0.400833
Si Si4 0.180614 0.101422 0.200408
Si Si5 0.968391 0.726185 0.961722
Si Si6 0.981304 0.901082 0.870027
O O1 0.738375 0.897126 0.949243
O O2 0.831326 0.900605 0.969848
O O3 0.750000 0.750000 0.000000
O O4 0.500188 0.868624 0.275783
O O5 0.750000 0.250000 0.500000
O O6 0.741912 0.407511 0.459914
O O7 0.678199 0.388595 0.641179
O O8 0.770646 0.500000 0.332139
O O9 0.527818 0.631244 0.586787
O O10 0.865545 0.673415 0.236483
O O11 0.202511 0.000000 0.203234
O O12 0.286334 0.169206 0.137050
O O13 0.943882 0.824000 0.957054
O O14 0.000000 0.740994 0.000000
O O15 0.974193 0.000000 0.908348
#
# Coordination Sequence:
#
# PCOD8114876 Si02
#       6
#     8   8   8   8   8   8
#     4  12  20  36  65  99 131 161 196 251 325 389
#     4  12  20  36  65  99 131 161 196 251 325 389
#     4  11  22  38  64  97 131 161 197 256 324 387
#     4  11  22  38  64  97 131 161 197 256 324 387
#     4  12  27  45  64  85 121 177 225 260 304 366
#     4  12  26  42  63  96 131 165 213 266 317 371
#
# _framework density 19.809279
#
# number of rings (size 3 to 8) (size 9 to 14) (size 15 to 20)
#    0.000    0.333    8.333    1.500    0.000    4.333 
#    0.000    1.667    0.000    0.000    0.000    4.667 
#    0.000    0.000    0.000    0.000    0.000    0.000 
#
# Total GULP energy -297681.051799 kJ/mol
# GULP energy per Si atom -12403.377158 kJ/mol
# Density = 1.976419 g / cm^3
# Si number density = 19.809279 Si / 1000 Ang^3
#
#
#
# Elastic Constant Matrix: (Units=GPa)
#
#
# Indices 1 2 3 4 5 6 
#
# 1 90.5744 23.4627 9.2351 -0.0229 -13.1670 0.0039
# 2 23.4627 132.5507 27.4291 -0.1236 -12.0999 0.0416
# 3 9.2351 27.4291 94.1170 -0.1806 -37.2182 0.0780
# 4 -0.0229 -0.1236 -0.1806 20.4039 0.0608 -6.8672
# 5 -13.1670 -12.0999 -37.2182 0.0608 26.2045 0.0011
# 6 0.0039 0.0416 0.0780 -6.8672 0.0011 7.3467
#
#
#
# Elastic Compliance Matrix: (Units=1/GPa)
#
#
# Indices 1 2 3 4 5 6 
#
# 1 0.012713 -0.002016 0.003418 -0.000014 0.010311 -0.000046
# 2 -0.002016 0.008357 -0.002538 0.000032 -0.000759 0.000010
# 3 0.003418 -0.002538 0.025654 0.000023 0.036981 -0.000244
# 4 -0.000014 0.000032 0.000023 0.071507 -0.000128 0.066839
# 5 0.010311 -0.000759 0.036981 -0.000128 0.095517 -0.000528
# 6 -0.000046 0.000010 -0.000244 0.066839 -0.000528 0.198595
#
#
# Mechanical properties :
#
#
# Convention : Reuss Voigt Hill
#
# Bulk Modulus (GPa) = 22.49637 48.61065 35.55351
# Shear Modulus (GPa) = 11.64327 27.93202 19.78765
#
# Velocity S-wave (km/s) = 2.42702 3.75913 3.16398
# Velocity P-wave (km/s) = 4.38578 6.59045 5.59773
#
# Compressibility (1/GPa) = 0.04445162
#
# Stress axis : x y z
#
# Youngs Moduli (GPa) = 78.65676 119.65869 38.98088
#
# Poissons Ratio (x) = 0.24128 -0.13323
# Poissons Ratio (y) = 0.15860 0.09892
# Poissons Ratio (z) = -0.26883 0.30365
#
# Static dielectric constant tensor:
#      x y z
#    x 3.496430 -0.000080 -0.286550 
#    y -0.000080 3.818120 0.000410 
#    z -0.286550 0.000410 3.969320 
# 
# 
# High freq. dielectric constant tensor:
#      x y z
#    x 1.739360 -0.000010 -0.020390 
#    y -0.000010 1.787010 0.000020 
#    z -0.020390 0.000020 1.784330 
# 
# From -- ./inp_files/349627.got.cif
#   From: 2010.06.25/outbox.cif.g09.slc.cpg/sg12_175_cif.got.tgz:349627.got - 2010.06.28 00:19:55.
