data_PCOD8114122
_publ_section_title
;
Structure prediction by ZEFSAII (Michael W. Deem and Ramdas Pophale) SiO2 
 PCOD8114122
Probable space group: C 2/M
;
_chemical_formula_sum "Si O2"
_cell_formula_units_Z 48
_cell_length_a 22.888249
_cell_length_b 8.455792
_cell_length_c 20.092694
_cell_angle_alpha 90.000000
_cell_angle_beta 136.535517
_cell_angle_gamma 90.000000
_cell_volume 2675.059006
_symmetry_space_group_name_H-M "C 2/M"
_symmetry_group_IT_number 12
_symmetry_cell_setting 'monoclinic'
loop_
_space_group_symop_operation_xyz
x,y,z
-x,y,-z
-x,-y,-z
x,-y,z
1/2+x,1/2+y,z
1/2-x,1/2+y,-z
1/2-x,1/2-y,-z
1/2+x,1/2-y,z
loop_
_atom_site_type_symbol
_atom_site_label
_atom_site_fract_x
_atom_site_fract_y
_atom_site_fract_z
Si Si1 0.595844 0.188713 0.721046
Si Si2 0.655716 0.187891 0.913988
Si Si3 0.050603 0.184537 0.948975
Si Si4 0.383033 0.816219 0.864089
Si Si5 0.206318 0.689126 0.689376
Si Si6 0.442806 0.827145 0.517608
O O1 0.620193 0.249547 0.814019
O O2 0.668075 0.244616 0.728836
O O3 0.502320 0.259516 0.622361
O O4 0.589821 0.000000 0.713432
O O5 0.596325 0.262154 0.920289
O O6 0.654746 0.000000 0.918078
O O7 0.750000 0.250000 0.000000
O O8 0.962171 0.277939 0.881834
O O9 0.030866 0.000000 0.930142
O O10 0.110588 0.219927 0.061719
O O11 0.297911 0.766951 0.755313
O O12 0.382748 0.000000 0.881303
O O13 0.212628 0.500000 0.691235
O O14 0.145511 0.755422 0.578863
O O15 0.500000 0.847502 0.500000
O O16 0.418362 0.000000 0.525194
#
# Coordination Sequence:
#
# PCOD8114122 Si02
#       6
#     8   8   8   8   8   8
#     4   8  15  27  46  72 101 132 163 198 238 282
#     4  11  21  33  50  74 104 135 167 200 240 290
#     4  11  22  37  53  70  95 128 167 205 245 289
#     4  11  21  34  52  74  99 125 158 201 249 298
#     4   9  15  27  50  77 101 127 162 199 238 287
#     4   7  11  22  43  71  98 125 161 200 235 277
#
# _framework density 17.943531
#
# number of rings (size 3 to 8) (size 9 to 14) (size 15 to 20)
#    0.000    2.500    0.000    7.500    0.000    1.333 
#    0.000    0.833    0.000    7.500    0.000    0.000 
#    0.000    0.000    0.000    0.000    0.000    0.000 
#
# Total GULP energy -297403.031030 kJ/mol
# GULP energy per Si atom -12391.792960 kJ/mol
# Density = 1.790269 g / cm^3
# Si number density = 17.943531 Si / 1000 Ang^3
#
#
#
# Elastic Constant Matrix: (Units=GPa)
#
#
# Indices 1 2 3 4 5 6 
#
# 1 77.5677 10.9589 60.3934 0.0000 2.1470 0.0000
# 2 10.9589 48.4388 18.6977 0.0000 1.5512 0.0000
# 3 60.3934 18.6977 169.0044 0.0000 14.7799 0.0000
# 4 0.0000 0.0000 0.0000 13.5973 0.0000 2.0460
# 5 2.1470 1.5512 14.7799 0.0000 28.5609 0.0000
# 6 0.0000 0.0000 0.0000 2.0460 0.0000 21.1062
#
#
#
# Elastic Compliance Matrix: (Units=1/GPa)
#
#
# Indices 1 2 3 4 5 6 
#
# 1 0.018105 -0.001666 -0.006467 0.000000 0.002076 0.000000
# 2 -0.001666 0.021719 -0.001797 0.000000 -0.000125 0.000000
# 3 -0.006467 -0.001797 0.008773 0.000000 -0.003956 0.000000
# 4 0.000000 0.000000 0.000000 0.074633 0.000000 -0.007235
# 5 0.002076 -0.000125 -0.003956 0.000000 0.036911 0.000000
# 6 0.000000 0.000000 0.000000 -0.007235 0.000000 0.048081
#
#
# Mechanical properties :
#
#
# Convention : Reuss Voigt Hill
#
# Bulk Modulus (GPa) = 34.79815 52.79009 43.79412
# Shear Modulus (GPa) = 21.03848 26.31695 23.67771
#
# Velocity S-wave (km/s) = 3.42787 3.83385 3.63653
# Velocity P-wave (km/s) = 5.92472 7.00584 6.48784
#
# Compressibility (1/GPa) = 0.02873716
#
# Stress axis : x y z
#
# Youngs Moduli (GPa) = 55.23309 46.04253 113.98979
#
# Poissons Ratio (x) = 0.07672 0.73718
# Poissons Ratio (y) = 0.09203 0.20479
# Poissons Ratio (z) = 0.35719 0.08272
#
# Static dielectric constant tensor:
#      x y z
#    x 3.131080 0.000000 0.069010 
#    y 0.000000 3.202690 0.000000 
#    z 0.069010 0.000000 3.845980 
# 
# 
# High freq. dielectric constant tensor:
#      x y z
#    x 1.663290 0.000000 0.013780 
#    y 0.000000 1.669870 0.000000 
#    z 0.013780 0.000000 1.711630 
# 
# From -- ./inp_files/323868.got.cif
#   From: 2010.06.25/outbox.cif.g09.slc.cpg/sg12_162_cif.got.tgz:323868.got - 2010.06.28 00:19:55.
