data_PCOD8114290
_publ_section_title
;
Structure prediction by ZEFSAII (Michael W. Deem and Ramdas Pophale) SiO2 
 PCOD8114290
Probable space group: C 2/M
;
_chemical_formula_sum "Si O2"
_cell_formula_units_Z 36
_cell_length_a 4.961080
_cell_length_b 22.932410
_cell_length_c 14.848484
_cell_angle_alpha 90.000000
_cell_angle_beta 75.894299
_cell_angle_gamma 90.000000
_cell_volume 1638.368597
_symmetry_space_group_name_H-M "C 2/M"
_symmetry_group_IT_number 12
_symmetry_cell_setting 'monoclinic'
loop_
_space_group_symop_operation_xyz
x,y,z
-x,y,-z
-x,-y,-z
x,-y,z
1/2+x,1/2+y,z
1/2-x,1/2+y,-z
1/2-x,1/2-y,-z
1/2+x,1/2-y,z
loop_
_atom_site_type_symbol
_atom_site_label
_atom_site_fract_x
_atom_site_fract_y
_atom_site_fract_z
Si Si1 0.225431 0.934461 0.760292
Si Si2 0.967960 0.210474 0.647099
Si Si3 0.794725 0.363370 0.184073
Si Si4 0.810864 0.094716 0.441127
Si Si5 0.500000 0.792719 0.000000
O O1 0.480106 0.893216 0.768339
O O2 0.197072 0.937010 0.654388
O O3 0.937846 0.910569 0.826476
O O4 0.275842 0.000000 0.792006
O O5 0.749703 0.254261 0.624551
O O6 0.864537 0.189288 0.753328
O O7 0.022011 0.155154 0.580496
O O8 0.946809 0.336329 0.086452
O O9 0.500000 0.103128 0.500000
O O10 0.000000 0.059723 0.500000
O O11 0.750000 0.750000 0.000000
#
# Coordination Sequence:
#
# PCOD8114290 Si02
#       5
#     8   8   8   8   4
#     4  11  24  44  66  87 123 168 208 260 319 362
#     4  11  21  36  58  83 121 164 196 241 309 371
#     4  11  23  42  64  95 126 159 210 255 302 374
#     4  11  23  38  58  89 123 159 214 266 304 367
#     4  12  24  42  71 102 133 164 200 248 304 368
#
# _framework density 21.973077
#
# number of rings (size 3 to 8) (size 9 to 14) (size 15 to 20)
#    0.000    0.889    0.000   10.000    0.000    3.556 
#    0.000    3.333    0.000    0.000    0.000    0.000 
#    0.000    0.000    0.000    0.000    0.000    0.000 
#
# Total GULP energy -223177.349259 kJ/mol
# GULP energy per Si atom -12398.741626 kJ/mol
# Density = 2.192307 g / cm^3
# Si number density = 21.973077 Si / 1000 Ang^3
#
#
#
# Elastic Constant Matrix: (Units=GPa)
#
#
# Indices 1 2 3 4 5 6 
#
# 1 170.2353 41.8483 29.4601 0.0000 -3.7431 0.0000
# 2 41.8483 103.2120 26.8998 0.0000 -3.3078 0.0000
# 3 29.4601 26.8998 98.4750 0.0000 -13.5392 0.0000
# 4 0.0000 0.0000 0.0000 0.3239 0.0000 1.1926
# 5 -3.7431 -3.3078 -13.5392 0.0000 37.2021 0.0000
# 6 0.0000 0.0000 0.0000 1.1926 0.0000 13.8182
#
#
#
# Elastic Compliance Matrix: (Units=1/GPa)
#
#
# Indices 1 2 3 4 5 6 
#
# 1 0.006689 -0.002358 -0.001361 0.000000 -0.000032 0.000000
# 2 -0.002358 0.011263 -0.002386 0.000000 -0.000104 0.000000
# 3 -0.001361 -0.002386 0.011754 0.000000 0.003929 0.000000
# 4 0.000000 0.000000 0.000000 4.525442 0.000000 -0.390568
# 5 -0.000032 -0.000104 0.003929 0.000000 0.028297 0.000000
# 6 0.000000 0.000000 0.000000 -0.390568 0.000000 0.106077
#
#
# Mechanical properties :
#
#
# Convention : Reuss Voigt Hill
#
# Bulk Modulus (GPa) = 57.15619 63.14873 60.15246
# Shear Modulus (GPa) = 1.06212 28.51644 14.78928
#
# Velocity S-wave (km/s) = 0.69600 3.60639 2.59716
# Velocity P-wave (km/s) = 5.16859 6.79286 6.03561
#
# Compressibility (1/GPa) = 0.01749592
#
# Stress axis : x y z
#
# Youngs Moduli (GPa) = 149.50316 88.78326 85.07829
#
# Poissons Ratio (x) = 0.20938 0.11581
# Poissons Ratio (y) = 0.35257 0.20296
# Poissons Ratio (z) = 0.20351 0.21180
#
# Static dielectric constant tensor:
#      x y z
#    x 4.155260 0.000000 -0.130530 
#    y 0.000000 3.992920 0.000000 
#    z -0.130530 0.000000 3.907660 
# 
# 
# High freq. dielectric constant tensor:
#      x y z
#    x 1.888420 0.000000 -0.005940 
#    y 0.000000 1.865640 0.000000 
#    z -0.005940 0.000000 1.854690 
# 
# From -- ./inp_files/191201.got.cif
#   From: 2010.06.25/outbox.cif.g09.slc.cpg/sg12_96_cif.got.tgz:191201.got - 2010.06.28 00:19:55.
