data_PCOD8114743
_publ_section_title
;
Structure prediction by ZEFSAII (Michael W. Deem and Ramdas Pophale) SiO2 
 PCOD8114743
Probable space group: C 2/M
;
_chemical_formula_sum "Si O2"
_cell_formula_units_Z 56
_cell_length_a 14.834172
_cell_length_b 8.548484
_cell_length_c 25.437013
_cell_angle_alpha 90.000000
_cell_angle_beta 121.869227
_cell_angle_gamma 90.000000
_cell_volume 2739.408723
_symmetry_space_group_name_H-M "C 2/M"
_symmetry_group_IT_number 12
_symmetry_cell_setting 'monoclinic'
loop_
_space_group_symop_operation_xyz
x,y,z
-x,y,-z
-x,-y,-z
x,-y,z
1/2+x,1/2+y,z
1/2-x,1/2+y,-z
1/2-x,1/2-y,-z
1/2+x,1/2-y,z
loop_
_atom_site_type_symbol
_atom_site_label
_atom_site_fract_x
_atom_site_fract_y
_atom_site_fract_z
Si Si1 0.085659 0.314509 0.094042
Si Si2 0.042099 0.316907 0.707093
Si Si3 0.663994 0.185611 0.558230
Si Si4 0.976903 0.685686 0.574230
Si Si5 0.844114 0.183349 0.686779
Si Si6 0.648500 0.184990 0.999452
Si Si7 0.236048 0.683731 0.232560
O O1 0.087855 0.500000 0.092397
O O2 0.150519 0.252687 0.164166
O O3 0.962911 0.258731 0.061260
O O4 0.143082 0.253993 0.058236
O O5 0.068189 0.500000 0.713358
O O6 0.147544 0.221935 0.753854
O O7 0.990038 0.249485 0.637085
O O8 0.954359 0.278191 0.724203
O O9 0.574873 0.250746 0.570488
O O10 0.632915 0.241134 0.489080
O O11 0.778028 0.243470 0.614802
O O12 0.661229 0.000000 0.560438
O O13 0.979152 0.500000 0.577235
O O14 0.776886 0.220474 0.717856
O O15 0.867007 0.000000 0.690795
O O16 0.657481 0.000000 0.000351
O O17 0.750000 0.250000 0.000000
O O18 0.222920 0.500000 0.238641
#
# Coordination Sequence:
#
# PCOD8114743 Si02
#       7
#     8   8   8   8   8   8   8
#     4   8  18  36  58  81 111 149 181 214 267 322
#     4  11  22  37  56  81 110 146 187 231 281 335
#     4   8  14  28  52  77 101 134 177 227 283 336
#     4   8  14  28  52  77 101 134 177 227 283 336
#     4  11  22  37  56  81 110 146 187 231 281 335
#     4   9  17  35  60  86 114 143 177 219 264 314
#     4  11  22  39  59  81 112 150 189 230 272 322
#
# _framework density 20.442367000000001
#
# number of rings (size 3 to 8) (size 9 to 14) (size 15 to 20)
#    0.000    2.571    1.429    3.000    0.000    1.714 
#    0.000    7.143    0.000    3.429    0.000    0.000 
#    0.000    0.000    0.000    0.000    0.000    0.000 
#
# Total GULP energy -346971.108201 kJ/mol
# GULP energy per Si atom -12391.825293 kJ/mol
# Density = 2.039584 g / cm^3
# Si number density = 20.442367 Si / 1000 Ang^3
#
#
#
# Elastic Constant Matrix: (Units=GPa)
#
#
# Indices 1 2 3 4 5 6 
#
# 1 112.8454 14.8985 38.8140 0.0000 24.1176 0.0000
# 2 14.8985 33.0891 26.0360 0.0000 4.3962 0.0000
# 3 38.8140 26.0360 126.6490 0.0000 26.3282 0.0000
# 4 0.0000 0.0000 0.0000 19.7779 0.0000 0.5687
# 5 24.1176 4.3962 26.3282 0.0000 24.0996 0.0000
# 6 0.0000 0.0000 0.0000 0.5687 0.0000 30.3736
#
#
#
# Elastic Compliance Matrix: (Units=1/GPa)
#
#
# Indices 1 2 3 4 5 6 
#
# 1 0.011775 -0.003316 -0.000780 0.000000 -0.010326 0.000000
# 2 -0.003316 0.037059 -0.007617 0.000000 0.004879 0.000000
# 3 -0.000780 -0.007617 0.011967 0.000000 -0.010904 0.000000
# 4 0.000000 0.000000 0.000000 0.050589 0.000000 -0.000947
# 5 -0.010326 0.004879 -0.010904 0.000000 0.062850 0.000000
# 6 0.000000 0.000000 0.000000 -0.000947 0.000000 0.032941
#
#
# Mechanical properties :
#
#
# Convention : Reuss Voigt Hill
#
# Bulk Modulus (GPa) = 26.75490 48.00896 37.38193
# Shear Modulus (GPa) = 20.57057 27.70588 24.13823
#
# Velocity S-wave (km/s) = 3.17562 3.68546 3.44000
# Velocity P-wave (km/s) = 5.15388 6.45338 5.83989
#
# Compressibility (1/GPa) = 0.03737633
#
# Stress axis : x y z
#
# Youngs Moduli (GPa) = 84.92723 26.98387 83.55972
#
# Poissons Ratio (x) = 0.08947 0.06520
# Poissons Ratio (y) = 0.28159 0.63644
# Poissons Ratio (z) = 0.06627 0.20552
#
# Static dielectric constant tensor:
#      x y z
#    x 3.678620 0.000000 0.144590 
#    y 0.000000 3.141460 0.000000 
#    z 0.144590 0.000000 4.158030 
# 
# 
# High freq. dielectric constant tensor:
#      x y z
#    x 1.799620 0.000000 0.010250 
#    y 0.000000 1.755900 0.000000 
#    z 0.010250 0.000000 1.802000 
# 
# From -- ./inp_files/339039.got.cif
#   From: 2010.06.25/outbox.cif.g09.slc.cpg/sg12_170_cif.got.tgz:339039.got - 2010.06.28 00:19:55.
