data_PCOD8114740
_publ_section_title
;
Structure prediction by ZEFSAII (Michael W. Deem and Ramdas Pophale) SiO2 
 PCOD8114740
Probable space group: C 2/M
;
_chemical_formula_sum "Si O2"
_cell_formula_units_Z 48
_cell_length_a 31.669079
_cell_length_b 8.721959
_cell_length_c 15.836830
_cell_angle_alpha 90.000000
_cell_angle_beta 143.465153
_cell_angle_gamma 90.000000
_cell_volume 2604.126388
_symmetry_space_group_name_H-M "C 2/M"
_symmetry_group_IT_number 12
_symmetry_cell_setting 'monoclinic'
loop_
_space_group_symop_operation_xyz
x,y,z
-x,y,-z
-x,-y,-z
x,-y,z
1/2+x,1/2+y,z
1/2-x,1/2+y,-z
1/2-x,1/2-y,-z
1/2+x,1/2-y,z
loop_
_atom_site_type_symbol
_atom_site_label
_atom_site_fract_x
_atom_site_fract_y
_atom_site_fract_z
Si Si1 0.217701 0.319882 0.865024
Si Si2 0.227822 0.823500 0.227340
Si Si3 0.069103 0.682183 0.565716
Si Si4 0.114991 0.677280 0.457617
Si Si5 0.049002 0.820112 0.190180
Si Si6 0.092783 0.320248 0.088949
O O1 0.213337 0.500000 0.869103
O O2 0.265258 0.278844 0.860049
O O3 0.138630 0.252472 0.724555
O O4 0.250000 0.250000 0.000000
O O5 0.301813 0.795004 0.393802
O O6 0.169325 0.714485 0.173604
O O7 0.204610 0.000000 0.199976
O O8 0.069527 0.500000 0.573536
O O9 0.071098 0.727390 0.470333
O O10 0.000000 0.753506 0.500000
O O11 0.100346 0.500000 0.411881
O O12 0.088993 0.784485 0.340878
O O13 0.090778 0.737498 0.181795
O O14 0.049612 0.000000 0.174139
O O15 0.967964 0.761907 0.064099
O O16 0.078452 0.500000 0.063916
#
# Coordination Sequence:
#
# PCOD8114740 Si02
#       6
#     8   8   8   8   8   8
#     4   9  18  32  51  76 106 139 173 213 259 307
#     4   9  19  36  54  75 108 144 177 217 265 310
#     4   8  15  30  52  76 102 134 173 213 253 298
#     4   9  18  34  55  78 106 140 178 217 255 306
#     4  11  22  37  56  78 108 139 168 210 267 320
#     4  11  22  37  57  79 103 134 178 221 258 310
#
# _framework density 18.432283999999999
#
# number of rings (size 3 to 8) (size 9 to 14) (size 15 to 20)
#    0.000    2.500    0.000    6.000    0.000    3.333 
#    0.000    4.167    0.000    1.000    0.000    0.000 
#    0.000    0.000    0.000    0.000    0.000    0.000 
#
# Total GULP energy -297593.756722 kJ/mol
# GULP energy per Si atom -12399.739863 kJ/mol
# Density = 1.839033 g / cm^3
# Si number density = 18.432284 Si / 1000 Ang^3
#
#
#
# Elastic Constant Matrix: (Units=GPa)
#
#
# Indices 1 2 3 4 5 6 
#
# 1 117.9069 28.0942 60.5301 0.0000 9.4749 0.0000
# 2 28.0942 49.0986 23.5376 0.0000 1.7766 0.0000
# 3 60.5301 23.5376 102.9806 0.0000 -16.5927 0.0000
# 4 0.0000 0.0000 0.0000 30.8166 0.0000 -3.8896
# 5 9.4749 1.7766 -16.5927 0.0000 29.4001 0.0000
# 6 0.0000 0.0000 0.0000 -3.8896 0.0000 25.2181
#
#
#
# Elastic Compliance Matrix: (Units=1/GPa)
#
#
# Indices 1 2 3 4 5 6 
#
# 1 0.015146 -0.003649 -0.009701 0.000000 -0.010136 0.000000
# 2 -0.003649 0.024376 -0.003822 0.000000 -0.002454 0.000000
# 3 -0.009701 -0.003822 0.018511 0.000000 0.013805 0.000000
# 4 0.000000 0.000000 0.000000 0.033094 0.000000 0.005104
# 5 -0.010136 -0.002454 0.013805 0.000000 0.045219 0.000000
# 6 0.000000 0.000000 0.000000 0.005104 0.000000 0.040441
#
#
# Mechanical properties :
#
#
# Convention : Reuss Voigt Hill
#
# Bulk Modulus (GPa) = 42.21620 54.92330 48.56975
# Shear Modulus (GPa) = 22.82808 27.60857 25.21833
#
# Velocity S-wave (km/s) = 3.52303 3.87439 3.70288
# Velocity P-wave (km/s) = 6.28507 7.06233 6.68501
#
# Compressibility (1/GPa) = 0.02368759
#
# Stress axis : x y z
#
# Youngs Moduli (GPa) = 66.02559 41.02366 54.02246
#
# Poissons Ratio (x) = 0.14968 0.52410
# Poissons Ratio (y) = 0.24091 0.20649
# Poissons Ratio (z) = 0.64055 0.15681
#
# Static dielectric constant tensor:
#      x y z
#    x 3.531920 0.000000 0.044520 
#    y 0.000000 3.171510 0.000000 
#    z 0.044520 0.000000 3.115210 
# 
# 
# High freq. dielectric constant tensor:
#      x y z
#    x 1.719970 0.000000 -0.000160 
#    y 0.000000 1.698130 0.000000 
#    z -0.000160 0.000000 1.717410 
# 
# From -- ./inp_files/249340.got.cif
#   From: 2010.06.25/outbox.cif.g09.slc.cpg/sg12_125_cif.got.tgz:249340.got - 2010.06.28 00:19:55.
