data_PCOD8114462
_publ_section_title
;
Structure prediction by ZEFSAII (Michael W. Deem and Ramdas Pophale) SiO2 
 PCOD8114462
Probable space group: C 2/M
;
_chemical_formula_sum "Si O2"
_cell_formula_units_Z 48
_cell_length_a 12.588681
_cell_length_b 17.173925
_cell_length_c 11.821136
_cell_angle_alpha 90.000000
_cell_angle_beta 112.658529
_cell_angle_gamma 90.000000
_cell_volume 2358.439121
_symmetry_space_group_name_H-M "C 2/M"
_symmetry_group_IT_number 12
_symmetry_cell_setting 'monoclinic'
loop_
_space_group_symop_operation_xyz
x,y,z
-x,y,-z
-x,-y,-z
x,-y,z
1/2+x,1/2+y,z
1/2-x,1/2+y,-z
1/2-x,1/2-y,-z
1/2+x,1/2-y,z
loop_
_atom_site_type_symbol
_atom_site_label
_atom_site_fract_x
_atom_site_fract_y
_atom_site_fract_z
Si Si1 0.730818 0.682296 0.858974
Si Si2 0.870240 0.411901 0.485811
Si Si3 0.510081 0.696166 0.134646
Si Si4 0.374341 0.915451 0.082709
Si Si5 0.254275 0.645858 0.773362
Si Si6 0.892231 0.644940 0.745170
O O1 0.605448 0.660560 0.856866
O O2 0.735662 0.773029 0.832627
O O3 0.770645 0.636183 0.762619
O O4 0.826634 0.657677 0.991476
O O5 0.821125 0.500000 0.464228
O O6 0.797448 0.355846 0.373748
O O7 0.861399 0.376586 0.606060
O O8 0.000000 0.411051 0.500000
O O9 0.608707 0.629292 0.179406
O O10 0.556719 0.767745 0.228814
O O11 0.500000 0.722951 0.000000
O O12 0.311095 0.918084 0.178714
O O13 0.511266 0.909916 0.158856
O O14 0.350714 0.000000 0.015806
#
# Coordination Sequence:
#
# PCOD8114462 Si02
#       6
#     8   8   8   8   8   8
#     4  11  23  40  62  93 130 163 205 257 316 367
#     4  11  22  40  63  90 126 165 208 258 308 367
#     4  11  21  39  65  90 126 165 210 256 300 369
#     4  12  22  38  63  94 128 161 201 257 320 372
#     4  11  22  39  65  91 123 165 217 254 299 363
#     4  11  23  36  63  95 126 159 204 264 312 363
#
# _framework density 20.352443999999998
#
# number of rings (size 3 to 8) (size 9 to 14) (size 15 to 20)
#    0.000    0.833    5.000    4.000    0.000    4.667 
#    0.000    5.000    0.000    1.000    0.000    0.000 
#    0.000    0.000    0.000    0.000    0.000    0.000 
#
# Total GULP energy -297431.051465 kJ/mol
# GULP energy per Si atom -12392.960478 kJ/mol
# Density = 2.030612 g / cm^3
# Si number density = 20.352444 Si / 1000 Ang^3
#
#
#
# Elastic Constant Matrix: (Units=GPa)
#
#
# Indices 1 2 3 4 5 6 
#
# 1 168.5385 35.6399 38.5114 0.0000 -16.6620 0.0000
# 2 35.6399 78.9006 48.6073 0.0000 0.6602 0.0000
# 3 38.5114 48.6073 130.6869 0.0000 -11.1485 0.0000
# 4 0.0000 0.0000 0.0000 -12.1433 0.0000 12.4169
# 5 -16.6620 0.6602 -11.1485 0.0000 34.3363 0.0000
# 6 0.0000 0.0000 0.0000 12.4169 0.0000 -2.8216
#
#
#
# Elastic Compliance Matrix: (Units=1/GPa)
#
#
# Indices 1 2 3 4 5 6 
#
# 1 0.007001 -0.002706 -0.000784 0.000000 0.003195 0.000000
# 2 -0.002706 0.017677 -0.006087 0.000000 -0.003629 0.000000
# 3 -0.000784 -0.006087 0.010413 0.000000 0.003117 0.000000
# 4 0.000000 0.000000 0.000000 0.023530 0.000000 0.103547
# 5 0.003195 -0.003629 0.003117 0.000000 0.031756 0.000000
# 6 0.000000 0.000000 0.000000 0.103547 0.000000 0.101265
#
#
# Mechanical properties :
#
#
# Convention : Reuss Voigt Hill
#
# Bulk Modulus (GPa) = 62.74914 69.29371 66.02143
# Shear Modulus (GPa) = 23.13672 20.89878 22.01775
#
# Velocity S-wave (km/s) = 3.37531 3.20792 3.29268
# Velocity P-wave (km/s) = 6.78885 6.91677 6.85311
#
# Compressibility (1/GPa) = 0.01593647
#
# Stress axis : x y z
#
# Youngs Moduli (GPa) = 142.84623 56.57182 96.03602
#
# Poissons Ratio (x) = 0.15308 0.07529
# Poissons Ratio (y) = 0.38653 0.58455
# Poissons Ratio (z) = 0.11199 0.34434
#
# Static dielectric constant tensor:
#      x y z
#    x 4.317630 0.000000 -0.146000 
#    y 0.000000 3.501880 0.000000 
#    z -0.146000 0.000000 3.716420 
# 
# 
# High freq. dielectric constant tensor:
#      x y z
#    x 1.808250 0.000000 -0.014390 
#    y 0.000000 1.769690 0.000000 
#    z -0.014390 0.000000 1.789030 
# 
# From -- ./inp_files/131771.got.cif
#   From: 2010.06.25/outbox.cif.g09.slc.cpg/sg12_66_cif.got.tgz:131771.got - 2010.06.28 00:19:55.
