data_PCOD8114756
_publ_section_title
;
Structure prediction by ZEFSAII (Michael W. Deem and Ramdas Pophale) SiO2 
 PCOD8114756
Probable space group: C 2/M
;
_chemical_formula_sum "Si O2"
_cell_formula_units_Z 64
_cell_length_a 15.212628
_cell_length_b 8.633564
_cell_length_c 23.789317
_cell_angle_alpha 90.000000
_cell_angle_beta 87.450824
_cell_angle_gamma 90.000000
_cell_volume 3121.377877
_symmetry_space_group_name_H-M "C 2/M"
_symmetry_group_IT_number 12
_symmetry_cell_setting 'monoclinic'
loop_
_space_group_symop_operation_xyz
x,y,z
-x,y,-z
-x,-y,-z
x,-y,z
1/2+x,1/2+y,z
1/2-x,1/2+y,-z
1/2-x,1/2-y,-z
1/2+x,1/2-y,z
loop_
_atom_site_type_symbol
_atom_site_label
_atom_site_fract_x
_atom_site_fract_y
_atom_site_fract_z
Si Si1 0.406089 0.818024 0.669634
Si Si2 0.846405 0.182529 0.437364
Si Si3 0.852427 0.681967 0.550325
Si Si4 0.415203 0.317608 0.316597
Si Si5 0.235227 0.317229 0.139712
Si Si6 0.245336 0.318500 0.739412
Si Si7 0.892517 0.817510 0.057981
Si Si8 0.089474 0.183505 0.068384
O O1 0.407895 0.769968 0.603661
O O2 0.483981 0.727498 0.699362
O O3 0.312648 0.772898 0.697953
O O4 0.419815 0.000000 0.676939
O O5 0.894272 0.245673 0.492409
O O6 0.746661 0.245841 0.438633
O O7 0.894235 0.243569 0.380052
O O8 0.849611 0.000000 0.438393
O O9 0.850906 0.500000 0.542996
O O10 0.400983 0.500000 0.310234
O O11 0.353268 0.231660 0.273866
O O12 0.243568 0.500000 0.150836
O O13 0.236961 0.224554 0.197157
O O14 0.315131 0.251233 0.099278
O O15 0.143567 0.280197 0.112198
O O16 0.258324 0.500000 0.730128
O O17 0.987292 0.771481 0.080635
O O18 0.885837 0.000000 0.055487
O O19 0.881568 0.757694 0.994420
O O20 0.104785 0.000000 0.075567
#
# Coordination Sequence:
#
# PCOD8114756 Si02
#       8
#     8   8   8   8   8   8   8   8
#     4  11  23  42  64  89 119 154 198 249 303 362
#     4   9  18  34  57  85 118 154 190 235 293 354
#     4   9  18  34  57  85 118 153 189 237 295 353
#     4  11  23  42  64  89 120 156 198 247 301 361
#     4  11  22  37  58  86 119 156 195 245 302 353
#     4  12  26  44  63  85 114 158 208 256 306 354
#     4   8  17  34  59  87 120 159 194 234 289 346
#     4   9  17  35  60  88 120 156 199 239 280 349
#
# _framework density 20.503765000000001
#
# number of rings (size 3 to 8) (size 9 to 14) (size 15 to 20)
#    0.000    2.000    1.250    3.375    0.000    3.500 
#    0.000    9.375    0.000    0.000    0.000    0.000 
#    0.000    0.000    0.000    0.000    0.000    0.000 
#
# Total GULP energy -396843.295924 kJ/mol
# GULP energy per Si atom -12401.352998 kJ/mol
# Density = 2.045710 g / cm^3
# Si number density = 20.503765 Si / 1000 Ang^3
#
#
#
# Elastic Constant Matrix: (Units=GPa)
#
#
# Indices 1 2 3 4 5 6 
#
# 1 85.8537 19.5748 30.8640 0.0000 23.8666 0.0000
# 2 19.5748 39.0958 30.5486 0.0000 4.3166 0.0000
# 3 30.8640 30.5486 97.4777 0.0000 20.2798 0.0000
# 4 0.0000 0.0000 0.0000 26.9628 0.0000 5.2594
# 5 23.8666 4.3166 20.2798 0.0000 23.1529 0.0000
# 6 0.0000 0.0000 0.0000 5.2594 0.0000 30.4464
#
#
#
# Elastic Compliance Matrix: (Units=1/GPa)
#
#
# Indices 1 2 3 4 5 6 
#
# 1 0.018093 -0.007274 0.000182 0.000000 -0.017454 0.000000
# 2 -0.007274 0.037051 -0.011533 0.000000 0.010692 0.000000
# 3 0.000182 -0.011533 0.016395 0.000000 -0.012398 0.000000
# 4 0.000000 0.000000 0.000000 0.038381 0.000000 -0.006630
# 5 -0.017454 0.010692 -0.012398 0.000000 0.070049 0.000000
# 6 0.000000 0.000000 0.000000 -0.006630 0.000000 0.033990
#
#
# Mechanical properties :
#
#
# Convention : Reuss Voigt Hill
#
# Bulk Modulus (GPa) = 29.16371 42.71133 35.93752
# Shear Modulus (GPa) = 19.03761 25.54175 22.28968
#
# Velocity S-wave (km/s) = 3.05042 3.53329 3.30070
# Velocity P-wave (km/s) = 5.16345 6.12550 5.66493
#
# Compressibility (1/GPa) = 0.03428919
#
# Stress axis : x y z
#
# Youngs Moduli (GPa) = 55.27068 26.98970 60.99552
#
# Poissons Ratio (x) = 0.19633 -0.01111
# Poissons Ratio (y) = 0.40205 0.70345
# Poissons Ratio (z) = -0.01007 0.31127
#
# Static dielectric constant tensor:
#      x y z
#    x 3.816290 0.000000 -0.116880 
#    y 0.000000 3.432150 0.000000 
#    z -0.116880 0.000000 3.894930 
# 
# 
# High freq. dielectric constant tensor:
#      x y z
#    x 1.804300 0.000000 0.005640 
#    y 0.000000 1.784850 0.000000 
#    z 0.005640 0.000000 1.802370 
# 
# From -- ./inp_files/338767.got.cif
#   From: 2010.06.25/outbox.cif.g09.slc.cpg/sg12_170_cif.got.tgz:338767.got - 2010.06.28 00:19:55.
