data_PCOD8114185
_publ_section_title
;
Structure prediction by ZEFSAII (Michael W. Deem and Ramdas Pophale) SiO2 
 PCOD8114185
Probable space group: C 2/M
;
_chemical_formula_sum "Si O2"
_cell_formula_units_Z 56
_cell_length_a 23.109470
_cell_length_b 8.378529
_cell_length_c 19.604085
_cell_angle_alpha 90.000000
_cell_angle_beta 127.836043
_cell_angle_gamma 90.000000
_cell_volume 2997.813317
_symmetry_space_group_name_H-M "C 2/M"
_symmetry_group_IT_number 12
_symmetry_cell_setting 'monoclinic'
loop_
_space_group_symop_operation_xyz
x,y,z
-x,y,-z
-x,-y,-z
x,-y,z
1/2+x,1/2+y,z
1/2-x,1/2+y,-z
1/2-x,1/2-y,-z
1/2+x,1/2-y,z
loop_
_atom_site_type_symbol
_atom_site_label
_atom_site_fract_x
_atom_site_fract_y
_atom_site_fract_z
Si Si1 0.945138 0.185106 0.401567
Si Si2 0.990248 0.808928 0.825713
Si Si3 0.194147 0.685999 0.639413
Si Si4 0.176229 0.185758 0.478967
Si Si5 0.650623 0.690421 0.194435
Si Si6 0.024180 0.684203 0.330509
Si Si7 0.574119 0.325832 0.011702
O O1 0.869861 0.284709 0.352045
O O2 0.000000 0.246850 0.500000
O O3 0.980767 0.211219 0.353909
O O4 0.927245 0.000000 0.398970
O O5 0.909811 0.754941 0.793957
O O6 0.007064 0.726440 0.766275
O O7 0.993833 0.000000 0.821883
O O8 0.052725 0.742953 0.924069
O O9 0.200819 0.500000 0.625666
O O10 0.174320 0.785460 0.558094
O O11 0.270198 0.752622 0.724980
O O12 0.250000 0.250000 0.500000
O O13 0.110045 0.276714 0.394675
O O14 0.167525 0.000000 0.456770
O O15 0.649193 0.500000 0.187199
O O16 0.631586 0.762565 0.104603
O O17 0.010990 0.500000 0.337555
O O18 0.606259 0.500000 0.016901
O O19 0.500000 0.347760 0.000000
#
# Coordination Sequence:
#
# PCOD8114185 Si02
#       7
#     8   8   8   8   8   8   8
#     4  11  23  40  59  75  97 136 184 231 269 315
#     4   9  16  30  54  81 111 144 177 213 256 313
#     4  11  21  34  55  81 109 140 175 221 269 318
#     4  12  24  38  54  77 109 143 177 214 261 316
#     4   8  15  28  50  82 113 140 173 212 258 312
#     4  12  24  37  55  78 106 139 177 223 270 320
#     4   7  11  23  47  78 108 140 176 210 248 305
#
# _framework density 18.680284
#
# number of rings (size 3 to 8) (size 9 to 14) (size 15 to 20)
#    0.000    2.000    1.429    6.000    0.000    1.714 
#    0.000    0.714    0.000    6.429    0.000    0.000 
#    0.000    0.000    0.000    0.000    0.000    0.000 
#
# Total GULP energy -347085.107336 kJ/mol
# GULP energy per Si atom -12395.896691 kJ/mol
# Density = 1.863777 g / cm^3
# Si number density = 18.680284 Si / 1000 Ang^3
#
#
#
# Elastic Constant Matrix: (Units=GPa)
#
#
# Indices 1 2 3 4 5 6 
#
# 1 72.2094 5.7600 25.6359 0.0000 -13.8015 0.0000
# 2 5.7600 45.7690 16.4863 0.0000 1.5920 0.0000
# 3 25.6359 16.4863 125.3030 0.0000 -19.3491 0.0000
# 4 0.0000 0.0000 0.0000 13.9341 0.0000 -2.2199
# 5 -13.8015 1.5920 -19.3491 0.0000 22.8035 0.0000
# 6 0.0000 0.0000 0.0000 -2.2199 0.0000 22.8046
#
#
#
# Elastic Compliance Matrix: (Units=1/GPa)
#
#
# Indices 1 2 3 4 5 6 
#
# 1 0.016230 -0.001687 -0.001799 0.000000 0.008414 0.000000
# 2 -0.001687 0.023575 -0.003646 0.000000 -0.005761 0.000000
# 3 -0.001799 -0.003646 0.010011 0.000000 0.007660 0.000000
# 4 0.000000 0.000000 0.000000 0.072897 0.000000 0.007096
# 5 0.008414 -0.005761 0.007660 0.000000 0.055848 0.000000
# 6 0.000000 0.000000 0.000000 0.007096 0.000000 0.044542
#
#
# Mechanical properties :
#
#
# Convention : Reuss Voigt Hill
#
# Bulk Modulus (GPa) = 28.12834 37.67177 32.90006
# Shear Modulus (GPa) = 20.06274 24.93506 22.49890
#
# Velocity S-wave (km/s) = 3.28076 3.65750 3.47424
# Velocity P-wave (km/s) = 5.42601 6.16821 5.80898
#
# Compressibility (1/GPa) = 0.03555133
#
# Stress axis : x y z
#
# Youngs Moduli (GPa) = 61.61359 42.41791 99.88598
#
# Poissons Ratio (x) = 0.07156 0.17972
# Poissons Ratio (y) = 0.10395 0.36421
# Poissons Ratio (z) = 0.11086 0.15466
#
# Static dielectric constant tensor:
#      x y z
#    x 3.266220 0.000000 0.051060 
#    y 0.000000 3.122170 0.000000 
#    z 0.051060 0.000000 3.904010 
# 
# 
# High freq. dielectric constant tensor:
#      x y z
#    x 1.699370 0.000000 -0.004530 
#    y 0.000000 1.700550 0.000000 
#    z -0.004530 0.000000 1.737980 
# 
# From -- ./inp_files/281683.got.cif
#   From: 2010.06.25/outbox.cif.g09.slc.cpg/sg12_141_cif.got.tgz:281683.got - 2010.06.28 00:19:55.
