data_PCOD8114632
_publ_section_title
;
Structure prediction by ZEFSAII (Michael W. Deem and Ramdas Pophale) SiO2 
 PCOD8114632
Probable space group: C 2/M
;
_chemical_formula_sum "Si O2"
_cell_formula_units_Z 56
_cell_length_a 26.761950
_cell_length_b 25.473196
_cell_length_c 12.466412
_cell_angle_alpha 90.000000
_cell_angle_beta 158.014076
_cell_angle_gamma 90.000000
_cell_volume 3181.661070
_symmetry_space_group_name_H-M "C 2/M"
_symmetry_group_IT_number 12
_symmetry_cell_setting 'monoclinic'
loop_
_space_group_symop_operation_xyz
x,y,z
-x,y,-z
-x,-y,-z
x,-y,z
1/2+x,1/2+y,z
1/2-x,1/2+y,-z
1/2-x,1/2-y,-z
1/2+x,1/2-y,z
loop_
_atom_site_type_symbol
_atom_site_label
_atom_site_fract_x
_atom_site_fract_y
_atom_site_fract_z
Si Si1 0.010388 0.191694 0.892848
Si Si2 0.257054 0.872528 0.322100
Si Si3 0.989700 0.687206 0.104948
Si Si4 0.651987 0.939926 0.928831
Si Si5 0.158030 0.439872 0.694430
Si Si6 0.154505 0.938352 0.308454
Si Si7 0.234348 0.872569 0.661183
O O1 0.986851 0.252270 0.819494
O O2 0.904976 0.157995 0.615640
O O3 0.153905 0.174960 0.132957
O O4 0.000000 0.181198 0.000000
O O5 0.403270 0.848475 0.622766
O O6 0.249558 0.900955 0.191590
O O7 0.230110 0.917438 0.355143
O O8 0.844808 0.670886 0.856722
O O9 0.000000 0.677598 0.000000
O O10 0.679470 0.924698 0.860611
O O11 0.496292 0.932988 0.646262
O O12 0.695172 0.000000 0.036437
O O13 0.741496 0.900947 0.177695
O O14 0.201910 0.500000 0.761766
O O15 0.232141 0.917180 0.566239
O O16 0.166313 0.000000 0.332639
O O17 0.000000 0.919840 0.000000
#
# Coordination Sequence:
#
# PCOD8114632 Si02
#       7
#     8   8   8   8   8   8   8
#     4  11  22  38  55  78 117 155 184 220 282 344
#     4  12  19  37  56  83 110 146 188 225 277 329
#     4  11  22  34  57  84 111 141 192 242 270 322
#     4   9  19  36  58  83 111 146 185 227 278 331
#     4   9  19  36  58  83 111 146 185 227 278 331
#     4  11  22  35  52  82 121 154 173 215 288 345
#     4  12  19  37  56  83 110 146 188 225 277 329
#
# _framework density 17.60087
#
# number of rings (size 3 to 8) (size 9 to 14) (size 15 to 20)
#    0.000    1.286    5.714    2.571    0.000    2.286 
#    0.000    1.429    0.000    6.857    0.000    0.000 
#    0.000    0.000    0.000    0.000    0.000    0.000 
#
# Total GULP energy -347252.637457 kJ/mol
# GULP energy per Si atom -12401.879909 kJ/mol
# Density = 1.756081 g / cm^3
# Si number density = 17.600870 Si / 1000 Ang^3
#
#
#
# Elastic Constant Matrix: (Units=GPa)
#
#
# Indices 1 2 3 4 5 6 
#
# 1 86.0298 43.9384 23.8251 0.0000 -13.4172 0.0000
# 2 43.9384 101.5202 33.0224 0.0000 -12.6570 0.0000
# 3 23.8251 33.0224 72.4286 0.0000 -11.1712 0.0000
# 4 0.0000 0.0000 0.0000 29.3722 0.0000 -0.4504
# 5 -13.4172 -12.6570 -11.1712 0.0000 25.3489 0.0000
# 6 0.0000 0.0000 0.0000 -0.4504 0.0000 26.4211
#
#
#
# Elastic Compliance Matrix: (Units=1/GPa)
#
#
# Indices 1 2 3 4 5 6 
#
# 1 0.015749 -0.005614 -0.001897 0.000000 0.004697 0.000000
# 2 -0.005614 0.013900 -0.004161 0.000000 0.002135 0.000000
# 3 -0.001897 -0.004161 0.017009 0.000000 0.004414 0.000000
# 4 0.000000 0.000000 0.000000 0.034055 0.000000 0.000581
# 5 0.004697 0.002135 0.004414 0.000000 0.044947 0.000000
# 6 0.000000 0.000000 0.000000 0.000581 0.000000 0.037859
#
#
# Mechanical properties :
#
#
# Convention : Reuss Voigt Hill
#
# Bulk Modulus (GPa) = 42.89291 51.28336 47.08814
# Shear Modulus (GPa) = 25.68956 26.84128 26.26542
#
# Velocity S-wave (km/s) = 3.82457 3.90936 3.86719
# Velocity P-wave (km/s) = 6.62765 7.04113 6.83752
#
# Compressibility (1/GPa) = 0.02331388
#
# Stress axis : x y z
#
# Youngs Moduli (GPa) = 63.49724 71.94430 58.79342
#
# Poissons Ratio (x) = 0.40387 0.11151
# Poissons Ratio (y) = 0.35645 0.24466
# Poissons Ratio (z) = 0.12043 0.29939
#
# Static dielectric constant tensor:
#      x y z
#    x 3.105780 0.000000 0.022730 
#    y 0.000000 3.289090 0.000000 
#    z 0.022730 0.000000 3.230200 
# 
# 
# High freq. dielectric constant tensor:
#      x y z
#    x 1.664720 0.000000 0.004670 
#    y 0.000000 1.692900 0.000000 
#    z 0.004670 0.000000 1.675220 
# 
# From -- ./inp_files/185163.got.cif
#   From: 2010.06.25/outbox.cif.g09.slc.cpg/sg12_93_cif.got.tgz:185163.got - 2010.06.28 00:19:55.
