data_PCOD8114278
_publ_section_title
;
Structure prediction by ZEFSAII (Michael W. Deem and Ramdas Pophale) SiO2 
 PCOD8114278
Probable space group: C 2/M
;
_chemical_formula_sum "Si O2"
_cell_formula_units_Z 64
_cell_length_a 30.496462
_cell_length_b 8.879320
_cell_length_c 17.320766
_cell_angle_alpha 90.000000
_cell_angle_beta 43.620296
_cell_angle_gamma 90.000000
_cell_volume 3235.693027
_symmetry_space_group_name_H-M "C 2/M"
_symmetry_group_IT_number 12
_symmetry_cell_setting 'monoclinic'
loop_
_space_group_symop_operation_xyz
x,y,z
-x,y,-z
-x,-y,-z
x,-y,z
1/2+x,1/2+y,z
1/2-x,1/2+y,-z
1/2-x,1/2-y,-z
1/2+x,1/2-y,z
loop_
_atom_site_type_symbol
_atom_site_label
_atom_site_fract_x
_atom_site_fract_y
_atom_site_fract_z
Si Si1 0.875297 0.678608 0.325795
Si Si2 0.708244 0.833013 0.962107
Si Si3 0.166202 0.324361 0.176805
Si Si4 0.621887 0.168833 0.926466
Si Si5 0.705881 0.320979 0.693049
Si Si6 0.071159 0.680006 0.422843
Si Si7 0.997126 0.172208 0.095216
Si Si8 0.150877 0.677881 0.468079
O O1 0.872003 0.500000 0.321294
O O2 0.812375 0.749434 0.366527
O O3 0.877288 0.726937 0.413163
O O4 0.937681 0.740090 0.204857
O O5 0.663911 0.774008 0.089741
O O6 0.733253 0.000000 0.953232
O O7 0.766601 0.722923 0.873084
O O8 0.671434 0.840825 0.930933
O O9 0.158806 0.500000 0.196381
O O10 0.109750 0.254213 0.299985
O O11 0.651200 0.269021 0.821447
O O12 0.606380 0.000000 0.915394
O O13 0.560726 0.246311 0.043032
O O14 0.703444 0.500000 0.688611
O O15 0.775745 0.264297 0.631076
O O16 0.069673 0.500000 0.428789
O O17 0.105634 0.742731 0.457237
O O18 0.000000 0.742966 0.500000
O O19 0.994942 0.000000 0.126194
O O20 0.000000 0.185083 0.000000
O O21 0.152425 0.500000 0.458772
#
# Coordination Sequence:
#
# PCOD8114278 Si02
#       8
#     8   8   8   8   8   8   8   8
#     4  11  22  37  58  82 112 148 187 230 279 329
#     4   9  19  33  51  81 113 141 179 227 274 323
#     4   9  17  32  55  80 108 144 182 223 273 324
#     4  11  22  35  55  83 114 148 187 229 277 329
#     4  11  21  36  57  81 114 149 187 231 276 330
#     4   9  17  31  54  81 109 141 181 225 269 321
#     4  11  23  39  57  78 108 145 183 225 272 326
#     4   9  20  35  53  82 113 145 185 230 277 326
#
# _framework density 19.779378999999999
#
# number of rings (size 3 to 8) (size 9 to 14) (size 15 to 20)
#    0.000    2.000    1.250    2.625    0.000    3.500 
#    0.000    5.625    0.000    1.875    0.000    0.000 
#    0.000    0.000    0.000    0.000    0.000    0.000 
#
# Total GULP energy -396643.526029 kJ/mol
# GULP energy per Si atom -12395.110188 kJ/mol
# Density = 1.973436 g / cm^3
# Si number density = 19.779379 Si / 1000 Ang^3
#
#
#
# Elastic Constant Matrix: (Units=GPa)
#
#
# Indices 1 2 3 4 5 6 
#
# 1 71.2906 12.6857 53.9018 -0.0197 4.1457 0.0009
# 2 12.6857 53.5289 25.9321 -0.0532 4.1720 0.0083
# 3 53.9018 25.9321 139.7305 -0.0101 -5.8618 0.0074
# 4 -0.0197 -0.0532 -0.0101 9.1394 0.0054 -8.2350
# 5 4.1457 4.1720 -5.8618 0.0054 22.5220 -0.0004
# 6 0.0009 0.0083 0.0074 -8.2350 -0.0004 19.7460
#
#
#
# Elastic Compliance Matrix: (Units=1/GPa)
#
#
# Indices 1 2 3 4 5 6 
#
# 1 0.020565 -0.000507 -0.008082 0.000061 -0.005795 0.000027
# 2 -0.000507 0.021077 -0.003919 0.000182 -0.004831 0.000068
# 3 -0.008082 -0.003919 0.011217 -0.000052 0.005133 -0.000024
# 4 0.000061 0.000182 -0.000052 0.175286 -0.000099 0.073102
# 5 -0.005795 -0.004831 0.005133 -0.000099 0.047699 -0.000040
# 6 0.000027 0.000068 -0.000024 0.073102 -0.000040 0.081130
#
#
# Mechanical properties :
#
#
# Convention : Reuss Voigt Hill
#
# Bulk Modulus (GPa) = 35.91472 49.95436 42.93454
# Shear Modulus (GPa) = 12.77890 21.75017 17.26453
#
# Velocity S-wave (km/s) = 2.54455 3.31968 2.95762
# Velocity P-wave (km/s) = 5.17977 6.32489 5.78076
#
# Compressibility (1/GPa) = 0.02784373
#
# Stress axis : x y z
#
# Youngs Moduli (GPa) = 48.62607 47.44572 89.15026
#
# Poissons Ratio (x) = 0.02403 0.72053
# Poissons Ratio (y) = 0.02463 0.34936
# Poissons Ratio (z) = 0.39301 0.18593
#
# Static dielectric constant tensor:
#      x y z
#    x 3.809760 -0.000010 0.011330 
#    y -0.000010 3.559520 0.000010 
#    z 0.011330 0.000010 3.871710 
# 
# 
# High freq. dielectric constant tensor:
#      x y z
#    x 1.771770 0.000000 0.002500 
#    y 0.000000 1.746670 0.000000 
#    z 0.002500 0.000000 1.780680 
# 
# From -- ./inp_files/295590.got.cif
#   From: 2010.06.25/outbox.cif.g09.slc.cpg/sg12_148_cif.got.tgz:295590.got - 2010.06.28 00:19:55.
