data_PCOD8114201
_publ_section_title
;
Structure prediction by ZEFSAII (Michael W. Deem and Ramdas Pophale) SiO2 
 PCOD8114201
Probable space group: C 2/M
;
_chemical_formula_sum "Si O2"
_cell_formula_units_Z 56
_cell_length_a 8.835177
_cell_length_b 15.291879
_cell_length_c 24.604071
_cell_angle_alpha 90.000000
_cell_angle_beta 51.686019
_cell_angle_gamma 90.000000
_cell_volume 2608.226377
_symmetry_space_group_name_H-M "C 2/M"
_symmetry_group_IT_number 12
_symmetry_cell_setting 'monoclinic'
loop_
_space_group_symop_operation_xyz
x,y,z
-x,y,-z
-x,-y,-z
x,-y,z
1/2+x,1/2+y,z
1/2-x,1/2+y,-z
1/2-x,1/2-y,-z
1/2+x,1/2-y,z
loop_
_atom_site_type_symbol
_atom_site_label
_atom_site_fract_x
_atom_site_fract_y
_atom_site_fract_z
Si Si1 0.456476 0.155545 0.923937
Si Si2 0.471544 0.754037 0.445089
Si Si3 0.816841 0.847788 0.209668
Si Si4 0.452195 0.845283 0.211909
Si Si5 0.724784 0.902409 0.345975
Si Si6 0.931766 0.098680 0.650451
Si Si7 0.692659 0.344659 0.074163
O O1 0.484023 0.108190 0.859407
O O2 0.371976 0.250121 0.930962
O O3 0.663181 0.163570 0.907004
O O4 0.302814 0.107630 0.998891
O O5 0.500000 0.775426 0.500000
O O6 0.250000 0.750000 0.500000
O O7 0.549441 0.834957 0.392206
O O8 0.561620 0.663935 0.402312
O O9 0.630106 0.843713 0.213427
O O10 0.876374 0.751715 0.216602
O O11 0.777975 0.906295 0.270836
O O12 0.996711 0.893028 0.137189
O O13 0.279302 0.900359 0.276087
O O14 0.908267 0.871485 0.340980
O O15 0.659955 0.000000 0.377809
O O16 0.972047 0.000000 0.621142
#
# Coordination Sequence:
#
# PCOD8114201 Si02
#       7
#     8   8   8   8   8   8   8
#     4   9  16  27  47  79 118 162 212 266 317 373
#     4  12  26  46  73 101 129 164 208 257 316 379
#     4  11  21  34  58  88 124 170 215 264 319 375
#     4  11  21  34  58  88 125 169 215 264 320 375
#     4  11  25  45  69  96 130 172 215 258 316 383
#     4  11  25  45  68  97 131 170 213 261 318 379
#     4   9  16  27  47  79 118 162 213 264 318 373
#
# _framework density 21.470528999999999
#
# number of rings (size 3 to 8) (size 9 to 14) (size 15 to 20)
#    0.000    1.429    2.857    5.143    2.000    3.429 
#    0.000    0.000    0.000    0.857    0.000    6.000 
#    0.000    0.000    0.000    0.000    0.000    0.000 
#
# Total GULP energy -346888.568418 kJ/mol
# GULP energy per Si atom -12388.877443 kJ/mol
# Density = 2.142166 g / cm^3
# Si number density = 21.470529 Si / 1000 Ang^3
#
#
#
# Elastic Constant Matrix: (Units=GPa)
#
#
# Indices 1 2 3 4 5 6 
#
# 1 105.1874 13.7633 20.5270 0.0001 -23.3413 -0.0003
# 2 13.7633 78.3440 34.9115 0.0000 -10.6755 -0.0001
# 3 20.5270 34.9115 145.5728 -0.0001 -22.0428 0.0000
# 4 0.0001 0.0000 -0.0001 0.1755 0.0000 2.4709
# 5 -23.3413 -10.6755 -22.0428 0.0000 39.0852 0.0001
# 6 -0.0003 -0.0001 0.0000 2.4709 0.0001 19.0842
#
#
#
# Elastic Compliance Matrix: (Units=1/GPa)
#
#
# Indices 1 2 3 4 5 6 
#
# 1 0.011067 -0.000927 -0.000411 0.000009 0.006124 -0.000001
# 2 -0.000927 0.014537 -0.003103 -0.000001 0.001667 0.000000
# 3 -0.000411 -0.003103 0.008207 -0.000003 0.003535 0.000000
# 4 0.000009 -0.000001 -0.000003 -6.922142 0.000005 0.896247
# 5 0.006124 0.001667 0.003535 0.000005 0.031692 -0.000001
# 6 -0.000001 0.000000 0.000000 0.896247 -0.000001 -0.063643
#
#
# Mechanical properties :
#
#
# Convention : Reuss Voigt Hill
#
# Bulk Modulus (GPa) = 40.11285 51.94529 46.02907
# Shear Modulus (GPa) = -0.72431 28.99581 14.13575
#
# Velocity S-wave (km/s) = -0.58145 3.67889 2.56867
# Velocity P-wave (km/s) = 4.27464 6.50323 5.50293
#
# Compressibility (1/GPa) = 0.02492967
#
# Stress axis : x y z
#
# Youngs Moduli (GPa) = 90.35617 68.79000 121.84844
#
# Poissons Ratio (x) = 0.06374 0.05008
# Poissons Ratio (y) = 0.08372 0.37812
# Poissons Ratio (z) = 0.03714 0.21347
#
# Static dielectric constant tensor:
#      x y z
#    x 3.935280 0.000000 -0.129030 
#    y 0.000000 3.428960 0.000000 
#    z -0.129030 0.000000 4.748240 
# 
# 
# High freq. dielectric constant tensor:
#      x y z
#    x 1.854210 0.000000 -0.003320 
#    y 0.000000 1.802270 0.000000 
#    z -0.003320 0.000000 1.866420 
# 
# From -- ./inp_files/332854.got.cif
#   From: 2010.06.25/outbox.cif.g09.slc.cpg/sg12_167_cif.got.tgz:332854.got - 2010.06.28 00:19:55.
