data_PCOD8114264
_publ_section_title
;
Structure prediction by ZEFSAII (Michael W. Deem and Ramdas Pophale) SiO2 
 PCOD8114264
Probable space group: C 2/M
;
_chemical_formula_sum "Si O2"
_cell_formula_units_Z 48
_cell_length_a 34.662153
_cell_length_b 7.614349
_cell_length_c 21.115451
_cell_angle_alpha 90.000000
_cell_angle_beta 26.811242
_cell_angle_gamma 90.000000
_cell_volume 2513.714381
_symmetry_space_group_name_H-M "C 2/M"
_symmetry_group_IT_number 12
_symmetry_cell_setting 'monoclinic'
loop_
_space_group_symop_operation_xyz
x,y,z
-x,y,-z
-x,-y,-z
x,-y,z
1/2+x,1/2+y,z
1/2-x,1/2+y,-z
1/2-x,1/2-y,-z
1/2+x,1/2-y,z
loop_
_atom_site_type_symbol
_atom_site_label
_atom_site_fract_x
_atom_site_fract_y
_atom_site_fract_z
Si Si1 0.485428 0.000000 0.417208
Si Si2 0.433939 0.790456 0.046035
Si Si3 0.451112 0.797282 0.878394
Si Si4 0.065396 0.197947 0.600613
Si Si5 0.755871 0.702924 0.150544
Si Si6 0.750779 0.205553 0.696914
Si Si7 0.640142 0.000000 0.280691
O O1 0.479840 0.826343 0.382514
O O2 0.579493 0.000000 0.308883
O O3 0.413854 0.000000 0.575704
O O4 0.337771 0.718211 0.202789
O O5 0.437098 0.000000 0.043894
O O6 0.500000 0.708755 0.000000
O O7 0.458599 0.726519 0.939260
O O8 0.518463 0.694084 0.736684
O O9 0.476281 0.000000 0.838949
O O10 0.356151 0.768591 0.989753
O O11 0.164577 0.258753 0.466435
O O12 0.064842 0.000000 0.573109
O O13 0.729638 0.500000 0.178107
O O14 0.736260 0.769734 0.250269
O O15 0.699064 0.826239 0.188751
O O16 0.735619 0.000000 0.722308
#
# Coordination Sequence:
#
# PCOD8114264 Si02
#       7
#     4   8   8   8   8   8   4
#     4  11  24  38  54  86 111 133 183 233 274 330
#     4   8  14  28  53  84 113 142 179 227 275 316
#     4   9  18  33  56  81 111 144 189 225 263 327
#     4  11  21  36  56  78 110 148 185 226 271 323
#     4   9  18  34  55  79 105 141 185 227 266 323
#     4   8  15  29  50  77 104 142 184 219 262 323
#     4  11  22  36  60  82 106 139 179 231 280 330
#
# _framework density 19.095248000000002
#
# number of rings (size 3 to 8) (size 9 to 14) (size 15 to 20)
#    0.000    2.667    2.500    2.000    1.167    0.667 
#    0.000    3.333    0.000    0.500    0.000    0.000 
#    0.000    0.000    0.000    0.000    0.000    0.000 
#
# Total GULP energy -297442.848252 kJ/mol
# GULP energy per Si atom -12393.452011 kJ/mol
# Density = 1.905179 g / cm^3
# Si number density = 19.095248 Si / 1000 Ang^3
#
#
#
# Elastic Constant Matrix: (Units=GPa)
#
#
# Indices 1 2 3 4 5 6 
#
# 1 129.1328 45.2766 66.0196 -0.0033 -26.4972 0.0047
# 2 45.2766 77.1537 34.9350 -0.0176 -12.8415 0.0320
# 3 66.0196 34.9350 139.0357 -0.0130 -12.2908 0.0174
# 4 -0.0033 -0.0176 -0.0130 21.1606 0.0087 0.2979
# 5 -26.4972 -12.8415 -12.2908 0.0087 28.8701 -0.0083
# 6 0.0047 0.0320 0.0174 0.2979 -0.0083 9.1292
#
#
#
# Elastic Compliance Matrix: (Units=1/GPa)
#
#
# Indices 1 2 3 4 5 6 
#
# 1 0.013272 -0.004380 -0.004465 -0.000008 0.008332 0.000025
# 2 -0.004380 0.016842 -0.001917 0.000012 0.002655 -0.000051
# 3 -0.004465 -0.001917 0.009723 0.000004 -0.000812 -0.000010
# 4 -0.000008 0.000012 0.000004 0.047279 -0.000015 -0.001543
# 5 0.008332 0.002655 -0.000812 -0.000015 0.043121 0.000028
# 6 0.000025 -0.000051 -0.000010 -0.001543 0.000028 0.109589
#
#
# Mechanical properties :
#
#
# Convention : Reuss Voigt Hill
#
# Bulk Modulus (GPa) = 54.60985 70.86493 62.73739
# Shear Modulus (GPa) = 18.69486 25.10473 21.89979
#
# Velocity S-wave (km/s) = 3.13234 3.62983 3.39022
# Velocity P-wave (km/s) = 6.46087 7.39996 6.94630
#
# Compressibility (1/GPa) = 0.01831172
#
# Stress axis : x y z
#
# Youngs Moduli (GPa) = 75.34572 59.37706 102.85380
#
# Poissons Ratio (x) = 0.26007 0.45924
# Poissons Ratio (y) = 0.33002 0.19719
# Poissons Ratio (z) = 0.33642 0.11384
#
# Static dielectric constant tensor:
#      x y z
#    x 3.420640 0.000000 -0.217980 
#    y 0.000000 3.272640 0.000020 
#    z -0.217980 0.000020 3.650970 
# 
# 
# High freq. dielectric constant tensor:
#      x y z
#    x 1.709830 0.000000 -0.017020 
#    y 0.000000 1.733460 0.000000 
#    z -0.017020 0.000000 1.747850 
# 
# From -- ./inp_files/295380.got.cif
#   From: 2010.06.25/outbox.cif.g09.slc.cpg/sg12_148_cif.got.tgz:295380.got - 2010.06.28 00:19:55.
