data_PCOD8114647
_publ_section_title
;
Structure prediction by ZEFSAII (Michael W. Deem and Ramdas Pophale) SiO2 
 PCOD8114647
Probable space group: C 2/M
;
_chemical_formula_sum "Si O2"
_cell_formula_units_Z 56
_cell_length_a 14.679798
_cell_length_b 9.118494
_cell_length_c 24.601821
_cell_angle_alpha 90.000000
_cell_angle_beta 62.641771
_cell_angle_gamma 90.000000
_cell_volume 2924.806171
_symmetry_space_group_name_H-M "C 2/M"
_symmetry_group_IT_number 12
_symmetry_cell_setting 'monoclinic'
loop_
_space_group_symop_operation_xyz
x,y,z
-x,y,-z
-x,-y,-z
x,-y,z
1/2+x,1/2+y,z
1/2-x,1/2+y,-z
1/2-x,1/2-y,-z
1/2+x,1/2-y,z
loop_
_atom_site_type_symbol
_atom_site_label
_atom_site_fract_x
_atom_site_fract_y
_atom_site_fract_z
Si Si1 0.899214 0.330433 0.819469
Si Si2 0.677158 0.329310 0.062202
Si Si3 0.122779 0.664039 0.804693
Si Si4 0.998911 0.335388 0.936763
Si Si5 0.926598 0.172364 0.595398
Si Si6 0.152280 0.827876 0.499902
Si Si7 0.676947 0.828182 0.275836
O O1 0.870842 0.500000 0.835166
O O2 0.818533 0.238672 0.878429
O O3 0.884267 0.281411 0.761473
O O4 0.016078 0.298587 0.804015
O O5 0.703668 0.500000 0.057717
O O6 0.564428 0.297830 0.070801
O O7 0.750000 0.250000 0.000000
O O8 0.158950 0.500000 0.779205
O O9 0.205585 0.778261 0.760932
O O10 0.107440 0.674572 0.874962
O O11 0.952973 0.500000 0.937808
O O12 0.000000 0.308137 0.000000
O O13 0.862215 0.216869 0.559259
O O14 0.878499 0.254719 0.658843
O O15 0.046390 0.217612 0.558693
O O16 0.917849 0.000000 0.606959
O O17 0.250000 0.750000 0.500000
O O18 0.171108 0.000000 0.500074
O O19 0.675916 0.000000 0.285708
#
# Coordination Sequence:
#
# PCOD8114647 Si02
#       7
#     8   8   8   8   8   8   8
#     4   9  21  41  57  76 109 148 187 234 289 345
#     4  11  22  35  54  79 106 138 181 231 286 346
#     4   9  19  37  57  77 109 149 186 227 287 352
#     4   9  19  36  56  79 106 137 178 228 287 352
#     4   9  20  39  58  83 120 157 193 227 277 343
#     4   9  19  37  62  89 119 155 192 234 277 328
#     4  11  23  37  58  86 116 149 193 243 285 329
#
# _framework density 19.146567999999998
#
# number of rings (size 3 to 8) (size 9 to 14) (size 15 to 20)
#    0.000    2.429    0.000    3.429    2.000    6.000 
#    0.000    5.714    0.000    0.000    0.000    0.000 
#    0.000    0.000    0.000    0.000    0.000    0.000 
#
# Total GULP energy -347005.312269 kJ/mol
# GULP energy per Si atom -12393.046867 kJ/mol
# Density = 1.910299 g / cm^3
# Si number density = 19.146568 Si / 1000 Ang^3
#
#
#
# Elastic Constant Matrix: (Units=GPa)
#
#
# Indices 1 2 3 4 5 6 
#
# 1 108.0191 49.9050 73.2117 0.0000 3.0937 0.0000
# 2 49.9050 86.5310 78.0276 0.0000 2.4356 0.0000
# 3 73.2117 78.0276 188.6170 0.0000 7.0608 0.0000
# 4 0.0000 0.0000 0.0000 34.7442 0.0000 -0.7867
# 5 3.0937 2.4356 7.0608 0.0000 25.0246 0.0000
# 6 0.0000 0.0000 0.0000 -0.7867 0.0000 31.9086
#
#
#
# Elastic Compliance Matrix: (Units=1/GPa)
#
#
# Indices 1 2 3 4 5 6 
#
# 1 0.013794 -0.004991 -0.003278 0.000000 -0.000294 0.000000
# 2 -0.004991 0.020241 -0.006454 0.000000 0.000468 0.000000
# 3 -0.003278 -0.006454 0.009304 0.000000 -0.001592 0.000000
# 4 0.000000 0.000000 0.000000 0.028798 0.000000 0.000710
# 5 -0.000294 0.000468 -0.001592 0.000000 0.040401 0.000000
# 6 0.000000 0.000000 0.000000 0.000710 0.000000 0.031357
#
#
# Mechanical properties :
#
#
# Convention : Reuss Voigt Hill
#
# Bulk Modulus (GPa) = 71.97996 87.27287 79.62641
# Shear Modulus (GPa) = 28.09443 30.47035 29.28239
#
# Velocity S-wave (km/s) = 3.83474 3.99360 3.91497
# Velocity P-wave (km/s) = 7.56854 8.18202 7.88125
#
# Compressibility (1/GPa) = 0.01389276
#
# Stress axis : x y z
#
# Youngs Moduli (GPa) = 72.49622 49.40393 107.48390
#
# Poissons Ratio (x) = 0.24656 0.35238
# Poissons Ratio (y) = 0.36181 0.69368
# Poissons Ratio (z) = 0.23768 0.31885
#
# Static dielectric constant tensor:
#      x y z
#    x 3.434690 0.000000 0.059160 
#    y 0.000000 5.898630 0.000000 
#    z 0.059160 0.000000 3.738490 
# 
# 
# High freq. dielectric constant tensor:
#      x y z
#    x 1.736130 0.000000 0.003110 
#    y 0.000000 1.738760 0.000000 
#    z 0.003110 0.000000 1.754130 
# 
# From -- ./inp_files/338516.got.cif
#   From: 2010.06.25/outbox.cif.g09.slc.cpg/sg12_170_cif.got.tgz:338516.got - 2010.06.28 00:19:55.
