data_PCOD8114766
_publ_section_title
;
Structure prediction by ZEFSAII (Michael W. Deem and Ramdas Pophale) SiO2 
 PCOD8114766
Probable space group: C 2/M
;
_chemical_formula_sum "Si O2"
_cell_formula_units_Z 56
_cell_length_a 15.532713
_cell_length_b 8.512897
_cell_length_c 21.331009
_cell_angle_alpha 90.000000
_cell_angle_beta 89.942063
_cell_angle_gamma 90.000000
_cell_volume 2820.563448
_symmetry_space_group_name_H-M "C 2/M"
_symmetry_group_IT_number 12
_symmetry_cell_setting 'monoclinic'
loop_
_space_group_symop_operation_xyz
x,y,z
-x,y,-z
-x,-y,-z
x,-y,z
1/2+x,1/2+y,z
1/2-x,1/2+y,-z
1/2-x,1/2-y,-z
1/2+x,1/2-y,z
loop_
_atom_site_type_symbol
_atom_site_label
_atom_site_fract_x
_atom_site_fract_y
_atom_site_fract_z
Si Si1 0.339903 0.313952 0.571062
Si Si2 0.335506 0.316057 0.130827
Si Si3 0.159593 0.186031 0.570821
Si Si4 0.843836 0.815556 0.875930
Si Si5 0.500296 0.312445 0.349450
Si Si6 0.501439 0.686506 0.791486
Si Si7 0.400860 0.183054 0.004627
O O1 0.338410 0.500000 0.572702
O O2 0.249655 0.249962 0.597475
O O3 0.355556 0.253236 0.500132
O O4 0.415516 0.247554 0.615005
O O5 0.321409 0.500000 0.141277
O O6 0.249571 0.224769 0.152429
O O7 0.413754 0.250537 0.173160
O O8 0.355896 0.283996 0.058388
O O9 0.083676 0.252345 0.614593
O O10 0.161074 0.000000 0.572487
O O11 0.916339 0.754871 0.827635
O O12 0.853300 0.000000 0.888924
O O13 0.853114 0.720901 0.940263
O O14 0.500426 0.500000 0.349608
O O15 0.500070 0.245355 0.278894
O O16 0.502790 0.500000 0.790061
O O17 0.391141 0.000000 0.020687
O O18 0.500000 0.234598 0.000000
#
# Coordination Sequence:
#
# PCOD8114766 Si02
#       7
#     8   8   8   8   8   8   8
#     4   9  17  30  51  78 106 136 173 218 264 310
#     4  11  22  38  58  81 108 140 178 218 267 318
#     4   9  17  30  51  78 106 136 173 218 264 310
#     4  11  22  38  58  81 108 140 178 218 267 318
#     4   9  17  32  53  75 102 140 183 216 254 312
#     4   9  20  36  54  76 105 142 179 218 262 313
#     4  11  22  37  60  86 110 136 172 219 269 315
#
# _framework density 19.854189999999999
#
# number of rings (size 3 to 8) (size 9 to 14) (size 15 to 20)
#    0.000    2.143    1.429    2.143    0.000    3.429 
#    0.000    0.714    0.000    8.571    0.000    0.000 
#    0.000    0.000    0.000    0.000    0.000    0.000 
#
# Total GULP energy -347278.173699 kJ/mol
# GULP energy per Si atom -12402.791918 kJ/mol
# Density = 1.980900 g / cm^3
# Si number density = 19.854190 Si / 1000 Ang^3
#
#
#
# Elastic Constant Matrix: (Units=GPa)
#
#
# Indices 1 2 3 4 5 6 
#
# 1 190.3651 14.0634 88.6991 0.0000 3.7686 0.0000
# 2 14.0634 22.8134 7.1884 0.0000 -0.0646 0.0000
# 3 88.6991 7.1884 140.5838 0.0000 2.0478 0.0000
# 4 0.0000 0.0000 0.0000 10.7047 0.0000 2.1553
# 5 3.7686 -0.0646 2.0478 0.0000 17.1455 0.0000
# 6 0.0000 0.0000 0.0000 2.1553 0.0000 30.6163
#
#
#
# Elastic Compliance Matrix: (Units=1/GPa)
#
#
# Indices 1 2 3 4 5 6 
#
# 1 0.007694 -0.003274 -0.004670 0.000000 -0.001146 0.000000
# 2 -0.003274 0.045949 -0.000297 0.000000 0.000928 0.000000
# 3 -0.004670 -0.000297 0.010077 0.000000 -0.000178 0.000000
# 4 0.000000 0.000000 0.000000 0.094760 0.000000 -0.006671
# 5 -0.001146 0.000928 -0.000178 0.000000 0.058601 0.000000
# 6 0.000000 0.000000 0.000000 -0.006671 0.000000 0.033132
#
#
# Mechanical properties :
#
#
# Convention : Reuss Voigt Hill
#
# Bulk Modulus (GPa) = 21.16997 63.74045 42.45521
# Shear Modulus (GPa) = 17.70279 27.94739 22.82509
#
# Velocity S-wave (km/s) = 2.98927 3.75591 3.39431
# Velocity P-wave (km/s) = 4.75397 7.14025 6.06561
#
# Compressibility (1/GPa) = 0.04723672
#
# Stress axis : x y z
#
# Youngs Moduli (GPa) = 129.97785 21.76339 99.23122
#
# Poissons Ratio (x) = 0.07126 0.46341
# Poissons Ratio (y) = 0.42561 0.02947
# Poissons Ratio (z) = 0.60700 0.00646
#
# Static dielectric constant tensor:
#      x y z
#    x 3.904130 0.000000 0.010660 
#    y 0.000000 3.202170 0.000000 
#    z 0.010660 0.000000 3.710950 
# 
# 
# High freq. dielectric constant tensor:
#      x y z
#    x 1.792900 0.000000 0.000220 
#    y 0.000000 1.741590 0.000000 
#    z 0.000220 0.000000 1.767310 
# 
# From -- ./inp_files/308950.got.cif
#   From: 2010.06.25/outbox.cif.g09.slc.cpg/sg12_155_cif.got.tgz:308950.got - 2010.06.28 00:19:55.
