data_PCOD8114224
_publ_section_title
;
Structure prediction by ZEFSAII (Michael W. Deem and Ramdas Pophale) SiO2 
 PCOD8114224
Probable space group: C 2/M
;
_chemical_formula_sum "Si O2"
_cell_formula_units_Z 32
_cell_length_a 18.755125
_cell_length_b 13.670905
_cell_length_c 7.460442
_cell_angle_alpha 90.000000
_cell_angle_beta 111.295206
_cell_angle_gamma 90.000000
_cell_volume 1782.247273
_symmetry_space_group_name_H-M "C 2/M"
_symmetry_group_IT_number 12
_symmetry_cell_setting 'monoclinic'
loop_
_space_group_symop_operation_xyz
x,y,z
-x,y,-z
-x,-y,-z
x,-y,z
1/2+x,1/2+y,z
1/2-x,1/2+y,-z
1/2-x,1/2-y,-z
1/2+x,1/2-y,z
loop_
_atom_site_type_symbol
_atom_site_label
_atom_site_fract_x
_atom_site_fract_y
_atom_site_fract_z
Si Si1 0.596682 0.731131 0.421196
Si Si2 0.425032 0.724651 0.206476
Si Si3 0.163561 0.888080 0.172893
Si Si4 0.340424 0.112113 0.292914
O O1 0.514673 0.742366 0.249496
O O2 0.587147 0.677199 0.606029
O O3 0.653673 0.670267 0.348861
O O4 0.632536 0.838999 0.493423
O O5 0.381186 0.830081 0.164972
O O6 0.392454 0.652226 0.029658
O O7 0.249908 0.877341 0.184791
O O8 0.141472 0.000000 0.189049
O O9 0.366938 0.000000 0.315332
#
# Coordination Sequence:
#
# PCOD8114224 Si02
#       4
#     8   8   8   8
#     4   9  20  35  55  80 108 140 176 219 264 313
#     4   9  20  35  55  80 108 140 176 219 264 313
#     4  11  21  35  56  81 110 141 175 218 266 317
#     4   9  19  37  58  79 106 141 177 220 268 311
#
# _framework density 17.954858999999999
#
# number of rings (size 3 to 8) (size 9 to 14) (size 15 to 20)
#    1.500    1.000    0.000    2.250    0.000    5.000 
#    0.000    3.750    0.000    3.000    0.000    0.000 
#    0.000    0.000    0.000    0.000    0.000    0.000 
#
# Total GULP energy -198257.239688 kJ/mol
# GULP energy per Si atom -12391.077480 kJ/mol
# Density = 1.791399 g / cm^3
# Si number density = 17.954859 Si / 1000 Ang^3
#
#
#
# Elastic Constant Matrix: (Units=GPa)
#
#
# Indices 1 2 3 4 5 6 
#
# 1 45.7360 22.2774 4.5058 0.0000 10.5100 0.0000
# 2 22.2774 90.1865 11.9237 0.0000 4.0074 0.0000
# 3 4.5058 11.9237 57.1429 0.0000 13.7022 0.0000
# 4 0.0000 0.0000 0.0000 32.7352 0.0000 -1.9832
# 5 10.5100 4.0074 13.7022 0.0000 30.3573 0.0000
# 6 0.0000 0.0000 0.0000 -1.9832 0.0000 13.6676
#
#
#
# Elastic Compliance Matrix: (Units=1/GPa)
#
#
# Indices 1 2 3 4 5 6 
#
# 1 0.026958 -0.006440 0.001404 0.000000 -0.009117 0.000000
# 2 -0.006440 0.012947 -0.002600 0.000000 0.001694 0.000000
# 3 0.001404 -0.002600 0.020147 0.000000 -0.009236 0.000000
# 4 0.000000 0.000000 0.000000 0.030819 0.000000 0.004472
# 5 -0.009117 0.001694 -0.009236 0.000000 0.040043 0.000000
# 6 0.000000 0.000000 0.000000 0.004472 0.000000 0.073815
#
#
# Mechanical properties :
#
#
# Convention : Reuss Voigt Hill
#
# Bulk Modulus (GPa) = 22.33096 30.05325 26.19211
# Shear Modulus (GPa) = 21.28330 25.64258 23.46294
#
# Velocity S-wave (km/s) = 3.44667 3.78321 3.61885
# Velocity P-wave (km/s) = 5.32012 5.98817 5.66400
#
# Compressibility (1/GPa) = 0.04478087
#
# Stress axis : x y z
#
# Youngs Moduli (GPa) = 37.09491 77.23629 49.63627
#
# Poissons Ratio (x) = 0.49737 -0.06970
# Poissons Ratio (y) = 0.23887 0.12906
# Poissons Ratio (z) = -0.05209 0.20082
#
# Static dielectric constant tensor:
#      x y z
#    x 3.340720 0.000000 0.099720 
#    y 0.000000 3.162790 0.000000 
#    z 0.099720 0.000000 3.102110 
# 
# 
# High freq. dielectric constant tensor:
#      x y z
#    x 1.702630 0.000000 0.015900 
#    y 0.000000 1.677490 0.000000 
#    z 0.015900 0.000000 1.685110 
# 
# From -- ./inp_files/59902.got.cif
#   From: 2010.06.25/outbox.cif.g09.slc.cpg/sg12_30_cif.got.tgz:59902.got - 2010.06.28 00:19:55.
