data_PCOD8114520
_publ_section_title
;
Structure prediction by ZEFSAII (Michael W. Deem and Ramdas Pophale) SiO2 
 PCOD8114520
Probable space group: C 2/M
;
_chemical_formula_sum "Si O2"
_cell_formula_units_Z 40
_cell_length_a 9.980590
_cell_length_b 15.171205
_cell_length_c 14.079439
_cell_angle_alpha 90.000000
_cell_angle_beta 68.239217
_cell_angle_gamma 90.000000
_cell_volume 1979.956727
_symmetry_space_group_name_H-M "C 2/M"
_symmetry_group_IT_number 12
_symmetry_cell_setting 'monoclinic'
loop_
_space_group_symop_operation_xyz
x,y,z
-x,y,-z
-x,-y,-z
x,-y,z
1/2+x,1/2+y,z
1/2-x,1/2+y,-z
1/2-x,1/2-y,-z
1/2+x,1/2-y,z
loop_
_atom_site_type_symbol
_atom_site_label
_atom_site_fract_x
_atom_site_fract_y
_atom_site_fract_z
Si Si1 0.119465 0.652890 0.760206
Si Si2 0.291846 0.396476 0.894436
Si Si3 0.718618 0.500000 0.379657
Si Si4 0.395361 0.649819 0.237361
Si Si5 0.094243 0.000000 0.619694
Si Si6 0.307937 0.899025 0.875581
O O1 0.165001 0.624519 0.853953
O O2 0.190084 0.587851 0.664757
O O3 0.166402 0.752884 0.723911
O O4 0.946912 0.650856 0.798893
O O5 0.327933 0.500000 0.887505
O O6 0.434154 0.344480 0.825853
O O7 0.241196 0.360642 0.009906
O O8 0.679921 0.500000 0.499619
O O9 0.577918 0.500000 0.349927
O O10 0.359626 0.587348 0.335740
O O11 0.323229 0.610873 0.162298
O O12 0.351965 0.000000 0.877225
#
# Coordination Sequence:
#
# PCOD8114520 Si02
#       6
#     8   8   4   8   4   8
#     4  12  23  40  65  94 127 162 208 257 309 369
#     4  11  21  41  63  89 131 178 211 236 294 386
#     4  11  24  47  70  88 119 164 213 261 318 380
#     4  12  23  40  65  94 127 162 208 257 309 369
#     4  11  24  47  70  88 119 164 213 261 318 380
#     4  11  23  37  63  95 131 168 203 254 310 356
#
# _framework density 20.202462000000001
#
# number of rings (size 3 to 8) (size 9 to 14) (size 15 to 20)
#    0.000    0.600    6.000    2.400    0.000    8.800 
#    0.000    2.000    0.000    0.000    0.000    0.000 
#    0.000    0.000    0.000    0.000    0.000    0.000 
#
# Total GULP energy -248138.650174 kJ/mol
# GULP energy per Si atom -12406.932509 kJ/mol
# Density = 2.015648 g / cm^3
# Si number density = 20.202462 Si / 1000 Ang^3
#
#
#
# Elastic Constant Matrix: (Units=GPa)
#
#
# Indices 1 2 3 4 5 6 
#
# 1 67.2323 16.0230 24.1923 0.0000 -1.8726 0.0000
# 2 16.0230 134.6104 55.5619 0.0000 -0.5498 0.0000
# 3 24.1923 55.5619 115.4520 0.0000 -0.8684 0.0000
# 4 0.0000 0.0000 0.0000 7.1289 0.0000 -0.3884
# 5 -1.8726 -0.5498 -0.8684 0.0000 24.4737 0.0000
# 6 0.0000 0.0000 0.0000 -0.3884 0.0000 26.5495
#
#
#
# Elastic Compliance Matrix: (Units=1/GPa)
#
#
# Indices 1 2 3 4 5 6 
#
# 1 0.016163 -0.000655 -0.003063 0.000000 0.001113 0.000000
# 2 -0.000655 0.009297 -0.004337 0.000000 0.000005 0.000000
# 3 -0.003063 -0.004337 0.011391 0.000000 0.000072 0.000000
# 4 0.000000 0.000000 0.000000 0.140386 0.000000 0.002054
# 5 0.001113 0.000005 0.000072 0.000000 0.040948 0.000000
# 6 0.000000 0.000000 0.000000 0.002054 0.000000 0.037696
#
#
# Mechanical properties :
#
#
# Convention : Reuss Voigt Hill
#
# Bulk Modulus (GPa) = 48.21389 56.53880 52.37635
# Shear Modulus (GPa) = 17.92726 26.39823 22.16275
#
# Velocity S-wave (km/s) = 2.98212 3.61873 3.31574
# Velocity P-wave (km/s) = 5.98119 6.74590 6.37502
#
# Compressibility (1/GPa) = 0.02074091
#
# Stress axis : x y z
#
# Youngs Moduli (GPa) = 61.86896 107.56227 87.78689
#
# Poissons Ratio (x) = 0.07045 0.26892
# Poissons Ratio (y) = 0.04052 0.38072
# Poissons Ratio (z) = 0.18952 0.46649
#
# Static dielectric constant tensor:
#      x y z
#    x 3.616820 0.000000 0.051660 
#    y 0.000000 3.708970 0.000000 
#    z 0.051660 0.000000 3.478030 
# 
# 
# High freq. dielectric constant tensor:
#      x y z
#    x 1.795770 0.000000 0.003620 
#    y 0.000000 1.799980 0.000000 
#    z 0.003620 0.000000 1.772100 
# 
# From -- ./inp_files/194468.got.cif
#   From: 2010.06.25/outbox.cif.g09.slc.cpg/sg12_98_cif.got.tgz:194468.got - 2010.06.28 00:19:55.
