data_PCOD8114373
_publ_section_title
;
Structure prediction by ZEFSAII (Michael W. Deem and Ramdas Pophale) SiO2 
 PCOD8114373
Probable space group: C 2/M
;
_chemical_formula_sum "Si O2"
_cell_formula_units_Z 56
_cell_length_a 15.455217
_cell_length_b 14.381700
_cell_length_c 24.036083
_cell_angle_alpha 90.000000
_cell_angle_beta 27.751054
_cell_angle_gamma 90.000000
_cell_volume 2487.658307
_symmetry_space_group_name_H-M "C 2/M"
_symmetry_group_IT_number 12
_symmetry_cell_setting 'monoclinic'
loop_
_space_group_symop_operation_xyz
x,y,z
-x,y,-z
-x,-y,-z
x,-y,z
1/2+x,1/2+y,z
1/2-x,1/2+y,-z
1/2-x,1/2-y,-z
1/2+x,1/2-y,z
loop_
_atom_site_type_symbol
_atom_site_label
_atom_site_fract_x
_atom_site_fract_y
_atom_site_fract_z
Si Si1 0.717087 0.397775 0.821492
Si Si2 0.684909 0.663313 0.953626
Si Si3 0.680272 0.642884 0.154497
Si Si4 0.033773 0.701790 0.397636
Si Si5 0.580720 0.100460 0.081573
Si Si6 0.169286 0.894305 0.288651
Si Si7 0.736875 0.611432 0.633584
O O1 0.717256 0.500000 0.793355
O O2 0.725896 0.414240 0.883413
O O3 0.896816 0.339231 0.700450
O O4 0.531804 0.342905 0.906778
O O5 0.735118 0.754909 0.890497
O O6 0.806118 0.665169 0.940542
O O7 0.667870 0.600274 0.222764
O O8 0.478168 0.635737 0.242145
O O9 0.820427 0.588373 0.034297
O O10 0.032983 0.815456 0.392835
O O11 0.172273 0.660571 0.365028
O O12 0.828065 0.662065 0.527449
O O13 0.373106 0.138006 0.192407
O O14 0.574425 0.000000 0.113848
O O15 0.118479 0.000000 0.338173
O O16 0.772912 0.500000 0.612177
#
# Coordination Sequence:
#
# PCOD8114373 Si02
#       7
#     8   8   8   8   8   8   8
#     4  11  21  37  63  94 136 170 203 260 318 378
#     4  11  22  37  59  94 129 166 212 250 316 377
#     4  12  23  40  62  92 129 168 212 258 310 374
#     4  11  22  43  66  94 126 163 213 264 320 370
#     4  11  22  37  60  90 126 166 208 255 308 372
#     4  11  24  42  64  91 128 170 213 258 312 380
#     4  11  24  42  69  98 124 161 213 265 316 377
#
# _framework density 22.511130999999999
#
# number of rings (size 3 to 8) (size 9 to 14) (size 15 to 20)
#    0.000    0.857    1.429    8.143    2.000    1.714 
#    0.000    1.429    0.000    1.714    0.000    0.000 
#    0.000    0.000    0.000    0.000    0.000    0.000 
#
# Total GULP energy -346987.687257 kJ/mol
# GULP energy per Si atom -12392.417402 kJ/mol
# Density = 2.245989 g / cm^3
# Si number density = 22.511131 Si / 1000 Ang^3
#
#
#
# Elastic Constant Matrix: (Units=GPa)
#
#
# Indices 1 2 3 4 5 6 
#
# 1 64.3769 7.8393 -16.0016 0.5548 4.4391 0.0141
# 2 7.8393 157.7121 36.8105 0.0025 2.7739 0.0063
# 3 -16.0016 36.8105 64.1724 0.7063 10.2327 0.0299
# 4 0.5548 0.0025 0.7063 389.0688 -0.1306 6.6275
# 5 4.4391 2.7739 10.2327 -0.1306 27.9407 0.0001
# 6 0.0141 0.0063 0.0299 6.6275 0.0001 26.6428
#
#
#
# Elastic Compliance Matrix: (Units=1/GPa)
#
#
# Indices 1 2 3 4 5 6 
#
# 1 0.017796 -0.002331 0.006573 -0.000039 -0.005003 -0.000007
# 2 -0.002331 0.007646 -0.005209 0.000013 0.001519 0.000002
# 3 0.006573 -0.005209 0.021553 -0.000051 -0.008421 -0.000014
# 4 -0.000039 0.000013 -0.000051 0.002581 0.000036 -0.000642
# 5 -0.005003 0.001519 -0.008421 0.000036 0.039518 0.000003
# 6 -0.000007 0.000002 -0.000014 -0.000642 0.000003 0.037693
#
#
# Mechanical properties :
#
#
# Convention : Reuss Voigt Hill
#
# Bulk Modulus (GPa) = 22.19206 38.17309 30.18257
# Shear Modulus (GPa) = 34.78430 105.90469 70.34449
#
# Velocity S-wave (km/s) = 3.93517 6.86641 5.59612
# Velocity P-wave (km/s) = 5.52513 8.93631 7.42916
#
# Compressibility (1/GPa) = 0.04506117
#
# Stress axis : x y z
#
# Youngs Moduli (GPa) = 56.19104 130.79332 46.39642
#
# Poissons Ratio (x) = 0.30484 -0.30495
# Poissons Ratio (y) = 0.13096 0.24169
# Poissons Ratio (z) = -0.36933 0.68133
#
# Static dielectric constant tensor:
#      x y z
#    x 3.847370 0.000000 0.067900 
#    y 0.000000 4.200630 -0.000010 
#    z 0.067900 -0.000010 4.169330 
# 
# 
# High freq. dielectric constant tensor:
#      x y z
#    x 1.879020 0.000000 0.004930 
#    y 0.000000 1.905800 0.000000 
#    z 0.004930 0.000000 1.872890 
# 
# From -- ./inp_files/340327.got.cif
#   From: 2010.06.25/outbox.cif.g09.slc.cpg/sg12_171_cif.got.tgz:340327.got - 2010.06.28 00:19:55.
