data_PCOD8114712
_publ_section_title
;
Structure prediction by ZEFSAII (Michael W. Deem and Ramdas Pophale) SiO2 
 PCOD8114712
Probable space group: C 2/M
;
_chemical_formula_sum "Si O2"
_cell_formula_units_Z 44
_cell_length_a 13.842715
_cell_length_b 23.482173
_cell_length_c 11.246148
_cell_angle_alpha 90.000000
_cell_angle_beta 40.303267
_cell_angle_gamma 90.000000
_cell_volume 2364.589204
_symmetry_space_group_name_H-M "C 2/M"
_symmetry_group_IT_number 12
_symmetry_cell_setting 'monoclinic'
loop_
_space_group_symop_operation_xyz
x,y,z
-x,y,-z
-x,-y,-z
x,-y,z
1/2+x,1/2+y,z
1/2-x,1/2+y,-z
1/2-x,1/2-y,-z
1/2+x,1/2-y,z
loop_
_atom_site_type_symbol
_atom_site_label
_atom_site_fract_x
_atom_site_fract_y
_atom_site_fract_z
Si Si1 0.517361 0.937102 0.675903
Si Si2 0.607585 0.179583 0.675436
Si Si3 0.361029 0.256022 0.004905
Si Si4 0.239681 0.437459 0.249926
Si Si5 0.500000 0.647354 0.000000
Si Si6 0.351864 0.739240 0.576334
O O1 0.574627 0.887736 0.709798
O O2 0.625262 0.939547 0.463785
O O3 0.350456 0.921637 0.786368
O O4 0.517262 0.000000 0.738340
O O5 0.598370 0.206510 0.550932
O O6 0.775284 0.190814 0.566606
O O7 0.483488 0.206529 0.879191
O O8 0.269052 0.256562 0.212847
O O9 0.250000 0.250000 0.000000
O O10 0.454197 0.315095 0.926530
O O11 0.313072 0.500000 0.164747
O O12 0.362842 0.391550 0.167583
O O13 0.500000 0.714126 0.500000
#
# Coordination Sequence:
#
# PCOD8114712 Si02
#       6
#     8   8   8   8   4   8
#     4   9  19  35  55  79 106 145 190 228 273 332
#     4  11  22  36  58  82 116 150 181 229 284 335
#     4  12  23  36  53  85 115 150 186 229 277 337
#     4   9  19  33  53  80 112 145 180 227 283 339
#     4  12  21  34  52  82 119 146 178 224 288 338
#     4  11  23  37  56  83 117 148 186 227 281 335
#
# _framework density 18.607883000000001
#
# number of rings (size 3 to 8) (size 9 to 14) (size 15 to 20)
#    0.000    1.455    3.636    3.545    5.091    0.000 
#    0.000    0.000    0.000    2.727    0.000    0.000 
#    0.000    0.000    0.000    0.000    0.000    0.000 
#
# Total GULP energy -272637.916907 kJ/mol
# GULP energy per Si atom -12392.632587 kJ/mol
# Density = 1.856553 g / cm^3
# Si number density = 18.607883 Si / 1000 Ang^3
#
#
#
# Elastic Constant Matrix: (Units=GPa)
#
#
# Indices 1 2 3 4 5 6 
#
# 1 127.4000 63.5170 20.2520 0.0000 -24.2066 0.0000
# 2 63.5170 145.9895 31.9958 0.0000 -18.9118 0.0000
# 3 20.2520 31.9958 78.4129 -0.0001 -4.7902 -0.0001
# 4 0.0000 0.0000 -0.0001 23.1534 0.0001 -6.2995
# 5 -24.2066 -18.9118 -4.7902 0.0001 27.2895 0.0000
# 6 0.0000 0.0000 -0.0001 -6.2995 0.0000 21.8249
#
#
#
# Elastic Compliance Matrix: (Units=1/GPa)
#
#
# Indices 1 2 3 4 5 6 
#
# 1 0.011236 -0.003751 -0.000931 0.000000 0.007204 0.000000
# 2 -0.003751 0.009430 -0.002712 0.000000 0.002732 0.000000
# 3 -0.000931 -0.002712 0.014086 0.000000 -0.000233 0.000000
# 4 0.000000 0.000000 0.000000 0.046871 0.000000 0.013529
# 5 0.007204 0.002732 -0.000233 0.000000 0.044886 0.000000
# 6 0.000000 0.000000 0.000000 0.013529 0.000000 0.049724
#
#
# Mechanical properties :
#
#
# Convention : Reuss Voigt Hill
#
# Bulk Modulus (GPa) = 50.09295 64.81468 57.45382
# Shear Modulus (GPa) = 25.29364 30.18940 27.74152
#
# Velocity S-wave (km/s) = 3.69086 4.03227 3.86534
# Velocity P-wave (km/s) = 6.71878 7.52239 7.13192
#
# Compressibility (1/GPa) = 0.01996289
#
# Stress axis : x y z
#
# Youngs Moduli (GPa) = 88.99631 106.04187 70.99262
#
# Poissons Ratio (x) = 0.39781 0.06611
# Poissons Ratio (y) = 0.33386 0.19254
# Poissons Ratio (z) = 0.08288 0.28760
#
# Static dielectric constant tensor:
#      x y z
#    x 3.801560 0.000000 -0.214940 
#    y 0.000000 3.627900 0.000000 
#    z -0.214940 0.000000 3.402690 
# 
# 
# High freq. dielectric constant tensor:
#      x y z
#    x 1.719200 0.000000 -0.026030 
#    y 0.000000 1.710320 0.000000 
#    z -0.026030 0.000000 1.713170 
# 
# From -- ./inp_files/148548.got.cif
#   From: 2010.06.25/outbox.cif.g09.slc.cpg/sg12_75_cif.got.tgz:148548.got - 2010.06.28 00:19:55.
