data_PCOD8114799
_publ_section_title
;
Structure prediction by ZEFSAII (Michael W. Deem and Ramdas Pophale) SiO2 
 PCOD8114799
Probable space group: C 2/M
;
_chemical_formula_sum "Si O2"
_cell_formula_units_Z 44
_cell_length_a 12.297568
_cell_length_b 28.862603
_cell_length_c 17.564276
_cell_angle_alpha 90.000000
_cell_angle_beta 158.961052
_cell_angle_gamma 90.000000
_cell_volume 2238.115212
_symmetry_space_group_name_H-M "C 2/M"
_symmetry_group_IT_number 12
_symmetry_cell_setting 'monoclinic'
loop_
_space_group_symop_operation_xyz
x,y,z
-x,y,-z
-x,-y,-z
x,-y,z
1/2+x,1/2+y,z
1/2-x,1/2+y,-z
1/2-x,1/2-y,-z
1/2+x,1/2-y,z
loop_
_atom_site_type_symbol
_atom_site_label
_atom_site_fract_x
_atom_site_fract_y
_atom_site_fract_z
Si Si1 0.321042 0.669304 0.734543
Si Si2 0.576995 0.379873 0.691095
Si Si3 0.000000 0.217019 0.000000
Si Si4 0.787670 0.449717 0.634931
Si Si5 0.839683 0.396056 0.014572
Si Si6 0.973867 0.220391 0.694849
O O1 0.348409 0.714297 0.698124
O O2 0.000000 0.644943 0.500000
O O3 0.318798 0.684907 0.821249
O O4 0.614262 0.637508 0.912714
O O5 0.279668 0.407452 0.467391
O O6 0.501532 0.329331 0.672585
O O7 0.832825 0.372965 0.792744
O O8 0.693612 0.411195 0.838657
O O9 0.217781 0.251122 0.095908
O O10 0.500000 0.455374 0.500000
O O11 0.845447 0.500000 0.632673
O O12 0.086416 0.438549 0.880663
O O13 0.750000 0.250000 0.500000
#
# Coordination Sequence:
#
# PCOD8114799 Si02
#       6
#     8   8   4   8   8   8
#     4  11  23  39  55  82 110 154 195 234 280 335
#     4   9  19  36  54  82 114 150 180 230 285 334
#     4  12  24  40  56  78 114 156 192 244 276 322
#     4   9  18  33  56  87 113 144 186 228 289 350
#     4   9  19  35  57  79 114 145 185 230 284 335
#     4  11  22  38  56  81 114 150 198 231 278 336
#
# _framework density 19.659399000000001
#
# number of rings (size 3 to 8) (size 9 to 14) (size 15 to 20)
#    0.000    2.000    1.818    2.727    2.545    0.727 
#    6.545    3.636    0.000    0.545    0.000    8.273 
#    0.000    0.000    0.000    0.000    0.000    0.000 
#
# Total GULP energy -272554.262409 kJ/mol
# GULP energy per Si atom -12388.830110 kJ/mol
# Density = 1.961465 g / cm^3
# Si number density = 19.659399 Si / 1000 Ang^3
#
#
#
# Elastic Constant Matrix: (Units=GPa)
#
#
# Indices 1 2 3 4 5 6 
#
# 1 73.4201 29.0850 30.1339 -0.0233 -9.4868 0.0063
# 2 29.0850 90.6555 49.1609 -0.0240 -16.1250 0.0062
# 3 30.1339 49.1609 106.5775 -0.1292 -17.7737 0.0707
# 4 -0.0233 -0.0240 -0.1292 8.8399 -0.0383 -12.5673
# 5 -9.4868 -16.1250 -17.7737 -0.0383 32.5370 0.0112
# 6 0.0063 0.0062 0.0707 -12.5673 0.0112 9.4981
#
#
#
# Elastic Compliance Matrix: (Units=1/GPa)
#
#
# Indices 1 2 3 4 5 6 
#
# 1 0.016325 -0.003468 -0.002760 -0.000016 0.001533 -0.000011
# 2 -0.003468 0.015922 -0.005739 -0.000011 0.003744 0.000016
# 3 -0.002760 -0.005739 0.013425 -0.000056 0.003684 -0.000172
# 4 -0.000016 -0.000011 -0.000056 -0.128397 -0.000133 -0.169886
# 5 0.001533 0.003744 0.003684 -0.000133 0.035050 -0.000248
# 6 -0.000011 0.000016 -0.000172 -0.169886 -0.000248 -0.119496
#
#
# Mechanical properties :
#
#
# Convention : Reuss Voigt Hill
#
# Bulk Modulus (GPa) = 46.00504 54.15696 50.08100
# Shear Modulus (GPa) = -36.76722 20.99322 -7.88700
#
# Velocity S-wave (km/s) = -4.32928 3.27134 -2.00513
# Velocity P-wave (km/s) = 1.24034 6.47119 4.49098
#
# Compressibility (1/GPa) = 0.02173675
#
# Stress axis : x y z
#
# Youngs Moduli (GPa) = 61.25527 62.80750 74.48694
#
# Poissons Ratio (x) = 0.21781 0.20562
# Poissons Ratio (y) = 0.21243 0.42750
# Poissons Ratio (z) = 0.16909 0.36047
#
# Static dielectric constant tensor:
#      x y z
#    x 3.485700 -0.000860 -0.235000 
#    y -0.000860 3.656730 -0.000580 
#    z -0.235000 -0.000580 3.813820 
# 
# 
# High freq. dielectric constant tensor:
#      x y z
#    x 1.753960 0.000000 -0.015060 
#    y 0.000000 1.735040 0.000000 
#    z -0.015060 0.000000 1.774900 
# 
# From -- ./inp_files/266344.got.cif
#   From: 2010.06.25/outbox.cif.g09.slc.cpg/sg12_134_cif.got.tgz:266344.got - 2010.06.28 00:19:55.
