data_PCOD8114297
_publ_section_title
;
Structure prediction by ZEFSAII (Michael W. Deem and Ramdas Pophale) SiO2 
 PCOD8114297
Probable space group: C 2/M
;
_chemical_formula_sum "Si O2"
_cell_formula_units_Z 64
_cell_length_a 12.749066
_cell_length_b 28.824793
_cell_length_c 9.221533
_cell_angle_alpha 90.000000
_cell_angle_beta 75.930505
_cell_angle_gamma 90.000000
_cell_volume 3287.154627
_symmetry_space_group_name_H-M "C 2/M"
_symmetry_group_IT_number 12
_symmetry_cell_setting 'monoclinic'
loop_
_space_group_symop_operation_xyz
x,y,z
-x,y,-z
-x,-y,-z
x,-y,z
1/2+x,1/2+y,z
1/2-x,1/2+y,-z
1/2-x,1/2-y,-z
1/2+x,1/2-y,z
loop_
_atom_site_type_symbol
_atom_site_label
_atom_site_fract_x
_atom_site_fract_y
_atom_site_fract_z
Si Si1 0.685756 0.208828 0.184379
Si Si2 0.758763 0.634823 0.363672
Si Si3 0.847447 0.553177 0.174604
Si Si4 0.576922 0.296782 0.353598
Si Si5 0.104141 0.306457 0.901785
Si Si6 0.385541 0.872344 0.610882
Si Si7 0.094017 0.553324 0.166432
Si Si8 0.569491 0.295574 0.846251
O O1 0.661088 0.260210 0.254696
O O2 0.605213 0.172749 0.288605
O O3 0.805003 0.191689 0.188892
O O4 0.681508 0.208250 0.010366
O O5 0.759313 0.583433 0.293019
O O6 0.642516 0.659438 0.395226
O O7 0.842266 0.663250 0.238003
O O8 0.794416 0.633930 0.518834
O O9 0.810914 0.500000 0.200530
O O10 0.965152 0.560419 0.205258
O O11 0.851551 0.568249 0.004426
O O12 0.500000 0.272841 0.500000
O O13 0.489807 0.317442 0.271408
O O14 0.056500 0.260332 0.841762
O O15 0.000000 0.334329 0.000000
O O16 0.500000 0.881399 0.500000
O O17 0.354996 0.916070 0.722292
O O18 0.121578 0.500000 0.190295
O O19 0.500000 0.316618 0.000000
#
# Coordination Sequence:
#
# PCOD8114297 Si02
#       8
#     8   8   8   8   8   8   8   8
#     4  12  23  39  58  81 116 158 207 244 290 340
#     4  12  24  37  57  86 119 155 199 236 291 351
#     4   9  19  37  62  87 115 150 189 238 296 352
#     4  12  26  40  56  79 118 160 195 248 290 342
#     4  11  21  36  59  84 113 151 200 250 281 342
#     4  12  24  34  53  87 120 162 195 230 284 353
#     4   9  19  37  59  88 123 153 183 232 294 358
#     4  11  22  39  58  80 106 150 203 249 292 330
#
# _framework density 19.469726000000001
#
# number of rings (size 3 to 8) (size 9 to 14) (size 15 to 20)
#    0.000    1.000    5.000    4.500    3.500    1.750 
#    0.000    0.000    0.000    0.375    0.000    0.875 
#    0.000   10.000    0.000    0.000    0.000    0.000 
#
# Total GULP energy -396762.388916 kJ/mol
# GULP energy per Si atom -12398.824654 kJ/mol
# Density = 1.942541 g / cm^3
# Si number density = 19.469726 Si / 1000 Ang^3
#
#
#
# Elastic Constant Matrix: (Units=GPa)
#
#
# Indices 1 2 3 4 5 6 
#
# 1 87.3538 13.5787 31.3515 0.0000 16.5359 0.0000
# 2 13.5787 76.7123 35.4703 0.0000 8.5860 0.0000
# 3 31.3515 35.4703 110.4090 0.0000 18.0835 0.0000
# 4 0.0000 0.0000 0.0000 17.2511 0.0000 15.2588
# 5 16.5359 8.5860 18.0835 0.0000 36.0553 0.0000
# 6 0.0000 0.0000 0.0000 15.2588 0.0000 10.2135
#
#
#
# Elastic Compliance Matrix: (Units=1/GPa)
#
#
# Indices 1 2 3 4 5 6 
#
# 1 0.013437 -0.000526 -0.002895 0.000000 -0.004585 0.000000
# 2 -0.000526 0.015385 -0.004612 0.000000 -0.001109 0.000000
# 3 -0.002895 -0.004612 0.011945 0.000000 -0.003565 0.000000
# 4 0.000000 0.000000 0.000000 -0.180334 0.000000 0.269417
# 5 -0.004585 -0.001109 -0.003565 0.000000 0.031890 0.000000
# 6 0.000000 0.000000 0.000000 0.269417 0.000000 -0.304595
#
#
# Mechanical properties :
#
#
# Convention : Reuss Voigt Hill
#
# Bulk Modulus (GPa) = 40.48587 48.36402 44.42494
# Shear Modulus (GPa) = -12.88749 25.64229 6.37740
#
# Velocity S-wave (km/s) = -2.57558 3.63303 1.81181
# Velocity P-wave (km/s) = 3.46332 6.51868 5.21957
#
# Compressibility (1/GPa) = 0.02469998
#
# Stress axis : x y z
#
# Youngs Moduli (GPa) = 74.42366 64.99684 83.71858
#
# Poissons Ratio (x) = 0.03422 0.24240
# Poissons Ratio (y) = 0.03918 0.38607
# Poissons Ratio (z) = 0.21548 0.29974
#
# Static dielectric constant tensor:
#      x y z
#    x 3.396820 0.000000 0.032380 
#    y 0.000000 3.424810 0.000000 
#    z 0.032380 0.000000 3.794070 
# 
# 
# High freq. dielectric constant tensor:
#      x y z
#    x 1.735230 0.000000 0.004000 
#    y 0.000000 1.732750 0.000000 
#    z 0.004000 0.000000 1.777560 
# 
# From -- ./inp_files/54726.got.cif
#   From: 2010.06.25/outbox.cif.g09.slc.cpg/sg12_28_cif.got.tgz:54726.got - 2010.06.28 00:19:55.
