data_PCOD8114674
_publ_section_title
;
Structure prediction by ZEFSAII (Michael W. Deem and Ramdas Pophale) SiO2 
 PCOD8114674
Probable space group: C 2/M
;
_chemical_formula_sum "Si O2"
_cell_formula_units_Z 64
_cell_length_a 24.339033
_cell_length_b 8.693204
_cell_length_c 16.738256
_cell_angle_alpha 90.000000
_cell_angle_beta 88.254666
_cell_angle_gamma 90.000000
_cell_volume 3539.907139
_symmetry_space_group_name_H-M "C 2/M"
_symmetry_group_IT_number 12
_symmetry_cell_setting 'monoclinic'
loop_
_space_group_symop_operation_xyz
x,y,z
-x,y,-z
-x,-y,-z
x,-y,z
1/2+x,1/2+y,z
1/2-x,1/2+y,-z
1/2-x,1/2-y,-z
1/2+x,1/2-y,z
loop_
_atom_site_type_symbol
_atom_site_label
_atom_site_fract_x
_atom_site_fract_y
_atom_site_fract_z
Si Si1 0.942817 0.324295 0.830356
Si Si2 0.555097 0.679222 0.781277
Si Si3 0.145923 0.675174 0.301941
Si Si4 0.150739 0.682741 0.050416
Si Si5 0.576389 0.817598 0.442964
Si Si6 0.266204 0.183645 0.821027
Si Si7 0.458829 0.181875 0.387026
Si Si8 0.154390 0.681577 0.870851
O O1 0.962563 0.500000 0.842486
O O2 0.906759 0.313243 0.752579
O O3 0.906710 0.263746 0.906870
O O4 0.995221 0.215847 0.818748
O O5 0.567201 0.500000 0.788671
O O6 0.562119 0.728637 0.689198
O O7 0.598508 0.771880 0.831471
O O8 0.161833 0.500000 0.316988
O O9 0.127541 0.750630 0.388123
O O10 0.199386 0.750205 0.257077
O O11 0.150878 0.500000 0.051061
O O12 0.202759 0.741651 0.099979
O O13 0.154953 0.749612 0.960972
O O14 0.581318 0.774782 0.536444
O O15 0.519267 0.757943 0.407971
O O16 0.575035 0.000000 0.434073
O O17 0.205353 0.250108 0.819458
O O18 0.264731 0.000000 0.819057
O O19 0.458177 0.000000 0.369303
O O20 0.159808 0.500000 0.872367
#
# Coordination Sequence:
#
# PCOD8114674 Si02
#       8
#     8   8   8   8   8   8   8   8
#     4   9  16  32  55  75  98 130 167 201 243 300
#     4  12  24  35  47  69 104 139 170 205 250 298
#     4   8  13  25  51  80 104 128 157 197 245 296
#     4   8  17  33  56  80  98 124 164 210 254 299
#     4   8  13  24  50  83 103 124 163 202 238 290
#     4   9  17  32  54  79 103 127 160 205 253 296
#     4   9  16  29  51  76 102 131 166 202 237 291
#     4  11  22  36  52  71  97 134 176 210 246 294
#
# _framework density 18.079568999999999
#
# number of rings (size 3 to 8) (size 9 to 14) (size 15 to 20)
#    0.000    2.750    1.250    4.125    0.000    0.500 
#    0.000    8.125    0.000    0.750    0.000    0.000 
#    0.000    0.000    0.000    0.000    0.000    0.000 
#
# Total GULP energy -396552.606465 kJ/mol
# GULP energy per Si atom -12392.268952 kJ/mol
# Density = 1.803842 g / cm^3
# Si number density = 18.079569 Si / 1000 Ang^3
#
#
#
# Elastic Constant Matrix: (Units=GPa)
#
#
# Indices 1 2 3 4 5 6 
#
# 1 68.2601 9.6414 33.6355 0.0000 -24.7055 0.0000
# 2 9.6414 24.9159 16.6014 0.0000 -6.0964 0.0000
# 3 33.6355 16.6014 74.9275 0.0000 -28.8386 0.0000
# 4 0.0000 0.0000 0.0000 11.7699 0.0000 -3.1316
# 5 -24.7055 -6.0964 -28.8386 0.0000 29.2796 0.0000
# 6 0.0000 0.0000 0.0000 -3.1316 0.0000 22.2554
#
#
#
# Elastic Compliance Matrix: (Units=1/GPa)
#
#
# Indices 1 2 3 4 5 6 
#
# 1 0.022081 -0.002474 -0.003852 0.000000 0.014323 0.000000
# 2 -0.002474 0.047374 -0.010296 0.000000 -0.002364 0.000000
# 3 -0.003852 -0.010296 0.024610 0.000000 0.018846 0.000000
# 4 0.000000 0.000000 0.000000 0.088267 0.000000 0.012420
# 5 0.014323 -0.002364 0.018846 0.000000 0.064309 0.000000
# 6 0.000000 0.000000 0.000000 0.012420 0.000000 0.046680
#
#
# Mechanical properties :
#
#
# Convention : Reuss Voigt Hill
#
# Bulk Modulus (GPa) = 16.44127 31.98445 24.21286
# Shear Modulus (GPa) = 14.41598 19.87600 17.14599
#
# Velocity S-wave (km/s) = 2.82683 3.31926 3.08289
# Velocity P-wave (km/s) = 4.44614 5.69380 5.10820
#
# Compressibility (1/GPa) = 0.06082256
#
# Stress axis : x y z
#
# Youngs Moduli (GPa) = 45.28771 21.10870 40.63400
#
# Poissons Ratio (x) = 0.05221 0.15650
# Poissons Ratio (y) = 0.11202 0.41837
# Poissons Ratio (z) = 0.17443 0.21733
#
# Static dielectric constant tensor:
#      x y z
#    x 3.284190 0.000000 -0.395830 
#    y 0.000000 2.882730 0.000000 
#    z -0.395830 0.000000 3.725930 
# 
# 
# High freq. dielectric constant tensor:
#      x y z
#    x 1.684300 0.000000 -0.027260 
#    y 0.000000 1.657180 0.000000 
#    z -0.027260 0.000000 1.705970 
# 
# From -- ./inp_files/287679.got.cif
#   From: 2010.06.25/outbox.cif.g09.slc.cpg/sg12_144_cif.got.tgz:287679.got - 2010.06.28 00:19:55.
