data_PCOD8114493
_publ_section_title
;
Structure prediction by ZEFSAII (Michael W. Deem and Ramdas Pophale) SiO2 
 PCOD8114493
Probable space group: C 2/M
;
_chemical_formula_sum "Si O2"
_cell_formula_units_Z 56
_cell_length_a 9.140840
_cell_length_b 17.734144
_cell_length_c 26.707190
_cell_angle_alpha 90.000000
_cell_angle_beta 37.631640
_cell_angle_gamma 90.000000
_cell_volume 2643.436919
_symmetry_space_group_name_H-M "C 2/M"
_symmetry_group_IT_number 12
_symmetry_cell_setting 'monoclinic'
loop_
_space_group_symop_operation_xyz
x,y,z
-x,y,-z
-x,-y,-z
x,-y,z
1/2+x,1/2+y,z
1/2-x,1/2+y,-z
1/2-x,1/2-y,-z
1/2+x,1/2-y,z
loop_
_atom_site_type_symbol
_atom_site_label
_atom_site_fract_x
_atom_site_fract_y
_atom_site_fract_z
Si Si1 0.267334 0.796979 0.445499
Si Si2 0.376533 0.322351 0.835687
Si Si3 0.560584 0.088175 0.427538
Si Si4 0.339639 0.164036 0.969124
Si Si5 0.581139 0.587531 0.860472
Si Si6 0.542514 0.159404 0.171095
Si Si7 0.982021 0.177254 0.694504
O O1 0.250000 0.750000 0.500000
O O2 0.412107 0.871762 0.422968
O O3 0.410644 0.748882 0.364768
O O4 0.000000 0.819130 0.500000
O O5 0.551158 0.387323 0.810403
O O6 0.435340 0.247025 0.849734
O O7 0.424544 0.297236 0.766087
O O8 0.103222 0.344057 0.921085
O O9 0.500000 0.117686 0.500000
O O10 0.839796 0.107091 0.348123
O O11 0.512004 0.000000 0.434918
O O12 0.359572 0.126745 0.907940
O O13 0.250000 0.250000 0.000000
O O14 0.162744 0.108096 0.045427
O O15 0.637349 0.500000 0.847839
O O16 0.804271 0.630914 0.824021
O O17 0.264541 0.143845 0.261493
#
# Coordination Sequence:
#
# PCOD8114493 Si02
#       7
#     8   8   8   8   8   8   8
#     4  12  22  43  74 107 132 170 225 285 322 390
#     4  11  23  40  65  95 129 176 225 272 336 404
#     4  11  24  44  69 101 140 180 215 267 341 404
#     4  11  21  40  66  91 125 174 229 274 332 396
#     4  12  26  42  64 100 136 168 224 290 338 388
#     4  11  23  39  67  97 127 177 226 273 329 399
#     4  11  23  42  68  97 131 180 225 267 324 401
#
# _framework density 21.184542
#
# number of rings (size 3 to 8) (size 9 to 14) (size 15 to 20)
#    0.000    0.714    5.714    2.571    0.000    3.714 
#    0.000    2.857    0.000    0.000    0.000    0.000 
#    0.000    0.000    0.000    0.000    0.000    0.000 
#
# Total GULP energy -347013.725969 kJ/mol
# GULP energy per Si atom -12393.347356 kJ/mol
# Density = 2.113633 g / cm^3
# Si number density = 21.184542 Si / 1000 Ang^3
#
#
#
# Elastic Constant Matrix: (Units=GPa)
#
#
# Indices 1 2 3 4 5 6 
#
# 1 155.6722 43.0133 66.5005 -0.0064 -26.4786 0.0136
# 2 43.0133 82.5475 31.0111 -0.0051 -3.9662 0.0006
# 3 66.5005 31.0111 116.7276 0.0061 -12.8437 0.0051
# 4 -0.0064 -0.0051 0.0061 19.2549 0.0020 3.3804
# 5 -26.4786 -3.9662 -12.8437 0.0020 36.0204 -0.0165
# 6 0.0136 0.0006 0.0051 3.3804 -0.0165 25.7955
#
#
#
# Elastic Compliance Matrix: (Units=1/GPa)
#
#
# Indices 1 2 3 4 5 6 
#
# 1 0.010128 -0.003413 -0.004252 0.000003 0.005553 -0.000001
# 2 -0.003413 0.014609 -0.002119 0.000003 -0.001656 0.000000
# 3 -0.004252 -0.002119 0.011639 -0.000006 0.000791 0.000001
# 4 0.000003 0.000003 -0.000006 0.053158 -0.000005 -0.006966
# 5 0.005553 -0.001656 0.000791 -0.000005 0.031944 0.000018
# 6 -0.000001 0.000000 0.000001 -0.006966 0.000018 0.039679
#
#
# Mechanical properties :
#
#
# Convention : Reuss Voigt Hill
#
# Bulk Modulus (GPa) = 59.49537 70.66636 65.08086
# Shear Modulus (GPa) = 26.83434 30.50897 28.67165
#
# Velocity S-wave (km/s) = 3.56293 3.79905 3.68288
# Velocity P-wave (km/s) = 6.71351 7.25766 6.99088
#
# Compressibility (1/GPa) = 0.01680803
#
# Stress axis : x y z
#
# Youngs Moduli (GPa) = 98.73867 68.45008 85.91500
#
# Poissons Ratio (x) = 0.23363 0.36532
# Poissons Ratio (y) = 0.33700 0.18205
# Poissons Ratio (z) = 0.41985 0.14504
#
# Static dielectric constant tensor:
#      x y z
#    x 4.251570 0.000020 -0.002130 
#    y 0.000020 3.742090 -0.000610 
#    z -0.002130 -0.000610 4.120970 
# 
# 
# High freq. dielectric constant tensor:
#      x y z
#    x 1.851590 0.000000 -0.002110 
#    y 0.000000 1.797990 0.000000 
#    z -0.002110 0.000000 1.840570 
# 
# From -- ./inp_files/356633.got.cif
#   From: 2010.06.25/outbox.cif.g09.slc.cpg/sg12_179_cif.got.tgz:356633.got - 2010.06.28 00:19:55.
