data_PCOD8114452
_publ_section_title
;
Structure prediction by ZEFSAII (Michael W. Deem and Ramdas Pophale) SiO2 
 PCOD8114452
Probable space group: C 2/M
;
_chemical_formula_sum "Si O2"
_cell_formula_units_Z 56
_cell_length_a 14.781236
_cell_length_b 17.346811
_cell_length_c 21.605333
_cell_angle_alpha 90.000000
_cell_angle_beta 151.347313
_cell_angle_gamma 90.000000
_cell_volume 2656.311983
_symmetry_space_group_name_H-M "C 2/M"
_symmetry_group_IT_number 12
_symmetry_cell_setting 'monoclinic'
loop_
_space_group_symop_operation_xyz
x,y,z
-x,y,-z
-x,-y,-z
x,-y,z
1/2+x,1/2+y,z
1/2-x,1/2+y,-z
1/2-x,1/2-y,-z
1/2+x,1/2-y,z
loop_
_atom_site_type_symbol
_atom_site_label
_atom_site_fract_x
_atom_site_fract_y
_atom_site_fract_z
Si Si1 0.168829 0.171735 0.357623
Si Si2 0.937520 0.412359 0.606652
Si Si3 0.708172 0.587916 0.837524
Si Si4 0.422534 0.685279 0.019617
Si Si5 0.018330 0.664637 0.241785
Si Si6 0.456429 0.856967 0.881805
Si Si7 0.799179 0.088833 0.743512
O O1 0.293109 0.149855 0.491836
O O2 0.154061 0.263281 0.338916
O O3 0.270161 0.132862 0.359457
O O4 0.960636 0.138912 0.239428
O O5 0.870666 0.500000 0.552976
O O6 0.948439 0.400276 0.686723
O O7 0.144978 0.397787 0.703955
O O8 0.643398 0.500000 0.791852
O O9 0.768430 0.619982 0.806285
O O10 0.874521 0.593283 0.987806
O O11 0.198503 0.691317 0.888932
O O12 0.500000 0.659091 0.000000
O O13 0.509406 0.766853 0.089403
O O14 0.498810 0.622485 0.114050
O O15 0.071352 0.626494 0.207673
O O16 0.828133 0.000000 0.744331
#
# Coordination Sequence:
#
# PCOD8114452 Si02
#       7
#     8   8   8   8   8   8   8
#     4  12  23  43  67  90 125 169 218 261 305 375
#     4  11  26  44  63  92 131 169 212 264 314 373
#     4  11  23  39  65  94 125 166 212 259 314 371
#     4  12  20  39  66  91 133 160 197 266 321 375
#     4  12  24  40  66  96 125 168 209 257 322 380
#     4  11  21  39  63  92 128 160 207 261 314 370
#     4  11  24  41  66  96 126 167 212 260 322 375
#
# _framework density 21.081859999999999
#
# number of rings (size 3 to 8) (size 9 to 14) (size 15 to 20)
#    0.000    0.571    5.714    4.286    0.000    3.143 
#    0.000    0.714    0.000    1.714    0.000    0.000 
#    0.000    0.000    0.000    0.000    0.000    0.000 
#
# Total GULP energy -347344.658687 kJ/mol
# GULP energy per Si atom -12405.166382 kJ/mol
# Density = 2.103388 g / cm^3
# Si number density = 21.081860 Si / 1000 Ang^3
#
#
#
# Elastic Constant Matrix: (Units=GPa)
#
#
# Indices 1 2 3 4 5 6 
#
# 1 122.3374 27.0424 26.8983 0.0014 -30.8980 -0.0033
# 2 27.0424 72.5151 17.2757 0.0114 0.5866 0.0025
# 3 26.8983 17.2757 72.9579 0.0211 -17.2040 0.0024
# 4 0.0014 0.0114 0.0211 27.3002 -0.0005 2.0786
# 5 -30.8980 0.5866 -17.2040 -0.0005 32.2772 -0.0039
# 6 -0.0033 0.0025 0.0024 2.0786 -0.0039 24.6677
#
#
#
# Elastic Compliance Matrix: (Units=1/GPa)
#
#
# Indices 1 2 3 4 5 6 
#
# 1 0.012193 -0.004457 -0.000765 0.000002 0.011345 0.000004
# 2 -0.004457 0.016410 -0.003796 -0.000004 -0.006588 -0.000003
# 3 -0.000765 -0.003796 0.016849 -0.000011 0.008317 0.000001
# 4 0.000002 -0.000004 -0.000011 0.036866 -0.000004 -0.003107
# 5 0.011345 -0.006588 0.008317 -0.000004 0.046395 0.000009
# 6 0.000004 -0.000003 0.000001 -0.003107 0.000009 0.040801
#
#
# Mechanical properties :
#
#
# Convention : Reuss Voigt Hill
#
# Bulk Modulus (GPa) = 36.47428 45.58257 41.02842
# Shear Modulus (GPa) = 25.42117 29.95528 27.68823
#
# Velocity S-wave (km/s) = 3.47628 3.77358 3.62797
# Velocity P-wave (km/s) = 5.78373 6.37614 6.08714
#
# Compressibility (1/GPa) = 0.02741658
#
# Stress axis : x y z
#
# Youngs Moduli (GPa) = 82.01619 60.93921 59.35200
#
# Poissons Ratio (x) = 0.27158 0.04539
# Poissons Ratio (y) = 0.36551 0.22530
# Poissons Ratio (z) = 0.06272 0.23133
#
# Static dielectric constant tensor:
#      x y z
#    x 4.067600 0.000000 -0.123580 
#    y 0.000000 3.729180 -0.000020 
#    z -0.123580 -0.000020 3.690070 
# 
# 
# High freq. dielectric constant tensor:
#      x y z
#    x 1.838950 0.000000 -0.008210 
#    y 0.000000 1.825780 0.000000 
#    z -0.008210 0.000000 1.811030 
# 
# From -- ./inp_files/146059.got.cif
#   From: 2010.06.25/outbox.cif.g09.slc.cpg/sg12_74_cif.got.tgz:146059.got - 2010.06.28 00:19:55.
