data_PCOD8114030
_publ_section_title
;
Structure prediction by ZEFSAII (Michael W. Deem and Ramdas Pophale) SiO2 
 PCOD8114030
Probable space group: C 2/M
;
_chemical_formula_sum "Si O2"
_cell_formula_units_Z 56
_cell_length_a 11.242596
_cell_length_b 24.848482
_cell_length_c 12.348799
_cell_angle_alpha 90.000000
_cell_angle_beta 46.891212
_cell_angle_gamma 90.000000
_cell_volume 2518.536428
_symmetry_space_group_name_H-M "C 2/M"
_symmetry_group_IT_number 12
_symmetry_cell_setting 'monoclinic'
loop_
_space_group_symop_operation_xyz
x,y,z
-x,y,-z
-x,-y,-z
x,-y,z
1/2+x,1/2+y,z
1/2-x,1/2+y,-z
1/2-x,1/2-y,-z
1/2+x,1/2-y,z
loop_
_atom_site_type_symbol
_atom_site_label
_atom_site_fract_x
_atom_site_fract_y
_atom_site_fract_z
Si Si1 0.681437 0.750902 0.864130
Si Si2 0.287154 0.386170 0.439109
Si Si3 0.180173 0.135158 0.936453
Si Si4 0.191947 0.939491 0.358665
Si Si5 0.662532 0.939419 0.329888
Si Si6 0.649849 0.361263 0.200067
Si Si7 0.325271 0.777659 0.558586
O O1 0.730740 0.698106 0.902653
O O2 0.798159 0.799866 0.819318
O O3 0.690402 0.733604 0.733436
O O4 0.500000 0.770536 0.000000
O O5 0.220976 0.414505 0.589367
O O6 0.304128 0.429803 0.331465
O O7 0.461030 0.359050 0.349703
O O8 0.159600 0.340735 0.479055
O O9 0.311971 0.100058 0.788124
O O10 0.183591 0.116616 0.058858
O O11 0.000000 0.127236 0.000000
O O12 0.239364 0.902163 0.227013
O O13 0.000000 0.941184 0.500000
O O14 0.257356 0.000000 0.297588
O O15 0.500000 0.927570 0.500000
O O16 0.669520 0.000000 0.280874
O O17 0.500000 0.757768 0.500000
O O18 0.250000 0.750000 0.500000
#
# Coordination Sequence:
#
# PCOD8114030 Si02
#       7
#     8   8   8   8   8   8   8
#     4  11  24  44  64  96 137 184 223 278 354 418
#     4  11  20  41  64  97 133 174 227 285 341 418
#     4  11  22  42  64  96 130 172 226 279 341 415
#     4   9  20  38  64  95 130 173 227 290 348 405
#     4  11  24  43  66  96 131 171 216 279 353 409
#     4  11  22  40  65  96 135 180 235 281 345 419
#     4  12  25  41  68 103 139 180 237 290 343 416
#
# _framework density 22.235137000000002
#
# number of rings (size 3 to 8) (size 9 to 14) (size 15 to 20)
#    0.000    1.143    2.857    3.857    0.000    3.714 
#    2.571    0.000    0.000    0.429    0.000    0.000 
#    0.000    0.000    0.000    0.000    0.000    0.000 
#
# Total GULP energy -347113.155850 kJ/mol
# GULP energy per Si atom -12396.898423 kJ/mol
# Density = 2.218453 g / cm^3
# Si number density = 22.235137 Si / 1000 Ang^3
#
#
#
# Elastic Constant Matrix: (Units=GPa)
#
#
# Indices 1 2 3 4 5 6 
#
# 1 83.2074 47.2070 38.6991 0.0000 22.6025 0.0000
# 2 47.2070 149.3233 60.5985 0.0000 7.3267 0.0000
# 3 38.6991 60.5985 110.5944 0.0000 31.1437 0.0000
# 4 0.0000 0.0000 0.0000 25.4788 0.0000 3.4397
# 5 22.6025 7.3267 31.1437 0.0000 50.8817 0.0000
# 6 0.0000 0.0000 0.0000 3.4397 0.0000 29.2140
#
#
#
# Elastic Compliance Matrix: (Units=1/GPa)
#
#
# Indices 1 2 3 4 5 6 
#
# 1 0.016899 -0.004261 -0.001979 0.000000 -0.005682 0.000000
# 2 -0.004261 0.009856 -0.004885 0.000000 0.003463 0.000000
# 3 -0.001979 -0.004885 0.014457 0.000000 -0.007267 0.000000
# 4 0.000000 0.000000 0.000000 0.039882 0.000000 -0.004696
# 5 -0.005682 0.003463 -0.007267 0.000000 0.026127 0.000000
# 6 0.000000 0.000000 0.000000 -0.004696 0.000000 0.034783
#
#
# Mechanical properties :
#
#
# Convention : Reuss Voigt Hill
#
# Bulk Modulus (GPa) = 52.73079 70.68159 61.70619
# Shear Modulus (GPa) = 29.31257 34.22295 31.76776
#
# Velocity S-wave (km/s) = 3.63478 3.92744 3.78394
# Velocity P-wave (km/s) = 6.43289 7.24042 6.84856
#
# Compressibility (1/GPa) = 0.01896425
#
# Stress axis : x y z
#
# Youngs Moduli (GPa) = 59.17427 101.45700 69.16857
#
# Poissons Ratio (x) = 0.43228 0.13686
# Poissons Ratio (y) = 0.25213 0.33789
# Poissons Ratio (z) = 0.11708 0.49562
#
# Static dielectric constant tensor:
#      x y z
#    x 4.007690 0.000000 0.226140 
#    y 0.000000 4.164730 0.000000 
#    z 0.226140 0.000000 4.038420 
# 
# 
# High freq. dielectric constant tensor:
#      x y z
#    x 1.867470 0.000000 0.020640 
#    y 0.000000 1.879270 0.000000 
#    z 0.020640 0.000000 1.869600 
# 
# From -- ./inp_files/136929.got.cif
#   From: 2010.06.25/outbox.cif.g09.slc.cpg/sg12_69_cif.got.tgz:136929.got - 2010.06.28 00:19:55.
