data_PCOD8114614
_publ_section_title
;
Structure prediction by ZEFSAII (Michael W. Deem and Ramdas Pophale) SiO2 
 PCOD8114614
Probable space group: C 2/M
;
_chemical_formula_sum "Si O2"
_cell_formula_units_Z 56
_cell_length_a 5.136907
_cell_length_b 26.528533
_cell_length_c 21.866979
_cell_angle_alpha 90.000000
_cell_angle_beta 83.354088
_cell_angle_gamma 90.000000
_cell_volume 2959.889975
_symmetry_space_group_name_H-M "C 2/M"
_symmetry_group_IT_number 12
_symmetry_cell_setting 'monoclinic'
loop_
_space_group_symop_operation_xyz
x,y,z
-x,y,-z
-x,-y,-z
x,-y,z
1/2+x,1/2+y,z
1/2-x,1/2+y,-z
1/2-x,1/2-y,-z
1/2+x,1/2-y,z
loop_
_atom_site_type_symbol
_atom_site_label
_atom_site_fract_x
_atom_site_fract_y
_atom_site_fract_z
Si Si1 0.830310 0.106468 0.268912
Si Si2 0.574684 0.941333 0.929298
Si Si3 0.564857 0.721000 0.876590
Si Si4 0.696724 0.940676 0.675281
Si Si5 0.137237 0.779119 0.729976
Si Si6 0.266950 0.940007 0.464628
Si Si7 0.601919 0.393154 0.875419
O O1 0.533156 0.087331 0.282137
O O2 0.845349 0.163503 0.293404
O O3 0.919951 0.103238 0.196665
O O4 0.022406 0.071747 0.303263
O O5 0.388674 0.911196 0.888076
O O6 0.877471 0.927659 0.910754
O O7 0.534525 0.000000 0.917511
O O8 0.500000 0.926811 0.000000
O O9 0.296572 0.748174 0.903000
O O10 0.607188 0.721828 0.803284
O O11 0.560945 0.663748 0.900142
O O12 0.695418 0.921402 0.605585
O O13 0.648290 0.000000 0.680873
O O14 0.395936 0.748514 0.703652
O O15 0.500000 0.918498 0.500000
O O16 0.000000 0.917908 0.500000
O O17 0.261739 0.000000 0.466434
#
# Coordination Sequence:
#
# PCOD8114614 Si02
#       7
#     8   8   8   8   8   8   8
#     4  11  22  34  52  82 113 140 171 208 267 332
#     4  11  24  41  59  77  99 135 186 232 258 290
#     4   9  17  31  53  79 104 132 165 202 255 320
#     4  11  22  34  49  76 117 150 171 210 259 308
#     4   9  17  31  50  72 101 135 172 214 254 300
#     4   9  17  31  50  69  95 140 189 219 244 287
#     4  11  22  37  59  81 105 139 173 214 268 322
#
# _framework density 18.919622
#
# number of rings (size 3 to 8) (size 9 to 14) (size 15 to 20)
#    0.000    1.857    0.000    4.714    0.000   11.429 
#    0.000    0.000    0.000    8.571    0.000    0.000 
#    0.000   40.000    0.000    0.000    0.000    0.000 
#
# Total GULP energy -347310.435461 kJ/mol
# GULP energy per Si atom -12403.944124 kJ/mol
# Density = 1.887656 g / cm^3
# Si number density = 18.919622 Si / 1000 Ang^3
#
#
#
# Elastic Constant Matrix: (Units=GPa)
#
#
# Indices 1 2 3 4 5 6 
#
# 1 116.2238 24.0691 17.7081 0.0000 -4.9061 0.0000
# 2 24.0691 77.9186 37.9177 0.0000 0.9325 0.0000
# 3 17.7081 37.9177 52.4448 0.0000 -3.1213 0.0000
# 4 0.0000 0.0000 0.0000 0.0043 0.0000 -3.7779
# 5 -4.9061 0.9325 -3.1213 0.0000 29.2073 0.0000
# 6 0.0000 0.0000 0.0000 -3.7779 0.0000 34.7734
#
#
#
# Elastic Compliance Matrix: (Units=1/GPa)
#
#
# Indices 1 2 3 4 5 6 
#
# 1 0.009345 -0.002178 -0.001493 0.000000 0.001480 0.000000
# 2 -0.002178 0.020446 -0.014198 0.000000 -0.002536 0.000000
# 3 -0.001493 -0.014198 0.030040 0.000000 0.003413 0.000000
# 4 0.000000 0.000000 0.000000 -2.461916 0.000000 -0.267470
# 5 0.001480 -0.002536 0.003413 0.000000 0.034932 0.000000
# 6 0.000000 0.000000 0.000000 -0.267470 0.000000 -0.000301
#
#
# Mechanical properties :
#
#
# Convention : Reuss Voigt Hill
#
# Bulk Modulus (GPa) = 41.50454 45.10854 43.30654
# Shear Modulus (GPa) = -2.15176 23.92315 10.88570
#
# Velocity S-wave (km/s) = -1.06761 3.55979 2.40128
# Velocity P-wave (km/s) = 4.52385 6.38671 5.53422
#
# Compressibility (1/GPa) = 0.02409375
#
# Stress axis : x y z
#
# Youngs Moduli (GPa) = 107.00879 48.90841 33.28883
#
# Poissons Ratio (x) = 0.10653 0.04969
# Poissons Ratio (y) = 0.23307 0.47264
# Poissons Ratio (z) = 0.15972 0.69441
#
# Static dielectric constant tensor:
#      x y z
#    x 3.612730 0.000000 -0.038110 
#    y 0.000000 3.439530 0.000000 
#    z -0.038110 0.000000 3.228890 
# 
# 
# High freq. dielectric constant tensor:
#      x y z
#    x 1.755760 0.000000 -0.004850 
#    y 0.000000 1.726800 0.000000 
#    z -0.004850 0.000000 1.706670 
# 
# From -- ./inp_files/298013.got.cif
#   From: 2010.06.25/outbox.cif.g09.slc.cpg/sg12_150_cif.got.tgz:298013.got - 2010.06.28 00:19:55.
