data_PCOD8114927
_publ_section_title
;
Structure prediction by ZEFSAII (Michael W. Deem and Ramdas Pophale) SiO2 
 PCOD8114927
Probable space group: C 2/M
;
_chemical_formula_sum "Si O2"
_cell_formula_units_Z 48
_cell_length_a 14.983502
_cell_length_b 8.414864
_cell_length_c 19.082966
_cell_angle_alpha 90.000000
_cell_angle_beta 102.704124
_cell_angle_gamma 90.000000
_cell_volume 2347.155781
_symmetry_space_group_name_H-M "C 2/M"
_symmetry_group_IT_number 12
_symmetry_cell_setting 'monoclinic'
loop_
_space_group_symop_operation_xyz
x,y,z
-x,y,-z
-x,-y,-z
x,-y,z
1/2+x,1/2+y,z
1/2-x,1/2+y,-z
1/2-x,1/2-y,-z
1/2+x,1/2-y,z
loop_
_atom_site_type_symbol
_atom_site_label
_atom_site_fract_x
_atom_site_fract_y
_atom_site_fract_z
Si Si1 0.623240 0.314742 0.071156
Si Si2 0.999426 0.685075 0.580906
Si Si3 0.306925 0.687074 0.167152
Si Si4 0.438963 0.815483 0.082975
Si Si5 0.806219 0.184839 0.574900
Si Si6 0.181390 0.815772 0.670550
O O1 0.613926 0.500000 0.085115
O O2 0.721174 0.253300 0.110606
O O3 0.546808 0.221858 0.102766
O O4 0.610740 0.284290 0.986484
O O5 0.021841 0.500000 0.593154
O O6 0.075924 0.785340 0.634042
O O7 0.000000 0.736333 0.500000
O O8 0.901839 0.723557 0.598270
O O9 0.313693 0.500000 0.159326
O O10 0.397696 0.766269 0.150522
O O11 0.300680 0.736736 0.246853
O O12 0.423084 0.000000 0.065069
O O13 0.750000 0.250000 0.500000
O O14 0.748345 0.210205 0.635064
O O15 0.825481 0.000000 0.566782
O O16 0.204091 0.000000 0.662198
#
# Coordination Sequence:
#
# PCOD8114927 Si02
#       6
#     8   8   8   8   8   8
#     4  11  22  39  64  93 125 164 209 256 305 362
#     4  11  23  40  65  93 121 157 200 251 305 364
#     4  11  24  42  62  89 126 165 207 254 308 367
#     4  11  22  39  64  93 125 164 208 256 307 361
#     4  12  24  40  65  92 122 157 200 251 305 365
#     4  11  25  43  64  91 124 163 206 255 309 367
#
# _framework density 20.450282000000001
#
# number of rings (size 3 to 8) (size 9 to 14) (size 15 to 20)
#    0.000    0.833    1.667    7.500    0.000    4.667 
#    0.000    0.000    0.000    0.000    0.000    0.000 
#    0.000    0.000    0.000    0.000    0.000    0.000 
#
# Total GULP energy -297798.932548 kJ/mol
# GULP energy per Si atom -12408.288856 kJ/mol
# Density = 2.040374 g / cm^3
# Si number density = 20.450282 Si / 1000 Ang^3
#
#
#
# Elastic Constant Matrix: (Units=GPa)
#
#
# Indices 1 2 3 4 5 6 
#
# 1 114.4918 5.4129 20.4682 0.0000 -16.9961 0.0000
# 2 5.4129 89.2781 32.3603 0.0000 -11.4623 0.0000
# 3 20.4682 32.3603 58.5960 0.0000 -20.5997 0.0000
# 4 0.0000 0.0000 0.0000 30.0498 0.0000 -0.9318
# 5 -16.9961 -11.4623 -20.5997 0.0000 30.3782 0.0000
# 6 0.0000 0.0000 0.0000 -0.9318 0.0000 37.6438
#
#
#
# Elastic Compliance Matrix: (Units=1/GPa)
#
#
# Indices 1 2 3 4 5 6 
#
# 1 0.009737 0.000808 -0.002397 0.000000 0.004128 0.000000
# 2 0.000808 0.014071 -0.007915 0.000000 0.000395 0.000000
# 3 -0.002397 -0.007915 0.027249 0.000000 0.014150 0.000000
# 4 0.000000 0.000000 0.000000 0.033304 0.000000 0.000824
# 5 0.004128 0.000395 0.014150 0.000000 0.044972 0.000000
# 6 0.000000 0.000000 0.000000 0.000824 0.000000 0.026585
#
#
# Mechanical properties :
#
#
# Convention : Reuss Voigt Hill
#
# Bulk Modulus (GPa) = 31.19991 42.09430 36.64710
# Shear Modulus (GPa) = 26.93846 33.22267 30.08057
#
# Velocity S-wave (km/s) = 3.63335 4.03495 3.83941
# Velocity P-wave (km/s) = 5.73509 6.50663 6.13300
#
# Compressibility (1/GPa) = 0.03205138
#
# Stress axis : x y z
#
# Youngs Moduli (GPa) = 102.69870 71.06602 36.69885
#
# Poissons Ratio (x) = -0.05744 0.08795
# Poissons Ratio (y) = -0.08301 0.29046
# Poissons Ratio (z) = 0.24613 0.56247
#
# Static dielectric constant tensor:
#      x y z
#    x 3.863120 0.000000 -0.113870 
#    y 0.000000 3.794560 0.000000 
#    z -0.113870 0.000000 3.704220 
# 
# 
# High freq. dielectric constant tensor:
#      x y z
#    x 1.814830 0.000000 -0.003490 
#    y 0.000000 1.815290 0.000000 
#    z -0.003490 0.000000 1.789840 
# 
# From -- ./inp_files/308595.got.cif
#   From: 2010.06.25/outbox.cif.g09.slc.cpg/sg12_155_cif.got.tgz:308595.got - 2010.06.28 00:19:55.
