data_PCOD8114507
_publ_section_title
;
Structure prediction by ZEFSAII (Michael W. Deem and Ramdas Pophale) SiO2 
 PCOD8114507
Probable space group: C 2/M
;
_chemical_formula_sum "Si O2"
_cell_formula_units_Z 32
_cell_length_a 8.584375
_cell_length_b 17.949631
_cell_length_c 12.406579
_cell_angle_alpha 90.000000
_cell_angle_beta 134.340787
_cell_angle_gamma 90.000000
_cell_volume 1367.228012
_symmetry_space_group_name_H-M "C 2/M"
_symmetry_group_IT_number 12
_symmetry_cell_setting 'monoclinic'
loop_
_space_group_symop_operation_xyz
x,y,z
-x,y,-z
-x,-y,-z
x,-y,z
1/2+x,1/2+y,z
1/2-x,1/2+y,-z
1/2-x,1/2-y,-z
1/2+x,1/2-y,z
loop_
_atom_site_type_symbol
_atom_site_label
_atom_site_fract_x
_atom_site_fract_y
_atom_site_fract_z
Si Si1 0.760876 0.310799 0.408931
Si Si2 0.778049 0.791518 0.846911
Si Si3 0.319678 0.371873 0.178268
Si Si4 0.440490 0.082635 0.144442
O O1 0.750000 0.250000 0.500000
O O2 0.701336 0.269776 0.268518
O O3 0.577608 0.376027 0.335988
O O4 0.000000 0.345010 0.500000
O O5 0.726696 0.713584 0.879498
O O6 0.597205 0.855662 0.780845
O O7 0.000000 0.825629 0.000000
O O8 0.176996 0.401140 0.208202
O O9 0.251280 0.417041 0.038635
O O10 0.443125 0.000000 0.197305
#
# Coordination Sequence:
#
# PCOD8114507 Si02
#       4
#     8   8   8   8
#     4  12  26  39  64 107 146 179 225 298 366 408
#     4  12  22  41  71 109 137 180 245 306 341 413
#     4  11  21  40  69 105 140 179 241 291 344 413
#     4  11  24  42  72 108 146 184 232 298 363 412
#
# _framework density 23.405021000000001
#
# number of rings (size 3 to 8) (size 9 to 14) (size 15 to 20)
#    0.000    0.500    7.500    3.750    0.000    0.500 
#    0.000    0.000    0.000    8.250    0.000    0.000 
#    0.000    0.000    0.000    0.000    0.000    0.000 
#
# Total GULP energy -198226.657421 kJ/mol
# GULP energy per Si atom -12389.166089 kJ/mol
# Density = 2.335175 g / cm^3
# Si number density = 23.405021 Si / 1000 Ang^3
#
#
#
# Elastic Constant Matrix: (Units=GPa)
#
#
# Indices 1 2 3 4 5 6 
#
# 1 127.3722 37.4169 54.7586 0.0000 22.8552 0.0000
# 2 37.4169 133.9075 0.3790 0.0000 -4.3178 0.0000
# 3 54.7586 0.3790 102.0039 0.0000 15.0892 0.0000
# 4 0.0000 0.0000 0.0000 17.3536 0.0000 -2.6787
# 5 22.8552 -4.3178 15.0892 0.0000 57.1848 0.0000
# 6 0.0000 0.0000 0.0000 -2.6787 0.0000 27.4094
#
#
#
# Elastic Compliance Matrix: (Units=1/GPa)
#
#
# Indices 1 2 3 4 5 6 
#
# 1 0.012051 -0.003464 -0.005937 0.000000 -0.003511 0.000000
# 2 -0.003464 0.008483 0.001590 0.000000 0.001605 0.000000
# 3 -0.005937 0.001590 0.013128 0.000000 -0.000971 0.000000
# 4 0.000000 0.000000 0.000000 0.058508 0.000000 0.005718
# 5 -0.003511 0.001605 -0.000971 0.000000 0.019268 0.000000
# 6 0.000000 0.000000 0.000000 0.005718 0.000000 0.037043
#
#
# Mechanical properties :
#
#
# Convention : Reuss Voigt Hill
#
# Bulk Modulus (GPa) = 55.42682 60.93253 58.17967
# Shear Modulus (GPa) = 29.39185 38.43816 33.91500
#
# Velocity S-wave (km/s) = 3.54756 4.05693 3.81077
# Velocity P-wave (km/s) = 6.36500 6.93076 6.65390
#
# Compressibility (1/GPa) = 0.01804181
#
# Stress axis : x y z
#
# Youngs Moduli (GPa) = 82.98091 117.88357 76.17041
#
# Poissons Ratio (x) = 0.40832 0.45222
# Poissons Ratio (y) = 0.28742 -0.12115
# Poissons Ratio (z) = 0.49266 -0.18749
#
# Static dielectric constant tensor:
#      x y z
#    x 4.727700 0.000000 0.300570 
#    y 0.000000 3.804820 0.000000 
#    z 0.300570 0.000000 4.407200 
# 
# 
# High freq. dielectric constant tensor:
#      x y z
#    x 1.950190 0.000000 0.008110 
#    y 0.000000 1.876750 0.000000 
#    z 0.008110 0.000000 1.912450 
# 
# From -- ./inp_files/120511.got.cif
#   From: 2010.06.25/outbox.cif.g09.slc.cpg/sg12_61_cif.got.tgz:120511.got - 2010.06.28 00:19:55.
