data_PCOD8114666
_publ_section_title
;
Structure prediction by ZEFSAII (Michael W. Deem and Ramdas Pophale) SiO2 
 PCOD8114666
Probable space group: C 2/M
;
_chemical_formula_sum "Si O2"
_cell_formula_units_Z 56
_cell_length_a 14.645272
_cell_length_b 26.581212
_cell_length_c 7.702958
_cell_angle_alpha 90.000000
_cell_angle_beta 108.993425
_cell_angle_gamma 90.000000
_cell_volume 2835.417228
_symmetry_space_group_name_H-M "C 2/M"
_symmetry_group_IT_number 12
_symmetry_cell_setting 'monoclinic'
loop_
_space_group_symop_operation_xyz
x,y,z
-x,y,-z
-x,-y,-z
x,-y,z
1/2+x,1/2+y,z
1/2-x,1/2+y,-z
1/2-x,1/2-y,-z
1/2+x,1/2-y,z
loop_
_atom_site_type_symbol
_atom_site_label
_atom_site_fract_x
_atom_site_fract_y
_atom_site_fract_z
Si Si1 0.937542 0.555777 0.201510
Si Si2 0.744692 0.648085 0.395363
Si Si3 0.228104 0.717202 0.271914
Si Si4 0.160129 0.653913 0.924797
Si Si5 0.067355 0.735589 0.683239
Si Si6 0.359169 0.055333 0.540411
Si Si7 0.067139 0.199148 0.197272
O O1 0.916800 0.500000 0.109034
O O2 0.883982 0.599033 0.056426
O O3 0.900443 0.557668 0.373305
O O4 0.052736 0.566327 0.272185
O O5 0.781484 0.693787 0.541238
O O6 0.785908 0.652984 0.226928
O O7 0.774148 0.596062 0.506568
O O8 0.628540 0.651630 0.306811
O O9 0.329047 0.746162 0.320209
O O10 0.141756 0.756683 0.186191
O O11 0.226218 0.673004 0.124495
O O12 0.076090 0.695583 0.846100
O O13 0.000000 0.707266 0.500000
O O14 0.004930 0.783817 0.697657
O O15 0.315566 0.000000 0.550833
O O16 0.000000 0.180710 0.000000
#
# Coordination Sequence:
#
# PCOD8114666 Si02
#       7
#     8   8   8   8   8   8   8
#     4   8  16  31  53  84 114 145 188 230 280 345
#     4  11  22  37  58  81 112 151 190 229 283 337
#     4  12  24  40  53  86 120 147 198 237 270 346
#     4  11  22  35  58  80 115 157 185 228 286 334
#     4  12  23  37  57  79 116 156 190 232 285 332
#     4   8  16  32  56  82 111 146 187 234 284 338
#     4  12  23  37  56  81 115 153 192 232 280 336
#
# _framework density 19.750181000000001
#
# number of rings (size 3 to 8) (size 9 to 14) (size 15 to 20)
#    0.000    1.429    4.286    3.429    6.000    0.000 
#    0.000    0.714    0.000    2.143    0.000    3.000 
#    0.000    0.000    0.000    0.000    0.000    0.000 
#
# Total GULP energy -346960.480469 kJ/mol
# GULP energy per Si atom -12391.445731 kJ/mol
# Density = 1.970523 g / cm^3
# Si number density = 19.750181 Si / 1000 Ang^3
#
#
#
# Elastic Constant Matrix: (Units=GPa)
#
#
# Indices 1 2 3 4 5 6 
#
# 1 73.9849 47.1306 26.5504 0.0000 13.5096 0.0000
# 2 47.1306 124.5113 33.8543 0.0000 23.0208 0.0000
# 3 26.5504 33.8543 82.7163 0.0000 18.3186 0.0000
# 4 0.0000 0.0000 0.0000 24.4670 0.0000 12.9081
# 5 13.5096 23.0208 18.3186 0.0000 30.7206 0.0000
# 6 0.0000 0.0000 0.0000 12.9081 0.0000 26.5540
#
#
#
# Elastic Compliance Matrix: (Units=1/GPa)
#
#
# Indices 1 2 3 4 5 6 
#
# 1 0.018757 -0.005874 -0.003185 0.000000 -0.001947 0.000000
# 2 -0.005874 0.011680 -0.001761 0.000000 -0.005119 0.000000
# 3 -0.003185 -0.001761 0.015243 0.000000 -0.006369 0.000000
# 4 0.000000 0.000000 0.000000 0.054968 0.000000 -0.026721
# 5 -0.001947 -0.005119 -0.006369 0.000000 0.041042 0.000000
# 6 0.000000 0.000000 0.000000 -0.026721 0.000000 0.050648
#
#
# Mechanical properties :
#
#
# Convention : Reuss Voigt Hill
#
# Bulk Modulus (GPa) = 41.59835 55.14258 48.37046
# Shear Modulus (GPa) = 22.52327 27.92680 25.22504
#
# Velocity S-wave (km/s) = 3.38066 3.76440 3.57768
# Velocity P-wave (km/s) = 6.02880 6.84653 6.45064
#
# Compressibility (1/GPa) = 0.02403942
#
# Stress axis : x y z
#
# Youngs Moduli (GPa) = 53.31435 85.61518 65.60266
#
# Poissons Ratio (x) = 0.50288 0.20896
# Poissons Ratio (y) = 0.31315 0.11555
# Poissons Ratio (z) = 0.16982 0.15080
#
# Static dielectric constant tensor:
#      x y z
#    x 3.497400 0.000000 0.183920 
#    y 0.000000 3.932300 0.000000 
#    z 0.183920 0.000000 3.858430 
# 
# 
# High freq. dielectric constant tensor:
#      x y z
#    x 1.745730 0.000000 -0.001590 
#    y 0.000000 1.750390 0.000000 
#    z -0.001590 0.000000 1.778340 
# 
# From -- ./inp_files/67072.got.cif
#   From: 2010.06.25/outbox.cif.g09.slc.cpg/sg12_34_cif.got.tgz:67072.got - 2010.06.28 00:19:55.
