data_PCOD8114479
_publ_section_title
;
Structure prediction by ZEFSAII (Michael W. Deem and Ramdas Pophale) SiO2 
 PCOD8114479
Probable space group: C 2/M
;
_chemical_formula_sum "Si O2"
_cell_formula_units_Z 48
_cell_length_a 9.756572
_cell_length_b 14.587160
_cell_length_c 17.427244
_cell_angle_alpha 90.000000
_cell_angle_beta 90.504892
_cell_angle_gamma 90.000000
_cell_volume 2480.160863
_symmetry_space_group_name_H-M "C 2/M"
_symmetry_group_IT_number 12
_symmetry_cell_setting 'monoclinic'
loop_
_space_group_symop_operation_xyz
x,y,z
-x,y,-z
-x,-y,-z
x,-y,z
1/2+x,1/2+y,z
1/2-x,1/2+y,-z
1/2-x,1/2-y,-z
1/2+x,1/2-y,z
loop_
_atom_site_type_symbol
_atom_site_label
_atom_site_fract_x
_atom_site_fract_y
_atom_site_fract_z
Si Si1 0.715214 0.500000 0.039998
Si Si2 0.506334 0.310850 0.655761
Si Si3 0.580505 0.500000 0.885935
Si Si4 0.839037 0.500000 0.514005
Si Si5 0.580624 0.500000 0.419535
Si Si6 0.216152 0.304707 0.423283
Si Si7 0.750544 0.302731 0.080349
Si Si8 0.971273 0.808453 0.168600
O O1 0.564245 0.500000 0.073292
O O2 0.794383 0.408738 0.067469
O O3 0.703759 0.500000 0.947795
O O4 0.456821 0.411434 0.630397
O O5 0.664625 0.292992 0.638286
O O6 0.424466 0.233728 0.609857
O O7 0.480469 0.291924 0.744805
O O8 0.594327 0.409902 0.834041
O O9 0.744817 0.500000 0.436460
O O10 0.800097 0.411956 0.562974
O O11 0.000000 0.500000 0.500000
O O12 0.500000 0.500000 0.500000
O O13 0.250000 0.250000 0.500000
O O14 0.856195 0.263208 0.142256
O O15 0.597710 0.296622 0.112091
O O16 0.750000 0.250000 0.000000
#
# Coordination Sequence:
#
# PCOD8114479 Si02
#       8
#     4   8   4   4   4   8   8   8
#     4   9  18  34  61  88 112 155 206 246 287 355
#     4  12  24  40  62  94 128 163 204 271 317 371
#     4   9  17  35  60  86 113 153 205 242 288 366
#     4  12  24  40  63  96 120 156 218 263 304 368
#     4  12  21  43  67  93 122 169 225 256 307 387
#     4  12  23  41  64  88 122 164 215 254 310 378
#     4  11  21  40  64  89 122 163 212 253 301 386
#     4  11  23  39  61  94 124 159 202 258 323 362
#
# _framework density 19.353584999999999
#
# number of rings (size 3 to 8) (size 9 to 14) (size 15 to 20)
#    0.000    0.833    5.000    3.500    0.000    0.000 
#    0.000    3.333    0.000    0.000    0.000    0.000 
#    0.000    0.000    0.000    0.000    0.000    0.000 
#
# Total GULP energy -297662.985677 kJ/mol
# GULP energy per Si atom -12402.624403 kJ/mol
# Density = 1.930954 g / cm^3
# Si number density = 19.353585 Si / 1000 Ang^3
#
#
#
# Elastic Constant Matrix: (Units=GPa)
#
#
# Indices 1 2 3 4 5 6 
#
# 1 90.5766 36.1584 20.2941 0.0000 3.6170 0.0000
# 2 36.1584 160.0010 45.5198 0.0000 13.8216 0.0000
# 3 20.2941 45.5198 109.5393 0.0000 11.4305 0.0000
# 4 0.0000 0.0000 0.0000 30.8435 0.0000 7.9501
# 5 3.6170 13.8216 11.4305 0.0000 35.8671 0.0000
# 6 0.0000 0.0000 0.0000 7.9501 0.0000 33.3729
#
#
#
# Elastic Compliance Matrix: (Units=1/GPa)
#
#
# Indices 1 2 3 4 5 6 
#
# 1 0.012290 -0.002422 -0.001281 0.000000 0.000102 0.000000
# 2 -0.002422 0.007686 -0.002547 0.000000 -0.001906 0.000000
# 3 -0.001281 -0.002547 0.010663 0.000000 -0.002288 0.000000
# 4 0.000000 0.000000 0.000000 0.034543 0.000000 -0.008229
# 5 0.000102 -0.001906 -0.002288 0.000000 0.029334 0.000000
# 6 0.000000 0.000000 0.000000 -0.008229 0.000000 0.031925
#
#
# Mechanical properties :
#
#
# Convention : Reuss Voigt Hill
#
# Bulk Modulus (GPa) = 55.12397 62.67350 58.89874
# Shear Modulus (GPa) = 34.48571 37.22633 35.85602
#
# Velocity S-wave (km/s) = 4.22581 4.39051 4.30895
# Velocity P-wave (km/s) = 7.23563 7.62600 7.43338
#
# Compressibility (1/GPa) = 0.01814093
#
# Stress axis : x y z
#
# Youngs Moduli (GPa) = 81.36601 130.09994 93.77799
#
# Poissons Ratio (x) = 0.31507 0.12015
# Poissons Ratio (y) = 0.19705 0.23881
# Poissons Ratio (z) = 0.10425 0.33131
#
# Static dielectric constant tensor:
#      x y z
#    x 3.612570 0.000000 0.081310 
#    y 0.000000 3.938760 0.000000 
#    z 0.081310 0.000000 3.540180 
# 
# 
# High freq. dielectric constant tensor:
#      x y z
#    x 1.748530 0.000000 0.006400 
#    y 0.000000 1.771550 0.000000 
#    z 0.006400 0.000000 1.748380 
# 
# From -- ./inp_files/255847.got.cif
#   From: 2010.06.25/outbox.cif.g09.slc.cpg/sg12_128_cif.got.tgz:255847.got - 2010.06.28 00:19:55.
