data_PCOD8114002
_publ_section_title
;
Structure prediction by ZEFSAII (Michael W. Deem and Ramdas Pophale) SiO2 
 PCOD8114002
Probable space group: C 2/M
;
_chemical_formula_sum "Si O2"
_cell_formula_units_Z 48
_cell_length_a 11.314487
_cell_length_b 21.444447
_cell_length_c 8.972982
_cell_angle_alpha 90.000000
_cell_angle_beta 104.458314
_cell_angle_gamma 90.000000
_cell_volume 2108.189767
_symmetry_space_group_name_H-M "C 2/M"
_symmetry_group_IT_number 12
_symmetry_cell_setting 'monoclinic'
loop_
_space_group_symop_operation_xyz
x,y,z
-x,y,-z
-x,-y,-z
x,-y,z
1/2+x,1/2+y,z
1/2-x,1/2+y,-z
1/2-x,1/2-y,-z
1/2+x,1/2-y,z
loop_
_atom_site_type_symbol
_atom_site_label
_atom_site_fract_x
_atom_site_fract_y
_atom_site_fract_z
Si Si1 0.066174 0.927495 0.866098
Si Si2 0.703105 0.151183 0.009529
Si Si3 0.446710 0.070621 0.247428
Si Si4 0.690752 0.928642 0.490976
Si Si5 0.585367 0.346940 0.396443
Si Si6 0.877328 0.769169 0.871867
O O1 0.979264 0.903383 0.709537
O O2 0.087448 0.000000 0.851263
O O3 0.198399 0.896204 0.893036
O O4 0.000000 0.911730 0.000000
O O5 0.590403 0.114535 0.900912
O O6 0.762922 0.193519 0.900618
O O7 0.650113 0.195385 0.123641
O O8 0.351887 0.078320 0.352340
O O9 0.582202 0.087979 0.343353
O O10 0.442792 0.000000 0.187879
O O11 0.794497 0.877484 0.493460
O O12 0.735415 0.000000 0.478146
O O13 0.500000 0.320344 0.500000
O O14 0.609810 0.287830 0.297117
O O15 0.000000 0.787402 0.000000
#
# Coordination Sequence:
#
# PCOD8114002 Si02
#       6
#     8   8   8   8   8   8
#     4  11  21  39  71 107 139 174 224 284 349 416
#     4  11  20  39  74  94 132 176 234 293 333 405
#     4   9  17  34  65 104 138 176 222 281 352 417
#     4   9  18  34  59  98 149 184 216 269 348 427
#     4  12  23  41  66  98 142 183 231 283 347 420
#     4  11  23  44  68  93 129 181 242 283 339 397
#
# _framework density 22.768350000000002
#
# number of rings (size 3 to 8) (size 9 to 14) (size 15 to 20)
#    0.000    1.500    5.000    2.000    0.000    4.000 
#    3.000    0.833    3.667    1.000    0.000    0.000 
#    0.000    2.667    0.000    0.000    0.000    0.000 
#
# Total GULP energy -297682.063782 kJ/mol
# GULP energy per Si atom -12403.419324 kJ/mol
# Density = 2.271653 g / cm^3
# Si number density = 22.768350 Si / 1000 Ang^3
#
#
#
# Elastic Constant Matrix: (Units=GPa)
#
#
# Indices 1 2 3 4 5 6 
#
# 1 112.3584 71.3224 63.9039 0.0000 6.0095 0.0000
# 2 71.3224 145.6659 66.8640 0.0000 3.1051 0.0000
# 3 63.9039 66.8640 74.5478 0.0000 4.6565 0.0000
# 4 0.0000 0.0000 0.0000 -9.7533 0.0000 8.2007
# 5 6.0095 3.1051 4.6565 0.0000 40.4700 0.0000
# 6 0.0000 0.0000 0.0000 8.2007 0.0000 33.6501
#
#
#
# Elastic Compliance Matrix: (Units=1/GPa)
#
#
# Indices 1 2 3 4 5 6 
#
# 1 0.018126 -0.002975 -0.012808 0.000000 -0.000990 0.000000
# 2 -0.002975 0.012162 -0.008388 0.000000 0.000474 0.000000
# 3 -0.012808 -0.008388 0.031987 0.000000 -0.001135 0.000000
# 4 0.000000 0.000000 0.000000 -0.085093 0.000000 0.020738
# 5 -0.000990 0.000474 -0.001135 0.000000 0.024951 0.000000
# 6 0.000000 0.000000 0.000000 0.020738 0.000000 0.024664
#
#
# Mechanical properties :
#
#
# Convention : Reuss Voigt Hill
#
# Bulk Modulus (GPa) = 71.76548 81.86140 76.81344
# Shear Modulus (GPa) = 62.67088 21.57216 42.12152
#
# Velocity S-wave (km/s) = 5.25216 3.08143 4.30583
# Velocity P-wave (km/s) = 8.26853 6.97799 7.65052
#
# Compressibility (1/GPa) = 0.01393428
#
# Stress axis : x y z
#
# Youngs Moduli (GPa) = 55.16997 82.22637 31.26230
#
# Poissons Ratio (x) = 0.24460 0.40040
# Poissons Ratio (y) = 0.16412 0.26222
# Poissons Ratio (z) = 0.70661 0.68968
#
# Static dielectric constant tensor:
#      x y z
#    x 4.191870 0.000000 0.033380 
#    y 0.000000 4.066100 0.000000 
#    z 0.033380 0.000000 3.871380 
# 
# 
# High freq. dielectric constant tensor:
#      x y z
#    x 1.904700 0.000000 0.008230 
#    y 0.000000 1.899280 0.000000 
#    z 0.008230 0.000000 1.882990 
# 
# From -- ./inp_files/50790.got.cif
#   From: 2010.06.25/outbox.cif.g09.slc.cpg/sg12_26_cif.got.tgz:50790.got - 2010.06.28 00:19:55.
