data_PCOD8114157
_publ_section_title
;
Structure prediction by ZEFSAII (Michael W. Deem and Ramdas Pophale) SiO2 
 PCOD8114157
Probable space group: C 2/M
;
_chemical_formula_sum "Si O2"
_cell_formula_units_Z 64
_cell_length_a 27.393610
_cell_length_b 9.325751
_cell_length_c 20.350304
_cell_angle_alpha 90.000000
_cell_angle_beta 47.002580
_cell_angle_gamma 90.000000
_cell_volume 3802.328936
_symmetry_space_group_name_H-M "C 2/M"
_symmetry_group_IT_number 12
_symmetry_cell_setting 'monoclinic'
loop_
_space_group_symop_operation_xyz
x,y,z
-x,y,-z
-x,-y,-z
x,-y,z
1/2+x,1/2+y,z
1/2-x,1/2+y,-z
1/2-x,1/2-y,-z
1/2+x,1/2-y,z
loop_
_atom_site_type_symbol
_atom_site_label
_atom_site_fract_x
_atom_site_fract_y
_atom_site_fract_z
Si Si1 0.420600 0.158489 0.620832
Si Si2 0.435510 0.333040 0.340616
Si Si3 0.211830 0.330774 0.091811
Si Si4 0.751440 0.335290 0.319684
Si Si5 0.691896 0.170387 0.593312
Si Si6 0.736259 0.840751 0.213483
Si Si7 0.940067 0.330353 0.748137
Si Si8 0.398881 0.662459 0.523063
O O1 0.341153 0.157764 0.698151
O O2 0.448268 0.219003 0.664396
O O3 0.442149 0.249061 0.536761
O O4 0.448382 0.000000 0.583882
O O5 0.432748 0.500000 0.321405
O O6 0.378619 0.241850 0.357481
O O7 0.506924 0.260987 0.257495
O O8 0.428302 0.315579 0.424706
O O9 0.221338 0.500000 0.075407
O O10 0.243227 0.279939 0.132840
O O11 0.133649 0.291513 0.158785
O O12 0.250000 0.250000 0.000000
O O13 0.752504 0.500000 0.298994
O O14 0.799333 0.303714 0.337050
O O15 0.775537 0.252623 0.231832
O O16 0.677705 0.285788 0.409207
O O17 0.750000 0.250000 0.500000
O O18 0.693248 0.000000 0.575273
O O19 0.766450 0.000000 0.189312
O O20 0.953778 0.500000 0.742461
O O21 0.402921 0.500000 0.543212
#
# Coordination Sequence:
#
# PCOD8114157 Si02
#       8
#     8   8   8   8   8   8   8   8
#     4   8  15  28  45  63  87 122 164 197 232 283
#     4  11  22  34  46  66  95 128 170 211 248 292
#     4   9  18  33  54  79 106 129 158 194 236 295
#     4   9  17  30  46  66  94 126 163 208 247 285
#     4  11  21  34  50  69  95 129 172 217 256 290
#     4   8  15  28  46  71  98 125 157 196 237 286
#     4   9  19  35  49  67  97 129 160 200 242 290
#     4   9  17  29  42  61  91 123 161 206 244 277
#
# _framework density 16.831789000000001
#
# number of rings (size 3 to 8) (size 9 to 14) (size 15 to 20)
#    0.000    2.750    1.250    2.250    0.000    4.000 
#    0.000    5.000    0.000    0.000    0.000    0.875 
#    0.000    7.000    0.000    0.000    0.000    0.000 
#
# Total GULP energy -396606.283655 kJ/mol
# GULP energy per Si atom -12393.946364 kJ/mol
# Density = 1.679348 g / cm^3
# Si number density = 16.831789 Si / 1000 Ang^3
#
#
#
# Elastic Constant Matrix: (Units=GPa)
#
#
# Indices 1 2 3 4 5 6 
#
# 1 106.5765 65.5036 42.3055 -0.0018 -0.1582 0.0008
# 2 65.5036 85.5943 38.8585 -0.0008 3.9936 0.0040
# 3 42.3055 38.8585 71.3674 -0.0039 9.4964 0.0028
# 4 -0.0018 -0.0008 -0.0039 24.5147 0.0026 5.4001
# 5 -0.1582 3.9936 9.4964 0.0026 18.4410 -0.0010
# 6 0.0008 0.0040 0.0028 5.4001 -0.0010 29.2457
#
#
#
# Elastic Compliance Matrix: (Units=1/GPa)
#
#
# Indices 1 2 3 4 5 6 
#
# 1 0.019215 -0.012561 -0.005297 -0.000001 0.005613 0.000002
# 2 -0.012561 0.023751 -0.005139 0.000000 -0.002605 -0.000002
# 3 -0.005297 -0.005139 0.021266 0.000004 -0.009883 -0.000002
# 4 -0.000001 0.000000 0.000004 0.042521 -0.000009 -0.007851
# 5 0.005613 -0.002605 -0.009883 -0.000009 0.059929 0.000005
# 6 0.000002 -0.000002 -0.000002 -0.007851 0.000005 0.035643
#
#
# Mechanical properties :
#
#
# Convention : Reuss Voigt Hill
#
# Bulk Modulus (GPa) = 54.84023 61.87483 58.35753
# Shear Modulus (GPa) = 19.65426 22.23165 20.94295
#
# Velocity S-wave (km/s) = 3.42085 3.63824 3.53122
# Velocity P-wave (km/s) = 6.94658 7.38171 7.16745
#
# Compressibility (1/GPa) = 0.01823479
#
# Stress axis : x y z
#
# Youngs Moduli (GPa) = 52.04399 42.10425 47.02444
#
# Poissons Ratio (x) = 0.52889 0.24911
# Poissons Ratio (y) = 0.65374 0.24166
# Poissons Ratio (z) = 0.27570 0.21638
#
# Static dielectric constant tensor:
#      x y z
#    x 3.236330 0.000000 0.125030 
#    y 0.000000 3.272020 0.000000 
#    z 0.125030 0.000000 2.884920 
# 
# 
# High freq. dielectric constant tensor:
#      x y z
#    x 1.645940 0.000000 0.007010 
#    y 0.000000 1.651520 0.000000 
#    z 0.007010 0.000000 1.610820 
# 
# From -- ./inp_files/326895.got.cif
#   From: 2010.06.25/outbox.cif.g09.slc.cpg/sg12_164_cif.got.tgz:326895.got - 2010.06.28 00:19:55.
