data_PCOD8114066
_publ_section_title
;
Structure prediction by ZEFSAII (Michael W. Deem and Ramdas Pophale) SiO2 
 PCOD8114066
Probable space group: C 2/M
;
_chemical_formula_sum "Si O2"
_cell_formula_units_Z 56
_cell_length_a 25.059880
_cell_length_b 9.132842
_cell_length_c 18.614322
_cell_angle_alpha 90.000000
_cell_angle_beta 53.366323
_cell_angle_gamma 90.000000
_cell_volume 3418.686495
_symmetry_space_group_name_H-M "C 2/M"
_symmetry_group_IT_number 12
_symmetry_cell_setting 'monoclinic'
loop_
_space_group_symop_operation_xyz
x,y,z
-x,y,-z
-x,-y,-z
x,-y,z
1/2+x,1/2+y,z
1/2-x,1/2+y,-z
1/2-x,1/2-y,-z
1/2+x,1/2-y,z
loop_
_atom_site_type_symbol
_atom_site_label
_atom_site_fract_x
_atom_site_fract_y
_atom_site_fract_z
Si Si1 0.944011 0.827191 0.740594
Si Si2 0.241421 0.662968 0.898193
Si Si3 0.348702 0.338458 0.937354
Si Si4 0.674445 0.666569 0.408536
Si Si5 0.206827 0.668433 0.593011
Si Si6 0.659112 0.826271 0.276788
Si Si7 0.903812 0.169808 0.383137
O O1 0.915775 0.786928 0.842665
O O2 0.905265 0.737614 0.711120
O O3 0.020188 0.778256 0.676212
O O4 0.933957 0.000000 0.733451
O O5 0.228098 0.500000 0.878621
O O6 0.291224 0.656716 0.924403
O O7 0.272495 0.762478 0.810729
O O8 0.171235 0.729939 0.981951
O O9 0.358339 0.500000 0.962908
O O10 0.660264 0.500000 0.394530
O O11 0.753212 0.683950 0.363990
O O12 0.654572 0.780389 0.363286
O O13 0.628961 0.704441 0.513718
O O14 0.199841 0.500000 0.576486
O O15 0.250000 0.750000 0.500000
O O16 0.133809 0.742431 0.650762
O O17 0.659674 0.000000 0.268762
O O18 0.898222 0.000000 0.368335
#
# Coordination Sequence:
#
# PCOD8114066 Si02
#       7
#     8   8   8   8   8   8   8
#     4   9  18  32  47  65  93 126 153 179 219 271
#     4   9  16  27  43  61  85 116 147 182 224 267
#     4   8  14  25  42  63  86 113 147 183 216 257
#     4   9  18  32  47  64  89 121 153 184 223 268
#     4   9  17  30  49  69  88 113 148 191 231 265
#     4  11  21  30  43  65  92 121 154 190 224 263
#     4   9  18  32  50  69  90 120 154 186 222 265
#
# _framework density 16.380559999999999
#
# number of rings (size 3 to 8) (size 9 to 14) (size 15 to 20)
#    0.000    2.857    0.000    3.857    0.000    7.429 
#    0.000    2.857    0.000    0.000    0.000    1.000 
#    0.000    8.000    0.000    0.000    0.000    0.000 
#
# Total GULP energy -347046.880100 kJ/mol
# GULP energy per Si atom -12394.531432 kJ/mol
# Density = 1.634328 g / cm^3
# Si number density = 16.380560 Si / 1000 Ang^3
#
#
#
# Elastic Constant Matrix: (Units=GPa)
#
#
# Indices 1 2 3 4 5 6 
#
# 1 68.3923 46.0441 49.5232 0.0002 -20.3649 0.0001
# 2 46.0441 98.7585 43.7836 0.0016 -14.8722 -0.0007
# 3 49.5232 43.7836 89.7465 0.0009 -20.9955 -0.0005
# 4 0.0002 0.0016 0.0009 25.3559 -0.0009 -0.1817
# 5 -20.3649 -14.8722 -20.9955 -0.0009 8.0295 0.0002
# 6 0.0001 -0.0007 -0.0005 -0.1817 0.0002 25.1715
#
#
#
# Elastic Compliance Matrix: (Units=1/GPa)
#
#
# Indices 1 2 3 4 5 6 
#
# 1 0.065648 -0.008236 0.008178 0.000006 0.172631 -0.000002
# 2 -0.008236 0.015213 -0.003018 -0.000001 -0.000603 0.000000
# 3 0.008178 -0.003018 0.029995 0.000002 0.093584 0.000000
# 4 0.000006 -0.000001 0.000002 0.039441 0.000024 0.000285
# 5 0.172631 -0.000603 0.093584 0.000024 0.805967 -0.000005
# 6 -0.000002 0.000000 0.000000 0.000285 -0.000005 0.039730
#
#
# Mechanical properties :
#
#
# Convention : Reuss Voigt Hill
#
# Bulk Modulus (GPa) = 9.55067 59.51103 34.53085
# Shear Modulus (GPa) = 4.82139 19.54782 12.18460
#
# Velocity S-wave (km/s) = 1.71748 3.45824 2.73031
# Velocity P-wave (km/s) = 3.12668 7.23568 5.57365
#
# Compressibility (1/GPa) = 0.10470473
#
# Stress axis : x y z
#
# Youngs Moduli (GPa) = 15.23271 65.73429 33.33868
#
# Poissons Ratio (x) = 0.54139 -0.27266
# Poissons Ratio (y) = 0.12546 0.10062
# Poissons Ratio (z) = -0.12458 0.19839
#
# Static dielectric constant tensor:
#      x y z
#    x 3.336330 0.000000 -0.322370 
#    y 0.000000 3.258230 0.000000 
#    z -0.322370 0.000000 3.208800 
# 
# 
# High freq. dielectric constant tensor:
#      x y z
#    x 1.593000 0.000000 -0.010320 
#    y 0.000000 1.636870 0.000000 
#    z -0.010320 0.000000 1.618530 
# 
# From -- ./inp_files/287921.got.cif
#   From: 2010.06.25/outbox.cif.g09.slc.cpg/sg12_144_cif.got.tgz:287921.got - 2010.06.28 00:19:55.
