data_PCOD8114892
_publ_section_title
;
Structure prediction by ZEFSAII (Michael W. Deem and Ramdas Pophale) SiO2 
 PCOD8114892
Probable space group: C 2/M
;
_chemical_formula_sum "Si O2"
_cell_formula_units_Z 64
_cell_length_a 9.850099
_cell_length_b 26.916975
_cell_length_c 14.531578
_cell_angle_alpha 90.000000
_cell_angle_beta 58.713883
_cell_angle_gamma 90.000000
_cell_volume 3292.567828
_symmetry_space_group_name_H-M "C 2/M"
_symmetry_group_IT_number 12
_symmetry_cell_setting 'monoclinic'
loop_
_space_group_symop_operation_xyz
x,y,z
-x,y,-z
-x,-y,-z
x,-y,z
1/2+x,1/2+y,z
1/2-x,1/2+y,-z
1/2-x,1/2-y,-z
1/2+x,1/2-y,z
loop_
_atom_site_type_symbol
_atom_site_label
_atom_site_fract_x
_atom_site_fract_y
_atom_site_fract_z
Si Si1 0.129549 0.445191 0.819625
Si Si2 0.284219 0.650421 0.718518
Si Si3 0.280725 0.945261 0.002663
Si Si4 0.127232 0.189290 0.632866
Si Si5 0.180786 0.713081 0.913506
Si Si6 0.132662 0.303237 0.597356
Si Si7 0.787505 0.691341 0.766215
Si Si8 0.833718 0.153389 0.020612
O O1 0.145956 0.500000 0.768676
O O2 0.229445 0.406594 0.721386
O O3 0.944467 0.430672 0.894060
O O4 0.202936 0.446954 0.894628
O O5 0.473656 0.655394 0.666461
O O6 0.185128 0.665831 0.844315
O O7 0.235756 0.684989 0.651025
O O8 0.154603 0.901677 0.025937
O O9 0.222253 0.000000 0.989492
O O10 0.105094 0.244269 0.600141
O O11 0.281059 0.170953 0.520690
O O12 0.155206 0.188417 0.732697
O O13 0.276026 0.755992 0.824870
O O14 0.271728 0.697069 0.974853
O O15 0.000000 0.727458 0.000000
O O16 0.954671 0.323150 0.662824
O O17 0.770763 0.649407 0.850014
O O18 0.000000 0.173250 0.000000
#
# Coordination Sequence:
#
# PCOD8114892 Si02
#       8
#     8   8   8   8   8   8   8   8
#     4   9  18  34  60  87 114 151 195 238 283 343
#     4  12  21  36  62  86 117 150 192 239 295 343
#     4   9  18  35  56  82 115 153 194 233 275 335
#     4  11  23  39  57  82 109 144 196 249 289 335
#     4  12  23  38  54  79 117 160 197 226 272 348
#     4  11  22  39  59  80 108 147 195 244 289 341
#     4  12  24  38  54  77 114 159 193 231 281 345
#     4  12  25  35  54  84 122 155 187 231 286 345
#
# _framework density 19.437716000000002
#
# number of rings (size 3 to 8) (size 9 to 14) (size 15 to 20)
#    0.000    1.000    3.750    5.250    0.000    2.250 
#    0.000    0.000    0.000    1.500    0.000    0.000 
#    0.000    5.000    0.000    0.000    0.000    0.000 
#
# Total GULP energy -396619.762987 kJ/mol
# GULP energy per Si atom -12394.367593 kJ/mol
# Density = 1.939347 g / cm^3
# Si number density = 19.437716 Si / 1000 Ang^3
#
#
#
# Elastic Constant Matrix: (Units=GPa)
#
#
# Indices 1 2 3 4 5 6 
#
# 1 92.0422 25.1082 20.0094 0.0000 0.9645 0.0000
# 2 25.1082 71.6420 16.8753 0.0000 -11.1726 0.0000
# 3 20.0094 16.8753 81.8377 0.0000 -9.3023 0.0000
# 4 0.0000 0.0000 0.0000 17.2624 0.0000 -3.9477
# 5 0.9645 -11.1726 -9.3023 0.0000 29.5526 0.0000
# 6 0.0000 0.0000 0.0000 -3.9477 0.0000 19.7670
#
#
#
# Elastic Compliance Matrix: (Units=1/GPa)
#
#
# Indices 1 2 3 4 5 6 
#
# 1 0.012605 -0.004263 -0.002523 0.000000 -0.002817 0.000000
# 2 -0.004263 0.016789 -0.001745 0.000000 0.005937 0.000000
# 3 -0.002523 -0.001745 0.013618 0.000000 0.003709 0.000000
# 4 0.000000 0.000000 0.000000 0.060702 0.000000 0.012123
# 5 -0.002817 0.005937 0.003709 0.000000 0.037342 0.000000
# 6 0.000000 0.000000 0.000000 0.012123 0.000000 0.053010
#
#
# Mechanical properties :
#
#
# Convention : Reuss Voigt Hill
#
# Bulk Modulus (GPa) = 38.53502 41.05640 39.79571
# Shear Modulus (GPa) = 22.75019 25.55167 24.15093
#
# Velocity S-wave (km/s) = 3.42484 3.62959 3.52870
# Velocity P-wave (km/s) = 5.95880 6.22360 6.09264
#
# Compressibility (1/GPa) = 0.02595042
#
# Stress axis : x y z
#
# Youngs Moduli (GPa) = 79.33047 59.56218 73.43406
#
# Poissons Ratio (x) = 0.25390 0.18529
# Poissons Ratio (y) = 0.33817 0.12813
# Poissons Ratio (z) = 0.20017 0.10393
#
# Static dielectric constant tensor:
#      x y z
#    x 3.451400 0.000000 -0.002030 
#    y 0.000000 3.738660 0.000000 
#    z -0.002030 0.000000 4.058900 
# 
# 
# High freq. dielectric constant tensor:
#      x y z
#    x 1.755570 0.000000 -0.002340 
#    y 0.000000 1.730750 0.000000 
#    z -0.002340 0.000000 1.750690 
# 
# From -- ./inp_files/200904.got.cif
#   From: 2010.06.25/outbox.cif.g09.slc.cpg/sg12_101_cif.got.tgz:200904.got - 2010.06.28 00:19:55.
