data_PCOD8114459
_publ_section_title
;
Structure prediction by ZEFSAII (Michael W. Deem and Ramdas Pophale) SiO2 
 PCOD8114459
Probable space group: C 2/M
;
_chemical_formula_sum "Si O2"
_cell_formula_units_Z 36
_cell_length_a 15.065244
_cell_length_b 13.541808
_cell_length_c 8.617565
_cell_angle_alpha 90.000000
_cell_angle_beta 84.437563
_cell_angle_gamma 90.000000
_cell_volume 1749.796474
_symmetry_space_group_name_H-M "C 2/M"
_symmetry_group_IT_number 12
_symmetry_cell_setting 'monoclinic'
loop_
_space_group_symop_operation_xyz
x,y,z
-x,y,-z
-x,-y,-z
x,-y,z
1/2+x,1/2+y,z
1/2-x,1/2+y,-z
1/2-x,1/2-y,-z
1/2+x,1/2-y,z
loop_
_atom_site_type_symbol
_atom_site_label
_atom_site_fract_x
_atom_site_fract_y
_atom_site_fract_z
Si Si1 0.100685 0.500000 0.434186
Si Si2 0.722811 0.207122 0.839562
Si Si3 0.237513 0.500000 0.695037
Si Si4 0.113329 0.712406 0.353287
Si Si5 0.069028 0.210576 0.691474
Si Si6 0.594823 0.500000 0.561348
O O1 0.161711 0.500000 0.577164
O O2 0.116180 0.595062 0.322144
O O3 0.000000 0.500000 0.500000
O O4 0.727748 0.089701 0.818242
O O5 0.789295 0.248580 0.699298
O O6 0.622327 0.245335 0.827664
O O7 0.750000 0.250000 0.000000
O O8 0.331544 0.500000 0.586995
O O9 0.096642 0.726638 0.537469
O O10 0.037430 0.771521 0.266913
O O11 0.098742 0.096711 0.668441
O O12 0.500000 0.500000 0.500000
#
# Coordination Sequence:
#
# PCOD8114459 Si02
#       6
#     4   8   4   8   8   4
#     4  12  20  35  67  95 117 149 204 258 304 344
#     4  12  26  41  59  88 130 163 198 242 299 369
#     4  12  22  38  64  86 118 164 198 246 304 352
#     4  11  21  39  64  93 118 154 205 254 298 346
#     4  11  21  39  64  93 118 154 205 254 298 346
#     4  12  20  35  67  95 117 149 204 258 304 344
#
# _framework density 20.573820000000001
#
# number of rings (size 3 to 8) (size 9 to 14) (size 15 to 20)
#    0.000    0.444    8.889    2.000    0.000    2.667 
#    0.000    0.000    0.000    8.000    0.000    0.000 
#    0.000    0.000    0.000    0.000    0.000    0.000 
#
# Total GULP energy -223152.005626 kJ/mol
# GULP energy per Si atom -12397.333646 kJ/mol
# Density = 2.052699 g / cm^3
# Si number density = 20.573820 Si / 1000 Ang^3
#
#
#
# Elastic Constant Matrix: (Units=GPa)
#
#
# Indices 1 2 3 4 5 6 
#
# 1 104.3960 21.1800 27.0242 0.0000 25.4441 0.0000
# 2 21.1800 188.9888 27.6960 0.0000 10.8446 0.0000
# 3 27.0242 27.6960 55.9797 0.0000 25.6628 0.0000
# 4 0.0000 0.0000 0.0000 20.3093 0.0000 3.9427
# 5 25.4441 10.8446 25.6628 0.0000 31.0713 0.0000
# 6 0.0000 0.0000 0.0000 3.9427 0.0000 30.4134
#
#
#
# Elastic Compliance Matrix: (Units=1/GPa)
#
#
# Indices 1 2 3 4 5 6 
#
# 1 0.012187 -0.000631 -0.001766 0.000000 -0.008302 0.000000
# 2 -0.000631 0.005743 -0.002985 0.000000 0.000977 0.000000
# 3 -0.001766 -0.002985 0.030662 0.000000 -0.022837 0.000000
# 4 0.000000 0.000000 0.000000 0.050510 0.000000 -0.006548
# 5 -0.008302 0.000977 -0.022837 0.000000 0.057503 0.000000
# 6 0.000000 0.000000 0.000000 -0.006548 0.000000 0.033729
#
#
# Mechanical properties :
#
#
# Convention : Reuss Voigt Hill
#
# Bulk Modulus (GPa) = 26.43415 55.68499 41.05957
# Shear Modulus (GPa) = 23.39645 34.58975 28.99310
#
# Velocity S-wave (km/s) = 3.37589 4.10475 3.75803
# Velocity P-wave (km/s) = 5.29829 7.04202 6.23145
#
# Compressibility (1/GPa) = 0.03782985
#
# Stress axis : x y z
#
# Youngs Moduli (GPa) = 82.05281 174.11334 32.61346
#
# Poissons Ratio (x) = 0.10981 0.05758
# Poissons Ratio (y) = 0.05175 0.09736
# Poissons Ratio (z) = 0.14487 0.51976
#
# Static dielectric constant tensor:
#      x y z
#    x 4.236900 0.000000 0.080660 
#    y 0.000000 3.157710 0.000000 
#    z 0.080660 0.000000 3.175280 
# 
# 
# High freq. dielectric constant tensor:
#      x y z
#    x 1.828060 0.000000 0.011290 
#    y 0.000000 1.829330 0.000000 
#    z 0.011290 0.000000 1.749590 
# 
# From -- ./inp_files/58556.got.cif
#   From: 2010.06.25/outbox.cif.g09.slc.cpg/sg12_30_cif.got.tgz:58556.got - 2010.06.28 00:19:55.
