data_PCOD8114871
_publ_section_title
;
Structure prediction by ZEFSAII (Michael W. Deem and Ramdas Pophale) SiO2 
 PCOD8114871
Probable space group: C 2/M
;
_chemical_formula_sum "Si O2"
_cell_formula_units_Z 48
_cell_length_a 27.797854
_cell_length_b 15.522612
_cell_length_c 14.492851
_cell_angle_alpha 90.000000
_cell_angle_beta 21.154760
_cell_angle_gamma 90.000000
_cell_volume 2256.850076
_symmetry_space_group_name_H-M "C 2/M"
_symmetry_group_IT_number 12
_symmetry_cell_setting 'monoclinic'
loop_
_space_group_symop_operation_xyz
x,y,z
-x,y,-z
-x,-y,-z
x,-y,z
1/2+x,1/2+y,z
1/2-x,1/2+y,-z
1/2-x,1/2-y,-z
1/2+x,1/2-y,z
loop_
_atom_site_type_symbol
_atom_site_label
_atom_site_fract_x
_atom_site_fract_y
_atom_site_fract_z
Si Si1 0.011042 0.145808 0.844172
Si Si2 0.213179 0.095942 0.629750
Si Si3 0.902213 0.740126 0.756827
Si Si4 0.505310 0.160745 0.881316
Si Si5 0.546257 0.402473 0.575109
Si Si6 0.849310 0.597310 0.996071
O O1 0.143692 0.142830 0.668401
O O2 0.959606 0.243399 0.937554
O O3 0.049132 0.107314 0.678982
O O4 0.889611 0.089783 0.101460
O O5 0.344146 0.148241 0.423938
O O6 0.255591 0.000000 0.524994
O O7 0.000000 0.710330 0.500000
O O8 0.943138 0.835253 0.717051
O O9 0.750000 0.750000 0.000000
O O10 0.920400 0.667543 0.803287
O O11 0.500000 0.139343 0.000000
O O12 0.406581 0.101173 0.998170
O O13 0.502599 0.500000 0.627064
O O14 0.692646 0.382182 0.275095
O O15 0.875042 0.500000 0.913455
#
# Coordination Sequence:
#
# PCOD8114871 Si02
#       6
#     8   8   8   8   8   8
#     4  11  22  38  64  92 130 183 232 276 338 404
#     4  11  23  38  58  92 134 177 233 283 329 399
#     4  12  26  48  77 105 138 180 229 293 359 417
#     4  12  24  39  66  98 138 183 229 280 345 404
#     4  11  24  44  73 102 137 180 229 281 352 426
#     4  11  26  46  70 104 143 183 231 289 347 419
#
# _framework density 21.268581999999999
#
# number of rings (size 3 to 8) (size 9 to 14) (size 15 to 20)
#    0.000    0.667    5.000    4.000    2.333    5.333 
#    0.000    1.667    0.000    0.000    0.000    0.000 
#    0.000    0.000    0.000    0.000    0.000    0.000 
#
# Total GULP energy -297664.913434 kJ/mol
# GULP energy per Si atom -12402.704726 kJ/mol
# Density = 2.122017 g / cm^3
# Si number density = 21.268582 Si / 1000 Ang^3
#
#
#
# Elastic Constant Matrix: (Units=GPa)
#
#
# Indices 1 2 3 4 5 6 
#
# 1 82.9440 54.9505 49.0421 0.0000 2.9216 -0.0001
# 2 54.9505 135.5246 53.5582 0.0000 -1.3081 -0.0001
# 3 49.0421 53.5582 99.2037 0.0000 -4.4401 -0.0001
# 4 0.0000 0.0000 0.0000 30.7050 0.0000 -5.4290
# 5 2.9216 -1.3081 -4.4401 0.0000 43.2983 0.0001
# 6 -0.0001 -0.0001 -0.0001 -5.4290 0.0001 17.8455
#
#
#
# Elastic Compliance Matrix: (Units=1/GPa)
#
#
# Indices 1 2 3 4 5 6 
#
# 1 0.019781 -0.005260 -0.007038 0.000000 -0.002215 0.000000
# 2 -0.005260 0.010781 -0.003204 0.000000 0.000352 0.000000
# 3 -0.007038 -0.003204 0.015377 0.000000 0.001955 0.000000
# 4 0.000000 0.000000 0.000000 0.034419 0.000000 0.010471
# 5 -0.002215 0.000352 0.001955 0.000000 0.023456 0.000000
# 6 0.000000 0.000000 0.000000 0.010471 0.000000 0.059222
#
#
# Mechanical properties :
#
#
# Convention : Reuss Voigt Hill
#
# Bulk Modulus (GPa) = 66.96279 70.30823 68.63551
# Shear Modulus (GPa) = 25.12308 29.04450 27.08379
#
# Velocity S-wave (km/s) = 3.44063 3.69942 3.57237
# Velocity P-wave (km/s) = 6.88016 7.16775 7.02543
#
# Compressibility (1/GPa) = 0.01493367
#
# Stress axis : x y z
#
# Youngs Moduli (GPa) = 50.55440 92.75230 65.03226
#
# Poissons Ratio (x) = 0.48792 0.45769
# Poissons Ratio (y) = 0.26594 0.20839
# Poissons Ratio (z) = 0.35580 0.29721
#
# Static dielectric constant tensor:
#      x y z
#    x 3.775870 0.000000 0.085280 
#    y 0.000000 4.008870 0.000000 
#    z 0.085280 0.000000 3.860540 
# 
# 
# High freq. dielectric constant tensor:
#      x y z
#    x 1.826890 0.000000 -0.000930 
#    y 0.000000 1.848160 0.000000 
#    z -0.000930 0.000000 1.835670 
# 
# From -- ./inp_files/251389.got.cif
#   From: 2010.06.25/outbox.cif.g09.slc.cpg/sg12_126_cif.got.tgz:251389.got - 2010.06.28 00:19:55.
