data_PCOD8114279
_publ_section_title
;
Structure prediction by ZEFSAII (Michael W. Deem and Ramdas Pophale) SiO2 
 PCOD8114279
Probable space group: C 2/M
;
_chemical_formula_sum "Si O2"
_cell_formula_units_Z 56
_cell_length_a 14.352932
_cell_length_b 8.354766
_cell_length_c 29.537215
_cell_angle_alpha 90.000000
_cell_angle_beta 126.853249
_cell_angle_gamma 90.000000
_cell_volume 2834.190686
_symmetry_space_group_name_H-M "C 2/M"
_symmetry_group_IT_number 12
_symmetry_cell_setting 'monoclinic'
loop_
_space_group_symop_operation_xyz
x,y,z
-x,y,-z
-x,-y,-z
x,-y,z
1/2+x,1/2+y,z
1/2-x,1/2+y,-z
1/2-x,1/2-y,-z
1/2+x,1/2-y,z
loop_
_atom_site_type_symbol
_atom_site_label
_atom_site_fract_x
_atom_site_fract_y
_atom_site_fract_z
Si Si1 0.968572 0.314068 0.769959
Si Si2 0.444868 0.182746 0.439189
Si Si3 0.656640 0.183121 0.437932
Si Si4 0.429827 0.686268 0.854121
Si Si5 0.179242 0.313290 0.937156
Si Si6 0.809232 0.814473 0.647307
Si Si7 0.719953 0.686190 0.851461
O O1 0.989545 0.500000 0.785624
O O2 0.905574 0.237083 0.795213
O O3 0.887436 0.290800 0.703099
O O4 0.093101 0.234193 0.795986
O O5 0.500000 0.267707 0.500000
O O6 0.529282 0.196468 0.421694
O O7 0.321729 0.257900 0.388574
O O8 0.417132 0.000000 0.444925
O O9 0.750000 0.250000 0.500000
O O10 0.648808 0.293231 0.391745
O O11 0.687626 0.000000 0.434872
O O12 0.459367 0.500000 0.864246
O O13 0.542688 0.780009 0.905415
O O14 0.318206 0.720180 0.852354
O O15 0.200332 0.500000 0.937060
O O16 0.228159 0.225678 0.906920
O O17 0.250000 0.250000 0.000000
O O18 0.817797 0.000000 0.664161
O O19 0.740901 0.500000 0.849610
#
# Coordination Sequence:
#
# PCOD8114279 Si02
#       7
#     8   8   8   8   8   8   8
#     4  11  23  41  61  87 120 155 199 251 303 360
#     4   9  18  35  57  79 107 146 183 221 280 351
#     4  11  21  36  57  82 110 144 185 231 286 352
#     4  11  22  40  64  91 122 162 204 250 306 358
#     4  11  22  39  61  92 129 167 208 254 302 356
#     4  11  22  39  60  83 113 150 192 240 295 356
#     4  11  22  40  64  91 121 161 206 252 303 358
#
# _framework density 19.758727
#
# number of rings (size 3 to 8) (size 9 to 14) (size 15 to 20)
#    0.000    1.286    1.429    7.714    0.000    1.714 
#    0.000   10.714    0.000    0.000    0.000    0.000 
#    0.000    0.000    0.000    0.000    0.000    0.000 
#
# Total GULP energy -347293.158740 kJ/mol
# GULP energy per Si atom -12403.327098 kJ/mol
# Density = 1.971376 g / cm^3
# Si number density = 19.758727 Si / 1000 Ang^3
#
#
#
# Elastic Constant Matrix: (Units=GPa)
#
#
# Indices 1 2 3 4 5 6 
#
# 1 115.0907 7.3975 46.3355 0.0000 0.4309 0.0000
# 2 7.3975 81.9919 9.7860 0.0000 1.2006 0.0000
# 3 46.3355 9.7860 143.0184 0.0000 1.7212 0.0000
# 4 0.0000 0.0000 0.0000 31.0043 0.0000 -2.9694
# 5 0.4309 1.2006 1.7212 0.0000 18.4720 0.0000
# 6 0.0000 0.0000 0.0000 -2.9694 0.0000 31.9959
#
#
#
# Elastic Compliance Matrix: (Units=1/GPa)
#
#
# Indices 1 2 3 4 5 6 
#
# 1 0.010014 -0.000522 -0.003210 0.000000 0.000099 0.000000
# 2 -0.000522 0.012334 -0.000666 0.000000 -0.000727 0.000000
# 3 -0.003210 -0.000666 0.008085 0.000000 -0.000635 0.000000
# 4 0.000000 0.000000 0.000000 0.032543 0.000000 0.003020
# 5 0.000099 -0.000727 -0.000635 0.000000 0.054240 0.000000
# 6 0.000000 0.000000 0.000000 0.003020 0.000000 0.031534
#
#
# Mechanical properties :
#
#
# Convention : Reuss Voigt Hill
#
# Bulk Modulus (GPa) = 46.21637 51.90434 49.06035
# Shear Modulus (GPa) = 30.34740 34.73323 32.54031
#
# Velocity S-wave (km/s) = 3.92331 4.19724 4.06258
# Velocity P-wave (km/s) = 6.63055 7.05799 6.84761
#
# Compressibility (1/GPa) = 0.02163736
#
# Stress axis : x y z
#
# Youngs Moduli (GPa) = 99.85733 81.07960 123.68133
#
# Poissons Ratio (x) = 0.04231 0.39701
# Poissons Ratio (y) = 0.05211 0.08238
# Poissons Ratio (z) = 0.32054 0.05401
#
# Static dielectric constant tensor:
#      x y z
#    x 3.563660 0.000000 0.103560 
#    y 0.000000 3.703540 0.000000 
#    z 0.103560 0.000000 3.565110 
# 
# 
# High freq. dielectric constant tensor:
#      x y z
#    x 1.775460 0.000000 0.002460 
#    y 0.000000 1.775210 0.000000 
#    z 0.002460 0.000000 1.772710 
# 
# From -- ./inp_files/375143.got.cif
#   From: 2010.06.25/outbox.cif.g09.slc.cpg/sg12_188_cif.got.tgz:375143.got - 2010.06.28 00:19:55.
