data_PCOD8114115
_publ_section_title
;
Structure prediction by ZEFSAII (Michael W. Deem and Ramdas Pophale) SiO2 
 PCOD8114115
Probable space group: C 2/M
;
_chemical_formula_sum "Si O2"
_cell_formula_units_Z 56
_cell_length_a 18.971802
_cell_length_b 9.030176
_cell_length_c 22.769088
_cell_angle_alpha 90.000000
_cell_angle_beta 126.728247
_cell_angle_gamma 90.000000
_cell_volume 3126.393360
_symmetry_space_group_name_H-M "C 2/M"
_symmetry_group_IT_number 12
_symmetry_cell_setting 'monoclinic'
loop_
_space_group_symop_operation_xyz
x,y,z
-x,y,-z
-x,-y,-z
x,-y,z
1/2+x,1/2+y,z
1/2-x,1/2+y,-z
1/2-x,1/2-y,-z
1/2+x,1/2-y,z
loop_
_atom_site_type_symbol
_atom_site_label
_atom_site_fract_x
_atom_site_fract_y
_atom_site_fract_z
Si Si1 0.100324 0.173382 0.561777
Si Si2 0.473623 0.667315 0.853155
Si Si3 0.794020 0.163106 0.277950
Si Si4 0.311186 0.334569 0.861008
Si Si5 0.248529 0.323300 0.562345
Si Si6 0.865003 0.666783 0.710522
Si Si7 0.581496 0.166648 0.996556
O O1 0.121724 0.211105 0.640893
O O2 0.158587 0.275026 0.548836
O O3 0.000000 0.213551 0.500000
O O4 0.121179 0.000000 0.559708
O O5 0.498821 0.500000 0.848775
O O6 0.391809 0.669107 0.856391
O O7 0.450207 0.756605 0.782237
O O8 0.557439 0.743058 0.925888
O O9 0.776185 0.272642 0.214763
O O10 0.711727 0.161166 0.280331
O O11 0.808374 0.000000 0.258219
O O12 0.290611 0.500000 0.871689
O O13 0.333998 0.239042 0.929914
O O14 0.253192 0.500000 0.560409
O O15 0.250000 0.250000 0.500000
O O16 0.333801 0.264103 0.639768
O O17 0.889312 0.500000 0.702354
O O18 0.605838 0.000000 0.990635
O O19 0.500000 0.168788 0.000000
#
# Coordination Sequence:
#
# PCOD8114115 Si02
#       7
#     8   8   8   8   8   8   8
#     4   9  18  33  51  70  93 121 153 190 233 279
#     4   9  15  22  32  48  70  97 131 170 211 255
#     4   8  14  24  38  55  76 104 137 172 212 261
#     4   9  15  21  30  45  67  96 131 171 210 250
#     4  11  21  33  49  69  93 121 155 193 233 276
#     4   9  16  27  41  57  78 106 141 178 218 264
#     4   9  15  21  29  42  63  94 131 169 208 251
#
# _framework density 17.912013999999999
#
# number of rings (size 3 to 8) (size 9 to 14) (size 15 to 20)
#    0.000    2.857    0.000    3.857    0.000    8.857 
#    0.000    0.000    0.000    0.000    0.000    0.000 
#    0.000    0.000    0.000    1.286    0.000   17.714 
#
# Total GULP energy -347085.176143 kJ/mol
# GULP energy per Si atom -12395.899148 kJ/mol
# Density = 1.787125 g / cm^3
# Si number density = 17.912014 Si / 1000 Ang^3
#
#
#
# Elastic Constant Matrix: (Units=GPa)
#
#
# Indices 1 2 3 4 5 6 
#
# 1 11.8210 20.7399 26.7839 0.0000 2.0239 0.0000
# 2 20.7399 169.7323 94.9676 0.0000 3.6134 0.0000
# 3 26.7839 94.9676 186.9049 0.0000 15.1841 0.0000
# 4 0.0000 0.0000 0.0000 38.6463 0.0000 -0.9310
# 5 2.0239 3.6134 15.1841 0.0000 14.8137 0.0000
# 6 0.0000 0.0000 0.0000 -0.9310 0.0000 10.0800
#
#
#
# Elastic Compliance Matrix: (Units=1/GPa)
#
#
# Indices 1 2 3 4 5 6 
#
# 1 0.132212 -0.007790 -0.014917 0.000000 -0.000873 0.000000
# 2 -0.007790 0.008776 -0.003551 0.000000 0.002563 0.000000
# 3 -0.014917 -0.003551 0.009879 0.000000 -0.007222 0.000000
# 4 0.000000 0.000000 0.000000 0.025933 0.000000 0.002395
# 5 -0.000873 0.002563 -0.007222 0.000000 0.074401 0.000000
# 6 0.000000 0.000000 0.000000 0.002395 0.000000 0.099428
#
#
# Mechanical properties :
#
#
# Convention : Reuss Voigt Hill
#
# Bulk Modulus (GPa) = 10.16774 72.60456 41.38615
# Shear Modulus (GPa) = 11.46974 27.77244 19.62109
#
# Velocity S-wave (km/s) = 2.53324 3.94190 3.31330
# Velocity P-wave (km/s) = 3.77428 7.83199 6.14757
#
# Compressibility (1/GPa) = 0.09835029
#
# Stress axis : x y z
#
# Youngs Moduli (GPa) = 7.56359 113.95023 101.22590
#
# Poissons Ratio (x) = 0.88772 1.50999
# Poissons Ratio (y) = 0.05892 0.35944
# Poissons Ratio (z) = 0.11283 0.40463
#
# Static dielectric constant tensor:
#      x y z
#    x 2.503980 0.000000 0.147140 
#    y 0.000000 3.525330 0.000000 
#    z 0.147140 0.000000 3.735380 
# 
# 
# High freq. dielectric constant tensor:
#      x y z
#    x 1.593430 0.000000 0.009980 
#    y 0.000000 1.707280 0.000000 
#    z 0.009980 0.000000 1.717840 
# 
# From -- ./inp_files/348343.got.cif
#   From: 2010.06.25/outbox.cif.g09.slc.cpg/sg12_175_cif.got.tgz:348343.got - 2010.06.28 00:19:55.
