data_PCOD8114133
_publ_section_title
;
Structure prediction by ZEFSAII (Michael W. Deem and Ramdas Pophale) SiO2 
 PCOD8114133
Probable space group: C 2/M
;
_chemical_formula_sum "Si O2"
_cell_formula_units_Z 48
_cell_length_a 20.725750
_cell_length_b 8.728083
_cell_length_c 17.647431
_cell_angle_alpha 90.000000
_cell_angle_beta 53.693587
_cell_angle_gamma 90.000000
_cell_volume 2572.594284
_symmetry_space_group_name_H-M "C 2/M"
_symmetry_group_IT_number 12
_symmetry_cell_setting 'monoclinic'
loop_
_space_group_symop_operation_xyz
x,y,z
-x,y,-z
-x,-y,-z
x,-y,z
1/2+x,1/2+y,z
1/2-x,1/2+y,-z
1/2-x,1/2-y,-z
1/2+x,1/2-y,z
loop_
_atom_site_type_symbol
_atom_site_label
_atom_site_fract_x
_atom_site_fract_y
_atom_site_fract_z
Si Si1 0.194875 0.181038 0.602128
Si Si2 0.521863 0.318621 0.100496
Si Si3 0.128362 0.818470 0.892316
Si Si4 0.441814 0.317661 0.606442
Si Si5 0.260879 0.319274 0.708622
Si Si6 0.985778 0.817690 0.288755
O O1 0.250000 0.250000 0.500000
O O2 0.222252 0.235139 0.664801
O O3 0.105429 0.239624 0.648080
O O4 0.199585 0.000000 0.595433
O O5 0.517546 0.500000 0.102802
O O6 0.438796 0.262259 0.120892
O O7 0.528996 0.256494 0.181736
O O8 0.598393 0.267786 0.997156
O O9 0.210729 0.729384 0.817896
O O10 0.143027 0.000000 0.876999
O O11 0.500000 0.253747 0.500000
O O12 0.446022 0.500000 0.604917
O O13 0.351799 0.261260 0.654366
O O14 0.470281 0.250305 0.667739
O O15 0.258021 0.500000 0.698351
O O16 0.988696 0.000000 0.288363
#
# Coordination Sequence:
#
# PCOD8114133 Si02
#       6
#     8   8   8   8   8   8
#     4  11  21  34  55  79 103 131 171 222 264 302
#     4   8  14  27  51  78  99 128 175 219 252 300
#     4   9  16  30  52  77 103 131 170 216 260 305
#     4   9  18  32  49  71 101 137 176 215 252 301
#     4  11  21  33  51  78 108 136 168 210 262 313
#     4   9  16  30  53  76  96 130 180 220 249 294
#
# _framework density 18.658208999999999
#
# number of rings (size 3 to 8) (size 9 to 14) (size 15 to 20)
#    0.000    2.500    1.667    3.000    0.000    2.667 
#    0.000    2.500    0.000   11.000    0.000    0.000 
#    0.000    0.000    0.000    0.000    0.000    0.000 
#
# Total GULP energy -297506.984563 kJ/mol
# GULP energy per Si atom -12396.124357 kJ/mol
# Density = 1.861574 g / cm^3
# Si number density = 18.658209 Si / 1000 Ang^3
#
#
#
# Elastic Constant Matrix: (Units=GPa)
#
#
# Indices 1 2 3 4 5 6 
#
# 1 107.9630 19.4544 58.0725 0.0000 -0.7457 0.0000
# 2 19.4544 26.8636 18.9511 0.0002 -4.9466 -0.0002
# 3 58.0725 18.9511 164.5780 0.0001 -1.4200 0.0000
# 4 0.0000 0.0002 0.0001 26.8827 0.0000 -4.5183
# 5 -0.7457 -4.9466 -1.4200 0.0000 38.0678 0.0000
# 6 0.0000 -0.0002 0.0000 -4.5183 0.0000 16.6542
#
#
#
# Elastic Compliance Matrix: (Units=1/GPa)
#
#
# Indices 1 2 3 4 5 6 
#
# 1 0.012386 -0.006551 -0.003623 0.000000 -0.000744 0.000000
# 2 -0.006551 0.044993 -0.002821 0.000000 0.005613 0.000000
# 3 -0.003623 -0.002821 0.007678 0.000000 -0.000151 0.000000
# 4 0.000000 0.000000 0.000000 0.038976 0.000000 0.010574
# 5 -0.000744 0.005613 -0.000151 0.000000 0.026978 0.000000
# 6 0.000000 0.000000 0.000000 0.010574 0.000000 0.062914
#
#
# Mechanical properties :
#
#
# Convention : Reuss Voigt Hill
#
# Bulk Modulus (GPa) = 25.59660 54.70674 40.15167
# Shear Modulus (GPa) = 21.46498 29.84937 25.65718
#
# Velocity S-wave (km/s) = 3.39548 4.00409 3.71228
# Velocity P-wave (km/s) = 5.39637 7.12468 6.31989
#
# Compressibility (1/GPa) = 0.03906769
#
# Stress axis : x y z
#
# Youngs Moduli (GPa) = 80.73343 22.22559 130.24328
#
# Poissons Ratio (x) = 0.14561 0.47183
# Poissons Ratio (y) = 0.52892 0.36739
# Poissons Ratio (z) = 0.29247 0.06269
#
# Static dielectric constant tensor:
#      x y z
#    x 3.500800 0.000000 0.125370 
#    y 0.000000 3.297170 0.000000 
#    z 0.125370 0.000000 4.037620 
# 
# 
# High freq. dielectric constant tensor:
#      x y z
#    x 1.709330 0.000000 0.003000 
#    y 0.000000 1.675560 0.000000 
#    z 0.003000 0.000000 1.748580 
# 
# From -- ./inp_files/274038.got.cif
#   From: 2010.06.25/outbox.cif.g09.slc.cpg/sg12_138_cif.got.tgz:274038.got - 2010.06.28 00:19:55.
