data_PCOD8114328
_publ_section_title
;
Structure prediction by ZEFSAII (Michael W. Deem and Ramdas Pophale) SiO2 
 PCOD8114328
Probable space group: C 2/M
;
_chemical_formula_sum "Si O2"
_cell_formula_units_Z 64
_cell_length_a 13.499082
_cell_length_b 18.247660
_cell_length_c 22.529907
_cell_angle_alpha 90.000000
_cell_angle_beta 33.044023
_cell_angle_gamma 90.000000
_cell_volume 3026.167640
_symmetry_space_group_name_H-M "C 2/M"
_symmetry_group_IT_number 12
_symmetry_cell_setting 'monoclinic'
loop_
_space_group_symop_operation_xyz
x,y,z
-x,y,-z
-x,-y,-z
x,-y,z
1/2+x,1/2+y,z
1/2-x,1/2+y,-z
1/2-x,1/2-y,-z
1/2+x,1/2-y,z
loop_
_atom_site_type_symbol
_atom_site_label
_atom_site_fract_x
_atom_site_fract_y
_atom_site_fract_z
Si Si1 0.293352 0.198836 0.664055
Si Si2 0.796013 0.583296 0.373856
Si Si3 0.204730 0.584265 0.163740
Si Si4 0.437149 0.584588 0.162567
Si Si5 0.787192 0.665442 0.961739
Si Si6 0.054043 0.914981 0.606090
Si Si7 0.702351 0.198087 0.469100
Si Si8 0.694352 0.153247 0.756204
O O1 0.174829 0.126370 0.731048
O O2 0.495332 0.173549 0.578191
O O3 0.268803 0.233676 0.610391
O O4 0.231544 0.260057 0.742417
O O5 0.754134 0.500000 0.376584
O O6 0.646728 0.609002 0.496879
O O7 0.772583 0.631130 0.327833
O O8 0.003272 0.590979 0.293953
O O9 0.230473 0.500000 0.125939
O O10 0.355395 0.600045 0.138058
O O11 0.226734 0.646790 0.101896
O O12 0.431767 0.500000 0.181525
O O13 0.642216 0.613504 0.065869
O O14 0.988592 0.639924 0.881986
O O15 0.750000 0.750000 0.000000
O O16 0.170266 0.873265 0.596900
O O17 0.843473 0.891316 0.718862
O O18 0.073499 0.000000 0.608227
O O19 0.750000 0.250000 0.500000
#
# Coordination Sequence:
#
# PCOD8114328 Si02
#       8
#     8   8   8   8   8   8   8   8
#     4  11  24  40  64  95 124 168 212 261 322 377
#     4   9  18  32  57  92 126 158 196 253 314 376
#     4   9  19  37  64  94 124 165 211 264 324 379
#     4  11  23  42  65  91 125 167 218 273 324 375
#     4  11  22  39  59  92 129 163 215 271 325 375
#     4  11  22  37  60  91 126 163 203 251 314 383
#     4  11  23  41  64  93 132 169 209 255 314 389
#     4  11  21  37  57  87 126 160 210 255 315 376
#
# _framework density 21.148862000000001
#
# number of rings (size 3 to 8) (size 9 to 14) (size 15 to 20)
#    0.000    1.500    2.500    3.000    1.750    6.500 
#    0.000    1.250    0.000    0.000    0.000    1.750 
#    0.000    0.000    0.000    0.000    0.000    0.000 
#
# Total GULP energy -396596.179723 kJ/mol
# GULP energy per Si atom -12393.630616 kJ/mol
# Density = 2.110073 g / cm^3
# Si number density = 21.148862 Si / 1000 Ang^3
#
#
#
# Elastic Constant Matrix: (Units=GPa)
#
#
# Indices 1 2 3 4 5 6 
#
# 1 87.0238 39.9986 44.4173 0.0002 -23.4134 0.0013
# 2 39.9986 102.6358 39.1843 0.0059 -7.3029 -0.0005
# 3 44.4173 39.1843 117.5288 0.0636 -32.1537 -0.0094
# 4 0.0002 0.0059 0.0636 35.8078 -0.0033 1.9115
# 5 -23.4134 -7.3029 -32.1537 -0.0033 38.6693 -0.0029
# 6 0.0013 -0.0005 -0.0094 1.9115 -0.0029 32.1821
#
#
#
# Elastic Compliance Matrix: (Units=1/GPa)
#
#
# Indices 1 2 3 4 5 6 
#
# 1 0.017203 -0.005108 -0.002864 0.000007 0.007069 -0.000001
# 2 -0.005108 0.012730 -0.003239 0.000003 -0.003382 -0.000001
# 3 -0.002864 -0.003239 0.012982 -0.000022 0.008449 0.000006
# 4 0.000007 0.000003 -0.000022 0.028016 -0.000011 -0.001664
# 5 0.007069 -0.003382 0.008449 -0.000011 0.036527 0.000006
# 6 -0.000001 -0.000001 0.000006 -0.001664 0.000006 0.031172
#
#
# Mechanical properties :
#
#
# Convention : Reuss Voigt Hill
#
# Bulk Modulus (GPa) = 48.79735 61.59877 55.19806
# Shear Modulus (GPa) = 29.78272 33.57108 31.67690
#
# Velocity S-wave (km/s) = 3.75673 3.98850 3.87435
# Velocity P-wave (km/s) = 6.47616 7.09932 6.79489
#
# Compressibility (1/GPa) = 0.02049291
#
# Stress axis : x y z
#
# Youngs Moduli (GPa) = 58.13045 78.55699 77.02706
#
# Poissons Ratio (x) = 0.40123 0.22064
# Poissons Ratio (y) = 0.29690 0.24949
# Poissons Ratio (z) = 0.16651 0.25444
#
# Static dielectric constant tensor:
#      x y z
#    x 3.805600 0.000040 -0.339420 
#    y 0.000040 3.958980 0.000030 
#    z -0.339420 0.000030 3.953920 
# 
# 
# High freq. dielectric constant tensor:
#      x y z
#    x 1.807780 0.000000 -0.030200 
#    y 0.000000 1.834060 0.000000 
#    z -0.030200 0.000000 1.827850 
# 
# From -- ./inp_files/340786.got.cif
#   From: 2010.06.25/outbox.cif.g09.slc.cpg/sg12_171_cif.got.tgz:340786.got - 2010.06.28 00:19:55.
