data_PCOD8114793
_publ_section_title
;
Structure prediction by ZEFSAII (Michael W. Deem and Ramdas Pophale) SiO2 
 PCOD8114793
Probable space group: C 2/M
;
_chemical_formula_sum "Si O2"
_cell_formula_units_Z 64
_cell_length_a 22.675076
_cell_length_b 17.900318
_cell_length_c 13.750209
_cell_angle_alpha 90.000000
_cell_angle_beta 146.513713
_cell_angle_gamma 90.000000
_cell_volume 3079.294406
_symmetry_space_group_name_H-M "C 2/M"
_symmetry_group_IT_number 12
_symmetry_cell_setting 'monoclinic'
loop_
_space_group_symop_operation_xyz
x,y,z
-x,y,-z
-x,-y,-z
x,-y,z
1/2+x,1/2+y,z
1/2-x,1/2+y,-z
1/2-x,1/2-y,-z
1/2+x,1/2-y,z
loop_
_atom_site_type_symbol
_atom_site_label
_atom_site_fract_x
_atom_site_fract_y
_atom_site_fract_z
Si Si1 0.307697 0.912876 0.976613
Si Si2 0.536513 0.149511 0.304768
Si Si3 0.229650 0.834869 0.676763
Si Si4 0.291029 0.325934 0.002706
Si Si5 0.899393 0.584750 0.799064
Si Si6 0.776089 0.664847 0.301342
Si Si7 0.391972 0.417034 0.794010
Si Si8 0.962362 0.817402 0.711478
O O1 0.259323 0.885778 0.808724
O O2 0.221177 0.895038 0.940234
O O3 0.333633 0.000000 0.005091
O O4 0.412542 0.866866 0.153813
O O5 0.577447 0.089056 0.283496
O O6 0.603811 0.145939 0.497323
O O7 0.554727 0.231134 0.283205
O O8 0.297123 0.864269 0.678232
O O9 0.262177 0.749823 0.739086
O O10 0.104087 0.839335 0.477205
O O11 0.413977 0.326740 0.141556
O O12 0.250000 0.250000 0.000000
O O13 0.224007 0.347998 0.814546
O O14 0.874574 0.500000 0.794752
O O15 0.000000 0.614671 0.000000
O O16 0.696290 0.614657 0.254131
O O17 0.355330 0.500000 0.708801
O O18 0.414460 0.365579 0.732585
O O19 0.500000 0.424307 0.000000
#
# Coordination Sequence:
#
# PCOD8114793 Si02
#       8
#     8   8   8   8   8   8   8   8
#     4  12  26  45  68  98 135 177 228 287 346 398
#     4  11  23  41  67 103 131 176 228 280 331 411
#     4  11  23  41  67 103 131 176 228 280 331 411
#     4  12  24  47  70  94 130 185 231 280 337 406
#     4  11  22  37  64  99 143 185 220 273 346 412
#     4  11  24  43  71  99 133 176 229 279 340 408
#     4  11  24  41  66  99 136 176 216 273 346 415
#     4  11  24  43  71  99 133 176 229 279 340 408
#
# _framework density 20.783981000000001
#
# number of rings (size 3 to 8) (size 9 to 14) (size 15 to 20)
#    0.000    0.750    5.000    2.250    0.000    8.000 
#    0.000    1.250    0.000    0.000    0.000    0.000 
#    0.000    0.000    0.000    0.000    0.000    0.000 
#
# Total GULP energy -396767.761103 kJ/mol
# GULP energy per Si atom -12398.992534 kJ/mol
# Density = 2.073668 g / cm^3
# Si number density = 20.783981 Si / 1000 Ang^3
#
#
#
# Elastic Constant Matrix: (Units=GPa)
#
#
# Indices 1 2 3 4 5 6 
#
# 1 95.5126 26.7192 29.4170 0.0000 -14.8928 0.0000
# 2 26.7192 111.2149 31.5865 0.0000 -11.1038 0.0000
# 3 29.4170 31.5865 116.4491 0.0000 -18.5415 0.0000
# 4 0.0000 0.0000 0.0000 23.6015 0.0000 0.9040
# 5 -14.8928 -11.1038 -18.5415 0.0000 14.3005 0.0000
# 6 0.0000 0.0000 0.0000 0.9040 0.0000 32.4807
#
#
#
# Elastic Compliance Matrix: (Units=1/GPa)
#
#
# Indices 1 2 3 4 5 6 
#
# 1 0.012966 -0.001732 -0.001096 0.000000 0.010737 0.000000
# 2 -0.001732 0.010292 -0.001725 0.000000 0.003951 0.000000
# 3 -0.001096 -0.001725 0.011262 0.000000 0.012121 0.000000
# 4 0.000000 0.000000 0.000000 0.042415 0.000000 -0.001180
# 5 0.010737 0.003951 0.012121 0.000000 0.099894 0.000000
# 6 0.000000 0.000000 0.000000 -0.001180 0.000000 0.030820
#
#
# Mechanical properties :
#
#
# Convention : Reuss Voigt Hill
#
# Bulk Modulus (GPa) = 39.34751 55.40243 47.37497
# Shear Modulus (GPa) = 22.19982 29.77347 25.98665
#
# Velocity S-wave (km/s) = 3.27176 3.78897 3.53982
# Velocity P-wave (km/s) = 5.76587 6.77170 6.28893
#
# Compressibility (1/GPa) = 0.02541457
#
# Stress axis : x y z
#
# Youngs Moduli (GPa) = 77.12439 97.16194 88.79206
#
# Poissons Ratio (x) = 0.16826 0.09732
# Poissons Ratio (y) = 0.13356 0.15318
# Poissons Ratio (z) = 0.08453 0.16761
#
# Static dielectric constant tensor:
#      x y z
#    x 3.678740 0.000000 -0.027480 
#    y 0.000000 3.915330 0.000000 
#    z -0.027480 0.000000 4.004620 
# 
# 
# High freq. dielectric constant tensor:
#      x y z
#    x 1.807120 0.000000 -0.003310 
#    y 0.000000 1.816570 0.000000 
#    z -0.003310 0.000000 1.828180 
# 
# From -- ./inp_files/241493.got.cif
#   From: 2010.06.25/outbox.cif.g09.slc.cpg/sg12_121_cif.got.tgz:241493.got - 2010.06.28 00:19:55.
