data_PCOD8114314
_publ_section_title
;
Structure prediction by ZEFSAII (Michael W. Deem and Ramdas Pophale) SiO2 
 PCOD8114314
Probable space group: C 2/M
;
_chemical_formula_sum "Si O2"
_cell_formula_units_Z 48
_cell_length_a 17.837490
_cell_length_b 18.887591
_cell_length_c 8.916290
_cell_angle_alpha 90.000000
_cell_angle_beta 122.343631
_cell_angle_gamma 90.000000
_cell_volume 2537.911713
_symmetry_space_group_name_H-M "C 2/M"
_symmetry_group_IT_number 12
_symmetry_cell_setting 'monoclinic'
loop_
_space_group_symop_operation_xyz
x,y,z
-x,y,-z
-x,-y,-z
x,-y,z
1/2+x,1/2+y,z
1/2-x,1/2+y,-z
1/2-x,1/2-y,-z
1/2+x,1/2-y,z
loop_
_atom_site_type_symbol
_atom_site_label
_atom_site_fract_x
_atom_site_fract_y
_atom_site_fract_z
Si Si1 0.909860 0.828807 0.991061
Si Si2 0.233057 0.918748 0.650341
Si Si3 0.365897 0.319005 0.266889
Si Si4 0.095151 0.334899 0.652371
Si Si5 0.331092 0.181331 0.950797
Si Si6 0.255992 0.418171 0.689184
O O1 0.926471 0.838696 0.188048
O O2 0.875093 0.749555 0.919202
O O3 0.839757 0.887227 0.865157
O O4 0.000000 0.843090 0.000000
O O5 0.143052 0.883184 0.623530
O O6 0.320753 0.880385 0.813828
O O7 0.229387 0.907881 0.470717
O O8 0.235803 0.000000 0.701596
O O9 0.401280 0.248527 0.386963
O O10 0.268042 0.300285 0.095186
O O11 0.166913 0.378182 0.636934
O O12 0.000000 0.365063 0.500000
O O13 0.109240 0.345075 0.846205
O O14 0.246471 0.500000 0.723642
#
# Coordination Sequence:
#
# PCOD8114314 Si02
#       6
#     8   8   8   8   8   8
#     4  11  21  36  62  88 113 147 193 240 284 341
#     4   9  20  35  60  82 110 159 194 227 288 340
#     4   9  19  39  59  80 118 150 189 229 287 338
#     4  11  21  36  62  88 113 147 193 240 284 341
#     4   9  19  39  59  80 118 150 189 229 287 338
#     4  11  22  39  56  84 120 151 194 241 280 336
#
# _framework density 18.913188000000002
#
# number of rings (size 3 to 8) (size 9 to 14) (size 15 to 20)
#    1.000    1.000    3.333    1.000    0.000   11.333 
#    0.000    0.000    0.000    5.000    0.000    0.000 
#    0.000    0.000    0.000    0.000    0.000    0.000 
#
# Total GULP energy -297439.687379 kJ/mol
# GULP energy per Si atom -12393.320307 kJ/mol
# Density = 1.887014 g / cm^3
# Si number density = 18.913188 Si / 1000 Ang^3
#
#
#
# Elastic Constant Matrix: (Units=GPa)
#
#
# Indices 1 2 3 4 5 6 
#
# 1 125.9025 44.5573 33.4691 0.0000 1.6204 0.0000
# 2 44.5573 110.5640 33.4359 0.0000 -23.1241 0.0000
# 3 33.4691 33.4359 40.1688 0.0000 -9.6686 0.0000
# 4 0.0000 0.0000 0.0000 19.1128 0.0000 -20.2561
# 5 1.6204 -23.1241 -9.6686 0.0000 26.9824 0.0000
# 6 0.0000 0.0000 0.0000 -20.2561 0.0000 7.5692
#
#
#
# Elastic Compliance Matrix: (Units=1/GPa)
#
#
# Indices 1 2 3 4 5 6 
#
# 1 0.011460 -0.003525 -0.008215 0.000000 -0.006653 0.000000
# 2 -0.003525 0.014687 -0.006793 0.000000 0.010365 0.000000
# 3 -0.008215 -0.006793 0.039521 0.000000 0.008833 0.000000
# 4 0.000000 0.000000 0.000000 -0.028494 0.000000 -0.076253
# 5 -0.006653 0.010365 0.008833 0.000000 0.049508 0.000000
# 6 0.000000 0.000000 0.000000 -0.076253 0.000000 -0.071949
#
#
# Mechanical properties :
#
#
# Convention : Reuss Voigt Hill
#
# Bulk Modulus (GPa) = 34.96543 55.50664 45.23603
# Shear Modulus (GPa) = 81.51895 21.74440 51.63167
#
# Velocity S-wave (km/s) = 6.57231 3.39439 5.23054
# Velocity P-wave (km/s) = 8.72474 6.69137 7.77481
#
# Compressibility (1/GPa) = 0.02859968
#
# Stress axis : x y z
#
# Youngs Moduli (GPa) = 87.26100 68.08543 25.30301
#
# Poissons Ratio (x) = 0.24003 0.20788
# Poissons Ratio (y) = 0.30763 0.17190
# Poissons Ratio (z) = 0.71689 0.46254
#
# Static dielectric constant tensor:
#      x y z
#    x 3.318430 0.000000 -0.072840 
#    y 0.000000 3.457880 0.000000 
#    z -0.072840 0.000000 3.319260 
# 
# 
# High freq. dielectric constant tensor:
#      x y z
#    x 1.720440 0.000000 -0.009280 
#    y 0.000000 1.731700 0.000000 
#    z -0.009280 0.000000 1.732710 
# 
# From -- ./inp_files/63577.got.cif
#   From: 2010.06.25/outbox.cif.g09.slc.cpg/sg12_32_cif.got.tgz:63577.got - 2010.06.28 00:19:55.
