data_PCOD8114027
_publ_section_title
;
Structure prediction by ZEFSAII (Michael W. Deem and Ramdas Pophale) SiO2 
 PCOD8114027
Probable space group: C 2/M
;
_chemical_formula_sum "Si O2"
_cell_formula_units_Z 48
_cell_length_a 16.309013
_cell_length_b 19.268035
_cell_length_c 13.150856
_cell_angle_alpha 90.000000
_cell_angle_beta 143.689101
_cell_angle_gamma 90.000000
_cell_volume 2447.163261
_symmetry_space_group_name_H-M "C 2/M"
_symmetry_group_IT_number 12
_symmetry_cell_setting 'monoclinic'
loop_
_space_group_symop_operation_xyz
x,y,z
-x,y,-z
-x,-y,-z
x,-y,z
1/2+x,1/2+y,z
1/2-x,1/2+y,-z
1/2-x,1/2-y,-z
1/2+x,1/2-y,z
loop_
_atom_site_type_symbol
_atom_site_label
_atom_site_fract_x
_atom_site_fract_y
_atom_site_fract_z
Si Si1 0.953189 0.181074 0.258768
Si Si2 0.799968 0.363946 0.877496
Si Si3 0.582059 0.174716 0.679415
Si Si4 0.111660 0.210894 0.033181
Si Si5 0.695730 0.419782 0.564021
Si Si6 0.510372 0.078262 0.232019
O O1 0.808469 0.143433 0.138098
O O2 0.966740 0.246708 0.347245
O O3 0.077133 0.128052 0.399276
O O4 0.953178 0.208507 0.143807
O O5 0.858733 0.289485 0.902860
O O6 0.723238 0.401018 0.708206
O O7 0.926387 0.410864 0.043182
O O8 0.500000 0.146695 0.500000
O O9 0.745619 0.168067 0.820167
O O10 0.546035 0.128268 0.738849
O O11 0.000000 0.178473 0.000000
O O12 0.649544 0.500000 0.511877
O O13 0.829975 0.405413 0.630168
O O14 0.490880 0.000000 0.250261
#
# Coordination Sequence:
#
# PCOD8114027 Si02
#       6
#     8   8   8   8   8   8
#     4  11  22  41  63  93 129 158 203 259 309 373
#     4  11  20  41  63  92 125 161 205 251 317 373
#     4  11  23  41  63  91 122 162 210 255 308 366
#     4  11  22  39  65  96 121 159 206 258 309 366
#     4  11  25  39  62  97 128 163 206 255 312 375
#     4  11  23  40  61  88 126 167 207 256 308 365
#
# _framework density 19.614547999999999
#
# number of rings (size 3 to 8) (size 9 to 14) (size 15 to 20)
#    0.000    1.000    3.333    5.500    2.333    4.333 
#    0.000    0.000    0.000    1.000    0.000    0.000 
#    0.000    0.000    0.000    0.000    0.000    0.000 
#
# Total GULP energy -297717.652554 kJ/mol
# GULP energy per Si atom -12404.902190 kJ/mol
# Density = 1.956990 g / cm^3
# Si number density = 19.614548 Si / 1000 Ang^3
#
#
#
# Elastic Constant Matrix: (Units=GPa)
#
#
# Indices 1 2 3 4 5 6 
#
# 1 109.3988 37.6332 23.7372 0.0000 7.6272 0.0000
# 2 37.6332 82.3364 29.0770 0.0000 20.1750 0.0000
# 3 23.7372 29.0770 95.6756 0.0000 0.6151 0.0000
# 4 0.0000 0.0000 0.0000 28.7907 0.0000 2.4677
# 5 7.6272 20.1750 0.6151 0.0000 28.6386 0.0000
# 6 0.0000 0.0000 0.0000 2.4677 0.0000 21.6930
#
#
#
# Elastic Compliance Matrix: (Units=1/GPa)
#
#
# Indices 1 2 3 4 5 6 
#
# 1 0.011002 -0.004656 -0.001317 0.000000 0.000378 0.000000
# 2 -0.004656 0.018764 -0.004471 0.000000 -0.011883 0.000000
# 3 -0.001317 -0.004471 0.012117 0.000000 0.003240 0.000000
# 4 0.000000 0.000000 0.000000 0.035075 0.000000 -0.003990
# 5 0.000378 -0.011883 0.003240 0.000000 0.043118 0.000000
# 6 0.000000 0.000000 0.000000 -0.003990 0.000000 0.046552
#
#
# Mechanical properties :
#
#
# Convention : Reuss Voigt Hill
#
# Bulk Modulus (GPa) = 47.63201 52.03395 49.83298
# Shear Modulus (GPa) = 25.70496 28.95534 27.33015
#
# Velocity S-wave (km/s) = 3.62402 3.84633 3.73683
# Velocity P-wave (km/s) = 6.46901 6.80525 6.63926
#
# Compressibility (1/GPa) = 0.02099428
#
# Stress axis : x y z
#
# Youngs Moduli (GPa) = 90.89262 53.29341 82.53087
#
# Poissons Ratio (x) = 0.24815 0.10869
# Poissons Ratio (y) = 0.42322 0.36900
# Poissons Ratio (z) = 0.11970 0.23828
#
# Static dielectric constant tensor:
#      x y z
#    x 3.625220 0.000000 0.174870 
#    y 0.000000 3.507170 0.000000 
#    z 0.174870 0.000000 3.612770 
# 
# 
# High freq. dielectric constant tensor:
#      x y z
#    x 1.773630 0.000000 0.008100 
#    y 0.000000 1.750030 0.000000 
#    z 0.008100 0.000000 1.770880 
# 
# From -- ./inp_files/77296.got.cif
#   From: 2010.06.25/outbox.cif.g09.slc.cpg/sg12_39_cif.got.tgz:77296.got - 2010.06.28 00:19:55.
