data_PCOD8114361
_publ_section_title
;
Structure prediction by ZEFSAII (Michael W. Deem and Ramdas Pophale) SiO2 
 PCOD8114361
Probable space group: C 2/M
;
_chemical_formula_sum "Si O2"
_cell_formula_units_Z 64
_cell_length_a 14.883252
_cell_length_b 8.874848
_cell_length_c 24.569192
_cell_angle_alpha 90.000000
_cell_angle_beta 97.182778
_cell_angle_gamma 90.000000
_cell_volume 3219.793277
_symmetry_space_group_name_H-M "C 2/M"
_symmetry_group_IT_number 12
_symmetry_cell_setting 'monoclinic'
loop_
_space_group_symop_operation_xyz
x,y,z
-x,y,-z
-x,-y,-z
x,-y,z
1/2+x,1/2+y,z
1/2-x,1/2+y,-z
1/2-x,1/2-y,-z
1/2+x,1/2-y,z
loop_
_atom_site_type_symbol
_atom_site_label
_atom_site_fract_x
_atom_site_fract_y
_atom_site_fract_z
Si Si1 0.092986 0.321932 0.745780
Si Si2 0.259031 0.322487 0.941681
Si Si3 0.898670 0.820745 0.137004
Si Si4 0.878300 0.171320 0.552405
Si Si5 0.305175 0.672470 0.439183
Si Si6 0.571139 0.176815 0.340654
Si Si7 0.229683 0.827106 0.681223
Si Si8 0.962878 0.823664 0.941286
O O1 0.090775 0.500000 0.754198
O O2 0.083015 0.240666 0.802107
O O3 0.187754 0.276213 0.725064
O O4 0.009808 0.261143 0.702822
O O5 0.240848 0.500000 0.945100
O O6 0.193204 0.246971 0.893578
O O7 0.357984 0.286632 0.925437
O O8 0.250000 0.250000 0.000000
O O9 0.981266 0.761129 0.105821
O O10 0.890860 0.000000 0.137726
O O11 0.773033 0.207891 0.554492
O O12 0.890199 0.200334 0.487497
O O13 0.941046 0.267440 0.597773
O O14 0.899000 0.000000 0.568878
O O15 0.268924 0.500000 0.444710
O O16 0.332395 0.691784 0.377951
O O17 0.667839 0.228849 0.323259
O O18 0.565990 0.000000 0.342584
O O19 0.230129 0.000000 0.701191
O O20 0.981196 0.000000 0.946368
O O21 0.000000 0.748652 0.000000
#
# Coordination Sequence:
#
# PCOD8114361 Si02
#       8
#     8   8   8   8   8   8   8   8
#     4  11  24  41  58  81 113 147 190 241 286 332
#     4  11  21  37  62  92 124 155 188 227 273 326
#     4  11  23  41  62  85 115 154 193 233 281 333
#     4   9  15  25  48  80 108 139 184 233 281 340
#     4   8  15  28  47  75 111 145 179 227 287 343
#     4   9  20  38  57  77 110 151 187 233 290 342
#     4   9  18  36  59  80 107 148 190 231 284 343
#     4   9  18  36  61  88 120 153 184 221 269 325
#
# _framework density 19.877053
#
# number of rings (size 3 to 8) (size 9 to 14) (size 15 to 20)
#    0.000    2.375    1.250    2.250    0.000    4.500 
#    0.000    6.250    0.000    3.750    0.000    0.000 
#    0.000    0.000    0.000    0.000    0.000    0.000 
#
# Total GULP energy -396619.509195 kJ/mol
# GULP energy per Si atom -12394.359662 kJ/mol
# Density = 1.983181 g / cm^3
# Si number density = 19.877053 Si / 1000 Ang^3
#
#
#
# Elastic Constant Matrix: (Units=GPa)
#
#
# Indices 1 2 3 4 5 6 
#
# 1 61.7067 26.5357 33.2266 0.0000 6.1333 0.0000
# 2 26.5357 54.6700 29.9953 0.0000 2.6120 0.0000
# 3 33.2266 29.9953 109.0033 0.0000 9.2165 0.0000
# 4 0.0000 0.0000 0.0000 34.2739 0.0000 5.3605
# 5 6.1333 2.6120 9.2165 0.0000 35.0611 0.0000
# 6 0.0000 0.0000 0.0000 5.3605 0.0000 21.3791
#
#
#
# Elastic Compliance Matrix: (Units=1/GPa)
#
#
# Indices 1 2 3 4 5 6 
#
# 1 0.022349 -0.008371 -0.004327 0.000000 -0.002148 0.000000
# 2 -0.008371 0.024680 -0.004304 0.000000 0.000757 0.000000
# 3 -0.004327 -0.004304 0.011850 0.000000 -0.002037 0.000000
# 4 0.000000 0.000000 0.000000 0.030368 0.000000 -0.007614
# 5 -0.002148 0.000757 -0.002037 0.000000 0.029377 0.000000
# 6 0.000000 0.000000 0.000000 -0.007614 0.000000 0.048684
#
#
# Mechanical properties :
#
#
# Convention : Reuss Voigt Hill
#
# Bulk Modulus (GPa) = 40.20170 44.98836 42.59503
# Shear Modulus (GPa) = 23.85475 27.18431 25.51953
#
# Velocity S-wave (km/s) = 3.46803 3.70215 3.58700
# Velocity P-wave (km/s) = 6.02539 6.39977 6.21540
#
# Compressibility (1/GPa) = 0.02487457
#
# Stress axis : x y z
#
# Youngs Moduli (GPa) = 44.74468 40.51913 84.39074
#
# Poissons Ratio (x) = 0.33918 0.36519
# Poissons Ratio (y) = 0.37455 0.36319
# Poissons Ratio (z) = 0.19363 0.17438
#
# Static dielectric constant tensor:
#      x y z
#    x 3.546860 0.000000 0.070730 
#    y 0.000000 3.501160 0.000000 
#    z 0.070730 0.000000 3.827890 
# 
# 
# High freq. dielectric constant tensor:
#      x y z
#    x 1.760090 0.000000 0.007500 
#    y 0.000000 1.763410 0.000000 
#    z 0.007500 0.000000 1.784430 
# 
# From -- ./inp_files/338862.got.cif
#   From: 2010.06.25/outbox.cif.g09.slc.cpg/sg12_170_cif.got.tgz:338862.got - 2010.06.28 00:19:55.
