data_PCOD8114655
_publ_section_title
;
Structure prediction by ZEFSAII (Michael W. Deem and Ramdas Pophale) SiO2 
 PCOD8114655
Probable space group: C 2/M
;
_chemical_formula_sum "Si O2"
_cell_formula_units_Z 56
_cell_length_a 24.679169
_cell_length_b 8.890822
_cell_length_c 14.895706
_cell_angle_alpha 90.000000
_cell_angle_beta 74.231481
_cell_angle_gamma 90.000000
_cell_volume 3145.389740
_symmetry_space_group_name_H-M "C 2/M"
_symmetry_group_IT_number 12
_symmetry_cell_setting 'monoclinic'
loop_
_space_group_symop_operation_xyz
x,y,z
-x,y,-z
-x,-y,-z
x,-y,z
1/2+x,1/2+y,z
1/2-x,1/2+y,-z
1/2-x,1/2-y,-z
1/2+x,1/2-y,z
loop_
_atom_site_type_symbol
_atom_site_label
_atom_site_fract_x
_atom_site_fract_y
_atom_site_fract_z
Si Si1 0.432939 0.177482 0.894287
Si Si2 0.262847 0.173063 0.088076
Si Si3 0.454622 0.173560 0.393751
Si Si4 0.875984 0.826667 0.084694
Si Si5 0.356736 0.327871 0.781948
Si Si6 0.953505 0.827759 0.215252
Si Si7 0.419173 0.173444 0.604298
O O1 0.387531 0.225768 0.841135
O O2 0.495165 0.224158 0.838074
O O3 0.430579 0.000000 0.905766
O O4 0.418583 0.251697 0.995584
O O5 0.315421 0.249450 0.112707
O O6 0.210048 0.191091 0.178076
O O7 0.277272 0.000000 0.062691
O O8 0.250000 0.250000 0.000000
O O9 0.432240 0.276152 0.322844
O O10 0.422586 0.223185 0.498878
O O11 0.521150 0.198764 0.374611
O O12 0.442000 0.000000 0.378165
O O13 0.901294 0.807221 0.172147
O O14 0.868828 0.000000 0.060517
O O15 0.375293 0.500000 0.788161
O O16 0.372879 0.274927 0.674645
O O17 0.973933 0.000000 0.208920
O O18 0.401390 0.000000 0.619492
#
# Coordination Sequence:
#
# PCOD8114655 Si02
#       7
#     8   8   8   8   8   8   8
#     4  12  23  35  55  81 111 149 186 222 270 331
#     4  11  23  38  58  81 109 146 186 231 276 321
#     4   9  18  33  54  81 113 144 180 223 269 328
#     4  11  24  40  56  78 111 148 188 231 273 325
#     4  11  22  35  55  83 114 143 179 228 277 323
#     4  11  23  37  55  81 114 148 182 227 278 326
#     4   9  18  33  54  82 112 144 180 222 273 325
#
# _framework density 17.803834999999999
#
# number of rings (size 3 to 8) (size 9 to 14) (size 15 to 20)
#    0.000    1.429    2.857    4.286    0.000    6.286 
#    0.000    1.429    0.000    0.857    0.000    0.000 
#    0.000    0.000    0.000    0.000    0.000    0.000 
#
# Total GULP energy -347325.992191 kJ/mol
# GULP energy per Si atom -12404.499721 kJ/mol
# Density = 1.776331 g / cm^3
# Si number density = 17.803835 Si / 1000 Ang^3
#
#
#
# Elastic Constant Matrix: (Units=GPa)
#
#
# Indices 1 2 3 4 5 6 
#
# 1 77.3112 51.1275 41.8920 0.0000 7.8788 0.0000
# 2 51.1275 127.7932 61.7579 0.0000 3.1038 0.0000
# 3 41.8920 61.7579 126.8744 0.0000 4.1291 0.0000
# 4 0.0000 0.0000 0.0000 35.2494 0.0000 -0.2668
# 5 7.8788 3.1038 4.1291 0.0000 21.8661 0.0000
# 6 0.0000 0.0000 0.0000 -0.2668 0.0000 28.3998
#
#
#
# Elastic Compliance Matrix: (Units=1/GPa)
#
#
# Indices 1 2 3 4 5 6 
#
# 1 0.019209 -0.005980 -0.003254 0.000000 -0.005458 0.000000
# 2 -0.005980 0.012100 -0.003954 0.000000 0.001184 0.000000
# 3 -0.003254 -0.003954 0.010891 0.000000 -0.000323 0.000000
# 4 0.000000 0.000000 0.000000 0.028371 0.000000 0.000267
# 5 -0.005458 0.001184 -0.000323 0.000000 0.047593 0.000000
# 6 0.000000 0.000000 0.000000 0.000267 0.000000 0.035214
#
#
# Mechanical properties :
#
#
# Convention : Reuss Voigt Hill
#
# Bulk Modulus (GPa) = 63.19365 71.28152 67.23759
# Shear Modulus (GPa) = 27.02300 28.91647 27.96974
#
# Velocity S-wave (km/s) = 3.90015 4.03447 3.96788
# Velocity P-wave (km/s) = 7.47349 7.86300 7.67071
#
# Compressibility (1/GPa) = 0.01582437
#
# Stress axis : x y z
#
# Youngs Moduli (GPa) = 52.05928 82.64794 91.81695
#
# Poissons Ratio (x) = 0.49423 0.29877
# Poissons Ratio (y) = 0.31131 0.36301
# Poissons Ratio (z) = 0.16940 0.32676
#
# Static dielectric constant tensor:
#      x y z
#    x 3.120540 0.000000 0.009170 
#    y 0.000000 3.441330 0.000000 
#    z 0.009170 0.000000 3.385280 
# 
# 
# High freq. dielectric constant tensor:
#      x y z
#    x 1.664490 0.000000 -0.001530 
#    y 0.000000 1.702740 0.000000 
#    z -0.001530 0.000000 1.693450 
# 
# From -- ./inp_files/237421.got.cif
#   From: 2010.06.25/outbox.cif.g09.slc.cpg/sg12_119_cif.got.tgz:237421.got - 2010.06.28 00:19:55.
