data_PCOD8114852
_publ_section_title
;
Structure prediction by ZEFSAII (Michael W. Deem and Ramdas Pophale) SiO2 
 PCOD8114852
Probable space group: C 2/M
;
_chemical_formula_sum "Si O2"
_cell_formula_units_Z 64
_cell_length_a 18.720739
_cell_length_b 8.681271
_cell_length_c 29.829523
_cell_angle_alpha 90.000000
_cell_angle_beta 140.908754
_cell_angle_gamma 90.000000
_cell_volume 3056.871065
_symmetry_space_group_name_H-M "C 2/M"
_symmetry_group_IT_number 12
_symmetry_cell_setting 'monoclinic'
loop_
_space_group_symop_operation_xyz
x,y,z
-x,y,-z
-x,-y,-z
x,-y,z
1/2+x,1/2+y,z
1/2-x,1/2+y,-z
1/2-x,1/2-y,-z
1/2+x,1/2-y,z
loop_
_atom_site_type_symbol
_atom_site_label
_atom_site_fract_x
_atom_site_fract_y
_atom_site_fract_z
Si Si1 0.374108 0.317723 0.565799
Si Si2 0.377340 0.681501 0.924161
Si Si3 0.049469 0.318555 0.304133
Si Si4 0.038839 0.183392 0.567262
Si Si5 0.655075 0.326076 0.842345
Si Si6 0.406991 0.181203 0.846749
Si Si7 0.706452 0.183152 0.299504
Si Si8 0.131506 0.174334 0.932527
O O1 0.365786 0.500000 0.559354
O O2 0.250000 0.250000 0.500000
O O3 0.426721 0.268126 0.638334
O O4 0.454345 0.255144 0.564702
O O5 0.370489 0.500000 0.925355
O O6 0.281032 0.756750 0.908122
O O7 0.347869 0.733935 0.859388
O O8 0.500000 0.743030 0.000000
O O9 0.061460 0.500000 0.317530
O O10 0.137959 0.257597 0.309695
O O11 0.922015 0.278585 0.227299
O O12 0.165507 0.246565 0.637260
O O13 0.000000 0.246614 0.500000
O O14 0.039361 0.000000 0.567641
O O15 0.659471 0.500000 0.825532
O O16 0.602075 0.323781 0.865812
O O17 0.350960 0.245263 0.773896
O O18 0.538904 0.224276 0.912847
O O19 0.390600 0.000000 0.843924
O O20 0.703274 0.000000 0.298047
O O21 0.129018 0.000000 0.950270
O O22 0.250000 0.250000 0.000000
#
# Coordination Sequence:
#
# PCOD8114852 Si02
#       8
#     8   8   8   8   8   8   8   8
#     4  11  23  39  64  95 129 165 208 258 310 371
#     4  11  25  43  62  87 122 163 209 265 324 381
#     4  11  22  40  65  92 126 164 206 257 314 376
#     4   9  18  35  61  91 122 160 206 249 291 352
#     4  11  24  41  62  90 124 165 212 260 312 377
#     4  11  22  38  62  90 123 162 208 258 314 381
#     4   9  19  36  60  90 121 160 206 251 302 364
#     4  11  23  39  62  90 123 160 208 263 316 376
#
# _framework density 20.936440000000001
#
# number of rings (size 3 to 8) (size 9 to 14) (size 15 to 20)
#    0.000    1.500    1.250    3.750    1.750    6.500 
#    0.000    0.000    0.000    8.250    0.000    0.000 
#    0.000    0.000    0.000    0.000    0.000    0.000 
#
# Total GULP energy -396924.244987 kJ/mol
# GULP energy per Si atom -12403.882656 kJ/mol
# Density = 2.088879 g / cm^3
# Si number density = 20.936440 Si / 1000 Ang^3
#
#
#
# Elastic Constant Matrix: (Units=GPa)
#
#
# Indices 1 2 3 4 5 6 
#
# 1 118.6151 25.0788 35.8948 0.0001 2.6002 -0.0002
# 2 25.0788 52.3635 16.3890 0.0004 0.7865 -0.0009
# 3 35.8948 16.3890 107.9651 0.0000 6.8725 -0.0001
# 4 0.0001 0.0004 0.0000 30.4497 0.0000 0.1816
# 5 2.6002 0.7865 6.8725 0.0000 44.8393 0.0001
# 6 -0.0002 -0.0009 -0.0001 0.1816 0.0001 32.0019
#
#
#
# Elastic Compliance Matrix: (Units=1/GPa)
#
#
# Indices 1 2 3 4 5 6 
#
# 1 0.010106 -0.003978 -0.002750 0.000000 -0.000095 0.000000
# 2 -0.003978 0.021616 -0.001969 0.000000 0.000153 0.000001
# 3 -0.002750 -0.001969 0.010566 0.000000 -0.001425 0.000000
# 4 0.000000 0.000000 0.000000 0.032842 0.000000 -0.000186
# 5 -0.000095 0.000153 -0.001425 0.000000 0.022523 0.000000
# 6 0.000000 0.000001 0.000000 -0.000186 0.000000 0.031249
#
#
# Mechanical properties :
#
#
# Convention : Reuss Voigt Hill
#
# Bulk Modulus (GPa) = 40.16822 48.18542 44.17682
# Shear Modulus (GPa) = 32.34272 34.89693 33.61983
#
# Velocity S-wave (km/s) = 3.93466 4.08708 4.01160
# Velocity P-wave (km/s) = 6.31423 6.73330 6.52713
#
# Compressibility (1/GPa) = 0.02489530
#
# Stress axis : x y z
#
# Youngs Moduli (GPa) = 98.95147 46.26141 94.64229
#
# Poissons Ratio (x) = 0.18403 0.26027
# Poissons Ratio (y) = 0.39363 0.18631
# Poissons Ratio (z) = 0.27212 0.09107
#
# Static dielectric constant tensor:
#      x y z
#    x 4.022700 0.000000 -0.066090 
#    y 0.000000 3.549760 0.000000 
#    z -0.066090 0.000000 3.931640 
# 
# 
# High freq. dielectric constant tensor:
#      x y z
#    x 1.833630 0.000000 -0.001190 
#    y 0.000000 1.798240 0.000000 
#    z -0.001190 0.000000 1.829950 
# 
# From -- ./inp_files/378433.got.cif
#   From: 2010.06.25/outbox.cif.g09.slc.cpg/sg12_190_cif.got.tgz:378433.got - 2010.06.28 00:19:55.
