data_PCOD8114846
_publ_section_title
;
Structure prediction by ZEFSAII (Michael W. Deem and Ramdas Pophale) SiO2 
 PCOD8114846
Probable space group: C 2/M
;
_chemical_formula_sum "Si O2"
_cell_formula_units_Z 48
_cell_length_a 14.770749
_cell_length_b 8.728784
_cell_length_c 18.514397
_cell_angle_alpha 90.000000
_cell_angle_beta 91.898867
_cell_angle_gamma 90.000000
_cell_volume 2385.762939
_symmetry_space_group_name_H-M "C 2/M"
_symmetry_group_IT_number 12
_symmetry_cell_setting 'monoclinic'
loop_
_space_group_symop_operation_xyz
x,y,z
-x,y,-z
-x,-y,-z
x,-y,z
1/2+x,1/2+y,z
1/2-x,1/2+y,-z
1/2-x,1/2-y,-z
1/2+x,1/2-y,z
loop_
_atom_site_type_symbol
_atom_site_label
_atom_site_fract_x
_atom_site_fract_y
_atom_site_fract_z
Si Si1 0.428683 0.820455 0.657026
Si Si2 0.388742 0.674310 0.355470
Si Si3 0.749452 0.679050 0.104998
Si Si4 0.603113 0.181216 0.004597
Si Si5 0.269212 0.678128 0.732001
Si Si6 0.346313 0.675910 0.515034
O O1 0.520941 0.734459 0.680096
O O2 0.358125 0.775834 0.717107
O O3 0.396795 0.771687 0.577040
O O4 0.446104 0.000000 0.658352
O O5 0.369041 0.500000 0.331383
O O6 0.306284 0.779732 0.328398
O O7 0.402157 0.685847 0.442088
O O8 0.735226 0.500000 0.092328
O O9 0.657248 0.759842 0.076021
O O10 0.765007 0.720637 0.188949
O O11 0.839228 0.735396 0.064286
O O12 0.597671 0.000000 0.008651
O O13 0.500000 0.248157 0.000000
O O14 0.292752 0.500000 0.725346
O O15 0.336277 0.500000 0.540305
O O16 0.250000 0.750000 0.500000
#
# Coordination Sequence:
#
# PCOD8114846 Si02
#       6
#     8   8   8   8   8   8
#     4  12  25  40  60  86 116 155 202 249 300 355
#     4  11  24  41  61  87 117 153 198 246 300 360
#     4   9  20  37  57  86 119 152 190 233 285 340
#     4   9  18  35  60  88 118 151 189 232 280 339
#     4  11  23  40  60  84 121 160 198 245 292 349
#     4  11  22  38  62  87 116 151 196 249 300 355
#
# _framework density 20.119351000000002
#
# number of rings (size 3 to 8) (size 9 to 14) (size 15 to 20)
#    0.000    1.500    1.667    3.500    0.000    7.000 
#    0.000    1.667    0.000    0.000    0.000    0.000 
#    0.000    0.000    0.000    0.000    0.000    0.000 
#
# Total GULP energy -297672.894943 kJ/mol
# GULP energy per Si atom -12403.037289 kJ/mol
# Density = 2.007356 g / cm^3
# Si number density = 20.119351 Si / 1000 Ang^3
#
#
#
# Elastic Constant Matrix: (Units=GPa)
#
#
# Indices 1 2 3 4 5 6 
#
# 1 118.0702 17.3289 14.5684 0.0000 -14.9124 0.0000
# 2 17.3289 42.0679 29.4137 0.0000 0.9847 0.0000
# 3 14.5684 29.4137 83.6042 0.0000 -12.4505 0.0000
# 4 0.0000 0.0000 0.0000 28.6695 0.0000 3.5715
# 5 -14.9124 0.9847 -12.4505 0.0000 18.7783 0.0000
# 6 0.0000 0.0000 0.0000 3.5715 0.0000 33.0911
#
#
#
# Elastic Compliance Matrix: (Units=1/GPa)
#
#
# Indices 1 2 3 4 5 6 
#
# 1 0.010294 -0.005570 0.001583 0.000000 0.009516 0.000000
# 2 -0.005570 0.036326 -0.014149 0.000000 -0.015709 0.000000
# 3 0.001583 -0.014149 0.018819 0.000000 0.014477 0.000000
# 4 0.000000 0.000000 0.000000 0.035356 0.000000 -0.003816
# 5 0.009516 -0.015709 0.014477 0.000000 0.071232 0.000000
# 6 0.000000 0.000000 0.000000 -0.003816 0.000000 0.030631
#
#
# Mechanical properties :
#
#
# Convention : Reuss Voigt Hill
#
# Bulk Modulus (GPa) = 34.28540 40.70716 37.49628
# Shear Modulus (GPa) = 20.10839 28.26986 24.18912
#
# Velocity S-wave (km/s) = 3.16485 3.75254 3.47115
# Velocity P-wave (km/s) = 5.51661 6.24918 5.89429
#
# Compressibility (1/GPa) = 0.02916694
#
# Stress axis : x y z
#
# Youngs Moduli (GPa) = 97.14802 27.52835 53.13742
#
# Poissons Ratio (x) = 0.15333 -0.08412
# Poissons Ratio (y) = 0.54109 0.75185
# Poissons Ratio (z) = -0.15379 0.38950
#
# Static dielectric constant tensor:
#      x y z
#    x 3.769210 0.000000 -0.153990 
#    y 0.000000 3.669650 0.000000 
#    z -0.153990 0.000000 3.682960 
# 
# 
# High freq. dielectric constant tensor:
#      x y z
#    x 1.793380 0.000000 -0.008220 
#    y 0.000000 1.788330 0.000000 
#    z -0.008220 0.000000 1.777310 
# 
# From -- ./inp_files/267657.got.cif
#   From: 2010.06.25/outbox.cif.g09.slc.cpg/sg12_134_cif.got.tgz:267657.got - 2010.06.28 00:19:55.
