data_PCOD8114249
_publ_section_title
;
Structure prediction by ZEFSAII (Michael W. Deem and Ramdas Pophale) SiO2 
 PCOD8114249
Probable space group: C 2/M
;
_chemical_formula_sum "Si O2"
_cell_formula_units_Z 56
_cell_length_a 21.038625
_cell_length_b 18.076570
_cell_length_c 19.955769
_cell_angle_alpha 90.000000
_cell_angle_beta 20.946702
_cell_angle_gamma 90.000000
_cell_volume 2713.170645
_symmetry_space_group_name_H-M "C 2/M"
_symmetry_group_IT_number 12
_symmetry_cell_setting 'monoclinic'
loop_
_space_group_symop_operation_xyz
x,y,z
-x,y,-z
-x,-y,-z
x,-y,z
1/2+x,1/2+y,z
1/2-x,1/2+y,-z
1/2-x,1/2-y,-z
1/2+x,1/2-y,z
loop_
_atom_site_type_symbol
_atom_site_label
_atom_site_fract_x
_atom_site_fract_y
_atom_site_fract_z
Si Si1 0.020146 0.586341 0.609605
Si Si2 0.278189 0.311573 0.149444
Si Si3 0.819338 0.812944 0.262541
Si Si4 0.781527 0.158490 0.588924
Si Si5 0.702670 0.913858 0.799868
Si Si6 0.322399 0.657579 0.814385
Si Si7 0.470601 0.086076 0.813256
O O1 0.018077 0.500000 0.596400
O O2 0.204569 0.618105 0.400375
O O3 0.853330 0.621119 0.735478
O O4 0.007643 0.604383 0.700124
O O5 0.266665 0.290501 0.238879
O O6 0.221855 0.240886 0.162293
O O7 0.475601 0.337008 0.934672
O O8 0.784141 0.743004 0.345129
O O9 0.807255 0.129144 0.639091
O O10 0.642059 0.108053 0.687351
O O11 0.972452 0.153492 0.364590
O O12 0.789668 0.898315 0.785562
O O13 0.711873 0.000000 0.774766
O O14 0.500000 0.884659 0.000000
O O15 0.201567 0.632948 0.995611
O O16 0.431732 0.000000 0.863914
#
# Coordination Sequence:
#
# PCOD8114249 Si02
#       7
#     8   8   8   8   8   8   8
#     4  11  27  48  70  96 131 175 224 275 332 394
#     4  11  23  43  71 101 133 167 214 280 340 391
#     4  11  23  43  71 101 133 167 214 280 340 391
#     4  12  23  39  65  97 134 174 223 267 323 390
#     4  11  21  35  59  92 135 176 214 268 327 386
#     4  12  23  39  65  97 134 174 223 267 323 390
#     4  11  26  46  64  94 141 184 222 267 315 386
#
# _framework density 20.640059000000001
#
# number of rings (size 3 to 8) (size 9 to 14) (size 15 to 20)
#    0.000    0.714    5.714    1.714    0.000    6.857 
#    0.000    4.286    0.000    0.000    0.000    0.000 
#    0.000    0.000    0.000    0.000    0.000    0.000 
#
# Total GULP energy -347406.833518 kJ/mol
# GULP energy per Si atom -12407.386911 kJ/mol
# Density = 2.059308 g / cm^3
# Si number density = 20.640059 Si / 1000 Ang^3
#
#
#
# Elastic Constant Matrix: (Units=GPa)
#
#
# Indices 1 2 3 4 5 6 
#
# 1 32.1160 9.1786 22.3480 0.0579 4.7193 -0.0297
# 2 9.1786 91.1516 44.5397 -0.0264 10.9382 0.0006
# 3 22.3480 44.5397 156.5176 0.0171 7.3602 -0.0286
# 4 0.0579 -0.0264 0.0171 33.0872 0.0006 4.8661
# 5 4.7193 10.9382 7.3602 0.0006 18.6432 0.0085
# 6 -0.0297 0.0006 -0.0286 4.8661 0.0085 28.9591
#
#
#
# Elastic Compliance Matrix: (Units=1/GPa)
#
#
# Indices 1 2 3 4 5 6 
#
# 1 0.035493 -0.000500 -0.004602 -0.000067 -0.006874 0.000045
# 2 -0.000500 0.013484 -0.003464 0.000014 -0.006417 -0.000005
# 3 -0.004602 -0.003464 0.008031 0.000001 0.000027 0.000003
# 4 -0.000067 0.000014 0.000001 0.030989 0.000010 -0.005207
# 5 -0.006874 -0.006417 0.000027 0.000010 0.059133 -0.000026
# 6 0.000045 -0.000005 0.000003 -0.005207 -0.000026 0.035407
#
#
# Mechanical properties :
#
#
# Convention : Reuss Voigt Hill
#
# Bulk Modulus (GPa) = 25.07867 47.99086 36.53477
# Shear Modulus (GPa) = 23.47858 29.71916 26.59887
#
# Velocity S-wave (km/s) = 3.37638 3.79869 3.59374
# Velocity P-wave (km/s) = 5.23228 6.52241 5.91264
#
# Compressibility (1/GPa) = 0.03987452
#
# Stress axis : x y z
#
# Youngs Moduli (GPa) = 28.17469 74.16367 124.52403
#
# Poissons Ratio (x) = 0.03711 0.57307
# Poissons Ratio (y) = 0.01410 0.43133
# Poissons Ratio (z) = 0.12966 0.25689
#
# Static dielectric constant tensor:
#      x y z
#    x 3.652370 -0.000090 0.014340 
#    y -0.000090 3.700450 0.000220 
#    z 0.014340 0.000220 4.004200 
# 
# 
# High freq. dielectric constant tensor:
#      x y z
#    x 1.794300 -0.000010 -0.000280 
#    y -0.000010 1.810060 0.000020 
#    z -0.000280 0.000020 1.823660 
# 
# From -- ./inp_files/322619.got.cif
#   From: 2010.06.25/outbox.cif.g09.slc.cpg/sg12_162_cif.got.tgz:322619.got - 2010.06.28 00:19:55.
