data_PCOD8114818
_publ_section_title
;
Structure prediction by ZEFSAII (Michael W. Deem and Ramdas Pophale) SiO2 
 PCOD8114818
Probable space group: C 2/M
;
_chemical_formula_sum "Si O2"
_cell_formula_units_Z 32
_cell_length_a 22.552781
_cell_length_b 8.580800
_cell_length_c 9.307187
_cell_angle_alpha 90.000000
_cell_angle_beta 114.827958
_cell_angle_gamma 90.000000
_cell_volume 1634.661159
_symmetry_space_group_name_H-M "C 2/M"
_symmetry_group_IT_number 12
_symmetry_cell_setting 'monoclinic'
loop_
_space_group_symop_operation_xyz
x,y,z
-x,y,-z
-x,-y,-z
x,-y,z
1/2+x,1/2+y,z
1/2-x,1/2+y,-z
1/2-x,1/2-y,-z
1/2+x,1/2-y,z
loop_
_atom_site_type_symbol
_atom_site_label
_atom_site_fract_x
_atom_site_fract_y
_atom_site_fract_z
Si Si1 0.809419 0.815147 0.650549
Si Si2 0.575349 0.684790 0.740783
Si Si3 0.428861 0.684205 0.587333
Si Si4 0.691722 0.817125 0.034324
O O1 0.750000 0.750000 0.500000
O O2 0.876456 0.750288 0.647495
O O3 0.804683 0.758151 0.806729
O O4 0.807734 0.000000 0.644616
O O5 0.585856 0.500000 0.771204
O O6 0.501621 0.737201 0.706218
O O7 0.589755 0.739605 0.592302
O O8 0.622532 0.777709 0.893730
O O9 0.428297 0.500000 0.583703
O O10 0.700917 0.000000 0.058516
O O11 0.750000 0.750000 0.000000
#
# Coordination Sequence:
#
# PCOD8114818 Si02
#       4
#     8   8   8   8
#     4  11  22  38  59  86 117 153 192 235 282 336
#     4   9  17  36  62  87 113 147 188 232 278 337
#     4   8  17  34  60  87 114 148 187 227 279 341
#     4  12  25  40  57  82 113 150 192 240 291 342
#
# _framework density 19.575924000000001
#
# number of rings (size 3 to 8) (size 9 to 14) (size 15 to 20)
#    0.000    2.000    0.000    6.000    0.000    3.000 
#    0.000   11.250    0.000    0.000    0.000    0.000 
#    0.000    0.000    0.000    0.000    0.000    0.000 
#
# Total GULP energy -198400.019557 kJ/mol
# GULP energy per Si atom -12400.001222 kJ/mol
# Density = 1.953137 g / cm^3
# Si number density = 19.575924 Si / 1000 Ang^3
#
#
#
# Elastic Constant Matrix: (Units=GPa)
#
#
# Indices 1 2 3 4 5 6 
#
# 1 184.4187 41.0818 93.2656 0.0000 -12.0404 0.0000
# 2 41.0818 63.8443 25.8337 0.0000 -0.6420 0.0000
# 3 93.2656 25.8337 154.8128 0.0000 2.2207 0.0000
# 4 0.0000 0.0000 0.0000 36.6271 0.0000 4.0393
# 5 -12.0404 -0.6420 2.2207 0.0000 36.2014 0.0000
# 6 0.0000 0.0000 0.0000 4.0393 0.0000 26.3713
#
#
#
# Elastic Compliance Matrix: (Units=1/GPa)
#
#
# Indices 1 2 3 4 5 6 
#
# 1 0.008876 -0.003751 -0.004767 0.000000 0.003178 0.000000
# 2 -0.003751 0.018390 -0.000797 0.000000 -0.000872 0.000000
# 3 -0.004767 -0.000797 0.009496 0.000000 -0.002182 0.000000
# 4 0.000000 0.000000 0.000000 0.027771 0.000000 -0.004254
# 5 0.003178 -0.000872 -0.002182 0.000000 0.028799 0.000000
# 6 0.000000 0.000000 0.000000 -0.004254 0.000000 0.038572
#
#
# Mechanical properties :
#
#
# Convention : Reuss Voigt Hill
#
# Bulk Modulus (GPa) = 55.14815 80.38200 67.76508
# Shear Modulus (GPa) = 31.93314 36.03294 33.98304
#
# Velocity S-wave (km/s) = 4.04325 4.29496 4.17101
# Velocity P-wave (km/s) = 7.07317 8.10842 7.60842
#
# Compressibility (1/GPa) = 0.01813297
#
# Stress axis : x y z
#
# Youngs Moduli (GPa) = 112.65872 54.37685 105.31179
#
# Poissons Ratio (x) = 0.20395 0.50204
# Poissons Ratio (y) = 0.42255 0.08390
# Poissons Ratio (z) = 0.53707 0.04332
#
# Static dielectric constant tensor:
#      x y z
#    x 4.242900 0.000000 -0.077410 
#    y 0.000000 3.397720 0.000000 
#    z -0.077410 0.000000 3.678350 
# 
# 
# High freq. dielectric constant tensor:
#      x y z
#    x 1.781240 0.000000 0.003850 
#    y 0.000000 1.741360 0.000000 
#    z 0.003850 0.000000 1.770840 
# 
# From -- ./inp_files/81697.got.cif
#   From: 2010.06.25/outbox.cif.g09.slc.cpg/sg12_41_cif.got.tgz:81697.got - 2010.06.28 00:19:55.
