data_PCOD8114018
_publ_section_title
;
Structure prediction by ZEFSAII (Michael W. Deem and Ramdas Pophale) SiO2 
 PCOD8114018
Probable space group: C 2/M
;
_chemical_formula_sum "Si O2"
_cell_formula_units_Z 48
_cell_length_a 19.651100
_cell_length_b 11.011974
_cell_length_c 12.050511
_cell_angle_alpha 90.000000
_cell_angle_beta 113.173724
_cell_angle_gamma 90.000000
_cell_volume 2397.299421
_symmetry_space_group_name_H-M "C 2/M"
_symmetry_group_IT_number 12
_symmetry_cell_setting 'monoclinic'
loop_
_space_group_symop_operation_xyz
x,y,z
-x,y,-z
-x,-y,-z
x,-y,z
1/2+x,1/2+y,z
1/2-x,1/2+y,-z
1/2-x,1/2-y,-z
1/2+x,1/2-y,z
loop_
_atom_site_type_symbol
_atom_site_label
_atom_site_fract_x
_atom_site_fract_y
_atom_site_fract_z
Si Si1 0.658301 0.641569 0.655458
Si Si2 0.555859 0.000000 0.867442
Si Si3 0.546899 0.255526 0.751733
Si Si4 0.389270 0.639057 0.623232
Si Si5 0.315825 0.760209 0.774938
Si Si6 0.394283 0.000000 0.860379
Si Si7 0.924161 0.139062 0.002414
O O1 0.664707 0.500000 0.693709
O O2 0.587405 0.704226 0.665661
O O3 0.650668 0.655593 0.519221
O O4 0.729224 0.718265 0.740419
O O5 0.566412 0.882776 0.796293
O O6 0.477555 0.000000 0.875108
O O7 0.612941 0.000000 0.008846
O O8 0.459571 0.272516 0.677986
O O9 0.575828 0.344654 0.866365
O O10 0.415530 0.500000 0.657041
O O11 0.329546 0.673086 0.678626
O O12 0.354254 0.887768 0.777406
O O13 0.351554 0.702849 0.907914
O O14 0.920654 0.000000 0.965372
O O15 0.000000 0.197799 0.000000
#
# Coordination Sequence:
#
# PCOD8114018 Si02
#       7
#     8   4   8   8   8   4   8
#     4  11  26  44  63  91 131 174 210 257 322 376
#     4  11  22  40  66  97 122 162 211 262 317 377
#     4  12  23  42  66  95 127 164 214 263 317 381
#     4  11  23  43  69  92 122 170 221 264 304 370
#     4  12  22  41  66  95 127 163 212 259 316 380
#     4  11  20  40  67  90 124 167 205 256 319 385
#     4  11  21  37  66  98 125 159 209 267 313 366
#
# _framework density 20.02253
#
# number of rings (size 3 to 8) (size 9 to 14) (size 15 to 20)
#    0.000    0.667    5.833    3.000    0.000    2.000 
#    3.000    2.500    0.000    0.000    0.000    0.000 
#    0.000    0.000    0.000    0.000    0.000    0.000 
#
# Total GULP energy -297696.277521 kJ/mol
# GULP energy per Si atom -12404.011563 kJ/mol
# Density = 1.997696 g / cm^3
# Si number density = 20.022530 Si / 1000 Ang^3
#
#
#
# Elastic Constant Matrix: (Units=GPa)
#
#
# Indices 1 2 3 4 5 6 
#
# 1 64.7089 20.3083 9.2619 0.0000 7.3117 0.0000
# 2 20.3083 85.7294 25.9568 0.0000 7.0367 0.0000
# 3 9.2619 25.9568 67.6499 0.0000 10.3032 0.0000
# 4 0.0000 0.0000 0.0000 37.8755 0.0000 -0.8441
# 5 7.3117 7.0367 10.3032 0.0000 28.1844 0.0000
# 6 0.0000 0.0000 0.0000 -0.8441 0.0000 32.1041
#
#
#
# Elastic Compliance Matrix: (Units=1/GPa)
#
#
# Indices 1 2 3 4 5 6 
#
# 1 0.017034 -0.003630 -0.000428 0.000000 -0.003356 0.000000
# 2 -0.003630 0.014034 -0.004763 0.000000 -0.000821 0.000000
# 3 -0.000428 -0.004763 0.017441 0.000000 -0.005076 0.000000
# 4 0.000000 0.000000 0.000000 0.026418 0.000000 0.000695
# 5 -0.003356 -0.000821 -0.005076 0.000000 0.038412 0.000000
# 6 0.000000 0.000000 0.000000 0.000695 0.000000 0.031167
#
#
# Mechanical properties :
#
#
# Convention : Reuss Voigt Hill
#
# Bulk Modulus (GPa) = 32.39707 36.57135 34.48421
# Shear Modulus (GPa) = 28.99634 30.47021 29.73327
#
# Velocity S-wave (km/s) = 3.80963 3.90525 3.85774
# Velocity P-wave (km/s) = 5.96376 6.21606 6.09122
#
# Compressibility (1/GPa) = 0.03086699
#
# Stress axis : x y z
#
# Youngs Moduli (GPa) = 58.70769 71.25588 57.33594
#
# Poissons Ratio (x) = 0.25866 0.02455
# Poissons Ratio (y) = 0.21311 0.27307
# Poissons Ratio (z) = 0.02513 0.33937
#
# Static dielectric constant tensor:
#      x y z
#    x 3.416310 0.000000 0.062380 
#    y 0.000000 3.679500 0.000000 
#    z 0.062380 0.000000 3.666840 
# 
# 
# High freq. dielectric constant tensor:
#      x y z
#    x 1.762140 0.000000 0.004340 
#    y 0.000000 1.790440 0.000000 
#    z 0.004340 0.000000 1.788350 
# 
# From -- ./inp_files/154340.got.cif
#   From: 2010.06.25/outbox.cif.g09.slc.cpg/sg12_78_cif.got.tgz:154340.got - 2010.06.28 00:19:55.
