data_PCOD8114490
_publ_section_title
;
Structure prediction by ZEFSAII (Michael W. Deem and Ramdas Pophale) SiO2 
 PCOD8114490
Probable space group: C 2/M
;
_chemical_formula_sum "Si O2"
_cell_formula_units_Z 56
_cell_length_a 9.115470
_cell_length_b 18.415045
_cell_length_c 16.635216
_cell_angle_alpha 90.000000
_cell_angle_beta 68.097235
_cell_angle_gamma 90.000000
_cell_volume 2590.855592
_symmetry_space_group_name_H-M "C 2/M"
_symmetry_group_IT_number 12
_symmetry_cell_setting 'monoclinic'
loop_
_space_group_symop_operation_xyz
x,y,z
-x,y,-z
-x,-y,-z
x,-y,z
1/2+x,1/2+y,z
1/2-x,1/2+y,-z
1/2-x,1/2-y,-z
1/2+x,1/2-y,z
loop_
_atom_site_type_symbol
_atom_site_label
_atom_site_fract_x
_atom_site_fract_y
_atom_site_fract_z
Si Si1 0.319276 0.916180 0.713611
Si Si2 0.688427 0.805015 0.834419
Si Si3 0.825146 0.334830 0.875741
Si Si4 0.187218 0.581057 0.963712
Si Si5 0.664759 0.083942 0.574890
Si Si6 0.781952 0.827507 0.406590
Si Si7 0.359007 0.686755 0.633440
O O1 0.306877 0.892056 0.807807
O O2 0.494605 0.900378 0.646625
O O3 0.202004 0.868743 0.682220
O O4 0.271800 0.000000 0.716932
O O5 0.713153 0.734418 0.884849
O O6 0.506161 0.809106 0.846123
O O7 0.743103 0.876077 0.872907
O O8 0.801280 0.797410 0.735021
O O9 0.760124 0.375107 0.968040
O O10 0.262007 0.500000 0.947899
O O11 0.000000 0.575186 0.000000
O O12 0.676404 0.124364 0.487654
O O13 0.792350 0.110788 0.614140
O O14 0.696016 0.000000 0.552103
O O15 0.701904 0.749288 0.413674
O O16 0.953546 0.815809 0.408913
#
# Coordination Sequence:
#
# PCOD8114490 Si02
#       7
#     8   8   8   8   8   8   8
#     4  11  23  41  66  91 125 167 209 259 315 377
#     4  11  22  39  66  94 124 163 207 257 307 368
#     4  11  21  40  65  95 127 161 210 252 309 369
#     4   9  20  38  64  95 125 162 206 252 304 366
#     4  11  25  44  64  91 125 166 213 263 318 371
#     4  12  25  42  64  92 126 164 216 260 313 373
#     4  12  24  42  65  93 126 166 212 259 315 370
#
# _framework density 21.61448
#
# number of rings (size 3 to 8) (size 9 to 14) (size 15 to 20)
#    0.000    1.000    2.857    4.286    0.000    5.143 
#    0.000    0.000    0.000    0.857    0.000    0.000 
#    0.000    0.000    0.000    0.000    0.000    0.000 
#
# Total GULP energy -347397.346643 kJ/mol
# GULP energy per Si atom -12407.048094 kJ/mol
# Density = 2.156528 g / cm^3
# Si number density = 21.614480 Si / 1000 Ang^3
#
#
#
# Elastic Constant Matrix: (Units=GPa)
#
#
# Indices 1 2 3 4 5 6 
#
# 1 62.7574 19.3643 2.7206 0.0000 8.6745 0.0000
# 2 19.3643 111.6850 25.9410 0.0000 1.5244 0.0000
# 3 2.7206 25.9410 61.3578 0.0000 18.4203 0.0000
# 4 0.0000 0.0000 0.0000 40.9264 0.0000 10.1372
# 5 8.6745 1.5244 18.4203 0.0000 26.9776 0.0000
# 6 0.0000 0.0000 0.0000 10.1372 0.0000 27.7605
#
#
#
# Elastic Compliance Matrix: (Units=1/GPa)
#
#
# Indices 1 2 3 4 5 6 
#
# 1 0.018017 -0.003736 0.003090 0.000000 -0.007692 0.000000
# 2 -0.003736 0.010887 -0.005803 0.000000 0.004548 0.000000
# 3 0.003090 -0.005803 0.023665 0.000000 -0.016824 0.000000
# 4 0.000000 0.000000 0.000000 0.026864 0.000000 -0.009810
# 5 -0.007692 0.004548 -0.016824 0.000000 0.050771 0.000000
# 6 0.000000 0.000000 0.000000 -0.009810 0.000000 0.039605
#
#
# Mechanical properties :
#
#
# Convention : Reuss Voigt Hill
#
# Bulk Modulus (GPa) = 25.20772 36.87243 31.04007
# Shear Modulus (GPa) = 25.51922 31.65119 28.58520
#
# Velocity S-wave (km/s) = 3.43979 3.83084 3.64057
# Velocity P-wave (km/s) = 5.24061 6.05502 5.66247
#
# Compressibility (1/GPa) = 0.03967039
#
# Stress axis : x y z
#
# Youngs Moduli (GPa) = 55.50453 91.84998 42.25664
#
# Poissons Ratio (x) = 0.34320 -0.13057
# Poissons Ratio (y) = 0.20739 0.24520
# Poissons Ratio (z) = -0.17151 0.53298
#
# Static dielectric constant tensor:
#      x y z
#    x 3.791250 0.000000 0.291590 
#    y 0.000000 4.127570 0.000000 
#    z 0.291590 0.000000 3.945840 
# 
# 
# High freq. dielectric constant tensor:
#      x y z
#    x 1.838620 0.000000 0.022630 
#    y 0.000000 1.862290 0.000000 
#    z 0.022630 0.000000 1.856260 
# 
# From -- ./inp_files/257011.got.cif
#   From: 2010.06.25/outbox.cif.g09.slc.cpg/sg12_129_cif.got.tgz:257011.got - 2010.06.28 00:19:55.
