data_PCOD8114570
_publ_section_title
;
Structure prediction by ZEFSAII (Michael W. Deem and Ramdas Pophale) SiO2 
 PCOD8114570
Probable space group: C 2/M
;
_chemical_formula_sum "Si O2"
_cell_formula_units_Z 64
_cell_length_a 15.221946
_cell_length_b 16.637835
_cell_length_c 13.854356
_cell_angle_alpha 90.000000
_cell_angle_beta 54.270495
_cell_angle_gamma 90.000000
_cell_volume 2848.349269
_symmetry_space_group_name_H-M "C 2/M"
_symmetry_group_IT_number 12
_symmetry_cell_setting 'monoclinic'
loop_
_space_group_symop_operation_xyz
x,y,z
-x,y,-z
-x,-y,-z
x,-y,z
1/2+x,1/2+y,z
1/2-x,1/2+y,-z
1/2-x,1/2-y,-z
1/2+x,1/2-y,z
loop_
_atom_site_type_symbol
_atom_site_label
_atom_site_fract_x
_atom_site_fract_y
_atom_site_fract_z
Si Si1 0.241753 0.405795 0.452113
Si Si2 0.858806 0.352591 0.295316
Si Si3 0.082692 0.412525 0.205514
Si Si4 0.887062 0.677788 0.622655
Si Si5 0.507508 0.409119 0.727142
Si Si6 0.306609 0.823641 0.011581
Si Si7 0.008027 0.221485 0.886817
Si Si8 0.825480 0.147411 0.714993
O O1 0.211211 0.500000 0.485475
O O2 0.179866 0.347894 0.568010
O O3 0.204895 0.376287 0.369554
O O4 0.369561 0.392522 0.381517
O O5 0.882510 0.264852 0.227480
O O6 0.757506 0.396743 0.305732
O O7 0.966923 0.405750 0.226347
O O8 0.093482 0.500000 0.245864
O O9 0.098521 0.344904 0.275360
O O10 0.181418 0.400615 0.066399
O O11 0.855913 0.770665 0.641454
O O12 0.000000 0.661114 0.500000
O O13 0.493939 0.500000 0.774625
O O14 0.470763 0.347625 0.835281
O O15 0.434970 0.398435 0.676340
O O16 0.428709 0.796115 0.950204
O O17 0.250000 0.750000 0.000000
O O18 0.246016 0.846685 0.145027
O O19 0.000000 0.182122 0.000000
#
# Coordination Sequence:
#
# PCOD8114570 Si02
#       8
#     8   8   8   8   8   8   8   8
#     4  11  26  46  67 100 140 175 220 278 339 400
#     4  11  24  42  72  97 135 180 221 278 335 389
#     4  11  24  43  69 105 137 169 218 280 349 402
#     4  12  25  41  73 104 130 174 223 286 338 393
#     4  11  27  45  64  97 140 181 222 271 330 404
#     4  11  21  43  67  96 135 173 221 280 327 392
#     4  11  22  41  70 100 128 167 229 286 331 391
#     4  12  25  44  68  99 135 181 233 269 321 400
#
# _framework density 22.469155000000001
#
# number of rings (size 3 to 8) (size 9 to 14) (size 15 to 20)
#    0.000    0.750    5.000    2.250    1.750    3.250 
#    0.000    1.875    0.000    0.000    0.000    0.000 
#    0.000    0.000    0.000    0.000    0.000    0.000 
#
# Total GULP energy -396469.655926 kJ/mol
# GULP energy per Si atom -12389.676748 kJ/mol
# Density = 2.241801 g / cm^3
# Si number density = 22.469155 Si / 1000 Ang^3
#
#
#
# Elastic Constant Matrix: (Units=GPa)
#
#
# Indices 1 2 3 4 5 6 
#
# 1 131.0212 25.7919 26.7490 0.0000 -6.1420 0.0000
# 2 25.7919 72.2800 33.4411 0.0000 -0.4847 0.0000
# 3 26.7490 33.4411 57.4077 0.0000 -0.6172 0.0000
# 4 0.0000 0.0000 0.0000 22.5581 0.0000 -1.9178
# 5 -6.1420 -0.4847 -0.6172 0.0000 35.1928 0.0000
# 6 0.0000 0.0000 0.0000 -1.9178 0.0000 26.7458
#
#
#
# Elastic Compliance Matrix: (Units=1/GPa)
#
#
# Indices 1 2 3 4 5 6 
#
# 1 0.008649 -0.001669 -0.003042 0.000000 0.001433 0.000000
# 2 -0.001669 0.019262 -0.010445 0.000000 -0.000209 0.000000
# 3 -0.003042 -0.010445 0.024919 0.000000 -0.000238 0.000000
# 4 0.000000 0.000000 0.000000 0.044602 0.000000 0.003198
# 5 0.001433 -0.000209 -0.000238 0.000000 0.028658 0.000000
# 6 0.000000 0.000000 0.000000 0.003198 0.000000 0.037618
#
#
# Mechanical properties :
#
#
# Convention : Reuss Voigt Hill
#
# Bulk Modulus (GPa) = 44.41118 48.07476 46.24297
# Shear Modulus (GPa) = 24.81071 28.54781 26.67926
#
# Velocity S-wave (km/s) = 3.32657 3.56832 3.44957
# Velocity P-wave (km/s) = 5.87904 6.19835 6.04081
#
# Compressibility (1/GPa) = 0.02251686
#
# Stress axis : x y z
#
# Youngs Moduli (GPa) = 115.61712 51.91654 40.13071
#
# Poissons Ratio (x) = 0.08666 0.12209
# Poissons Ratio (y) = 0.19298 0.41916
# Poissons Ratio (z) = 0.35175 0.54226
#
# Static dielectric constant tensor:
#      x y z
#    x 4.593600 0.000000 -0.147650 
#    y 0.000000 3.711660 0.000000 
#    z -0.147650 0.000000 4.416270 
# 
# 
# High freq. dielectric constant tensor:
#      x y z
#    x 1.899520 0.000000 -0.007110 
#    y 0.000000 1.860640 0.000000 
#    z -0.007110 0.000000 1.894120 
# 
# From -- ./inp_files/216775.got.cif
#   From: 2010.06.25/outbox.cif.g09.slc.cpg/sg12_109_cif.got.tgz:216775.got - 2010.06.28 00:19:55.
