data_PCOD8114203
_publ_section_title
;
Structure prediction by ZEFSAII (Michael W. Deem and Ramdas Pophale) SiO2 
 PCOD8114203
Probable space group: C 2/M
;
_chemical_formula_sum "Si O2"
_cell_formula_units_Z 56
_cell_length_a 28.303702
_cell_length_b 8.771408
_cell_length_c 17.332032
_cell_angle_alpha 90.000000
_cell_angle_beta 136.966512
_cell_angle_gamma 90.000000
_cell_volume 2936.414859
_symmetry_space_group_name_H-M "C 2/M"
_symmetry_group_IT_number 12
_symmetry_cell_setting 'monoclinic'
loop_
_space_group_symop_operation_xyz
x,y,z
-x,y,-z
-x,-y,-z
x,-y,z
1/2+x,1/2+y,z
1/2-x,1/2+y,-z
1/2-x,1/2-y,-z
1/2+x,1/2-y,z
loop_
_atom_site_type_symbol
_atom_site_label
_atom_site_fract_x
_atom_site_fract_y
_atom_site_fract_z
Si Si1 0.786517 0.321790 0.737333
Si Si2 0.645036 0.825086 0.756502
Si Si3 0.642558 0.173693 0.580967
Si Si4 0.937145 0.675889 0.664057
Si Si5 0.302128 0.322145 0.915448
Si Si6 0.682182 0.679507 0.380815
Si Si7 0.918163 0.178031 0.174783
O O1 0.797615 0.500000 0.740697
O O2 0.705200 0.284545 0.634007
O O3 0.818301 0.268573 0.856534
O O4 0.827247 0.237340 0.717686
O O5 0.615542 0.794566 0.635258
O O6 0.725997 0.781218 0.855911
O O7 0.603057 0.717086 0.763439
O O8 0.633500 0.000000 0.767779
O O9 0.580010 0.200315 0.447036
O O10 0.671063 0.000000 0.610297
O O11 0.929572 0.500000 0.678761
O O12 0.885919 0.775066 0.654103
O O13 0.014649 0.730358 0.771555
O O14 0.307209 0.500000 0.902295
O O15 0.356559 0.270624 0.044758
O O16 0.691169 0.500000 0.392424
O O17 0.750000 0.750000 0.500000
O O18 0.933912 0.000000 0.187717
#
# Coordination Sequence:
#
# PCOD8114203 Si02
#       7
#     8   8   8   8   8   8   8
#     4  11  21  34  59  91 117 145 187 240 289 335
#     4   9  18  35  59  84 110 148 197 242 288 342
#     4   9  19  36  57  82 115 152 190 236 289 342
#     4  11  23  39  59  83 116 156 194 236 287 344
#     4   9  20  39  60  82 114 154 195 239 290 341
#     4  12  23  38  61  89 119 150 188 232 282 341
#     4  11  23  38  56  82 117 156 194 240 292 341
#
# _framework density 19.070874
#
# number of rings (size 3 to 8) (size 9 to 14) (size 15 to 20)
#    0.000    1.714    1.429    4.714    0.000    4.571 
#    0.000    3.571    0.000    4.286    0.000    0.000 
#    0.000    0.000    0.000    0.000    0.000    0.000 
#
# Total GULP energy -347319.004966 kJ/mol
# GULP energy per Si atom -12404.250177 kJ/mol
# Density = 1.902747 g / cm^3
# Si number density = 19.070874 Si / 1000 Ang^3
#
#
#
# Elastic Constant Matrix: (Units=GPa)
#
#
# Indices 1 2 3 4 5 6 
#
# 1 106.0844 45.3543 32.9035 0.0000 -6.1423 0.0000
# 2 45.3543 107.4576 24.4990 0.0000 -5.1960 0.0000
# 3 32.9035 24.4990 47.3264 0.0000 2.0428 0.0000
# 4 0.0000 0.0000 0.0000 29.0239 0.0000 -1.0903
# 5 -6.1423 -5.1960 2.0428 0.0000 24.6833 0.0000
# 6 0.0000 0.0000 0.0000 -1.0903 0.0000 37.1379
#
#
#
# Elastic Compliance Matrix: (Units=1/GPa)
#
#
# Indices 1 2 3 4 5 6 
#
# 1 0.013623 -0.003859 -0.007612 0.000000 0.003208 0.000000
# 2 -0.003859 0.011825 -0.003517 0.000000 0.001820 0.000000
# 3 -0.007612 -0.003517 0.028458 0.000000 -0.004990 0.000000
# 4 0.000000 0.000000 0.000000 0.034492 0.000000 0.001013
# 5 0.003208 0.001820 -0.004990 0.000000 0.042107 0.000000
# 6 0.000000 0.000000 0.000000 0.001013 0.000000 0.026956
#
#
# Mechanical properties :
#
#
# Convention : Reuss Voigt Hill
#
# Bulk Modulus (GPa) = 41.78892 51.82023 46.80457
# Shear Modulus (GPa) = 25.58668 28.70980 27.14824
#
# Velocity S-wave (km/s) = 3.66685 3.88419 3.77708
# Velocity P-wave (km/s) = 6.31567 6.88094 6.60436
#
# Compressibility (1/GPa) = 0.02392979
#
# Stress axis : x y z
#
# Youngs Moduli (GPa) = 73.40455 84.56941 35.13973
#
# Poissons Ratio (x) = 0.32638 0.26749
# Poissons Ratio (y) = 0.28329 0.12357
# Poissons Ratio (z) = 0.55876 0.29739
#
# Static dielectric constant tensor:
#      x y z
#    x 3.508320 0.000000 -0.191640 
#    y 0.000000 3.466130 0.000000 
#    z -0.191640 0.000000 3.548900 
# 
# 
# High freq. dielectric constant tensor:
#      x y z
#    x 1.739700 0.000000 -0.015150 
#    y 0.000000 1.745330 0.000000 
#    z -0.015150 0.000000 1.734170 
# 
# From -- ./inp_files/292583.got.cif
#   From: 2010.06.25/outbox.cif.g09.slc.cpg/sg12_147_cif.got.tgz:292583.got - 2010.06.28 00:19:55.
