data_PCOD8114863
_publ_section_title
;
Structure prediction by ZEFSAII (Michael W. Deem and Ramdas Pophale) SiO2 
 PCOD8114863
Probable space group: C 2/M
;
_chemical_formula_sum "Si O2"
_cell_formula_units_Z 56
_cell_length_a 29.886645
_cell_length_b 16.597762
_cell_length_c 9.848010
_cell_angle_alpha 90.000000
_cell_angle_beta 34.583360
_cell_angle_gamma 90.000000
_cell_volume 2772.816526
_symmetry_space_group_name_H-M "C 2/M"
_symmetry_group_IT_number 12
_symmetry_cell_setting 'monoclinic'
loop_
_space_group_symop_operation_xyz
x,y,z
-x,y,-z
-x,-y,-z
x,-y,z
1/2+x,1/2+y,z
1/2-x,1/2+y,-z
1/2-x,1/2-y,-z
1/2+x,1/2-y,z
loop_
_atom_site_type_symbol
_atom_site_label
_atom_site_fract_x
_atom_site_fract_y
_atom_site_fract_z
Si Si1 0.219303 0.407936 0.867679
Si Si2 0.131624 0.171130 0.905082
Si Si3 0.007004 0.090913 0.634837
Si Si4 0.093400 0.289741 0.242059
Si Si5 0.091952 0.284725 0.771530
Si Si6 0.640292 0.701222 0.388501
Si Si7 0.286938 0.092388 0.435338
O O1 0.229425 0.500000 0.892362
O O2 0.280173 0.349188 0.791441
O O3 0.233997 0.402341 0.670443
O O4 0.131339 0.378379 0.127231
O O5 0.111326 0.204302 0.807361
O O6 0.220909 0.140244 0.686262
O O7 0.113207 0.242200 0.055588
O O8 0.076696 0.095063 0.079928
O O9 0.067926 0.139067 0.574550
O O10 0.000000 0.129372 0.500000
O O11 0.036621 0.000000 0.547811
O O12 0.140441 0.245417 0.244197
O O13 0.000000 0.298914 0.500000
O O14 0.126458 0.269457 0.535813
O O15 0.130919 0.364217 0.738501
O O16 0.000000 0.303014 0.000000
O O17 0.292086 0.000000 0.470860
#
# Coordination Sequence:
#
# PCOD8114863 Si02
#       7
#     8   8   8   8   8   8   8
#     4  11  25  43  65  94 132 171 211 266 319 374
#     4  12  20  43  65  96 126 168 216 252 318 389
#     4  11  22  38  63  96 135 170 203 259 327 384
#     4  12  23  43  70  94 127 171 219 258 315 383
#     4  12  23  40  69  94 125 169 218 262 313 380
#     4  12  22  42  62 100 128 161 215 265 316 378
#     4  11  25  43  65  95 131 170 212 265 322 375
#
# _framework density 20.196071
#
# number of rings (size 3 to 8) (size 9 to 14) (size 15 to 20)
#    0.000    0.429    7.143    2.571    0.000    0.571 
#    0.000    2.857    0.000    0.000    0.000    0.000 
#    0.000    0.000    0.000    0.000    0.000    0.000 
#
# Total GULP energy -347290.214060 kJ/mol
# GULP energy per Si atom -12403.221931 kJ/mol
# Density = 2.015010 g / cm^3
# Si number density = 20.196071 Si / 1000 Ang^3
#
#
#
# Elastic Constant Matrix: (Units=GPa)
#
#
# Indices 1 2 3 4 5 6 
#
# 1 85.1599 32.8022 27.3572 0.0000 -10.8596 0.0000
# 2 32.8022 85.5969 48.6504 0.0000 -19.3482 0.0000
# 3 27.3572 48.6504 101.7961 0.0000 -21.8475 0.0000
# 4 0.0000 0.0000 0.0000 27.6831 0.0000 4.9907
# 5 -10.8596 -19.3482 -21.8475 0.0000 32.2194 0.0000
# 6 0.0000 0.0000 0.0000 4.9907 0.0000 15.5878
#
#
#
# Elastic Compliance Matrix: (Units=1/GPa)
#
#
# Indices 1 2 3 4 5 6 
#
# 1 0.014008 -0.004267 -0.001477 0.000000 0.001158 0.000000
# 2 -0.004267 0.018117 -0.006420 0.000000 0.005088 0.000000
# 3 -0.001477 -0.006420 0.014458 0.000000 0.005451 0.000000
# 4 0.000000 0.000000 0.000000 0.038336 0.000000 -0.012274
# 5 0.001158 0.005088 0.005451 0.000000 0.038179 0.000000
# 6 0.000000 0.000000 0.000000 -0.012274 0.000000 0.068082
#
#
# Mechanical properties :
#
#
# Convention : Reuss Voigt Hill
#
# Bulk Modulus (GPa) = 44.93115 54.46362 49.69739
# Shear Modulus (GPa) = 22.42889 26.01426 24.22157
#
# Velocity S-wave (km/s) = 3.33612 3.59288 3.46688
# Velocity P-wave (km/s) = 6.09388 6.65115 6.37860
#
# Compressibility (1/GPa) = 0.02225627
#
# Stress axis : x y z
#
# Youngs Moduli (GPa) = 71.38613 55.19773 69.16382
#
# Poissons Ratio (x) = 0.23554 0.10215
# Poissons Ratio (y) = 0.30462 0.44400
# Poissons Ratio (z) = 0.10543 0.35434
#
# Static dielectric constant tensor:
#      x y z
#    x 3.724220 0.000000 -0.026810 
#    y 0.000000 3.658210 0.000000 
#    z -0.026810 0.000000 3.738640 
# 
# 
# High freq. dielectric constant tensor:
#      x y z
#    x 1.792060 0.000000 -0.001280 
#    y 0.000000 1.783730 0.000000 
#    z -0.001280 0.000000 1.795850 
# 
# From -- ./inp_files/105979.got.cif
#   From: 2010.06.25/outbox.cif.g09.slc.cpg/sg12_53_cif.got.tgz:105979.got - 2010.06.28 00:19:55.
