data_PCOD8114681
_publ_section_title
;
Structure prediction by ZEFSAII (Michael W. Deem and Ramdas Pophale) SiO2 
 PCOD8114681
Probable space group: C 2/M
;
_chemical_formula_sum "Si O2"
_cell_formula_units_Z 48
_cell_length_a 8.564267
_cell_length_b 18.047099
_cell_length_c 17.212459
_cell_angle_alpha 90.000000
_cell_angle_beta 64.834332
_cell_angle_gamma 90.000000
_cell_volume 2407.844604
_symmetry_space_group_name_H-M "C 2/M"
_symmetry_group_IT_number 12
_symmetry_cell_setting 'monoclinic'
loop_
_space_group_symop_operation_xyz
x,y,z
-x,y,-z
-x,-y,-z
x,-y,z
1/2+x,1/2+y,z
1/2-x,1/2+y,-z
1/2-x,1/2-y,-z
1/2+x,1/2-y,z
loop_
_atom_site_type_symbol
_atom_site_label
_atom_site_fract_x
_atom_site_fract_y
_atom_site_fract_z
Si Si1 0.840302 0.911960 0.488050
Si Si2 0.374545 0.083310 0.331215
Si Si3 0.054150 0.662761 0.164026
Si Si4 0.297785 0.676583 0.854132
Si Si5 0.314732 0.414753 0.004985
Si Si6 0.526863 0.416883 0.304370
O O1 0.664336 0.888539 0.571316
O O2 0.861127 0.890215 0.392162
O O3 0.000000 0.875148 0.500000
O O4 0.854210 0.000000 0.491035
O O5 0.511927 0.137364 0.261159
O O6 0.195555 0.083408 0.322318
O O7 0.450887 0.000000 0.316173
O O8 0.159287 0.738250 0.142587
O O9 0.880841 0.671361 0.152460
O O10 0.171070 0.599525 0.100664
O O11 0.274685 0.637216 0.940948
O O12 0.451933 0.637666 0.773077
O O13 0.305261 0.500000 0.980567
O O14 0.500000 0.394077 0.000000
O O15 0.495576 0.500000 0.278755
#
# Coordination Sequence:
#
# PCOD8114681 Si02
#       6
#     8   8   8   8   8   8
#     4   7  10  20  41  70 101 129 164 213 260 299
#     4   8  14  26  47  74 101 132 172 216 259 303
#     4  11  22  36  54  77 108 142 176 213 256 307
#     4  11  22  36  54  77 108 142 176 213 256 307
#     4  11  24  41  60  81 103 129 166 213 264 315
#     4   8  14  26  47  74 101 132 172 216 259 303
#
# _framework density 19.934842
#
# number of rings (size 3 to 8) (size 9 to 14) (size 15 to 20)
#    0.000    2.667    0.000    5.000    0.000    2.667 
#    0.000    0.833    0.000    0.000    0.000    3.500 
#    0.000   18.667    0.000    0.000    0.000    0.000 
#
# Total GULP energy -297397.000872 kJ/mol
# GULP energy per Si atom -12391.541703 kJ/mol
# Density = 1.988947 g / cm^3
# Si number density = 19.934842 Si / 1000 Ang^3
#
#
#
# Elastic Constant Matrix: (Units=GPa)
#
#
# Indices 1 2 3 4 5 6 
#
# 1 43.6710 15.3134 21.0701 0.0000 -12.3977 0.0000
# 2 15.3134 66.1957 30.1451 0.0000 -10.3982 0.0000
# 3 21.0701 30.1451 144.8758 0.0000 -25.1761 0.0000
# 4 0.0000 0.0000 0.0000 27.4747 0.0000 4.6832
# 5 -12.3977 -10.3982 -25.1761 0.0000 15.7361 0.0000
# 6 0.0000 0.0000 0.0000 4.6832 0.0000 5.1479
#
#
#
# Elastic Compliance Matrix: (Units=1/GPa)
#
#
# Indices 1 2 3 4 5 6 
#
# 1 0.030260 -0.003659 0.000115 0.000000 0.021607 0.000000
# 2 -0.003659 0.017809 -0.002257 0.000000 0.005275 0.000000
# 3 0.000115 -0.002257 0.009851 0.000000 0.014359 0.000000
# 4 0.000000 0.000000 0.000000 0.043077 0.000000 -0.039188
# 5 0.021607 0.005275 0.014359 0.000000 0.107031 0.000000
# 6 0.000000 0.000000 0.000000 -0.039188 0.000000 0.229905
#
#
# Mechanical properties :
#
#
# Convention : Reuss Voigt Hill
#
# Bulk Modulus (GPa) = 21.58923 43.08885 32.33904
# Shear Modulus (GPa) = 10.75331 22.21933 16.48632
#
# Velocity S-wave (km/s) = 2.32507 3.34218 2.87890
# Velocity P-wave (km/s) = 4.24986 6.04610 5.22574
#
# Compressibility (1/GPa) = 0.04631939
#
# Stress axis : x y z
#
# Youngs Moduli (GPa) = 33.04719 56.14983 101.51587
#
# Poissons Ratio (x) = 0.20543 -0.01169
# Poissons Ratio (y) = 0.12090 0.22912
# Poissons Ratio (z) = -0.00381 0.12673
#
# Static dielectric constant tensor:
#      x y z
#    x 3.147120 0.000000 -0.144820 
#    y 0.000000 3.452140 0.000000 
#    z -0.144820 0.000000 4.301040 
# 
# 
# High freq. dielectric constant tensor:
#      x y z
#    x 1.729390 0.000000 -0.010600 
#    y 0.000000 1.753860 0.000000 
#    z -0.010600 0.000000 1.807760 
# 
# From -- ./inp_files/256455.got.cif
#   From: 2010.06.25/outbox.cif.g09.slc.cpg/sg12_129_cif.got.tgz:256455.got - 2010.06.28 00:19:55.
