data_PCOD8114378
_publ_section_title
;
Structure prediction by ZEFSAII (Michael W. Deem and Ramdas Pophale) SiO2 
 PCOD8114378
Probable space group: C 2/M
;
_chemical_formula_sum "Si O2"
_cell_formula_units_Z 40
_cell_length_a 19.610003
_cell_length_b 12.280053
_cell_length_c 8.686526
_cell_angle_alpha 90.000000
_cell_angle_beta 70.137500
_cell_angle_gamma 90.000000
_cell_volume 1967.377805
_symmetry_space_group_name_H-M "C 2/M"
_symmetry_group_IT_number 12
_symmetry_cell_setting 'monoclinic'
loop_
_space_group_symop_operation_xyz
x,y,z
-x,y,-z
-x,-y,-z
x,-y,z
1/2+x,1/2+y,z
1/2-x,1/2+y,-z
1/2-x,1/2-y,-z
1/2+x,1/2-y,z
loop_
_atom_site_type_symbol
_atom_site_label
_atom_site_fract_x
_atom_site_fract_y
_atom_site_fract_z
Si Si1 0.061992 0.295132 0.331161
Si Si2 0.424473 0.879742 0.993108
Si Si3 0.161754 0.241293 0.727004
Si Si4 0.016102 0.875989 0.806619
Si Si5 0.805992 0.628444 0.589678
O O1 0.068652 0.387887 0.195907
O O2 0.138763 0.294889 0.358341
O O3 0.000000 0.326796 0.500000
O O4 0.045030 0.182911 0.252038
O O5 0.411275 0.000000 0.070753
O O6 0.500000 0.830848 0.000000
O O7 0.360043 0.800429 0.096831
O O8 0.093560 0.177332 0.707546
O O9 0.188150 0.336629 0.592560
O O10 0.225411 0.155175 0.713053
O O11 0.017272 0.000000 0.749990
O O12 0.000000 0.868625 0.000000
O O13 0.822307 0.500000 0.595706
#
# Coordination Sequence:
#
# PCOD8114378 Si02
#       5
#     8   8   8   8   8
#     4  12  22  41  61  96 125 158 204 265 308 366
#     4  11  21  37  64  93 126 166 207 251 305 367
#     4  11  21  44  63  88 127 166 214 251 303 376
#     4  11  22  42  67  90 120 165 210 254 309 369
#     4  11  25  40  63  94 127 165 203 260 319 364
#
# _framework density 20.331633
#
# number of rings (size 3 to 8) (size 9 to 14) (size 15 to 20)
#    0.000    0.800    6.000    1.800    0.000    4.400 
#    0.000    2.000    0.000    0.000    0.000    0.000 
#    0.000    0.000    0.000    0.000    0.000    0.000 
#
# Total GULP energy -247962.311781 kJ/mol
# GULP energy per Si atom -12398.115589 kJ/mol
# Density = 2.028536 g / cm^3
# Si number density = 20.331633 Si / 1000 Ang^3
#
#
#
# Elastic Constant Matrix: (Units=GPa)
#
#
# Indices 1 2 3 4 5 6 
#
# 1 110.9772 47.6736 34.3208 0.0000 -7.5022 0.0000
# 2 47.6736 129.1480 31.4050 0.0000 -12.8415 0.0000
# 3 34.3208 31.4050 114.1267 0.0000 -7.0215 0.0000
# 4 0.0000 0.0000 0.0000 26.8657 0.0000 -0.5634
# 5 -7.5022 -12.8415 -7.0215 0.0000 31.0423 0.0000
# 6 0.0000 0.0000 0.0000 -0.5634 0.0000 15.9697
#
#
#
# Elastic Compliance Matrix: (Units=1/GPa)
#
#
# Indices 1 2 3 4 5 6 
#
# 1 0.011312 -0.003522 -0.002387 0.000000 0.000737 0.000000
# 2 -0.003522 0.009672 -0.001428 0.000000 0.002827 0.000000
# 3 -0.002387 -0.001428 0.009940 0.000000 0.001080 0.000000
# 4 0.000000 0.000000 0.000000 0.037250 0.000000 0.001314
# 5 0.000737 0.002827 0.001080 0.000000 0.033806 0.000000
# 6 0.000000 0.000000 0.000000 0.001314 0.000000 0.062665
#
#
# Mechanical properties :
#
#
# Convention : Reuss Voigt Hill
#
# Bulk Modulus (GPa) = 61.54607 64.56120 63.05364
# Shear Modulus (GPa) = 27.06582 30.83237 28.94910
#
# Velocity S-wave (km/s) = 3.65254 3.89842 3.77748
# Velocity P-wave (km/s) = 6.93721 7.21710 7.07854
#
# Compressibility (1/GPa) = 0.01624799
#
# Stress axis : x y z
#
# Youngs Moduli (GPa) = 88.40253 103.39652 100.60732
#
# Poissons Ratio (x) = 0.36415 0.24018
# Poissons Ratio (y) = 0.31134 0.14370
# Poissons Ratio (z) = 0.21104 0.14769
#
# Static dielectric constant tensor:
#      x y z
#    x 3.640760 0.000000 -0.077780 
#    y 0.000000 3.677130 0.000000 
#    z -0.077780 0.000000 3.733380 
# 
# 
# High freq. dielectric constant tensor:
#      x y z
#    x 1.781120 0.000000 -0.008220 
#    y 0.000000 1.798200 0.000000 
#    z -0.008220 0.000000 1.798020 
# 
# From -- ./inp_files/71244.got.cif
#   From: 2010.06.25/outbox.cif.g09.slc.cpg/sg12_36_cif.got.tgz:71244.got - 2010.06.28 00:19:55.
