data_PCOD8114659
_publ_section_title
;
Structure prediction by ZEFSAII (Michael W. Deem and Ramdas Pophale) SiO2 
 PCOD8114659
Probable space group: C 2/M
;
_chemical_formula_sum "Si O2"
_cell_formula_units_Z 40
_cell_length_a 29.515709
_cell_length_b 8.947711
_cell_length_c 24.906983
_cell_angle_alpha 90.000000
_cell_angle_beta 161.022761
_cell_angle_gamma 90.000000
_cell_volume 2139.079062
_symmetry_space_group_name_H-M "C 2/M"
_symmetry_group_IT_number 12
_symmetry_cell_setting 'monoclinic'
loop_
_space_group_symop_operation_xyz
x,y,z
-x,y,-z
-x,-y,-z
x,-y,z
1/2+x,1/2+y,z
1/2-x,1/2+y,-z
1/2-x,1/2-y,-z
1/2+x,1/2-y,z
loop_
_atom_site_type_symbol
_atom_site_label
_atom_site_fract_x
_atom_site_fract_y
_atom_site_fract_z
Si Si1 0.237464 0.669478 0.740798
Si Si2 0.353084 0.673877 0.262375
Si Si3 0.913730 0.169310 0.034384
Si Si4 0.781525 0.177844 0.591965
Si Si5 0.141434 0.174740 0.532019
O O1 0.194259 0.500000 0.678584
O O2 0.124515 0.741620 0.655477
O O3 0.243418 0.763805 0.692802
O O4 0.387378 0.675165 0.939887
O O5 0.340875 0.500000 0.261126
O O6 0.481382 0.709933 0.367258
O O7 0.207828 0.732769 0.072707
O O8 0.065657 0.232602 0.217985
O O9 0.899768 0.000000 0.039957
O O10 0.750000 0.250000 0.500000
O O11 0.669380 0.239631 0.508199
O O12 0.770804 0.000000 0.576858
O O13 0.169495 0.000000 0.555893
#
# Coordination Sequence:
#
# PCOD8114659 Si02
#       5
#     8   8   8   8   8
#     4   9  18  33  56  85 118 149 180 222 274 331
#     4   9  18  33  55  85 119 147 179 223 273 328
#     4   8  19  37  57  81 113 146 181 226 277 329
#     4  11  24  43  61  79 107 145 189 237 280 326
#     4  11  22  35  55  87 118 148 185 225 271 328
#
# _framework density 18.699636999999999
#
# number of rings (size 3 to 8) (size 9 to 14) (size 15 to 20)
#    1.200    1.200    0.000    2.400    0.000    8.000 
#    0.000    5.000    0.000    0.000    0.000    0.000 
#    0.000    0.000    0.000    0.000    0.000    0.000 
#
# Total GULP energy -247836.064293 kJ/mol
# GULP energy per Si atom -12391.803215 kJ/mol
# Density = 1.865708 g / cm^3
# Si number density = 18.699637 Si / 1000 Ang^3
#
#
#
# Elastic Constant Matrix: (Units=GPa)
#
#
# Indices 1 2 3 4 5 6 
#
# 1 128.4065 54.2999 51.0587 -0.0010 -11.8168 -0.0006
# 2 54.2999 90.6932 35.5217 -0.0030 -9.7434 -0.0025
# 3 51.0587 35.5217 63.1663 -0.0016 -5.5795 -0.0014
# 4 -0.0010 -0.0030 -0.0016 28.7511 -0.0018 -0.4837
# 5 -11.8168 -9.7434 -5.5795 -0.0018 6.7674 -0.0013
# 6 -0.0006 -0.0025 -0.0014 -0.4837 -0.0013 34.3337
#
#
#
# Elastic Compliance Matrix: (Units=1/GPa)
#
#
# Indices 1 2 3 4 5 6 
#
# 1 0.013586 -0.003813 -0.007795 0.000000 0.011807 0.000000
# 2 -0.003813 0.016753 -0.005173 0.000002 0.013197 0.000001
# 3 -0.007795 -0.005173 0.025002 0.000001 -0.000446 0.000000
# 4 0.000000 0.000002 0.000001 0.034789 0.000014 0.000490
# 5 0.011807 0.013197 -0.000446 0.000014 0.187017 0.000009
# 6 0.000000 0.000001 0.000000 0.000490 0.000009 0.029133
#
#
# Mechanical properties :
#
#
# Convention : Reuss Voigt Hill
#
# Bulk Modulus (GPa) = 45.91613 62.66963 54.29288
# Shear Modulus (GPa) = 14.40494 23.39614 18.90054
#
# Velocity S-wave (km/s) = 2.77850 3.54100 3.18267
# Velocity P-wave (km/s) = 5.90773 7.09259 6.52710
#
# Compressibility (1/GPa) = 0.02177884
#
# Stress axis : x y z
#
# Youngs Moduli (GPa) = 73.60389 59.69039 39.99686
#
# Poissons Ratio (x) = 0.22759 0.31177
# Poissons Ratio (y) = 0.28064 0.20692
# Poissons Ratio (z) = 0.57374 0.30880
#
# Static dielectric constant tensor:
#      x y z
#    x 3.159950 0.000000 0.057550 
#    y 0.000000 3.488710 0.000000 
#    z 0.057550 0.000000 3.378550 
# 
# 
# High freq. dielectric constant tensor:
#      x y z
#    x 1.698360 0.000000 0.007980 
#    y 0.000000 1.738310 0.000000 
#    z 0.007980 0.000000 1.716830 
# 
# From -- ./inp_files/186037.got.cif
#   From: 2010.06.25/outbox.cif.g09.slc.cpg/sg12_94_cif.got.tgz:186037.got - 2010.06.28 00:19:55.
