data_PCOD8114363
_publ_section_title
;
Structure prediction by ZEFSAII (Michael W. Deem and Ramdas Pophale) SiO2 
 PCOD8114363
Probable space group: C 2/M
;
_chemical_formula_sum "Si O2"
_cell_formula_units_Z 28
_cell_length_a 11.933528
_cell_length_b 21.995861
_cell_length_c 5.009575
_cell_angle_alpha 90.000000
_cell_angle_beta 98.991838
_cell_angle_gamma 90.000000
_cell_volume 1298.794459
_symmetry_space_group_name_H-M "C 2/M"
_symmetry_group_IT_number 12
_symmetry_cell_setting 'monoclinic'
loop_
_space_group_symop_operation_xyz
x,y,z
-x,y,-z
-x,-y,-z
x,-y,z
1/2+x,1/2+y,z
1/2-x,1/2+y,-z
1/2-x,1/2-y,-z
1/2+x,1/2-y,z
loop_
_atom_site_type_symbol
_atom_site_label
_atom_site_fract_x
_atom_site_fract_y
_atom_site_fract_z
Si Si1 0.260726 0.383896 0.176990
Si Si2 0.426049 0.723230 0.232516
Si Si3 0.623483 0.142422 0.640309
Si Si4 0.419131 0.500000 0.219920
O O1 0.328873 0.323688 0.114920
O O2 0.215666 0.377695 0.458559
O O3 0.340811 0.441367 0.188029
O O4 0.156326 0.390118 0.930556
O O5 0.500000 0.693729 0.500000
O O6 0.372122 0.785042 0.324641
O O7 0.500000 0.738853 0.000000
O O8 0.500000 0.119955 0.500000
O O9 0.500000 0.500000 0.500000
O O10 0.500000 0.500000 0.000000
#
# Coordination Sequence:
#
# PCOD8114363 Si02
#       4
#     8   8   8   4
#     4  12  23  41  64  90 124 167 203 249 308 359
#     4  11  21  37  62  95 126 159 200 254 311 365
#     4  11  23  40  61  91 126 162 205 253 299 362
#     4  12  26  46  67  94 123 156 204 256 302 366
#
# _framework density 21.558451999999999
#
# number of rings (size 3 to 8) (size 9 to 14) (size 15 to 20)
#    0.000    0.571    0.000   11.143    0.000    0.000 
#    0.000    4.286    0.000    0.000    0.000    0.000 
#    0.000    0.000    0.000    0.000    0.000    0.000 
#
# Total GULP energy -173696.113784 kJ/mol
# GULP energy per Si atom -12406.865270 kJ/mol
# Density = 2.150938 g / cm^3
# Si number density = 21.558452 Si / 1000 Ang^3
#
#
#
# Elastic Constant Matrix: (Units=GPa)
#
#
# Indices 1 2 3 4 5 6 
#
# 1 108.3168 58.9775 38.4922 0.0000 -6.4957 0.0000
# 2 58.9775 88.3690 33.0423 0.0000 3.5999 0.0000
# 3 38.4922 33.0423 149.8208 0.0000 11.8522 0.0000
# 4 0.0000 0.0000 0.0000 29.9107 0.0000 -2.2138
# 5 -6.4957 3.5999 11.8522 0.0000 60.4639 0.0000
# 6 0.0000 0.0000 0.0000 -2.2138 0.0000 41.4494
#
#
#
# Elastic Compliance Matrix: (Units=1/GPa)
#
#
# Indices 1 2 3 4 5 6 
#
# 1 0.015324 -0.009574 -0.002032 0.000000 0.002615 0.000000
# 2 -0.009574 0.018317 -0.001435 0.000000 -0.001838 0.000000
# 3 -0.002032 -0.001435 0.007642 0.000000 -0.001631 0.000000
# 4 0.000000 0.000000 0.000000 0.033566 0.000000 0.001793
# 5 0.002615 -0.001838 -0.001631 0.000000 0.017249 0.000000
# 6 0.000000 0.000000 0.000000 0.001793 0.000000 0.024222
#
#
# Mechanical properties :
#
#
# Convention : Reuss Voigt Hill
#
# Bulk Modulus (GPa) = 65.78288 67.50341 66.64314
# Shear Modulus (GPa) = 33.90551 40.76443 37.33497
#
# Velocity S-wave (km/s) = 3.97006 4.35314 4.16601
# Velocity P-wave (km/s) = 7.18298 7.52637 7.35668
#
# Compressibility (1/GPa) = 0.01520152
#
# Stress axis : x y z
#
# Youngs Moduli (GPa) = 65.25642 54.59380 130.85143
#
# Poissons Ratio (x) = 0.52268 0.26595
# Poissons Ratio (y) = 0.62476 0.18772
# Poissons Ratio (z) = 0.13263 0.07832
#
# Static dielectric constant tensor:
#      x y z
#    x 4.012680 0.000000 0.205290 
#    y 0.000000 3.601580 0.000000 
#    z 0.205290 0.000000 4.293580 
# 
# 
# High freq. dielectric constant tensor:
#      x y z
#    x 1.857660 0.000000 0.003750 
#    y 0.000000 1.825410 0.000000 
#    z 0.003750 0.000000 1.875130 
# 
# From -- ./inp_files/5662.got.cif
#   From: 2010.06.25/outbox.cif.g09.slc.cpg/sg12_3_cif.got.tgz:5662.got - 2010.06.28 00:19:55.
