data_PCOD8114836
_publ_section_title
;
Structure prediction by ZEFSAII (Michael W. Deem and Ramdas Pophale) SiO2 
 PCOD8114836
Probable space group: C 2/M
;
_chemical_formula_sum "Si O2"
_cell_formula_units_Z 64
_cell_length_a 15.419067
_cell_length_b 8.342146
_cell_length_c 28.194224
_cell_angle_alpha 90.000000
_cell_angle_beta 122.964588
_cell_angle_gamma 90.000000
_cell_volume 3042.717449
_symmetry_space_group_name_H-M "C 2/M"
_symmetry_group_IT_number 12
_symmetry_cell_setting 'monoclinic'
loop_
_space_group_symop_operation_xyz
x,y,z
-x,y,-z
-x,-y,-z
x,-y,z
1/2+x,1/2+y,z
1/2-x,1/2+y,-z
1/2-x,1/2-y,-z
1/2+x,1/2-y,z
loop_
_atom_site_type_symbol
_atom_site_label
_atom_site_fract_x
_atom_site_fract_y
_atom_site_fract_z
Si Si1 0.564757 0.809342 0.063337
Si Si2 0.842757 0.814223 0.742467
Si Si3 0.059022 0.314285 0.564905
Si Si4 0.285664 0.185678 0.627451
Si Si5 0.523156 0.314240 0.363443
Si Si6 0.154454 0.685749 0.752334
Si Si7 0.986206 0.686346 0.140879
Si Si8 0.298115 0.686073 0.133594
O O1 0.512945 0.748255 0.096554
O O2 0.681906 0.745183 0.095590
O O3 0.563745 0.000000 0.061674
O O4 0.500000 0.738237 0.000000
O O5 0.841964 0.710623 0.694540
O O6 0.748146 0.756750 0.746990
O O7 0.949485 0.784901 0.801258
O O8 0.831857 0.000000 0.725632
O O9 0.041129 0.500000 0.571760
O O10 0.179993 0.284061 0.594297
O O11 0.000000 0.262185 0.500000
O O12 0.012568 0.209334 0.593376
O O13 0.359856 0.251472 0.607931
O O14 0.261987 0.000000 0.611880
O O15 0.515490 0.500000 0.347807
O O16 0.452045 0.213956 0.306543
O O17 0.165014 0.500000 0.769173
O O18 0.156977 0.789633 0.800535
O O19 0.013885 0.500000 0.153707
O O20 0.865690 0.717523 0.115228
O O21 0.301651 0.500000 0.121588
#
# Coordination Sequence:
#
# PCOD8114836 Si02
#       8
#     8   8   8   8   8   8   8   8
#     4   9  20  39  61  84 115 158 204 251 302 361
#     4  11  22  38  63  92 127 162 201 251 308 370
#     4  11  25  46  69  94 127 166 212 263 312 365
#     4  12  25  42  67  96 130 167 209 256 310 372
#     4  12  25  42  67  96 130 167 209 256 310 372
#     4  11  22  38  63  92 127 162 201 251 308 370
#     4  11  22  38  61  89 122 158 202 249 304 367
#     4  11  22  38  61  89 122 158 202 249 304 367
#
# _framework density 21.033830999999999
#
# number of rings (size 3 to 8) (size 9 to 14) (size 15 to 20)
#    0.000    1.000    2.500    4.875    0.000    3.000 
#    0.000    0.000    0.000    5.250    0.000    0.000 
#    0.000    0.000    0.000    0.000    0.000    0.000 
#
# Total GULP energy -397057.122489 kJ/mol
# GULP energy per Si atom -12408.035078 kJ/mol
# Density = 2.098596 g / cm^3
# Si number density = 21.033831 Si / 1000 Ang^3
#
#
#
# Elastic Constant Matrix: (Units=GPa)
#
#
# Indices 1 2 3 4 5 6 
#
# 1 152.9464 11.8176 51.9159 0.0000 15.4518 0.0000
# 2 11.8176 53.5080 5.3050 0.0000 -0.7876 0.0000
# 3 51.9159 5.3050 126.3820 0.0000 -4.2365 0.0000
# 4 0.0000 0.0000 0.0000 18.1376 0.0000 8.9788
# 5 15.4518 -0.7876 -4.2365 0.0000 9.2941 0.0000
# 6 0.0000 0.0000 0.0000 8.9788 0.0000 21.7253
#
#
#
# Elastic Compliance Matrix: (Units=1/GPa)
#
#
# Indices 1 2 3 4 5 6 
#
# 1 0.010294 -0.002085 -0.004794 0.000000 -0.019477 0.000000
# 2 -0.002085 0.019203 0.000225 0.000000 0.005196 0.000000
# 3 -0.004794 0.000225 0.010298 0.000000 0.012683 0.000000
# 4 0.000000 0.000000 0.000000 0.069316 0.000000 -0.028647
# 5 -0.019477 0.005196 0.012683 0.000000 0.146197 0.000000
# 6 0.000000 0.000000 0.000000 -0.028647 0.000000 0.057869
#
#
# Mechanical properties :
#
#
# Convention : Reuss Voigt Hill
#
# Bulk Modulus (GPa) = 37.75522 52.32370 45.03946
# Shear Modulus (GPa) = 14.91136 27.41793 21.16464
#
# Velocity S-wave (km/s) = 2.66545 3.61434 3.17554
# Velocity P-wave (km/s) = 5.24038 6.50753 5.90802
#
# Compressibility (1/GPa) = 0.02648640
#
# Stress axis : x y z
#
# Youngs Moduli (GPa) = 97.14083 52.07387 97.10978
#
# Poissons Ratio (x) = 0.10857 0.46556
# Poissons Ratio (y) = 0.20253 -0.02181
# Poissons Ratio (z) = 0.46571 -0.01169
#
# Static dielectric constant tensor:
#      x y z
#    x 4.033890 0.000000 0.020620 
#    y 0.000000 3.585620 0.000000 
#    z 0.020620 0.000000 3.757260 
# 
# 
# High freq. dielectric constant tensor:
#      x y z
#    x 1.842460 0.000000 0.003170 
#    y 0.000000 1.817730 0.000000 
#    z 0.003170 0.000000 1.814630 
# 
# From -- ./inp_files/375621.got.cif
#   From: 2010.06.25/outbox.cif.g09.slc.cpg/sg12_188_cif.got.tgz:375621.got - 2010.06.28 00:19:55.
