data_PCOD8114579
_publ_section_title
;
Structure prediction by ZEFSAII (Michael W. Deem and Ramdas Pophale) SiO2 
 PCOD8114579
Probable space group: C 2/M
;
_chemical_formula_sum "Si O2"
_cell_formula_units_Z 44
_cell_length_a 11.931198
_cell_length_b 20.006598
_cell_length_c 8.988548
_cell_angle_alpha 90.000000
_cell_angle_beta 72.193298
_cell_angle_gamma 90.000000
_cell_volume 2042.803059
_symmetry_space_group_name_H-M "C 2/M"
_symmetry_group_IT_number 12
_symmetry_cell_setting 'monoclinic'
loop_
_space_group_symop_operation_xyz
x,y,z
-x,y,-z
-x,-y,-z
x,-y,z
1/2+x,1/2+y,z
1/2-x,1/2+y,-z
1/2-x,1/2-y,-z
1/2+x,1/2-y,z
loop_
_atom_site_type_symbol
_atom_site_label
_atom_site_fract_x
_atom_site_fract_y
_atom_site_fract_z
Si Si1 0.017697 0.276054 0.781594
Si Si2 0.975175 0.876272 0.182303
Si Si3 0.750837 0.921424 0.433002
Si Si4 0.684791 0.809395 0.944903
Si Si5 0.313939 0.424650 0.743721
Si Si6 0.000000 0.643039 0.500000
O O1 0.978893 0.198905 0.807618
O O2 0.148351 0.282495 0.796574
O O3 0.016039 0.303071 0.619696
O O4 0.930340 0.323855 0.910354
O O5 0.837637 0.884885 0.280273
O O6 0.047566 0.922452 0.270107
O O7 0.000000 0.896196 0.000000
O O8 0.785694 0.899995 0.587510
O O9 0.616541 0.902519 0.446064
O O10 0.765380 0.000000 0.406366
O O11 0.754847 0.878144 0.894241
O O12 0.750000 0.750000 0.000000
O O13 0.266133 0.500000 0.781533
#
# Coordination Sequence:
#
# PCOD8114579 Si02
#       6
#     8   8   8   8   8   4
#     4  11  25  40  68 103 136 177 232 287 343 404
#     4  12  25  44  70 105 137 176 228 295 351 405
#     4  11  27  48  68  96 141 186 230 282 342 415
#     4  11  21  45  69  97 142 179 224 287 345 405
#     4  11  24  45  70 101 137 181 230 284 350 413
#     4  12  27  44  70 102 135 188 234 280 342 412
#
# _framework density 21.539033
#
# number of rings (size 3 to 8) (size 9 to 14) (size 15 to 20)
#    0.000    0.727    5.455    1.364    7.636    3.636 
#    0.000    2.727    0.000    0.000    0.000    0.000 
#    0.000    0.000    0.000    0.000    0.000    0.000 
#
# Total GULP energy -272701.166014 kJ/mol
# GULP energy per Si atom -12395.507546 kJ/mol
# Density = 2.149001 g / cm^3
# Si number density = 21.539033 Si / 1000 Ang^3
#
#
#
# Elastic Constant Matrix: (Units=GPa)
#
#
# Indices 1 2 3 4 5 6 
#
# 1 135.8251 30.3340 59.8548 0.0000 4.1488 0.0000
# 2 30.3340 93.0617 50.9711 0.0000 -4.5306 0.0000
# 3 59.8548 50.9711 124.3446 0.0000 0.0485 0.0000
# 4 0.0000 0.0000 0.0000 34.6527 0.0000 0.2316
# 5 4.1488 -4.5306 0.0485 0.0000 42.5640 0.0000
# 6 0.0000 0.0000 0.0000 0.2316 0.0000 32.2555
#
#
#
# Elastic Compliance Matrix: (Units=1/GPa)
#
#
# Indices 1 2 3 4 5 6 
#
# 1 0.009428 -0.000821 -0.004201 0.000000 -0.001001 0.000000
# 2 -0.000821 0.014022 -0.005354 0.000000 0.001579 0.000000
# 3 -0.004201 -0.005354 0.012259 0.000000 -0.000174 0.000000
# 4 0.000000 0.000000 0.000000 0.028859 0.000000 -0.000207
# 5 -0.001001 0.001579 -0.000174 0.000000 0.023760 0.000000
# 6 0.000000 0.000000 0.000000 -0.000207 0.000000 0.031004
#
#
# Mechanical properties :
#
#
# Convention : Reuss Voigt Hill
#
# Bulk Modulus (GPa) = 66.85425 70.61682 68.73553
# Shear Modulus (GPa) = 34.46638 36.03254 35.24946
#
# Velocity S-wave (km/s) = 4.00457 4.09454 4.04980
# Velocity P-wave (km/s) = 7.24487 7.43037 7.33820
#
# Compressibility (1/GPa) = 0.01495791
#
# Stress axis : x y z
#
# Youngs Moduli (GPa) = 106.07032 71.31600 81.57198
#
# Poissons Ratio (x) = 0.05852 0.34271
# Poissons Ratio (y) = 0.08704 0.43670
# Poissons Ratio (z) = 0.44564 0.38179
#
# Static dielectric constant tensor:
#      x y z
#    x 4.253000 0.000000 0.010990 
#    y 0.000000 3.659600 0.000000 
#    z 0.010990 0.000000 3.882840 
# 
# 
# High freq. dielectric constant tensor:
#      x y z
#    x 1.864620 0.000000 0.010570 
#    y 0.000000 1.838010 0.000000 
#    z 0.010570 0.000000 1.844790 
# 
# From -- ./inp_files/49200.got.cif
#   From: 2010.06.25/outbox.cif.g09.slc.cpg/sg12_25_cif.got.tgz:49200.got - 2010.06.28 00:19:55.
