data_PCOD8114773
_publ_section_title
;
Structure prediction by ZEFSAII (Michael W. Deem and Ramdas Pophale) SiO2 
 PCOD8114773
Probable space group: C 2/M
;
_chemical_formula_sum "Si O2"
_cell_formula_units_Z 48
_cell_length_a 9.097403
_cell_length_b 27.022155
_cell_length_c 14.357455
_cell_angle_alpha 90.000000
_cell_angle_beta 137.337060
_cell_angle_gamma 90.000000
_cell_volume 2391.895601
_symmetry_space_group_name_H-M "C 2/M"
_symmetry_group_IT_number 12
_symmetry_cell_setting 'monoclinic'
loop_
_space_group_symop_operation_xyz
x,y,z
-x,y,-z
-x,-y,-z
x,-y,z
1/2+x,1/2+y,z
1/2-x,1/2+y,-z
1/2-x,1/2-y,-z
1/2+x,1/2-y,z
loop_
_atom_site_type_symbol
_atom_site_label
_atom_site_fract_x
_atom_site_fract_y
_atom_site_fract_z
Si Si1 0.816132 0.304277 0.492107
Si Si2 0.601354 0.944728 0.148881
Si Si3 0.317747 0.604256 0.979228
Si Si4 0.595922 0.634917 0.773995
Si Si5 0.918288 0.309507 0.223831
Si Si6 0.140752 0.727268 0.147589
O O1 0.750000 0.250000 0.500000
O O2 0.622634 0.339313 0.363976
O O3 0.000000 0.299681 0.500000
O O4 0.903967 0.334501 0.624837
O O5 0.816847 0.910046 0.251735
O O6 0.672013 0.000000 0.211409
O O7 0.500000 0.943900 0.000000
O O8 0.405974 0.926562 0.124311
O O9 0.423665 0.615282 0.129378
O O10 0.500000 0.576960 0.000000
O O11 0.263590 0.654569 0.899810
O O12 0.786161 0.674735 0.858683
O O13 0.825060 0.267713 0.250986
O O14 0.020626 0.278437 0.188087
O O15 0.000000 0.751668 0.000000
#
# Coordination Sequence:
#
# PCOD8114773 Si02
#       6
#     8   8   8   8   8   8
#     4  12  26  40  56  85 124 170 211 247 299 361
#     4   9  19  40  67  91 116 154 203 257 317 365
#     4  11  22  37  60  92 122 156 198 253 311 361
#     4  11  22  41  60  85 124 157 206 254 300 367
#     4  12  24  36  56  82 121 166 205 246 296 359
#     4  12  22  36  56  86 118 161 208 249 291 359
#
# _framework density 20.067765999999999
#
# number of rings (size 3 to 8) (size 9 to 14) (size 15 to 20)
#    0.000    0.833    5.000    3.500    2.333    0.333 
#    0.000    0.000    0.000    2.500    0.000    0.000 
#    0.000    0.000    0.000    0.000    0.000    0.000 
#
# Total GULP energy -297377.722590 kJ/mol
# GULP energy per Si atom -12390.738441 kJ/mol
# Density = 2.002209 g / cm^3
# Si number density = 20.067766 Si / 1000 Ang^3
#
#
#
# Elastic Constant Matrix: (Units=GPa)
#
#
# Indices 1 2 3 4 5 6 
#
# 1 124.0233 51.7501 45.9634 0.0000 20.8134 0.0000
# 2 51.7501 107.4416 30.6930 0.0000 15.8212 0.0000
# 3 45.9634 30.6930 116.6793 0.0000 -0.0872 0.0000
# 4 0.0000 0.0000 0.0000 16.5858 0.0000 8.5015
# 5 20.8134 15.8212 -0.0872 0.0000 28.7675 0.0000
# 6 0.0000 0.0000 0.0000 8.5015 0.0000 17.3067
#
#
#
# Elastic Compliance Matrix: (Units=1/GPa)
#
#
# Indices 1 2 3 4 5 6 
#
# 1 0.012188 -0.003789 -0.003810 0.000000 -0.006746 0.000000
# 2 -0.003789 0.012210 -0.001722 0.000000 -0.003979 0.000000
# 3 -0.003810 -0.001722 0.010527 0.000000 0.003735 0.000000
# 4 0.000000 0.000000 0.000000 0.080583 0.000000 -0.039584
# 5 -0.006746 -0.003979 0.003735 0.000000 0.041842 0.000000
# 6 0.000000 0.000000 0.000000 -0.039584 0.000000 0.077226
#
#
# Mechanical properties :
#
#
# Convention : Reuss Voigt Hill
#
# Bulk Modulus (GPa) = 61.41100 67.21746 64.31423
# Shear Modulus (GPa) = 19.33149 27.18117 23.25633
#
# Velocity S-wave (km/s) = 3.10709 3.68430 3.40794
# Velocity P-wave (km/s) = 6.59851 7.18796 6.89953
#
# Compressibility (1/GPa) = 0.01628373
#
# Stress axis : x y z
#
# Youngs Moduli (GPa) = 82.04942 81.89822 94.99320
#
# Poissons Ratio (x) = 0.31029 0.36188
# Poissons Ratio (y) = 0.31086 0.16362
# Poissons Ratio (z) = 0.31257 0.14107
#
# Static dielectric constant tensor:
#      x y z
#    x 3.879780 0.000000 0.081640 
#    y 0.000000 3.578440 0.000000 
#    z 0.081640 0.000000 3.757550 
# 
# 
# High freq. dielectric constant tensor:
#      x y z
#    x 1.802710 0.000000 0.005120 
#    y 0.000000 1.751230 0.000000 
#    z 0.005120 0.000000 1.776240 
# 
# From -- ./inp_files/123512.got.cif
#   From: 2010.06.25/outbox.cif.g09.slc.cpg/sg12_62_cif.got.tgz:123512.got - 2010.06.28 00:19:55.
