data_PCOD8114091
_publ_section_title
;
Structure prediction by ZEFSAII (Michael W. Deem and Ramdas Pophale) SiO2 
 PCOD8114091
Probable space group: C 2/M
;
_chemical_formula_sum "Si O2"
_cell_formula_units_Z 64
_cell_length_a 28.633402
_cell_length_b 8.967309
_cell_length_c 20.837272
_cell_angle_alpha 90.000000
_cell_angle_beta 48.299461
_cell_angle_gamma 90.000000
_cell_volume 3994.684661
_symmetry_space_group_name_H-M "C 2/M"
_symmetry_group_IT_number 12
_symmetry_cell_setting 'monoclinic'
loop_
_space_group_symop_operation_xyz
x,y,z
-x,y,-z
-x,-y,-z
x,-y,z
1/2+x,1/2+y,z
1/2-x,1/2+y,-z
1/2-x,1/2-y,-z
1/2+x,1/2-y,z
loop_
_atom_site_type_symbol
_atom_site_label
_atom_site_fract_x
_atom_site_fract_y
_atom_site_fract_z
Si Si1 0.360428 0.676011 0.164047
Si Si2 0.403418 0.823680 0.596037
Si Si3 0.772940 0.322894 0.670935
Si Si4 0.570871 0.675966 0.649981
Si Si5 0.701211 0.822692 0.496920
Si Si6 0.538358 0.673856 0.824064
Si Si7 0.052144 0.331764 0.006730
Si Si8 0.505008 0.176689 0.599602
O O1 0.360163 0.500000 0.154750
O O2 0.290927 0.740513 0.240241
O O3 0.402624 0.722126 0.186455
O O4 0.386048 0.748050 0.075031
O O5 0.332476 0.761238 0.657253
O O6 0.441811 0.769180 0.498819
O O7 0.437657 0.776724 0.630882
O O8 0.402982 0.000000 0.592381
O O9 0.771061 0.500000 0.674865
O O10 0.779145 0.270711 0.591970
O O11 0.582109 0.500000 0.632895
O O12 0.632431 0.764619 0.574365
O O13 0.552940 0.720515 0.738416
O O14 0.514231 0.731104 0.656495
O O15 0.750000 0.750000 0.500000
O O16 0.702507 0.000000 0.503034
O O17 0.525320 0.500000 0.843034
O O18 0.475049 0.756078 0.904320
O O19 0.070667 0.500000 0.006291
O O20 0.000000 0.320956 0.000000
O O21 0.508774 0.000000 0.609712
#
# Coordination Sequence:
#
# PCOD8114091 Si02
#       8
#     8   8   8   8   8   8   8   8
#     4   9  16  28  47  66  87 118 154 186 221 268
#     4   8  14  27  48  69  88 116 159 199 230 271
#     4   9  16  28  47  68  89 121 160 191 220 269
#     4  11  21  32  46  68  96 124 157 194 233 276
#     4  11  21  33  47  64  93 129 164 194 224 266
#     4   9  18  31  45  63  90 124 157 187 221 271
#     4   9  17  29  45  66  90 114 145 188 233 271
#     4   9  16  29  49  68  88 119 157 198 237 272
#
# _framework density 16.02129
#
# number of rings (size 3 to 8) (size 9 to 14) (size 15 to 20)
#    0.000    2.625    1.250    2.625    0.000    4.500 
#    0.000    5.000    0.000    0.000    0.000    0.875 
#    0.000    0.000    0.000    0.000    0.000    0.000 
#
# Total GULP energy -396694.577205 kJ/mol
# GULP energy per Si atom -12396.705538 kJ/mol
# Density = 1.598482 g / cm^3
# Si number density = 16.021290 Si / 1000 Ang^3
#
#
#
# Elastic Constant Matrix: (Units=GPa)
#
#
# Indices 1 2 3 4 5 6 
#
# 1 102.3254 27.4866 55.0827 0.0025 -15.1429 -0.0017
# 2 27.4866 45.5861 39.0644 0.0131 -2.2814 -0.0054
# 3 55.0827 39.0644 126.2885 0.0016 -18.5484 -0.0029
# 4 0.0025 0.0131 0.0016 21.9931 -0.0047 3.2223
# 5 -15.1429 -2.2814 -18.5484 -0.0047 13.7330 0.0022
# 6 -0.0017 -0.0054 -0.0029 3.2223 0.0022 20.3581
#
#
#
# Elastic Compliance Matrix: (Units=1/GPa)
#
#
# Indices 1 2 3 4 5 6 
#
# 1 0.014527 -0.005674 -0.002953 0.000005 0.011088 -0.000003
# 2 -0.005674 0.033064 -0.009811 -0.000023 -0.014015 0.000012
# 3 -0.002953 -0.009811 0.014375 0.000009 0.014530 -0.000004
# 4 0.000005 -0.000023 0.000009 0.046548 0.000030 -0.007368
# 5 0.011088 -0.014015 0.014530 0.000030 0.102340 -0.000017
# 6 -0.000003 0.000012 -0.000004 -0.007368 -0.000017 0.050287
#
#
# Mechanical properties :
#
#
# Convention : Reuss Voigt Hill
#
# Bulk Modulus (GPa) = 39.85582 57.49639 48.67610
# Shear Modulus (GPa) = 16.31958 21.38794 18.85376
#
# Velocity S-wave (km/s) = 3.19504 3.65769 3.43416
# Velocity P-wave (km/s) = 6.20821 7.33510 6.79505
#
# Compressibility (1/GPa) = 0.02509044
#
# Stress axis : x y z
#
# Youngs Moduli (GPa) = 68.83609 30.24446 69.56498
#
# Poissons Ratio (x) = 0.17162 0.20539
# Poissons Ratio (y) = 0.39060 0.68251
# Poissons Ratio (z) = 0.20324 0.29673
#
# Static dielectric constant tensor:
#      x y z
#    x 3.360060 -0.000020 -0.126080 
#    y -0.000020 2.876070 0.000000 
#    z -0.126080 0.000000 3.135470 
# 
# 
# High freq. dielectric constant tensor:
#      x y z
#    x 1.600880 0.000000 -0.004530 
#    y 0.000000 1.598720 0.000000 
#    z -0.004530 0.000000 1.606070 
# 
# From -- ./inp_files/326793.got.cif
#   From: 2010.06.25/outbox.cif.g09.slc.cpg/sg12_164_cif.got.tgz:326793.got - 2010.06.28 00:19:55.
