data_PCOD8114972
_publ_section_title
;
Structure prediction by ZEFSAII (Michael W. Deem and Ramdas Pophale) SiO2 
 PCOD8114972
Probable space group: C 2/M
;
_chemical_formula_sum "Si O2"
_cell_formula_units_Z 40
_cell_length_a 6.808928
_cell_length_b 17.566606
_cell_length_c 20.345100
_cell_angle_alpha 90.000000
_cell_angle_beta 45.655519
_cell_angle_gamma 90.000000
_cell_volume 1740.298568
_symmetry_space_group_name_H-M "C 2/M"
_symmetry_group_IT_number 12
_symmetry_cell_setting 'monoclinic'
loop_
_space_group_symop_operation_xyz
x,y,z
-x,y,-z
-x,-y,-z
x,-y,z
1/2+x,1/2+y,z
1/2-x,1/2+y,-z
1/2-x,1/2-y,-z
1/2+x,1/2-y,z
loop_
_atom_site_type_symbol
_atom_site_label
_atom_site_fract_x
_atom_site_fract_y
_atom_site_fract_z
Si Si1 0.187482 0.826410 0.210813
Si Si2 0.383539 0.913384 0.423345
Si Si3 0.815946 0.652208 0.760433
Si Si4 0.209740 0.586935 0.096020
Si Si5 0.071555 0.912944 0.619623
O O1 0.166449 0.735906 0.212785
O O2 0.480971 0.857460 0.117469
O O3 0.957038 0.861342 0.218135
O O4 0.151032 0.856670 0.294873
O O5 0.418445 0.863502 0.348699
O O6 0.116415 0.892110 0.531279
O O7 0.643751 0.901970 0.409275
O O8 0.359019 0.000000 0.405626
O O9 0.795112 0.592277 0.823980
O O10 0.150714 0.500000 0.089102
O O11 0.500000 0.615097 0.000000
O O12 0.969563 0.000000 0.650220
#
# Coordination Sequence:
#
# PCOD8114972 Si02
#       5
#     8   8   8   8   8
#     4  11  22  40  63  93 127 166 206 250 311 367
#     4   8  15  30  55  86 121 163 206 248 297 356
#     4  11  22  40  63  93 127 166 206 250 311 367
#     4  11  26  46  67  93 122 155 205 265 315 370
#     4   8  15  30  55  86 121 163 206 248 297 356
#
# _framework density 22.984563000000001
#
# number of rings (size 3 to 8) (size 9 to 14) (size 15 to 20)
#    0.000    2.200    2.000    2.400    0.000    4.800 
#    0.000    3.000    0.000    3.600    0.000    0.000 
#    0.000    0.000    0.000    0.000    0.000    0.000 
#
# Total GULP energy -248007.193471 kJ/mol
# GULP energy per Si atom -12400.359674 kJ/mol
# Density = 2.293225 g / cm^3
# Si number density = 22.984563 Si / 1000 Ang^3
#
#
#
# Elastic Constant Matrix: (Units=GPa)
#
#
# Indices 1 2 3 4 5 6 
#
# 1 18.2440 -11.1672 10.4008 -0.0007 -0.1092 0.0027
# 2 -11.1672 78.6139 22.0211 -0.0001 -19.7326 0.0009
# 3 10.4008 22.0211 96.2455 0.0006 -22.4192 0.0023
# 4 -0.0007 -0.0001 0.0006 31.6266 -0.0001 -7.6082
# 5 -0.1092 -19.7326 -22.4192 -0.0001 40.9681 -0.0011
# 6 0.0027 0.0009 0.0023 -7.6082 -0.0011 16.8544
#
#
#
# Elastic Compliance Matrix: (Units=1/GPa)
#
#
# Indices 1 2 3 4 5 6 
#
# 1 0.068393 0.012748 -0.010126 -0.000001 0.000781 -0.000011
# 2 0.012748 0.017167 -0.003864 0.000000 0.006188 -0.000002
# 3 -0.010126 -0.003864 0.013671 0.000000 0.005593 0.000000
# 4 -0.000001 0.000000 0.000000 0.035471 0.000000 0.016012
# 5 0.000781 0.006188 0.005593 0.000000 0.030453 0.000001
# 6 -0.000011 -0.000002 0.000000 0.016012 0.000001 0.066560
#
#
# Mechanical properties :
#
#
# Convention : Reuss Voigt Hill
#
# Bulk Modulus (GPa) = 10.33624 26.17922 18.25773
# Shear Modulus (GPa) = 18.76549 29.34640 24.05595
#
# Velocity S-wave (km/s) = 2.86044 3.57709 3.23865
# Velocity P-wave (km/s) = 3.92636 5.33624 4.68464
#
# Compressibility (1/GPa) = 0.09674697
#
# Stress axis : x y z
#
# Youngs Moduli (GPa) = 14.62148 58.25196 73.14605
#
# Poissons Ratio (x) = -0.74258 0.74064
# Poissons Ratio (y) = -0.18639 0.28263
# Poissons Ratio (z) = 0.14805 0.22508
#
# Static dielectric constant tensor:
#      x y z
#    x 4.175800 0.000000 -0.120480 
#    y 0.000000 3.786120 0.000000 
#    z -0.120480 0.000000 4.563940 
# 
# 
# High freq. dielectric constant tensor:
#      x y z
#    x 1.928640 0.000000 -0.006610 
#    y 0.000000 1.881980 0.000000 
#    z -0.006610 0.000000 1.906440 
# 
# From -- ./inp_files/300578.got.cif
#   From: 2010.06.25/outbox.cif.g09.slc.cpg/sg12_151_cif.got.tgz:300578.got - 2010.06.28 00:19:55.
