data_PCOD8114971
_publ_section_title
;
Structure prediction by ZEFSAII (Michael W. Deem and Ramdas Pophale) SiO2 
 PCOD8114971
Probable space group: C 2/M
;
_chemical_formula_sum "Si O2"
_cell_formula_units_Z 40
_cell_length_a 18.867184
_cell_length_b 10.891722
_cell_length_c 21.450978
_cell_angle_alpha 90.000000
_cell_angle_beta 27.596488
_cell_angle_gamma 90.000000
_cell_volume 2042.012469
_symmetry_space_group_name_H-M "C 2/M"
_symmetry_group_IT_number 12
_symmetry_cell_setting 'monoclinic'
loop_
_space_group_symop_operation_xyz
x,y,z
-x,y,-z
-x,-y,-z
x,-y,z
1/2+x,1/2+y,z
1/2-x,1/2+y,-z
1/2-x,1/2-y,-z
1/2+x,1/2-y,z
loop_
_atom_site_type_symbol
_atom_site_label
_atom_site_fract_x
_atom_site_fract_y
_atom_site_fract_z
Si Si1 0.263267 0.756814 0.388851
Si Si2 0.180345 0.500000 0.852934
Si Si3 0.084151 0.142030 0.847962
Si Si4 0.960781 0.356959 0.343483
Si Si5 0.221510 0.236791 0.863344
Si Si6 0.669365 0.500000 0.394081
O O1 0.337080 0.674331 0.278006
O O2 0.124899 0.679399 0.526169
O O3 0.393600 0.781750 0.338033
O O4 0.192882 0.881844 0.418209
O O5 0.253805 0.381287 0.828488
O O6 0.210532 0.500000 0.755698
O O7 0.000000 0.500000 0.000000
O O8 0.201659 0.171456 0.812028
O O9 0.039111 0.000000 0.884644
O O10 0.930259 0.221184 0.976575
O O11 0.940431 0.500000 0.346268
O O12 0.138596 0.324013 0.209715
O O13 0.500000 0.500000 0.500000
#
# Coordination Sequence:
#
# PCOD8114971 Si02
#       6
#     8   4   8   8   8   4
#     4  11  24  41  63  90 123 164 206 254 309 364
#     4  12  20  40  66  94 126 151 206 261 301 364
#     4  11  22  40  63  93 124 156 206 254 306 367
#     4  11  24  43  61  88 127 165 205 252 310 370
#     4  11  22  40  65  93 121 164 200 255 313 361
#     4  12  22  40  64  92 124 155 207 259 304 363
#
# _framework density 19.588519000000002
#
# number of rings (size 3 to 8) (size 9 to 14) (size 15 to 20)
#    0.000    0.800    5.000    4.200    0.000    0.800 
#    3.600    2.000    0.000    0.000    0.000    0.000 
#    0.000    0.000    0.000    0.000    0.000    0.000 
#
# Total GULP energy -248147.108293 kJ/mol
# GULP energy per Si atom -12407.355415 kJ/mol
# Density = 1.954394 g / cm^3
# Si number density = 19.588519 Si / 1000 Ang^3
#
#
#
# Elastic Constant Matrix: (Units=GPa)
#
#
# Indices 1 2 3 4 5 6 
#
# 1 80.6228 6.7539 43.6669 -0.0004 -8.4266 -0.0002
# 2 6.7539 96.8370 -1.3996 -0.0078 1.0957 -0.0011
# 3 43.6669 -1.3996 73.6464 -0.0049 -1.6830 -0.0002
# 4 -0.0004 -0.0078 -0.0049 24.1804 -0.0004 3.1022
# 5 -8.4266 1.0957 -1.6830 -0.0004 35.5218 0.0008
# 6 -0.0002 -0.0011 -0.0002 3.1022 0.0008 33.5111
#
#
#
# Elastic Compliance Matrix: (Units=1/GPa)
#
#
# Indices 1 2 3 4 5 6 
#
# 1 0.019031 -0.001535 -0.011221 -0.000002 0.004030 0.000000
# 2 -0.001535 0.010457 0.001094 0.000004 -0.000635 0.000000
# 3 -0.011221 0.001094 0.020213 0.000004 -0.001738 0.000000
# 4 -0.000002 0.000004 0.000004 0.041853 0.000000 -0.003874
# 5 0.004030 -0.000635 -0.001738 0.000000 0.029045 -0.000001
# 6 0.000000 0.000000 0.000000 -0.003874 -0.000001 0.030200
#
#
# Mechanical properties :
#
#
# Convention : Reuss Voigt Hill
#
# Bulk Modulus (GPa) = 37.91189 38.79426 38.35308
# Shear Modulus (GPa) = 27.33542 32.11500 29.72521
#
# Velocity S-wave (km/s) = 3.73967 4.05344 3.89971
# Velocity P-wave (km/s) = 6.16790 6.46179 6.31656
#
# Compressibility (1/GPa) = 0.02637695
#
# Stress axis : x y z
#
# Youngs Moduli (GPa) = 52.54661 95.63247 49.47399
#
# Poissons Ratio (x) = 0.14680 0.55514
# Poissons Ratio (y) = 0.08066 -0.05414
# Poissons Ratio (z) = 0.58962 -0.10466
#
# Static dielectric constant tensor:
#      x y z
#    x 5.717160 -0.000440 1.103730 
#    y -0.000440 3.879220 -0.000190 
#    z 1.103730 -0.000190 4.024000 
# 
# 
# High freq. dielectric constant tensor:
#      x y z
#    x 1.757110 0.000000 0.002940 
#    y 0.000000 1.780980 0.000000 
#    z 0.002940 0.000000 1.771050 
# 
# From -- ./inp_files/102880.got.cif
#   From: 2010.06.25/outbox.cif.g09.slc.cpg/sg12_52_cif.got.tgz:102880.got - 2010.06.28 00:19:55.
