data_PCOD8114298
_publ_section_title
;
Structure prediction by ZEFSAII (Michael W. Deem and Ramdas Pophale) SiO2 
 PCOD8114298
Probable space group: C 2/M
;
_chemical_formula_sum "Si O2"
_cell_formula_units_Z 64
_cell_length_a 29.910638
_cell_length_b 14.977027
_cell_length_c 20.670550
_cell_angle_alpha 90.000000
_cell_angle_beta 21.088607
_cell_angle_gamma 90.000000
_cell_volume 3331.793720
_symmetry_space_group_name_H-M "C 2/M"
_symmetry_group_IT_number 12
_symmetry_cell_setting 'monoclinic'
loop_
_space_group_symop_operation_xyz
x,y,z
-x,y,-z
-x,-y,-z
x,-y,z
1/2+x,1/2+y,z
1/2-x,1/2+y,-z
1/2-x,1/2-y,-z
1/2+x,1/2-y,z
loop_
_atom_site_type_symbol
_atom_site_label
_atom_site_fract_x
_atom_site_fract_y
_atom_site_fract_z
Si Si1 0.282881 0.815365 0.897355
Si Si2 0.005140 0.773767 0.919817
Si Si3 0.374501 0.397938 0.335703
Si Si4 0.326832 0.396949 0.610481
Si Si5 0.760166 0.734477 0.781166
Si Si6 0.966154 0.400113 0.471183
Si Si7 0.471144 0.601651 0.755618
Si Si8 0.851380 0.599352 0.269621
O O1 0.276322 0.767318 0.836682
O O2 0.417115 0.860351 0.726682
O O3 0.250000 0.750000 0.000000
O O4 0.176862 0.890866 0.044549
O O5 0.113779 0.834110 0.742063
O O6 0.036740 0.668650 0.874308
O O7 0.000000 0.806874 0.000000
O O8 0.877729 0.790930 0.054080
O O9 0.408505 0.500000 0.270872
O O10 0.469752 0.355301 0.259909
O O11 0.235208 0.392544 0.550569
O O12 0.328825 0.500000 0.630985
O O13 0.295619 0.335244 0.713626
O O14 0.461412 0.363578 0.400957
O O15 0.225470 0.380417 0.691527
O O16 0.847532 0.664055 0.625055
O O17 0.935502 0.500000 0.486241
O O18 0.000000 0.406999 0.500000
O O19 0.515160 0.500000 0.700397
O O20 0.909585 0.500000 0.187796
#
# Coordination Sequence:
#
# PCOD8114298 Si02
#       8
#     8   8   8   8   8   8   8   8
#     4  11  21  36  59  86 113 146 189 240 285 340
#     4  12  22  34  56  87 117 150 189 234 285 338
#     4   9  19  36  55  79 112 150 189 233 278 332
#     4   9  18  35  57  82 114 153 191 232 283 340
#     4  11  22  37  55  84 119 148 189 236 286 338
#     4   9  20  38  60  82 110 151 193 233 281 339
#     4   9  17  33  59  82 103 141 192 234 275 334
#     4   9  19  36  58  81 110 153 200 232 271 342
#
# _framework density 19.208870999999998
#
# number of rings (size 3 to 8) (size 9 to 14) (size 15 to 20)
#    0.000    2.125    2.500    3.000    0.000    2.000 
#    0.000    1.250    0.000    6.375    0.000    0.000 
#    0.000    0.000    0.000    0.000    0.000    0.000 
#
# Total GULP energy -396694.278682 kJ/mol
# GULP energy per Si atom -12396.696209 kJ/mol
# Density = 1.916515 g / cm^3
# Si number density = 19.208871 Si / 1000 Ang^3
#
#
#
# Elastic Constant Matrix: (Units=GPa)
#
#
# Indices 1 2 3 4 5 6 
#
# 1 66.5120 34.6434 28.2488 0.0000 15.2754 0.0000
# 2 34.6434 100.2325 34.2111 0.0001 9.0111 0.0000
# 3 28.2488 34.2111 91.2038 0.0001 0.7396 0.0001
# 4 0.0000 0.0001 0.0001 34.0911 0.0001 0.5991
# 5 15.2754 9.0111 0.7396 0.0001 31.3477 0.0000
# 6 0.0000 0.0000 0.0001 0.5991 0.0000 25.8930
#
#
#
# Elastic Compliance Matrix: (Units=1/GPa)
#
#
# Indices 1 2 3 4 5 6 
#
# 1 0.021787 -0.005091 -0.004765 0.000000 -0.009041 0.000000
# 2 -0.005091 0.012959 -0.003275 0.000000 -0.001167 0.000000
# 3 -0.004765 -0.003275 0.013645 0.000000 0.002941 0.000000
# 4 0.000000 0.000000 0.000000 0.029345 0.000000 -0.000679
# 5 -0.009041 -0.001167 0.002941 0.000000 0.036572 0.000000
# 6 0.000000 0.000000 0.000000 -0.000679 0.000000 0.038636
#
#
# Mechanical properties :
#
#
# Convention : Reuss Voigt Hill
#
# Bulk Modulus (GPa) = 45.18947 50.23946 47.71447
# Shear Modulus (GPa) = 26.79796 28.98937 27.89367
#
# Velocity S-wave (km/s) = 3.73913 3.88901 3.81481
# Velocity P-wave (km/s) = 6.49753 6.81006 6.65563
#
# Compressibility (1/GPa) = 0.02212905
#
# Stress axis : x y z
#
# Youngs Moduli (GPa) = 45.89970 77.16623 73.28763
#
# Poissons Ratio (x) = 0.39285 0.34922
# Poissons Ratio (y) = 0.23367 0.24000
# Poissons Ratio (z) = 0.21872 0.25270
#
# Static dielectric constant tensor:
#      x y z
#    x 3.213680 0.000000 0.117760 
#    y 0.000000 3.502770 0.000000 
#    z 0.117760 0.000000 3.703960 
# 
# 
# High freq. dielectric constant tensor:
#      x y z
#    x 1.713750 0.000000 0.011520 
#    y 0.000000 1.743820 0.000000 
#    z 0.011520 0.000000 1.764280 
# 
# From -- ./inp_files/224791.got.cif
#   From: 2010.06.25/outbox.cif.g09.slc.cpg/sg12_113_cif.got.tgz:224791.got - 2010.06.28 00:19:55.
