data_PCOD8114688
_publ_section_title
;
Structure prediction by ZEFSAII (Michael W. Deem and Ramdas Pophale) SiO2 
 PCOD8114688
Probable space group: C 2/M
;
_chemical_formula_sum "Si O2"
_cell_formula_units_Z 64
_cell_length_a 19.477379
_cell_length_b 8.783948
_cell_length_c 19.296395
_cell_angle_alpha 90.000000
_cell_angle_beta 86.678633
_cell_angle_gamma 90.000000
_cell_volume 3295.841709
_symmetry_space_group_name_H-M "C 2/M"
_symmetry_group_IT_number 12
_symmetry_cell_setting 'monoclinic'
loop_
_space_group_symop_operation_xyz
x,y,z
-x,y,-z
-x,-y,-z
x,-y,z
1/2+x,1/2+y,z
1/2-x,1/2+y,-z
1/2-x,1/2-y,-z
1/2+x,1/2-y,z
loop_
_atom_site_type_symbol
_atom_site_label
_atom_site_fract_x
_atom_site_fract_y
_atom_site_fract_z
Si Si1 0.521545 0.829767 0.068362
Si Si2 0.495889 0.179276 0.580262
Si Si3 0.331267 0.168731 0.987309
Si Si4 0.889588 0.179867 0.686683
Si Si5 0.385355 0.174260 0.326111
Si Si6 0.756596 0.180390 0.268918
Si Si7 0.282941 0.679914 0.111132
Si Si8 0.493964 0.176723 0.782754
O O1 0.496938 0.752615 0.141064
O O2 0.488552 0.000000 0.067193
O O3 0.500000 0.738298 0.000000
O O4 0.603016 0.836408 0.065319
O O5 0.500000 0.223075 0.500000
O O6 0.428802 0.260580 0.615713
O O7 0.567807 0.231753 0.611882
O O8 0.486504 0.000000 0.594118
O O9 0.346599 0.256308 0.060626
O O10 0.306892 0.000000 0.008863
O O11 0.277005 0.243755 0.936600
O O12 0.813781 0.249887 0.697938
O O13 0.934947 0.226743 0.749589
O O14 0.882417 0.000000 0.682511
O O15 0.317211 0.274438 0.319042
O O16 0.432064 0.193766 0.255758
O O17 0.362455 0.000000 0.338698
O O18 0.774601 0.243893 0.190137
O O19 0.748897 0.000000 0.268423
O O20 0.285640 0.500000 0.116407
O O21 0.469906 0.000000 0.785695
#
# Coordination Sequence:
#
# PCOD8114688 Si02
#       8
#     8   8   8   8   8   8   8   8
#     4   9  17  28  47  73  98 132 180 228 276 330
#     4   9  19  40  68  92 117 151 184 216 263 326
#     4   9  17  30  48  68  92 125 175 229 275 329
#     4  11  22  36  58  87 115 145 186 231 273 323
#     4   9  19  34  56  87 116 143 181 227 273 327
#     4  11  22  36  55  78 111 150 188 230 279 330
#     4   9  19  33  48  67  94 134 176 222 276 328
#     4   9  18  35  56  77 108 148 189 233 282 340
#
# _framework density 19.418407999999999
#
# number of rings (size 3 to 8) (size 9 to 14) (size 15 to 20)
#    0.000    2.500    0.000    3.000    1.750    5.250 
#    0.000    3.750    0.000    0.750    0.000    0.000 
#    0.000    0.000    0.000    0.000    0.000    0.000 
#
# Total GULP energy -396460.471808 kJ/mol
# GULP energy per Si atom -12389.389744 kJ/mol
# Density = 1.937421 g / cm^3
# Si number density = 19.418408 Si / 1000 Ang^3
#
#
#
# Elastic Constant Matrix: (Units=GPa)
#
#
# Indices 1 2 3 4 5 6 
#
# 1 87.7620 33.7654 48.4889 0.0000 4.5316 0.0000
# 2 33.7654 63.5230 33.2509 0.0000 -0.9882 0.0000
# 3 48.4889 33.2509 158.9337 0.0000 1.0445 0.0000
# 4 0.0000 0.0000 0.0000 19.8566 0.0000 0.2874
# 5 4.5316 -0.9882 1.0445 0.0000 17.9276 0.0000
# 6 0.0000 0.0000 0.0000 0.2874 0.0000 25.5086
#
#
#
# Elastic Compliance Matrix: (Units=1/GPa)
#
#
# Indices 1 2 3 4 5 6 
#
# 1 0.016165 -0.006841 -0.003473 0.000000 -0.004261 0.000000
# 2 -0.006841 0.020599 -0.002242 0.000000 0.002995 0.000000
# 3 -0.003473 -0.002242 0.007818 0.000000 0.000299 0.000000
# 4 0.000000 0.000000 0.000000 0.050369 0.000000 -0.000567
# 5 -0.004261 0.002995 0.000299 0.000000 0.057005 0.000000
# 6 0.000000 0.000000 0.000000 -0.000567 0.000000 0.039209
#
#
# Mechanical properties :
#
#
# Convention : Reuss Voigt Hill
#
# Bulk Modulus (GPa) = 51.35837 60.13655 55.74746
# Shear Modulus (GPa) = 22.44497 25.63946 24.04221
#
# Velocity S-wave (km/s) = 3.40348 3.63763 3.52250
# Velocity P-wave (km/s) = 6.47693 6.97705 6.73164
#
# Compressibility (1/GPa) = 0.01947102
#
# Stress axis : x y z
#
# Youngs Moduli (GPa) = 61.86178 48.54632 127.90213
#
# Poissons Ratio (x) = 0.33211 0.44415
# Poissons Ratio (y) = 0.42320 0.28677
# Poissons Ratio (z) = 0.21482 0.10885
#
# Static dielectric constant tensor:
#      x y z
#    x 3.498220 0.000000 -0.020970 
#    y 0.000000 3.350260 0.000000 
#    z -0.020970 0.000000 3.747140 
# 
# 
# High freq. dielectric constant tensor:
#      x y z
#    x 1.754580 0.000000 -0.001100 
#    y 0.000000 1.728750 0.000000 
#    z -0.001100 0.000000 1.755770 
# 
# From -- ./inp_files/319191.got.cif
#   From: 2010.06.25/outbox.cif.g09.slc.cpg/sg12_160_cif.got.tgz:319191.got - 2010.06.28 00:19:55.
