data_PCOD8114427
_publ_section_title
;
Structure prediction by ZEFSAII (Michael W. Deem and Ramdas Pophale) SiO2 
 PCOD8114427
Probable space group: C 2/M
;
_chemical_formula_sum "Si O2"
_cell_formula_units_Z 40
_cell_length_a 9.348592
_cell_length_b 15.796991
_cell_length_c 25.260162
_cell_angle_alpha 90.000000
_cell_angle_beta 32.225227
_cell_angle_gamma 90.000000
_cell_volume 1989.237300
_symmetry_space_group_name_H-M "C 2/M"
_symmetry_group_IT_number 12
_symmetry_cell_setting 'monoclinic'
loop_
_space_group_symop_operation_xyz
x,y,z
-x,y,-z
-x,-y,-z
x,-y,z
1/2+x,1/2+y,z
1/2-x,1/2+y,-z
1/2-x,1/2-y,-z
1/2+x,1/2-y,z
loop_
_atom_site_type_symbol
_atom_site_label
_atom_site_fract_x
_atom_site_fract_y
_atom_site_fract_z
Si Si1 0.808360 0.167352 0.281804
Si Si2 0.945474 0.500000 0.602884
Si Si3 0.758547 0.170650 0.035895
Si Si4 0.205619 0.093926 0.078426
Si Si5 0.067517 0.000000 0.620182
Si Si6 0.179929 0.832098 0.267646
O O1 0.612169 0.085940 0.346088
O O2 0.645330 0.252748 0.318716
O O3 0.003983 0.157120 0.170415
O O4 0.974899 0.180122 0.283360
O O5 0.756463 0.500000 0.611619
O O6 0.256263 0.500000 0.488491
O O7 0.481516 0.156023 0.152927
O O8 0.750000 0.250000 0.000000
O O9 0.825418 0.092544 0.975541
O O10 0.000000 0.181219 0.000000
O O11 0.158692 0.000000 0.116097
O O12 0.500000 0.127375 0.000000
O O13 0.885969 0.916079 0.678098
#
# Coordination Sequence:
#
# PCOD8114427 Si02
#       6
#     8   4   8   8   4   8
#     4  11  21  38  63  92 119 158 203 246 301 360
#     4   9  20  42  67  86 112 154 209 253 296 364
#     4  12  23  36  55  85 124 161 197 238 291 354
#     4  11  22  36  58  87 122 166 202 242 295 360
#     4   9  22  42  63  87 118 155 201 255 304 355
#     4  11  23  38  60  91 122 160 199 244 300 360
#
# _framework density 20.10821
#
# number of rings (size 3 to 8) (size 9 to 14) (size 15 to 20)
#    0.000    1.200    5.000    1.800    1.400    1.200 
#    0.000    1.000    0.000    1.200    0.000    0.000 
#    0.000    0.000    0.000    0.000    0.000    0.000 
#
# Total GULP energy -247978.707625 kJ/mol
# GULP energy per Si atom -12398.935381 kJ/mol
# Density = 2.006244 g / cm^3
# Si number density = 20.108210 Si / 1000 Ang^3
#
#
#
# Elastic Constant Matrix: (Units=GPa)
#
#
# Indices 1 2 3 4 5 6 
#
# 1 108.2996 47.4288 38.3873 -0.0079 -2.3777 0.0276
# 2 47.4288 165.3362 76.1804 0.0755 3.6484 -0.0046
# 3 38.3873 76.1804 131.3869 0.3793 6.9885 0.1258
# 4 -0.0079 0.0755 0.3793 22.6060 0.0291 4.0486
# 5 -2.3777 3.6484 6.9885 0.0291 18.7183 -0.0793
# 6 0.0276 -0.0046 0.1258 4.0486 -0.0793 34.9865
#
#
#
# Elastic Compliance Matrix: (Units=1/GPa)
#
#
# Indices 1 2 3 4 5 6 
#
# 1 0.011010 -0.002278 -0.002034 0.000042 0.002602 -0.000001
# 2 -0.002278 0.008725 -0.004375 0.000042 -0.000357 0.000013
# 3 -0.002034 -0.004375 0.010928 -0.000160 -0.003486 -0.000028
# 4 0.000042 0.000042 -0.000160 0.045175 -0.000035 -0.005227
# 5 0.002602 -0.000357 -0.003486 -0.000035 0.055126 0.000139
# 6 -0.000001 0.000013 -0.000028 -0.005227 0.000139 0.029188
#
#
# Mechanical properties :
#
#
# Convention : Reuss Voigt Hill
#
# Bulk Modulus (GPa) = 75.25333 81.00176 78.12755
# Shear Modulus (GPa) = 27.47935 31.46390 29.47163
#
# Velocity S-wave (km/s) = 3.70073 3.95996 3.83254
# Velocity P-wave (km/s) = 7.46766 7.82807 7.64999
#
# Compressibility (1/GPa) = 0.01328845
#
# Stress axis : x y z
#
# Youngs Moduli (GPa) = 90.82986 114.60822 91.51006
#
# Poissons Ratio (x) = 0.26113 0.18614
# Poissons Ratio (y) = 0.20695 0.40032
# Poissons Ratio (z) = 0.18476 0.50136
#
# Static dielectric constant tensor:
#      x y z
#    x 3.644550 0.000110 0.096380 
#    y 0.000110 3.959970 0.000070 
#    z 0.096380 0.000070 3.568630 
# 
# 
# High freq. dielectric constant tensor:
#      x y z
#    x 1.765400 0.000000 0.010570 
#    y 0.000000 1.803760 -0.000010 
#    z 0.010570 -0.000010 1.776220 
# 
# From -- ./inp_files/195328.got.cif
#   From: 2010.06.25/outbox.cif.g09.slc.cpg/sg12_98_cif.got.tgz:195328.got - 2010.06.28 00:19:55.
