data_PCOD8114195
_publ_section_title
;
Structure prediction by ZEFSAII (Michael W. Deem and Ramdas Pophale) SiO2 
 PCOD8114195
Probable space group: C 2/M
;
_chemical_formula_sum "Si O2"
_cell_formula_units_Z 32
_cell_length_a 20.641462
_cell_length_b 12.521655
_cell_length_c 7.568445
_cell_angle_alpha 90.000000
_cell_angle_beta 61.609795
_cell_angle_gamma 90.000000
_cell_volume 1720.910109
_symmetry_space_group_name_H-M "C 2/M"
_symmetry_group_IT_number 12
_symmetry_cell_setting 'monoclinic'
loop_
_space_group_symop_operation_xyz
x,y,z
-x,y,-z
-x,-y,-z
x,-y,z
1/2+x,1/2+y,z
1/2-x,1/2+y,-z
1/2-x,1/2-y,-z
1/2+x,1/2-y,z
loop_
_atom_site_type_symbol
_atom_site_label
_atom_site_fract_x
_atom_site_fract_y
_atom_site_fract_z
Si Si1 0.582213 0.376526 0.209108
Si Si2 0.327568 0.879119 0.437712
Si Si3 0.180537 0.814082 0.773902
Si Si4 0.078440 0.805108 0.600069
O O1 0.569357 0.500000 0.180762
O O2 0.601016 0.364416 0.390711
O O3 0.508729 0.311201 0.253938
O O4 0.649745 0.328844 0.010296
O O5 0.257399 0.877044 0.659885
O O6 0.306645 0.812529 0.285995
O O7 0.397084 0.820104 0.441539
O O8 0.349354 0.000000 0.362052
O O9 0.122111 0.861328 0.705660
#
# Coordination Sequence:
#
# PCOD8114195 Si02
#       4
#     8   8   8   8
#     4  11  21  34  56  82 107 138 176 221 267 308
#     4   9  19  38  56  76 109 142 175 218 261 310
#     4   9  20  37  56  79 107 136 181 218 257 320
#     4   9  20  36  52  82 112 130 177 221 257 323
#
# _framework density 18.594811
#
# number of rings (size 3 to 8) (size 9 to 14) (size 15 to 20)
#    1.500    1.000    0.000    3.000    0.000    6.000 
#    0.000    6.250    0.000    0.000    0.000    0.000 
#    0.000    0.000    0.000    0.000    0.000    0.000 
#
# Total GULP energy -198266.716091 kJ/mol
# GULP energy per Si atom -12391.669756 kJ/mol
# Density = 1.855249 g / cm^3
# Si number density = 18.594811 Si / 1000 Ang^3
#
#
#
# Elastic Constant Matrix: (Units=GPa)
#
#
# Indices 1 2 3 4 5 6 
#
# 1 29.2057 18.7959 0.0350 0.0000 -6.6219 0.0000
# 2 18.7959 119.2092 29.6748 0.0000 -14.6762 0.0000
# 3 0.0350 29.6748 106.3010 0.0000 -9.2339 0.0000
# 4 0.0000 0.0000 0.0000 15.7830 0.0000 1.5843
# 5 -6.6219 -14.6762 -9.2339 0.0000 21.3659 0.0000
# 6 0.0000 0.0000 0.0000 1.5843 0.0000 23.2855
#
#
#
# Elastic Compliance Matrix: (Units=1/GPa)
#
#
# Indices 1 2 3 4 5 6 
#
# 1 0.040098 -0.005752 0.002420 0.000000 0.009522 0.000000
# 2 -0.005752 0.010458 -0.002544 0.000000 0.004302 0.000000
# 3 0.002420 -0.002544 0.010421 0.000000 0.003506 0.000000
# 4 0.000000 0.000000 0.000000 0.063795 0.000000 -0.004341
# 5 0.009522 0.004302 0.003506 0.000000 0.054225 0.000000
# 6 0.000000 0.000000 0.000000 -0.004341 0.000000 0.043241
#
#
# Mechanical properties :
#
#
# Convention : Reuss Voigt Hill
#
# Bulk Modulus (GPa) = 20.31518 39.08081 29.69799
# Shear Modulus (GPa) = 19.96813 25.83424 22.90118
#
# Velocity S-wave (km/s) = 3.28053 3.73141 3.51321
# Velocity P-wave (km/s) = 5.02972 6.29502 5.69760
#
# Compressibility (1/GPa) = 0.04922429
#
# Stress axis : x y z
#
# Youngs Moduli (GPa) = 24.93897 95.61631 95.95819
#
# Poissons Ratio (x) = 0.55002 -0.23219
# Poissons Ratio (y) = 0.14346 0.24412
# Poissons Ratio (z) = -0.06035 0.24325
#
# Static dielectric constant tensor:
#      x y z
#    x 3.224860 0.000000 -0.090450 
#    y 0.000000 3.164620 0.000000 
#    z -0.090450 0.000000 3.319960 
# 
# 
# High freq. dielectric constant tensor:
#      x y z
#    x 1.703560 0.000000 -0.012520 
#    y 0.000000 1.701610 0.000000 
#    z -0.012520 0.000000 1.720710 
# 
# From -- ./inp_files/71620.got.cif
#   From: 2010.06.25/outbox.cif.g09.slc.cpg/sg12_36_cif.got.tgz:71620.got - 2010.06.28 00:19:55.
