data_PCOD8114967
_publ_section_title
;
Structure prediction by ZEFSAII (Michael W. Deem and Ramdas Pophale) SiO2 
 PCOD8114967
Probable space group: C 2/M
;
_chemical_formula_sum "Si O2"
_cell_formula_units_Z 52
_cell_length_a 19.328683
_cell_length_b 18.501991
_cell_length_c 13.574737
_cell_angle_alpha 90.000000
_cell_angle_beta 146.294229
_cell_angle_gamma 90.000000
_cell_volume 2693.946490
_symmetry_space_group_name_H-M "C 2/M"
_symmetry_group_IT_number 12
_symmetry_cell_setting 'monoclinic'
loop_
_space_group_symop_operation_xyz
x,y,z
-x,y,-z
-x,-y,-z
x,-y,z
1/2+x,1/2+y,z
1/2-x,1/2+y,-z
1/2-x,1/2-y,-z
1/2+x,1/2-y,z
loop_
_atom_site_type_symbol
_atom_site_label
_atom_site_fract_x
_atom_site_fract_y
_atom_site_fract_z
Si Si1 0.613484 0.162495 0.843248
Si Si2 0.261765 0.500000 0.805409
Si Si3 0.234337 0.242198 0.140491
Si Si4 0.440015 0.377882 0.029895
Si Si5 0.154396 0.263397 0.523742
Si Si6 0.574353 0.000000 0.745861
Si Si7 0.799118 0.500000 0.483497
Si Si8 0.688048 0.360992 0.416365
O O1 0.700178 0.189548 0.858786
O O2 0.477650 0.201266 0.666225
O O3 0.613030 0.075073 0.845765
O O4 0.680698 0.185403 0.025458
O O5 0.122865 0.500000 0.689527
O O6 0.284653 0.500000 0.714382
O O7 0.327777 0.429818 0.928126
O O8 0.335027 0.254493 0.347439
O O9 0.111542 0.203374 0.037616
O O10 0.545329 0.384578 0.237609
O O11 0.500000 0.403557 0.000000
O O12 0.263712 0.319038 0.623773
O O13 0.191559 0.187955 0.516996
O O14 0.427379 0.000000 0.576629
O O15 0.776101 0.431686 0.527788
#
# Coordination Sequence:
#
# PCOD8114967 Si02
#       8
#     8   4   8   8   8   4   4   8
#     4  11  24  42  63  91 123 163 209 254 306 366
#     4  12  23  34  57  89 122 159 195 249 322 371
#     4  11  23  40  64  89 119 162 210 254 300 361
#     4  12  20  36  57  87 122 156 198 247 303 370
#     4  11  22  40  62  88 122 161 206 252 304 362
#     4  12  25  39  59  87 130 161 197 258 312 370
#     4  12  22  38  57  89 128 158 200 252 312 380
#     4  11  23  36  58  89 122 159 199 247 305 368
#
# _framework density 19.302536
#
# number of rings (size 3 to 8) (size 9 to 14) (size 15 to 20)
#    0.000    0.615    7.692    1.385    0.000    1.231 
#    0.000    0.769    0.000    0.923    0.000    4.308 
#    0.000    0.000    0.000    0.000    0.000    0.000 
#
# Total GULP energy -322119.073578 kJ/mol
# GULP energy per Si atom -12389.195138 kJ/mol
# Density = 1.925860 g / cm^3
# Si number density = 19.302536 Si / 1000 Ang^3
#
#
#
# Elastic Constant Matrix: (Units=GPa)
#
#
# Indices 1 2 3 4 5 6 
#
# 1 65.7400 49.0134 31.6090 0.0000 1.9111 0.0000
# 2 49.0134 147.9431 39.2580 0.0000 -8.0268 0.0000
# 3 31.6090 39.2580 82.8731 0.0000 -3.4960 0.0000
# 4 0.0000 0.0000 0.0000 77.8264 0.0000 89.7798
# 5 1.9111 -8.0268 -3.4960 0.0000 34.7653 0.0000
# 6 0.0000 0.0000 0.0000 89.7798 0.0000 142.9623
#
#
#
# Elastic Compliance Matrix: (Units=1/GPa)
#
#
# Indices 1 2 3 4 5 6 
#
# 1 0.022717 -0.006139 -0.005894 0.000000 -0.003259 0.000000
# 2 -0.006139 0.009461 -0.002043 0.000000 0.002316 0.000000
# 3 -0.005894 -0.002043 0.015341 0.000000 0.001395 0.000000
# 4 0.000000 0.000000 0.000000 0.046631 0.000000 -0.029284
# 5 -0.003259 0.002316 0.001395 0.000000 0.029619 0.000000
# 6 0.000000 0.000000 0.000000 -0.029284 0.000000 0.025385
#
#
# Mechanical properties :
#
#
# Convention : Reuss Voigt Hill
#
# Bulk Modulus (GPa) = 51.63123 59.59078 55.61101
# Shear Modulus (GPa) = 27.20931 62.88919 45.04925
#
# Velocity S-wave (km/s) = 3.75857 5.71415 4.83624
# Velocity P-wave (km/s) = 6.75591 8.62985 7.74973
#
# Compressibility (1/GPa) = 0.01936812
#
# Stress axis : x y z
#
# Youngs Moduli (GPa) = 44.01972 105.69857 65.18433
#
# Poissons Ratio (x) = 0.64888 0.38420
# Poissons Ratio (y) = 0.27023 0.13314
# Poissons Ratio (z) = 0.25945 0.21589
#
# Static dielectric constant tensor:
#      x y z
#    x 3.465440 0.000000 0.244430 
#    y 0.000000 3.661990 0.000000 
#    z 0.244430 0.000000 3.561760 
# 
# 
# High freq. dielectric constant tensor:
#      x y z
#    x 1.746010 0.000000 0.028920 
#    y 0.000000 1.750890 0.000000 
#    z 0.028920 0.000000 1.741630 
# 
# From -- ./inp_files/168741.got.cif
#   From: 2010.06.25/outbox.cif.g09.slc.cpg/sg12_85_cif.got.tgz:168741.got - 2010.06.28 00:19:55.
