data_PCOD8114082
_publ_section_title
;
Structure prediction by ZEFSAII (Michael W. Deem and Ramdas Pophale) SiO2 
 PCOD8114082
Probable space group: C 2/M
;
_chemical_formula_sum "Si O2"
_cell_formula_units_Z 48
_cell_length_a 23.605532
_cell_length_b 25.159348
_cell_length_c 12.526544
_cell_angle_alpha 90.000000
_cell_angle_beta 20.534572
_cell_angle_gamma 90.000000
_cell_volume 2609.576197
_symmetry_space_group_name_H-M "C 2/M"
_symmetry_group_IT_number 12
_symmetry_cell_setting 'monoclinic'
loop_
_space_group_symop_operation_xyz
x,y,z
-x,y,-z
-x,-y,-z
x,-y,z
1/2+x,1/2+y,z
1/2-x,1/2+y,-z
1/2-x,1/2-y,-z
1/2+x,1/2-y,z
loop_
_atom_site_type_symbol
_atom_site_label
_atom_site_fract_x
_atom_site_fract_y
_atom_site_fract_z
Si Si1 0.371188 0.000000 0.633532
Si Si2 0.293080 0.582394 0.629513
Si Si3 0.897392 0.697954 0.340152
Si Si4 0.942996 0.409505 0.340271
Si Si5 0.170870 0.058257 0.670147
Si Si6 0.011800 0.000000 0.353877
Si Si7 0.746201 0.194204 0.628235
O O1 0.500000 0.000000 0.500000
O O2 0.391895 0.945668 0.529740
O O3 0.195257 0.000000 0.993164
O O4 0.293730 0.552037 0.516837
O O5 0.429452 0.554687 0.460120
O O6 0.330150 0.644325 0.539658
O O7 0.123524 0.574795 0.988925
O O8 0.916765 0.654293 0.402245
O O9 0.851837 0.754385 0.471906
O O10 0.764455 0.683712 0.481571
O O11 0.068589 0.704054 0.983204
O O12 0.827636 0.415333 0.442511
O O13 0.157478 0.000000 0.746707
O O14 0.000000 0.087839 0.000000
O O15 0.000000 0.000000 0.500000
#
# Coordination Sequence:
#
# PCOD8114082 Si02
#       7
#     4   8   8   8   8   4   8
#     4  12  26  43  60  83 108 142 188 232 284 334
#     4  11  21  36  57  81 113 150 185 228 279 331
#     4   9  18  32  50  79 115 152 187 220 267 326
#     4  11  21  36  57  81 113 150 185 228 279 331
#     4  11  21  31  48  81 115 146 185 225 272 334
#     4  12  26  43  60  83 108 142 188 232 284 334
#     4   9  18  32  50  79 115 152 187 220 267 326
#
# _framework density 18.393791
#
# number of rings (size 3 to 8) (size 9 to 14) (size 15 to 20)
#    0.000    1.500    3.333    3.000    0.000    3.333 
#    0.000    0.000    0.000    1.000    0.000    7.000 
#    0.000    0.000    0.000    0.000    0.000    0.000 
#
# Total GULP energy -297390.860154 kJ/mol
# GULP energy per Si atom -12391.285840 kJ/mol
# Density = 1.835193 g / cm^3
# Si number density = 18.393791 Si / 1000 Ang^3
#
#
#
# Elastic Constant Matrix: (Units=GPa)
#
#
# Indices 1 2 3 4 5 6 
#
# 1 95.5769 53.2252 43.0478 -0.0024 -1.4401 -0.0013
# 2 53.2252 146.3804 57.6930 -0.0485 -1.1995 0.0127
# 3 43.0478 57.6930 104.0230 -0.0791 -4.6411 0.0210
# 4 -0.0024 -0.0485 -0.0791 21.0760 0.0191 0.3196
# 5 -1.4401 -1.1995 -4.6411 0.0191 28.2762 0.0005
# 6 -0.0013 0.0127 0.0210 0.3196 0.0005 11.8701
#
#
#
# Elastic Compliance Matrix: (Units=1/GPa)
#
#
# Indices 1 2 3 4 5 6 
#
# 1 0.014239 -0.003653 -0.003869 -0.000021 -0.000065 0.000013
# 2 -0.003653 0.009685 -0.003878 0.000008 -0.000412 -0.000004
# 3 -0.003869 -0.003878 0.013448 0.000040 0.001846 -0.000021
# 4 -0.000021 0.000008 0.000040 0.047467 -0.000026 -0.001278
# 5 -0.000065 -0.000412 0.001846 -0.000026 0.035648 -0.000003
# 6 0.000013 -0.000004 -0.000021 -0.001278 -0.000003 0.084280
#
#
# Mechanical properties :
#
#
# Convention : Reuss Voigt Hill
#
# Bulk Modulus (GPa) = 68.63086 72.65693 70.64390
# Shear Modulus (GPa) = 21.51246 25.04541 23.27894
#
# Velocity S-wave (km/s) = 3.42358 3.69402 3.56137
# Velocity P-wave (km/s) = 7.28154 7.60138 7.44318
#
# Compressibility (1/GPa) = 0.01457070
#
# Stress axis : x y z
#
# Youngs Moduli (GPa) = 70.23071 103.25436 74.36172
#
# Poissons Ratio (x) = 0.37717 0.28774
# Poissons Ratio (y) = 0.25654 0.28838
# Poissons Ratio (z) = 0.27175 0.40043
#
# Static dielectric constant tensor:
#      x y z
#    x 3.051220 -0.000030 -0.057300 
#    y -0.000030 3.685780 0.000090 
#    z -0.057300 0.000090 3.409880 
# 
# 
# High freq. dielectric constant tensor:
#      x y z
#    x 1.665060 0.000000 -0.007730 
#    y 0.000000 1.726550 0.000010 
#    z -0.007730 0.000010 1.724790 
# 
# From -- ./inp_files/178597.got.cif
#   From: 2010.06.25/outbox.cif.g09.slc.cpg/sg12_90_cif.got.tgz:178597.got - 2010.06.28 00:19:55.
