data_PCOD8114404
_publ_section_title
;
Structure prediction by ZEFSAII (Michael W. Deem and Ramdas Pophale) SiO2 
 PCOD8114404
Probable space group: C 2/M
;
_chemical_formula_sum "Si O2"
_cell_formula_units_Z 56
_cell_length_a 9.802474
_cell_length_b 20.418720
_cell_length_c 15.730909
_cell_angle_alpha 90.000000
_cell_angle_beta 98.802003
_cell_angle_gamma 90.000000
_cell_volume 3111.522913
_symmetry_space_group_name_H-M "C 2/M"
_symmetry_group_IT_number 12
_symmetry_cell_setting 'monoclinic'
loop_
_space_group_symop_operation_xyz
x,y,z
-x,y,-z
-x,-y,-z
x,-y,z
1/2+x,1/2+y,z
1/2-x,1/2+y,-z
1/2-x,1/2-y,-z
1/2+x,1/2-y,z
loop_
_atom_site_type_symbol
_atom_site_label
_atom_site_fract_x
_atom_site_fract_y
_atom_site_fract_z
Si Si1 0.244575 0.122560 0.339442
Si Si2 0.071752 0.873886 0.659295
Si Si3 0.146293 0.500000 0.555428
Si Si4 0.138275 0.745120 0.562224
Si Si5 0.190902 0.924117 0.151378
Si Si6 0.655423 0.922270 0.001238
Si Si7 0.383239 0.576169 0.156395
Si Si8 0.364766 0.500000 0.432762
O O1 0.324098 0.188956 0.367567
O O2 0.235561 0.117560 0.237176
O O3 0.093218 0.121939 0.367605
O O4 0.332118 0.062998 0.384278
O O5 0.128544 0.810522 0.617044
O O6 0.113785 0.875625 0.762303
O O7 0.144412 0.936143 0.625579
O O8 0.239021 0.500000 0.482606
O O9 0.000000 0.500000 0.500000
O O10 0.250000 0.750000 0.500000
O O11 0.000000 0.727108 0.500000
O O12 0.026909 0.916006 0.118242
O O13 0.225331 0.000000 0.172094
O O14 0.278842 0.896308 0.080494
O O15 0.754981 0.899745 0.087237
O O16 0.652204 0.000000 0.997874
O O17 0.500000 0.894302 0.000000
O O18 0.366930 0.500000 0.182781
O O19 0.500000 0.500000 0.500000
#
# Coordination Sequence:
#
# PCOD8114404 Si02
#       8
#     8   8   4   8   8   8   8   4
#     4  11  21  39  60  82 116 148 195 243 285 340
#     4  11  21  38  60  87 108 150 200 241 281 338
#     4  12  24  38  54  87 116 143 185 244 303 336
#     4  12  24  41  58  80 115 155 199 236 287 347
#     4   9  17  32  57  82 108 147 186 229 277 333
#     4   9  17  31  49  80 122 150 171 214 283 349
#     4   9  17  32  56  84 110 140 189 232 274 334
#     4  12  20  36  64  79 110 147 191 240 291 336
#
# _framework density 17.997617999999999
#
# number of rings (size 3 to 8) (size 9 to 14) (size 15 to 20)
#    0.000    1.571    4.286    2.143    0.000    1.714 
#    5.143    0.000    0.000    0.857    0.000    0.000 
#    0.000    0.000    0.000    0.000    0.000    0.000 
#
# Total GULP energy -347189.858460 kJ/mol
# GULP energy per Si atom -12399.637802 kJ/mol
# Density = 1.795665 g / cm^3
# Si number density = 17.997618 Si / 1000 Ang^3
#
#
#
# Elastic Constant Matrix: (Units=GPa)
#
#
# Indices 1 2 3 4 5 6 
#
# 1 133.8357 30.7007 71.1896 0.0000 11.1385 0.0000
# 2 30.7007 86.2754 42.3520 0.0000 12.0205 0.0000
# 3 71.1896 42.3520 114.7911 0.0000 5.2160 0.0000
# 4 0.0000 0.0000 0.0000 25.7638 0.0000 -0.4102
# 5 11.1385 12.0205 5.2160 0.0000 30.2674 0.0000
# 6 0.0000 0.0000 0.0000 -0.4102 0.0000 22.5979
#
#
#
# Elastic Compliance Matrix: (Units=1/GPa)
#
#
# Indices 1 2 3 4 5 6 
#
# 1 0.011421 -0.000302 -0.006839 0.000000 -0.002904 0.000000
# 2 -0.000302 0.014877 -0.005078 0.000000 -0.004922 0.000000
# 3 -0.006839 -0.005078 0.014736 0.000000 0.001994 0.000000
# 4 0.000000 0.000000 0.000000 0.038825 0.000000 0.000705
# 5 -0.002904 -0.004922 0.001994 0.000000 0.035719 0.000000
# 6 0.000000 0.000000 0.000000 0.000705 0.000000 0.044265
#
#
# Mechanical properties :
#
#
# Convention : Reuss Voigt Hill
#
# Bulk Modulus (GPa) = 60.25914 69.26522 64.76218
# Shear Modulus (GPa) = 26.34179 28.43647 27.38913
#
# Velocity S-wave (km/s) = 3.82989 3.97925 3.90528
# Velocity P-wave (km/s) = 7.28778 7.72541 7.50978
#
# Compressibility (1/GPa) = 0.01659499
#
# Stress axis : x y z
#
# Youngs Moduli (GPa) = 87.55907 67.21938 67.86142
#
# Poissons Ratio (x) = 0.02030 0.46414
# Poissons Ratio (y) = 0.02644 0.34459
# Poissons Ratio (z) = 0.59886 0.34133
#
# Static dielectric constant tensor:
#      x y z
#    x 3.471980 0.000000 -0.015450 
#    y 0.000000 3.077010 0.000000 
#    z -0.015450 0.000000 3.394940 
# 
# 
# High freq. dielectric constant tensor:
#      x y z
#    x 1.701190 0.000000 -0.000200 
#    y 0.000000 1.664250 0.000000 
#    z -0.000200 0.000000 1.707460 
# 
# From -- ./inp_files/197564.got.cif
#   From: 2010.06.25/outbox.cif.g09.slc.cpg/sg12_99_cif.got.tgz:197564.got - 2010.06.28 00:19:55.
