data_PCOD8114119
_publ_section_title
;
Structure prediction by ZEFSAII (Michael W. Deem and Ramdas Pophale) SiO2 
 PCOD8114119
Probable space group: C 2/M
;
_chemical_formula_sum "Si O2"
_cell_formula_units_Z 48
_cell_length_a 18.376996
_cell_length_b 8.895581
_cell_length_c 24.042409
_cell_angle_alpha 90.000000
_cell_angle_beta 43.593216
_cell_angle_gamma 90.000000
_cell_volume 2710.081656
_symmetry_space_group_name_H-M "C 2/M"
_symmetry_group_IT_number 12
_symmetry_cell_setting 'monoclinic'
loop_
_space_group_symop_operation_xyz
x,y,z
-x,y,-z
-x,-y,-z
x,-y,z
1/2+x,1/2+y,z
1/2-x,1/2+y,-z
1/2-x,1/2-y,-z
1/2+x,1/2-y,z
loop_
_atom_site_type_symbol
_atom_site_label
_atom_site_fract_x
_atom_site_fract_y
_atom_site_fract_z
Si Si1 0.159404 0.822211 0.013097
Si Si2 0.361846 0.824858 0.429389
Si Si3 0.124491 0.333778 0.923024
Si Si4 0.589124 0.322147 0.492686
Si Si5 0.680493 0.824917 0.666633
Si Si6 0.436071 0.820964 0.160895
O O1 0.177574 0.778726 0.937965
O O2 0.163770 0.000000 0.016430
O O3 0.250000 0.750000 0.000000
O O4 0.047758 0.761486 0.096134
O O5 0.250000 0.750000 0.500000
O O6 0.440234 0.748108 0.430538
O O7 0.392956 0.796355 0.347438
O O8 0.353923 0.000000 0.446563
O O9 0.173234 0.500000 0.905571
O O10 0.138973 0.281614 0.850722
O O11 0.000000 0.340628 0.000000
O O12 0.500000 0.267013 0.500000
O O13 0.591201 0.500000 0.498492
O O14 0.701681 0.259149 0.408106
O O15 0.623678 0.754766 0.751882
O O16 0.694215 0.000000 0.670561
O O17 0.457125 0.000000 0.152024
#
# Coordination Sequence:
#
# PCOD8114119 Si02
#       6
#     8   8   8   8   8   8
#     4  11  21  33  50  71  96 124 157 195 235 279
#     4   9  16  28  47  69  94 125 161 195 232 281
#     4   8  15  29  49  70  92 122 157 190 228 278
#     4   9  17  30  48  70  97 128 162 197 234 278
#     4   8  15  29  49  70  93 126 160 192 235 281
#     4   9  17  32  52  71  95 125 157 193 235 283
#
# _framework density 17.711645000000001
#
# number of rings (size 3 to 8) (size 9 to 14) (size 15 to 20)
#    0.000    3.000    0.000    4.000    0.000    3.333 
#    0.000    5.833    0.000    2.000    0.000    0.000 
#    0.000    0.000    0.000    0.000    0.000    0.000 
#
# Total GULP energy -297357.029778 kJ/mol
# GULP energy per Si atom -12389.876241 kJ/mol
# Density = 1.767133 g / cm^3
# Si number density = 17.711645 Si / 1000 Ang^3
#
#
#
# Elastic Constant Matrix: (Units=GPa)
#
#
# Indices 1 2 3 4 5 6 
#
# 1 152.6638 56.2504 63.8881 0.0000 29.8087 0.0000
# 2 56.2504 74.0298 33.3664 0.0000 11.4907 0.0000
# 3 63.8881 33.3664 100.9009 0.0000 32.3883 0.0000
# 4 0.0000 0.0000 0.0000 17.0549 0.0000 4.9940
# 5 29.8087 11.4907 32.3883 0.0000 30.2499 0.0000
# 6 0.0000 0.0000 0.0000 4.9940 0.0000 30.6224
#
#
#
# Elastic Compliance Matrix: (Units=1/GPa)
#
#
# Indices 1 2 3 4 5 6 
#
# 1 0.011278 -0.006226 -0.003465 0.000000 -0.005039 0.000000
# 2 -0.006226 0.019318 -0.003139 0.000000 0.002157 0.000000
# 3 -0.003465 -0.003139 0.017772 0.000000 -0.014421 0.000000
# 4 0.000000 0.000000 0.000000 0.061575 0.000000 -0.010042
# 5 -0.005039 0.002157 -0.014421 0.000000 0.052645 0.000000
# 6 0.000000 0.000000 0.000000 -0.010042 0.000000 0.034293
#
#
# Mechanical properties :
#
#
# Convention : Reuss Voigt Hill
#
# Bulk Modulus (GPa) = 44.03451 70.51158 57.27304
# Shear Modulus (GPa) = 21.72877 27.19142 24.46010
#
# Velocity S-wave (km/s) = 3.50638 3.92245 3.72024
# Velocity P-wave (km/s) = 6.42719 7.77248 7.13163
#
# Compressibility (1/GPa) = 0.02270946
#
# Stress axis : x y z
#
# Youngs Moduli (GPa) = 88.66683 51.76389 56.26946
#
# Poissons Ratio (x) = 0.32227 0.19496
# Poissons Ratio (y) = 0.55202 0.17662
# Poissons Ratio (z) = 0.30722 0.16248
#
# Static dielectric constant tensor:
#      x y z
#    x 3.630120 0.000000 0.585660 
#    y 0.000000 3.203540 0.000000 
#    z 0.585660 0.000000 3.548080 
# 
# 
# High freq. dielectric constant tensor:
#      x y z
#    x 1.686640 0.000000 0.034480 
#    y 0.000000 1.667450 0.000000 
#    z 0.034480 0.000000 1.661520 
# 
# From -- ./inp_files/341903.got.cif
#   From: 2010.06.25/outbox.cif.g09.slc.cpg/sg12_171_cif.got.tgz:341903.got - 2010.06.28 00:19:55.
