data_PCOD8114099
_publ_section_title
;
Structure prediction by ZEFSAII (Michael W. Deem and Ramdas Pophale) SiO2 
 PCOD8114099
Probable space group: C 2/M
;
_chemical_formula_sum "Si O2"
_cell_formula_units_Z 56
_cell_length_a 14.345482
_cell_length_b 9.215863
_cell_length_c 32.111693
_cell_angle_alpha 90.000000
_cell_angle_beta 46.891981
_cell_angle_gamma 90.000000
_cell_volume 3099.394529
_symmetry_space_group_name_H-M "C 2/M"
_symmetry_group_IT_number 12
_symmetry_cell_setting 'monoclinic'
loop_
_space_group_symop_operation_xyz
x,y,z
-x,y,-z
-x,-y,-z
x,-y,z
1/2+x,1/2+y,z
1/2-x,1/2+y,-z
1/2-x,1/2-y,-z
1/2+x,1/2-y,z
loop_
_atom_site_type_symbol
_atom_site_label
_atom_site_fract_x
_atom_site_fract_y
_atom_site_fract_z
Si Si1 0.016830 0.327536 0.642186
Si Si2 0.421800 0.168946 0.150903
Si Si3 0.696491 0.328515 0.448584
Si Si4 0.401968 0.173024 0.064054
Si Si5 0.116463 0.831486 0.150637
Si Si6 0.524452 0.328348 0.425749
Si Si7 0.126821 0.833825 0.243841
O O1 0.008845 0.500000 0.642674
O O2 0.160954 0.266459 0.594094
O O3 0.941423 0.257324 0.626676
O O4 0.957571 0.274690 0.703368
O O5 0.445393 0.226721 0.096585
O O6 0.512857 0.249501 0.155045
O O7 0.275119 0.199224 0.207441
O O8 0.453574 0.000000 0.144082
O O9 0.698319 0.500000 0.447477
O O10 0.630066 0.276163 0.426425
O O11 0.614310 0.279085 0.513898
O O12 0.259042 0.226879 0.096585
O O13 0.400494 0.000000 0.064930
O O14 0.500000 0.236120 0.000000
O O15 0.090010 0.803804 0.207319
O O16 0.105549 0.000000 0.143092
O O17 0.529940 0.500000 0.415684
O O18 0.095973 0.000000 0.265052
#
# Coordination Sequence:
#
# PCOD8114099 Si02
#       7
#     8   8   8   8   8   8   8
#     4  11  21  32  49  76 101 121 156 208 251 279
#     4   9  18  33  53  73  96 130 168 202 240 289
#     4   8  17  33  52  72  96 127 161 193 234 293
#     4   8  15  30  51  75 104 136 166 195 235 294
#     4   9  18  33  53  74  98 130 167 205 243 284
#     4   9  17  34  55  71  94 131 163 188 232 299
#     4   9  20  37  50  65  94 133 169 196 236 298
#
# _framework density 18.068045000000001
#
# number of rings (size 3 to 8) (size 9 to 14) (size 15 to 20)
#    0.000    3.000    0.000    3.429    0.000    2.857 
#    0.000   10.000    0.000    0.857    0.000    0.000 
#    0.000    0.000    0.000    0.000    0.000    0.000 
#
# Total GULP energy -347101.422109 kJ/mol
# GULP energy per Si atom -12396.479361 kJ/mol
# Density = 1.802692 g / cm^3
# Si number density = 18.068045 Si / 1000 Ang^3
#
#
#
# Elastic Constant Matrix: (Units=GPa)
#
#
# Indices 1 2 3 4 5 6 
#
# 1 118.7470 41.7904 42.2029 0.0001 9.6592 0.0001
# 2 41.7904 53.2689 37.7385 0.0001 4.5407 0.0001
# 3 42.2029 37.7385 97.9501 0.0000 8.2025 0.0001
# 4 0.0001 0.0001 0.0000 24.1251 0.0000 1.6715
# 5 9.6592 4.5407 8.2025 0.0000 16.6989 0.0000
# 6 0.0001 0.0001 0.0001 1.6715 0.0000 30.3009
#
#
#
# Elastic Compliance Matrix: (Units=1/GPa)
#
#
# Indices 1 2 3 4 5 6 
#
# 1 0.012191 -0.007894 -0.001877 0.000000 -0.003983 0.000000
# 2 -0.007894 0.031012 -0.008576 0.000000 0.000346 0.000000
# 3 -0.001877 -0.008576 0.014638 0.000000 -0.003772 0.000000
# 4 0.000000 0.000000 0.000000 0.041610 0.000000 -0.002295
# 5 -0.003983 0.000346 -0.003772 0.000000 0.063947 0.000000
# 6 0.000000 0.000000 0.000000 -0.002295 0.000000 0.033129
#
#
# Mechanical properties :
#
#
# Convention : Reuss Voigt Hill
#
# Bulk Modulus (GPa) = 47.29133 57.04773 52.16953
# Shear Modulus (GPa) = 20.80989 24.10725 22.45857
#
# Velocity S-wave (km/s) = 3.39743 3.65670 3.52944
# Velocity P-wave (km/s) = 6.45142 7.03356 6.74877
#
# Compressibility (1/GPa) = 0.02114553
#
# Stress axis : x y z
#
# Youngs Moduli (GPa) = 82.02988 32.24556 68.31383
#
# Poissons Ratio (x) = 0.25455 0.12826
# Poissons Ratio (y) = 0.64756 0.58586
# Poissons Ratio (z) = 0.15401 0.27654
#
# Static dielectric constant tensor:
#      x y z
#    x 3.446940 0.000000 -0.107920 
#    y 0.000000 2.952160 0.000000 
#    z -0.107920 0.000000 3.495210 
# 
# 
# High freq. dielectric constant tensor:
#      x y z
#    x 1.705390 0.000000 0.003970 
#    y 0.000000 1.668080 0.000000 
#    z 0.003970 0.000000 1.702860 
# 
# From -- ./inp_files/374930.got.cif
#   From: 2010.06.25/outbox.cif.g09.slc.cpg/sg12_188_cif.got.tgz:374930.got - 2010.06.28 00:19:55.
