data_PCOD8114976
_publ_section_title
;
Structure prediction by ZEFSAII (Michael W. Deem and Ramdas Pophale) SiO2 
 PCOD8114976
Probable space group: C 2/M
;
_chemical_formula_sum "Si O2"
_cell_formula_units_Z 40
_cell_length_a 14.222414
_cell_length_b 9.790912
_cell_length_c 16.724208
_cell_angle_alpha 90.000000
_cell_angle_beta 122.758526
_cell_angle_gamma 90.000000
_cell_volume 1958.468496
_symmetry_space_group_name_H-M "C 2/M"
_symmetry_group_IT_number 12
_symmetry_cell_setting 'monoclinic'
loop_
_space_group_symop_operation_xyz
x,y,z
-x,y,-z
-x,-y,-z
x,-y,z
1/2+x,1/2+y,z
1/2-x,1/2+y,-z
1/2-x,1/2-y,-z
1/2+x,1/2-y,z
loop_
_atom_site_type_symbol
_atom_site_label
_atom_site_fract_x
_atom_site_fract_y
_atom_site_fract_z
Si Si1 0.801079 0.656145 0.247610
Si Si2 0.149580 0.645271 0.387932
Si Si3 0.446679 0.658009 0.896390
Si Si4 0.025659 0.159911 0.762768
Si Si5 0.374435 0.240278 0.451852
O O1 0.812014 0.500000 0.221858
O O2 0.675582 0.715758 0.181836
O O3 0.842639 0.657874 0.357640
O O4 0.871627 0.758588 0.225955
O O5 0.101091 0.500000 0.333361
O O6 0.089847 0.776843 0.322899
O O7 0.281216 0.644420 0.426022
O O8 0.130315 0.640107 0.474360
O O9 0.429171 0.500000 0.906815
O O10 0.530062 0.679473 0.860362
O O11 0.500000 0.729338 0.000000
O O12 0.029612 0.000000 0.740591
O O13 0.500000 0.302968 0.500000
#
# Coordination Sequence:
#
# PCOD8114976 Si02
#       5
#     8   8   8   8   8
#     4  11  22  40  64  90 121 162 204 245 299 364
#     4  11  24  40  61  89 124 164 209 249 294 357
#     4   9  20  41  66  88 117 159 202 249 308 367
#     4  11  23  40  62  91 124 158 203 254 305 357
#     4  11  23  39  58  92 123 166 198 247 294 357
#
# _framework density 20.424122000000001
#
# number of rings (size 3 to 8) (size 9 to 14) (size 15 to 20)
#    0.000    1.400    4.000    1.200    0.000    6.000 
#    0.000    0.000    0.000    4.200    0.000    0.000 
#    0.000    0.000    0.000    0.000    0.000    0.000 
#
# Total GULP energy -247853.443933 kJ/mol
# GULP energy per Si atom -12392.672197 kJ/mol
# Density = 2.037764 g / cm^3
# Si number density = 20.424122 Si / 1000 Ang^3
#
#
#
# Elastic Constant Matrix: (Units=GPa)
#
#
# Indices 1 2 3 4 5 6 
#
# 1 147.6036 41.0157 48.1053 0.0000 -8.4013 0.0000
# 2 41.0157 111.3102 34.0848 0.0000 -13.1462 0.0000
# 3 48.1053 34.0848 128.0214 0.0000 -5.1263 0.0000
# 4 0.0000 0.0000 0.0000 9.5740 0.0000 2.0099
# 5 -8.4013 -13.1462 -5.1263 0.0000 29.4568 0.0000
# 6 0.0000 0.0000 0.0000 2.0099 0.0000 12.9775
#
#
#
# Elastic Compliance Matrix: (Units=1/GPa)
#
#
# Indices 1 2 3 4 5 6 
#
# 1 0.008239 -0.002164 -0.002482 0.000000 0.000952 0.000000
# 2 -0.002164 0.010826 -0.001914 0.000000 0.003881 0.000000
# 3 -0.002482 -0.001914 0.009255 0.000000 0.000049 0.000000
# 4 0.000000 0.000000 0.000000 0.107960 0.000000 -0.016720
# 5 0.000952 0.003881 0.000049 0.000000 0.035960 0.000000
# 6 0.000000 0.000000 0.000000 -0.016720 0.000000 0.079646
#
#
# Mechanical properties :
#
#
# Convention : Reuss Voigt Hill
#
# Bulk Modulus (GPa) = 65.78243 70.37187 68.07715
# Shear Modulus (GPa) = 18.51360 27.98361 23.24861
#
# Velocity S-wave (km/s) = 3.01401 3.70554 3.37752
# Velocity P-wave (km/s) = 6.66262 7.26898 6.97239
#
# Compressibility (1/GPa) = 0.01520163
#
# Stress axis : x y z
#
# Youngs Moduli (GPa) = 121.37188 92.37408 108.04684
#
# Poissons Ratio (x) = 0.19985 0.26815
# Poissons Ratio (y) = 0.26259 0.20678
# Poissons Ratio (z) = 0.30122 0.17679
#
# Static dielectric constant tensor:
#      x y z
#    x 3.928000 0.000000 0.052210 
#    y 0.000000 3.343880 0.000000 
#    z 0.052210 0.000000 3.912470 
# 
# 
# High freq. dielectric constant tensor:
#      x y z
#    x 1.814140 0.000000 -0.006490 
#    y 0.000000 1.769420 0.000000 
#    z -0.006490 0.000000 1.791700 
# 
# From -- ./inp_files/211456.got.cif
#   From: 2010.06.25/outbox.cif.g09.slc.cpg/sg12_106_cif.got.tgz:211456.got - 2010.06.28 00:19:55.
