data_PCOD8114302
_publ_section_title
;
Structure prediction by ZEFSAII (Michael W. Deem and Ramdas Pophale) SiO2 
 PCOD8114302
Probable space group: C 2/M
;
_chemical_formula_sum "Si O2"
_cell_formula_units_Z 32
_cell_length_a 12.725606
_cell_length_b 19.777944
_cell_length_c 8.327461
_cell_angle_alpha 90.000000
_cell_angle_beta 131.002751
_cell_angle_gamma 90.000000
_cell_volume 1581.735852
_symmetry_space_group_name_H-M "C 2/M"
_symmetry_group_IT_number 12
_symmetry_cell_setting 'monoclinic'
loop_
_space_group_symop_operation_xyz
x,y,z
-x,y,-z
-x,-y,-z
x,-y,z
1/2+x,1/2+y,z
1/2-x,1/2+y,-z
1/2-x,1/2-y,-z
1/2+x,1/2-y,z
loop_
_atom_site_type_symbol
_atom_site_label
_atom_site_fract_x
_atom_site_fract_y
_atom_site_fract_z
Si Si1 0.668069 0.162402 0.340723
Si Si2 0.726378 0.325309 0.913731
Si Si3 0.054603 0.577746 0.732381
Si Si4 0.054161 0.807797 0.232503
O O1 0.722951 0.166531 0.215948
O O2 0.566719 0.098839 0.263782
O O3 0.799079 0.154849 0.592045
O O4 0.575741 0.228218 0.289138
O O5 0.560531 0.337960 0.759877
O O6 0.750000 0.250000 0.000000
O O7 0.806009 0.378961 0.104442
O O8 0.091590 0.500000 0.799660
O O9 0.000000 0.591765 0.500000
O O10 0.000000 0.821316 0.000000
#
# Coordination Sequence:
#
# PCOD8114302 Si02
#       4
#     8   8   8   8
#     4  11  23  37  62  94 127 170 209 265 321 373
#     4  12  22  38  62  97 129 166 215 269 320 375
#     4  11  25  44  66  93 131 176 215 260 323 392
#     4  11  21  36  59  94 129 162 205 267 320 370
#
# _framework density 20.230938999999999
#
# number of rings (size 3 to 8) (size 9 to 14) (size 15 to 20)
#    0.000    0.750    5.000    3.000    3.500    2.000 
#    0.000    1.250    0.000    7.500    0.000    0.000 
#    0.000    0.000    0.000    0.000    0.000    0.000 
#
# Total GULP energy -198442.725855 kJ/mol
# GULP energy per Si atom -12402.670366 kJ/mol
# Density = 2.018489 g / cm^3
# Si number density = 20.230939 Si / 1000 Ang^3
#
#
#
# Elastic Constant Matrix: (Units=GPa)
#
#
# Indices 1 2 3 4 5 6 
#
# 1 145.2705 45.7830 49.1432 0.0000 11.6146 0.0000
# 2 45.7830 105.1031 54.5070 0.0000 12.1645 0.0000
# 3 49.1432 54.5070 129.3192 0.0000 12.2706 0.0000
# 4 0.0000 0.0000 0.0000 30.1613 0.0000 3.9256
# 5 11.6146 12.1645 12.2706 0.0000 34.5126 0.0000
# 6 0.0000 0.0000 0.0000 3.9256 0.0000 29.6043
#
#
#
# Elastic Compliance Matrix: (Units=1/GPa)
#
#
# Indices 1 2 3 4 5 6 
#
# 1 0.008458 -0.002476 -0.002053 0.000000 -0.001244 0.000000
# 2 -0.002476 0.013122 -0.004378 0.000000 -0.002235 0.000000
# 3 -0.002053 -0.004378 0.010500 0.000000 -0.001499 0.000000
# 4 0.000000 0.000000 0.000000 0.033737 0.000000 -0.004474
# 5 -0.001244 -0.002235 -0.001499 0.000000 0.030715 0.000000
# 6 0.000000 0.000000 0.000000 -0.004474 0.000000 0.034372
#
#
# Mechanical properties :
#
#
# Convention : Reuss Voigt Hill
#
# Bulk Modulus (GPa) = 70.08828 75.39547 72.74188
# Shear Modulus (GPa) = 32.57913 34.20626 33.39270
#
# Velocity S-wave (km/s) = 4.01728 4.11638 4.06714
# Velocity P-wave (km/s) = 7.49916 7.74217 7.62163
#
# Compressibility (1/GPa) = 0.01426772
#
# Stress axis : x y z
#
# Youngs Moduli (GPa) = 118.23447 76.20756 95.23523
#
# Poissons Ratio (x) = 0.18867 0.19547
# Poissons Ratio (y) = 0.29273 0.41693
# Poissons Ratio (z) = 0.24268 0.33363
#
# Static dielectric constant tensor:
#      x y z
#    x 4.363600 0.000000 0.239710 
#    y 0.000000 3.410780 0.000000 
#    z 0.239710 0.000000 4.008870 
# 
# 
# High freq. dielectric constant tensor:
#      x y z
#    x 1.807080 0.000000 0.006470 
#    y 0.000000 1.749440 0.000000 
#    z 0.006470 0.000000 1.808720 
# 
# From -- ./inp_files/48286.got.cif
#   From: 2010.06.25/outbox.cif.g09.slc.cpg/sg12_25_cif.got.tgz:48286.got - 2010.06.28 00:19:55.
