data_PCOD8114597
_publ_section_title
;
Structure prediction by ZEFSAII (Michael W. Deem and Ramdas Pophale) SiO2 
 PCOD8114597
Probable space group: C 2/M
;
_chemical_formula_sum "Si O2"
_cell_formula_units_Z 40
_cell_length_a 21.818225
_cell_length_b 14.111114
_cell_length_c 9.320351
_cell_angle_alpha 90.000000
_cell_angle_beta 45.357612
_cell_angle_gamma 90.000000
_cell_volume 2041.699348
_symmetry_space_group_name_H-M "C 2/M"
_symmetry_group_IT_number 12
_symmetry_cell_setting 'monoclinic'
loop_
_space_group_symop_operation_xyz
x,y,z
-x,y,-z
-x,-y,-z
x,-y,z
1/2+x,1/2+y,z
1/2-x,1/2+y,-z
1/2-x,1/2-y,-z
1/2+x,1/2-y,z
loop_
_atom_site_type_symbol
_atom_site_label
_atom_site_fract_x
_atom_site_fract_y
_atom_site_fract_z
Si Si1 0.636448 0.392159 0.795337
Si Si2 0.018845 0.300552 0.627007
Si Si3 0.012128 0.891531 0.750650
Si Si4 0.081138 0.396129 0.968384
Si Si5 0.173672 0.386563 0.543535
O O1 0.651450 0.500000 0.727376
O O2 0.578112 0.351451 0.762759
O O3 0.731332 0.346251 0.650769
O O4 0.585089 0.384925 0.028774
O O5 0.108395 0.342708 0.535555
O O6 0.000000 0.341487 0.500000
O O7 0.022097 0.185471 0.608416
O O8 0.939677 0.327846 0.863829
O O9 0.031440 0.000000 0.668257
O O10 0.107230 0.500000 0.986085
O O11 0.154659 0.354177 0.740683
O O12 0.000000 0.407792 0.000000
O O13 0.164554 0.500000 0.547197
#
# Coordination Sequence:
#
# PCOD8114597 Si02
#       5
#     8   8   8   8   8
#     4   8  16  33  58  82  97 127 178 225 263 297
#     4  11  22  33  49  79 109 146 174 202 258 315
#     4   9  19  35  54  76 104 135 176 222 259 300
#     4   8  16  31  51  75 103 133 167 210 256 305
#     4   9  18  34  58  83 105 130 169 218 264 310
#
# _framework density 19.591522999999999
#
# number of rings (size 3 to 8) (size 9 to 14) (size 15 to 20)
#    0.000    3.000    0.000    3.000    8.400    2.800 
#    0.000    1.000    0.000    0.000    0.000    0.000 
#    0.000    0.000    0.000    0.000    0.000    0.000 
#
# Total GULP energy -247761.038759 kJ/mol
# GULP energy per Si atom -12388.051938 kJ/mol
# Density = 1.954693 g / cm^3
# Si number density = 19.591523 Si / 1000 Ang^3
#
#
#
# Elastic Constant Matrix: (Units=GPa)
#
#
# Indices 1 2 3 4 5 6 
#
# 1 82.7230 31.2593 69.2049 0.0000 -6.6800 0.0000
# 2 31.2593 73.4115 32.1483 0.0000 4.5555 0.0000
# 3 69.2049 32.1483 87.7413 0.0000 -12.0187 0.0000
# 4 0.0000 0.0000 0.0000 16.2354 0.0000 1.4715
# 5 -6.6800 4.5555 -12.0187 0.0000 36.9821 0.0000
# 6 0.0000 0.0000 0.0000 1.4715 0.0000 14.3065
#
#
#
# Elastic Compliance Matrix: (Units=1/GPa)
#
#
# Indices 1 2 3 4 5 6 
#
# 1 0.036413 -0.003185 -0.027838 0.000000 -0.002077 0.000000
# 2 -0.003185 0.017125 -0.004322 0.000000 -0.004089 0.000000
# 3 -0.027838 -0.004322 0.035921 0.000000 0.007178 0.000000
# 4 0.000000 0.000000 0.000000 0.062173 0.000000 -0.006395
# 5 -0.002077 -0.004089 0.007178 0.000000 0.029501 0.000000
# 6 0.000000 0.000000 0.000000 -0.006395 0.000000 0.070556
#
#
# Mechanical properties :
#
#
# Convention : Reuss Voigt Hill
#
# Bulk Modulus (GPa) = 53.28287 56.56674 54.92481
# Shear Modulus (GPa) = 15.21435 20.92236 18.06835
#
# Velocity S-wave (km/s) = 2.78974 3.27146 3.04016
# Velocity P-wave (km/s) = 6.13456 6.57311 6.35761
#
# Compressibility (1/GPa) = 0.01876776
#
# Stress axis : x y z
#
# Youngs Moduli (GPa) = 27.46237 58.39498 27.83893
#
# Poissons Ratio (x) = 0.18602 0.77498
# Poissons Ratio (y) = 0.08748 0.12032
# Poissons Ratio (z) = 0.76450 0.25239
#
# Static dielectric constant tensor:
#      x y z
#    x 3.297400 0.000000 -0.386210 
#    y 0.000000 3.594700 0.000000 
#    z -0.386210 0.000000 3.861650 
# 
# 
# High freq. dielectric constant tensor:
#      x y z
#    x 1.715900 0.000000 -0.019510 
#    y 0.000000 1.773660 0.000000 
#    z -0.019510 0.000000 1.749560 
# 
# From -- ./inp_files/85506.got.cif
#   From: 2010.06.25/outbox.cif.g09.slc.cpg/sg12_43_cif.got.tgz:85506.got - 2010.06.28 00:19:55.
