data_PCOD8114857
_publ_section_title
;
Structure prediction by ZEFSAII (Michael W. Deem and Ramdas Pophale) SiO2 
 PCOD8114857
Probable space group: C 2/M
;
_chemical_formula_sum "Si O2"
_cell_formula_units_Z 56
_cell_length_a 24.262995
_cell_length_b 21.974295
_cell_length_c 5.828425
_cell_angle_alpha 90.000000
_cell_angle_beta 127.521582
_cell_angle_gamma 90.000000
_cell_volume 2464.629550
_symmetry_space_group_name_H-M "C 2/M"
_symmetry_group_IT_number 12
_symmetry_cell_setting 'monoclinic'
loop_
_space_group_symop_operation_xyz
x,y,z
-x,y,-z
-x,-y,-z
x,-y,z
1/2+x,1/2+y,z
1/2-x,1/2+y,-z
1/2-x,1/2-y,-z
1/2+x,1/2-y,z
loop_
_atom_site_type_symbol
_atom_site_label
_atom_site_fract_x
_atom_site_fract_y
_atom_site_fract_z
Si Si1 0.721103 0.343362 0.275069
Si Si2 0.290365 0.932425 0.099065
Si Si3 0.162252 0.932191 0.455973
Si Si4 0.463696 0.373513 0.650145
Si Si5 0.578835 0.861806 0.675107
Si Si6 0.336014 0.775406 0.819022
Si Si7 0.432500 0.755520 0.687610
O O1 0.767524 0.379799 0.213853
O O2 0.662776 0.388265 0.234959
O O3 0.685042 0.282641 0.070463
O O4 0.769534 0.317431 0.602583
O O5 0.369048 0.918658 0.216466
O O6 0.290039 0.000000 0.212414
O O7 0.239718 0.932314 0.753991
O O8 0.108053 0.910763 0.513640
O O9 0.141557 0.000000 0.322106
O O10 0.500000 0.395876 0.500000
O O11 0.447416 0.302571 0.563980
O O12 0.500000 0.382338 0.000000
O O13 0.500000 0.886243 0.500000
O O14 0.586526 0.818091 0.480417
O O15 0.601337 0.818144 0.940392
O O16 0.365042 0.740342 0.669141
O O17 0.500000 0.770329 0.000000
#
# Coordination Sequence:
#
# PCOD8114857 Si02
#       7
#     8   8   8   8   8   8   8
#     4  11  23  42  67  95 132 170 225 287 354 417
#     4  11  26  44  65  95 133 185 241 286 341 415
#     4  11  25  44  68  94 132 183 234 289 340 413
#     4  11  27  46  69 103 144 186 234 294 363 434
#     4  12  24  40  68  96 138 177 223 289 351 420
#     4  11  23  38  64 103 128 166 222 285 354 427
#     4  11  22  38  62  96 134 173 216 277 360 420
#
# _framework density 22.721467000000001
#
# number of rings (size 3 to 8) (size 9 to 14) (size 15 to 20)
#    0.000    0.857    5.714    0.857    6.000    1.429 
#    0.000    0.000    0.000    1.286    0.000    0.000 
#    0.000    0.000    0.000    0.000    0.000    0.000 
#
# Total GULP energy -346892.360463 kJ/mol
# GULP energy per Si atom -12389.012874 kJ/mol
# Density = 2.266975 g / cm^3
# Si number density = 22.721467 Si / 1000 Ang^3
#
#
#
# Elastic Constant Matrix: (Units=GPa)
#
#
# Indices 1 2 3 4 5 6 
#
# 1 123.8922 20.6008 11.4279 0.0000 5.1659 0.0000
# 2 20.6008 94.3999 2.4275 0.0000 -3.5451 0.0000
# 3 11.4279 2.4275 44.4082 0.0000 3.9733 0.0000
# 4 0.0000 0.0000 0.0000 29.5278 0.0000 -4.7547
# 5 5.1659 -3.5451 3.9733 0.0000 32.7548 0.0000
# 6 0.0000 0.0000 0.0000 -4.7547 0.0000 20.8936
#
#
#
# Elastic Compliance Matrix: (Units=1/GPa)
#
#
# Indices 1 2 3 4 5 6 
#
# 1 0.008624 -0.001880 -0.001998 0.000000 -0.001321 0.000000
# 2 -0.001880 0.011067 -0.000258 0.000000 0.001526 0.000000
# 3 -0.001998 -0.000258 0.023274 0.000000 -0.002536 0.000000
# 4 0.000000 0.000000 0.000000 0.035155 0.000000 0.008000
# 5 -0.001321 0.001526 -0.002536 0.000000 0.031211 0.000000
# 6 0.000000 0.000000 0.000000 0.008000 0.000000 0.049682
#
#
# Mechanical properties :
#
#
# Convention : Reuss Voigt Hill
#
# Bulk Modulus (GPa) = 28.82456 36.84584 32.83520
# Shear Modulus (GPa) = 27.95664 31.85152 29.90408
#
# Velocity S-wave (km/s) = 3.51152 3.74816 3.63177
# Velocity P-wave (km/s) = 5.39950 5.91465 5.66294
#
# Compressibility (1/GPa) = 0.03469263
#
# Stress axis : x y z
#
# Youngs Moduli (GPa) = 115.96134 90.35507 42.96721
#
# Poissons Ratio (x) = 0.16988 0.08586
# Poissons Ratio (y) = 0.21802 0.01107
# Poissons Ratio (z) = 0.23171 0.02328
#
# Static dielectric constant tensor:
#      x y z
#    x 4.142380 0.000000 0.277520 
#    y 0.000000 4.135690 0.000000 
#    z 0.277520 0.000000 3.823510 
# 
# 
# High freq. dielectric constant tensor:
#      x y z
#    x 1.904930 0.000000 0.015100 
#    y 0.000000 1.894960 0.000000 
#    z 0.015100 0.000000 1.878220 
# 
# From -- ./inp_files/26122.got.cif
#   From: 2010.06.25/outbox.cif.g09.slc.cpg/sg12_14_cif.got.tgz:26122.got - 2010.06.28 00:19:55.
