data_PCOD8114691
_publ_section_title
;
Structure prediction by ZEFSAII (Michael W. Deem and Ramdas Pophale) SiO2 
 PCOD8114691
Probable space group: C 2/M
;
_chemical_formula_sum "Si O2"
_cell_formula_units_Z 48
_cell_length_a 23.672707
_cell_length_b 8.904696
_cell_length_c 11.917192
_cell_angle_alpha 90.000000
_cell_angle_beta 78.249000
_cell_angle_gamma 90.000000
_cell_volume 2459.474043
_symmetry_space_group_name_H-M "C 2/M"
_symmetry_group_IT_number 12
_symmetry_cell_setting 'monoclinic'
loop_
_space_group_symop_operation_xyz
x,y,z
-x,y,-z
-x,-y,-z
x,-y,z
1/2+x,1/2+y,z
1/2-x,1/2+y,-z
1/2-x,1/2-y,-z
1/2+x,1/2-y,z
loop_
_atom_site_type_symbol
_atom_site_label
_atom_site_fract_x
_atom_site_fract_y
_atom_site_fract_z
Si Si1 0.626869 0.170849 0.954957
Si Si2 0.772502 0.324425 0.253181
Si Si3 0.040576 0.673573 0.788961
Si Si4 0.357760 0.821794 0.406730
Si Si5 0.154346 0.677961 0.335902
Si Si6 0.080207 0.175796 0.183518
O O1 0.687159 0.206875 0.870142
O O2 0.574004 0.195680 0.891773
O O3 0.626141 0.000000 0.999266
O O4 0.620904 0.280085 0.062949
O O5 0.757929 0.500000 0.269632
O O6 0.804624 0.263182 0.352141
O O7 0.714212 0.232493 0.258435
O O8 0.022401 0.500000 0.780697
O O9 0.081193 0.729907 0.670404
O O10 0.984908 0.777092 0.815136
O O11 0.351389 0.759394 0.534844
O O12 0.356230 0.000000 0.401845
O O13 0.151506 0.500000 0.335120
O O14 0.101162 0.742543 0.287572
O O15 0.084143 0.000000 0.201225
#
# Coordination Sequence:
#
# PCOD8114691 Si02
#       6
#     8   8   8   8   8   8
#     4   9  19  37  61  83 105 139 179 219 267 324
#     4   9  18  36  60  85 110 135 173 224 272 316
#     4   9  18  37  62  83 105 137 179 222 266 320
#     4   8  17  35  60  85 107 138 178 219 264 320
#     4  11  22  36  55  80 111 147 183 215 260 322
#     4  12  25  37  51  77 113 147 180 223 271 314
#
# _framework density 19.516366999999999
#
# number of rings (size 3 to 8) (size 9 to 14) (size 15 to 20)
#    0.000    2.333    0.000    5.000    0.000    4.667 
#    0.000    8.333    0.000    0.000    0.000    0.000 
#    0.000    0.000    0.000    0.000    0.000    0.000 
#
# Total GULP energy -297651.063368 kJ/mol
# GULP energy per Si atom -12402.127640 kJ/mol
# Density = 1.947195 g / cm^3
# Si number density = 19.516367 Si / 1000 Ang^3
#
#
#
# Elastic Constant Matrix: (Units=GPa)
#
#
# Indices 1 2 3 4 5 6 
#
# 1 42.0275 17.7570 19.3548 0.0000 -3.8485 0.0000
# 2 17.7570 68.8449 25.5565 0.0000 -1.3561 0.0000
# 3 19.3548 25.5565 70.3697 0.0000 -4.0084 0.0000
# 4 0.0000 0.0000 0.0000 18.8261 0.0000 -1.2955
# 5 -3.8485 -1.3561 -4.0084 0.0000 21.5713 0.0000
# 6 0.0000 0.0000 0.0000 -1.2955 0.0000 31.4441
#
#
#
# Elastic Compliance Matrix: (Units=1/GPa)
#
#
# Indices 1 2 3 4 5 6 
#
# 1 0.029058 -0.005240 -0.005875 0.000000 0.003763 0.000000
# 2 -0.005240 0.017734 -0.005042 0.000000 -0.000757 0.000000
# 3 -0.005875 -0.005042 0.017768 0.000000 0.001937 0.000000
# 4 0.000000 0.000000 0.000000 0.053269 0.000000 0.002195
# 5 0.003763 -0.000757 0.001937 0.000000 0.047341 0.000000
# 6 0.000000 0.000000 0.000000 0.002195 0.000000 0.031893
#
#
# Mechanical properties :
#
#
# Convention : Reuss Voigt Hill
#
# Bulk Modulus (GPa) = 31.01200 34.06429 32.53815
# Shear Modulus (GPa) = 20.82242 22.27323 21.54783
#
# Velocity S-wave (km/s) = 3.26992 3.38192 3.32639
# Velocity P-wave (km/s) = 5.49375 5.72206 5.60906
#
# Compressibility (1/GPa) = 0.03224558
#
# Stress axis : x y z
#
# Youngs Moduli (GPa) = 34.41400 56.38945 56.28063
#
# Poissons Ratio (x) = 0.29547 0.33064
# Poissons Ratio (y) = 0.18032 0.28379
# Poissons Ratio (z) = 0.20218 0.28434
#
# Static dielectric constant tensor:
#      x y z
#    x 3.491210 0.000000 -0.011930 
#    y 0.000000 3.253310 0.000000 
#    z -0.011930 0.000000 3.768310 
# 
# 
# High freq. dielectric constant tensor:
#      x y z
#    x 1.762440 0.000000 -0.004240 
#    y 0.000000 1.735430 0.000000 
#    z -0.004240 0.000000 1.767850 
# 
# From -- ./inp_files/172329.got.cif
#   From: 2010.06.25/outbox.cif.g09.slc.cpg/sg12_87_cif.got.tgz:172329.got - 2010.06.28 00:19:55.
