data_PCOD8114457
_publ_section_title
;
Structure prediction by ZEFSAII (Michael W. Deem and Ramdas Pophale) SiO2 
 PCOD8114457
Probable space group: C 2/M
;
_chemical_formula_sum "Si O2"
_cell_formula_units_Z 64
_cell_length_a 18.602739
_cell_length_b 32.768925
_cell_length_c 8.933372
_cell_angle_alpha 90.000000
_cell_angle_beta 143.887979
_cell_angle_gamma 90.000000
_cell_volume 3209.515559
_symmetry_space_group_name_H-M "C 2/M"
_symmetry_group_IT_number 12
_symmetry_cell_setting 'monoclinic'
loop_
_space_group_symop_operation_xyz
x,y,z
-x,y,-z
-x,-y,-z
x,-y,z
1/2+x,1/2+y,z
1/2-x,1/2+y,-z
1/2-x,1/2-y,-z
1/2+x,1/2-y,z
loop_
_atom_site_type_symbol
_atom_site_label
_atom_site_fract_x
_atom_site_fract_y
_atom_site_fract_z
Si Si1 0.013801 0.868187 0.689462
Si Si2 0.820152 0.269068 0.973909
Si Si3 0.396433 0.110406 0.731258
Si Si4 0.009914 0.955082 0.773411
Si Si5 0.801491 0.044529 0.642723
Si Si6 0.785375 0.830081 0.441167
Si Si7 0.962573 0.330417 0.593882
Si Si8 0.685813 0.312105 0.171126
O O1 0.000000 0.849291 0.500000
O O2 0.037080 0.916998 0.710356
O O3 0.886948 0.861625 0.559045
O O4 0.122292 0.848184 0.969106
O O5 0.732323 0.294792 0.713435
O O6 0.874138 0.230680 0.974770
O O7 0.750000 0.250000 0.000000
O O8 0.938072 0.295231 0.212080
O O9 0.298720 0.079182 0.503674
O O10 0.338908 0.145067 0.741946
O O11 0.466299 0.132363 0.714241
O O12 0.500000 0.086799 0.000000
O O13 0.872527 0.950994 0.605516
O O14 0.025266 0.000000 0.721144
O O15 0.103310 0.951086 0.065323
O O16 0.737869 0.000000 0.541837
O O17 0.832466 0.814564 0.681673
O O18 0.828188 0.310794 0.366251
O O19 0.000000 0.350596 0.500000
#
# Coordination Sequence:
#
# PCOD8114457 Si02
#       8
#     8   8   8   8   8   8   8   8
#     4  12  25  40  64  96 132 166 211 269 327 386
#     4  12  24  43  63  89 124 163 214 268 327 373
#     4  11  21  39  64  91 125 166 211 263 308 381
#     4   9  18  36  63  93 127 165 207 260 318 385
#     4   9  18  35  64  95 124 162 212 262 314 377
#     4  11  24  44  63  89 127 167 221 262 316 386
#     4  11  24  42  62  88 125 164 210 260 321 385
#     4  11  26  42  67  89 121 172 214 268 320 378
#
# _framework density 19.940704
#
# number of rings (size 3 to 8) (size 9 to 14) (size 15 to 20)
#    0.000    1.250    3.750    3.750    3.500    1.000 
#    4.500    0.000    0.000    0.375    0.000    0.000 
#    0.000    0.000    0.000    0.000    0.000    0.000 
#
# Total GULP energy -396559.546279 kJ/mol
# GULP energy per Si atom -12392.485821 kJ/mol
# Density = 1.989532 g / cm^3
# Si number density = 19.940704 Si / 1000 Ang^3
#
#
#
# Elastic Constant Matrix: (Units=GPa)
#
#
# Indices 1 2 3 4 5 6 
#
# 1 104.4015 44.1660 50.7230 0.0000 -10.3348 0.0000
# 2 44.1660 134.7928 51.9648 0.0000 -1.4219 0.0000
# 3 50.7230 51.9648 105.7262 0.0000 -9.7043 0.0000
# 4 0.0000 0.0000 0.0000 31.3068 0.0000 -0.4581
# 5 -10.3348 -1.4219 -9.7043 0.0000 21.2337 0.0000
# 6 0.0000 0.0000 0.0000 -0.4581 0.0000 12.5047
#
#
#
# Elastic Compliance Matrix: (Units=1/GPa)
#
#
# Indices 1 2 3 4 5 6 
#
# 1 0.013380 -0.002483 -0.004819 0.000000 0.004144 0.000000
# 2 -0.002483 0.009660 -0.003766 0.000000 -0.002283 0.000000
# 3 -0.004819 -0.003766 0.013969 0.000000 0.003787 0.000000
# 4 0.000000 0.000000 0.000000 0.031959 0.000000 0.001171
# 5 0.004144 -0.002283 0.003787 0.000000 0.050690 0.000000
# 6 0.000000 0.000000 0.000000 0.001171 0.000000 0.080013
#
#
# Mechanical properties :
#
#
# Convention : Reuss Voigt Hill
#
# Bulk Modulus (GPa) = 67.23291 70.95867 69.09579
# Shear Modulus (GPa) = 22.04938 26.21349 24.13144
#
# Velocity S-wave (km/s) = 3.32889 3.62964 3.48251
# Velocity P-wave (km/s) = 6.96885 7.29574 7.13417
#
# Compressibility (1/GPa) = 0.01487367
#
# Stress axis : x y z
#
# Youngs Moduli (GPa) = 74.73869 103.51717 71.58751
#
# Poissons Ratio (x) = 0.25700 0.34495
# Poissons Ratio (y) = 0.18556 0.26963
# Poissons Ratio (z) = 0.36013 0.38989
#
# Static dielectric constant tensor:
#      x y z
#    x 3.632080 0.000000 -0.084640 
#    y 0.000000 3.750160 0.000000 
#    z -0.084640 0.000000 3.645930 
# 
# 
# High freq. dielectric constant tensor:
#      x y z
#    x 1.768890 0.000000 -0.005300 
#    y 0.000000 1.778530 0.000000 
#    z -0.005300 0.000000 1.782600 
# 
# From -- ./inp_files/80770.got.cif
#   From: 2010.06.25/outbox.cif.g09.slc.cpg/sg12_41_cif.got.tgz:80770.got - 2010.06.28 00:19:55.
