data_PCOD8114952
_publ_section_title
;
Structure prediction by ZEFSAII (Michael W. Deem and Ramdas Pophale) SiO2 
 PCOD8114952
Probable space group: C 2/M
;
_chemical_formula_sum "Si O2"
_cell_formula_units_Z 64
_cell_length_a 21.548191
_cell_length_b 23.342536
_cell_length_c 18.944808
_cell_angle_alpha 90.000000
_cell_angle_beta 162.288115
_cell_angle_gamma 90.000000
_cell_volume 2899.025609
_symmetry_space_group_name_H-M "C 2/M"
_symmetry_group_IT_number 12
_symmetry_cell_setting 'monoclinic'
loop_
_space_group_symop_operation_xyz
x,y,z
-x,y,-z
-x,-y,-z
x,-y,z
1/2+x,1/2+y,z
1/2-x,1/2+y,-z
1/2-x,1/2-y,-z
1/2+x,1/2-y,z
loop_
_atom_site_type_symbol
_atom_site_label
_atom_site_fract_x
_atom_site_fract_y
_atom_site_fract_z
Si Si1 0.287387 0.935434 0.309199
Si Si2 0.175482 0.841248 0.085004
Si Si3 0.309124 0.310737 0.597030
Si Si4 0.824785 0.779839 0.259488
Si Si5 0.473082 0.868150 0.894795
Si Si6 0.315316 0.064275 0.994049
Si Si7 0.495902 0.110261 0.325174
Si Si8 0.971353 0.153459 0.630403
O O1 0.500000 0.933759 0.500000
O O2 0.141533 0.889882 0.109556
O O3 0.329730 0.918085 0.436301
O O4 0.193805 0.000000 0.204604
O O5 0.303769 0.787620 0.253366
O O6 0.300557 0.868297 0.156231
O O7 0.960248 0.813276 0.827934
O O8 0.250000 0.250000 0.500000
O O9 0.433993 0.344731 0.673138
O O10 0.095540 0.338380 0.388242
O O11 0.000000 0.805232 0.500000
O O12 0.901137 0.791841 0.261571
O O13 0.611940 0.811441 0.041753
O O14 0.242141 0.847565 0.640642
O O15 0.500000 0.898513 0.000000
O O16 0.520970 0.912018 0.884317
O O17 0.102159 0.097087 0.756355
O O18 0.263948 0.000000 0.917880
O O19 0.412363 0.065363 0.177492
#
# Coordination Sequence:
#
# PCOD8114952 Si02
#       8
#     8   8   8   8   8   8   8   8
#     4   9  20  42  68  93 133 180 228 282 333 391
#     4  11  24  41  63 102 135 179 226 273 336 400
#     4  12  25  40  64  99 134 177 220 279 341 404
#     4  11  22  39  67  96 133 175 217 270 334 409
#     4  11  23  44  68  98 131 171 217 280 344 405
#     4  11  25  43  69  97 130 175 225 275 337 409
#     4  11  22  43  67  97 133 175 231 274 336 400
#     4  11  23  43  63  96 131 170 219 272 342 399
#
# _framework density 22.076384000000001
#
# number of rings (size 3 to 8) (size 9 to 14) (size 15 to 20)
#    0.000    1.125    3.750    3.000    1.750    2.750 
#    2.250    2.500    0.000    0.000    0.000    0.000 
#    0.000    0.000    0.000    0.000    0.000    0.000 
#
# Total GULP energy -396726.369364 kJ/mol
# GULP energy per Si atom -12397.699043 kJ/mol
# Density = 2.202614 g / cm^3
# Si number density = 22.076384 Si / 1000 Ang^3
#
#
#
# Elastic Constant Matrix: (Units=GPa)
#
#
# Indices 1 2 3 4 5 6 
#
# 1 109.4849 36.5483 25.1327 0.0000 -6.6913 0.0016
# 2 36.5483 153.1750 39.8713 0.0000 -8.5675 0.0005
# 3 25.1327 39.8713 129.0729 0.0039 -14.1729 0.0051
# 4 0.0000 0.0000 0.0039 24.1014 0.0016 -13.0847
# 5 -6.6913 -8.5675 -14.1729 0.0016 35.8490 0.0020
# 6 0.0016 0.0005 0.0051 -13.0847 0.0020 16.5508
#
#
#
# Elastic Compliance Matrix: (Units=1/GPa)
#
#
# Indices 1 2 3 4 5 6 
#
# 1 0.010159 -0.002049 -0.001245 0.000000 0.000914 -0.000001
# 2 -0.002049 0.007538 -0.001854 0.000001 0.000686 0.000001
# 3 -0.001245 -0.001854 0.008874 -0.000006 0.002833 -0.000007
# 4 0.000000 0.000001 -0.000006 0.072691 -0.000009 0.057468
# 5 0.000914 0.000686 0.002833 -0.000009 0.029349 -0.000011
# 6 -0.000001 0.000001 -0.000007 0.057468 -0.000011 0.105853
#
#
# Mechanical properties :
#
#
# Convention : Reuss Voigt Hill
#
# Bulk Modulus (GPa) = 61.44277 66.09304 63.76790
# Shear Modulus (GPa) = 19.98507 34.64561 27.31534
#
# Velocity S-wave (km/s) = 3.01203 3.96580 3.52136
# Velocity P-wave (km/s) = 6.32367 7.13957 6.74397
#
# Compressibility (1/GPa) = 0.01627531
#
# Stress axis : x y z
#
# Youngs Moduli (GPa) = 98.43208 132.65385 112.69088
#
# Poissons Ratio (x) = 0.27179 0.14029
# Poissons Ratio (y) = 0.20167 0.20897
# Poissons Ratio (z) = 0.12253 0.24599
#
# Static dielectric constant tensor:
#      x y z
#    x 4.266000 0.000000 -0.098860 
#    y 0.000000 3.813020 0.000000 
#    z -0.098860 0.000000 3.941190 
# 
# 
# High freq. dielectric constant tensor:
#      x y z
#    x 1.883070 0.000000 0.001190 
#    y 0.000000 1.848360 0.000000 
#    z 0.001190 0.000000 1.878420 
# 
# From -- ./inp_files/286459.got.cif
#   From: 2010.06.25/outbox.cif.g09.slc.cpg/sg12_144_cif.got.tgz:286459.got - 2010.06.28 00:19:55.
