data_PCOD8114920
_publ_section_title
;
Structure prediction by ZEFSAII (Michael W. Deem and Ramdas Pophale) SiO2 
 PCOD8114920
Probable space group: C 2/M
;
_chemical_formula_sum "Si O2"
_cell_formula_units_Z 56
_cell_length_a 19.706635
_cell_length_b 14.079738
_cell_length_c 9.649241
_cell_angle_alpha 90.000000
_cell_angle_beta 78.592582
_cell_angle_gamma 90.000000
_cell_volume 2624.430587
_symmetry_space_group_name_H-M "C 2/M"
_symmetry_group_IT_number 12
_symmetry_cell_setting 'monoclinic'
loop_
_space_group_symop_operation_xyz
x,y,z
-x,y,-z
-x,-y,-z
x,-y,z
1/2+x,1/2+y,z
1/2-x,1/2+y,-z
1/2-x,1/2-y,-z
1/2+x,1/2-y,z
loop_
_atom_site_type_symbol
_atom_site_label
_atom_site_fract_x
_atom_site_fract_y
_atom_site_fract_z
Si Si1 0.892576 0.275725 0.188355
Si Si2 0.866006 0.104947 0.017266
Si Si3 0.923881 0.392698 0.921598
Si Si4 0.761122 0.225002 0.654136
Si Si5 0.506777 0.225266 0.349878
Si Si6 0.285390 0.105041 0.835333
Si Si7 0.389910 0.609969 0.689287
O O1 0.903036 0.176713 0.105179
O O2 0.812599 0.303674 0.247146
O O3 0.929692 0.259282 0.320566
O O4 0.934255 0.352299 0.074442
O O5 0.784364 0.121133 0.052194
O O6 0.887049 0.000000 0.059222
O O7 0.888913 0.124030 0.853449
O O8 0.952106 0.500000 0.906341
O O9 0.954246 0.335093 0.780976
O O10 0.841959 0.385009 0.932130
O O11 0.750000 0.250000 0.500000
O O12 0.794060 0.318438 0.710799
O O13 0.816700 0.140455 0.649642
O O14 0.500000 0.169419 0.500000
O O15 0.546332 0.322542 0.379241
O O16 0.288551 0.000000 0.764829
O O17 0.403585 0.500000 0.642232
#
# Coordination Sequence:
#
# PCOD8114920 Si02
#       7
#     8   8   8   8   8   8   8
#     4  11  23  39  66  96 129 167 216 273 319 383
#     4   9  18  35  63  98 126 157 208 265 323 377
#     4  11  23  42  68  93 123 165 220 275 326 386
#     4  11  22  39  63  95 133 172 212 262 323 387
#     4  12  26  44  63  92 133 176 215 263 332 399
#     4   9  18  35  62  92 123 158 205 263 321 376
#     4  11  23  41  66  95 131 171 216 267 324 390
#
# _framework density 21.337961
#
# number of rings (size 3 to 8) (size 9 to 14) (size 15 to 20)
#    0.000    1.429    2.857    2.143    0.000    6.857 
#    0.000    4.286    0.000    0.000    0.000    0.000 
#    0.000    0.000    0.000    0.000    0.000    0.000 
#
# Total GULP energy -347112.162142 kJ/mol
# GULP energy per Si atom -12396.862934 kJ/mol
# Density = 2.128940 g / cm^3
# Si number density = 21.337961 Si / 1000 Ang^3
#
#
#
# Elastic Constant Matrix: (Units=GPa)
#
#
# Indices 1 2 3 4 5 6 
#
# 1 79.0037 34.8333 23.8768 0.0000 15.3640 0.0000
# 2 34.8333 101.9020 32.1617 0.0000 1.5079 0.0000
# 3 23.8768 32.1617 108.0730 0.0000 7.4456 0.0000
# 4 0.0000 0.0000 0.0000 12.7622 0.0000 1.0818
# 5 15.3640 1.5079 7.4456 0.0000 32.5312 0.0000
# 6 0.0000 0.0000 0.0000 1.0818 0.0000 20.9145
#
#
#
# Elastic Compliance Matrix: (Units=1/GPa)
#
#
# Indices 1 2 3 4 5 6 
#
# 1 0.016852 -0.005117 -0.001695 0.000000 -0.007334 0.000000
# 2 -0.005117 0.012386 -0.002725 0.000000 0.002466 0.000000
# 3 -0.001695 -0.002725 0.010541 0.000000 -0.001486 0.000000
# 4 0.000000 0.000000 0.000000 0.078702 0.000000 -0.004071
# 5 -0.007334 0.002466 -0.001486 0.000000 0.034429 0.000000
# 6 0.000000 0.000000 0.000000 -0.004071 0.000000 0.048024
#
#
# Mechanical properties :
#
#
# Convention : Reuss Voigt Hill
#
# Bulk Modulus (GPa) = 48.29952 52.30246 50.30099
# Shear Modulus (GPa) = 22.03503 26.44870 24.24186
#
# Velocity S-wave (km/s) = 3.21700 3.52449 3.37425
# Velocity P-wave (km/s) = 6.04015 6.41306 6.22940
#
# Compressibility (1/GPa) = 0.02070414
#
# Stress axis : x y z
#
# Youngs Moduli (GPa) = 59.33877 80.73477 94.86820
#
# Poissons Ratio (x) = 0.41313 0.16082
# Poissons Ratio (y) = 0.30364 0.25856
# Poissons Ratio (z) = 0.10059 0.22004
#
# Static dielectric constant tensor:
#      x y z
#    x 4.101300 0.000000 0.118620 
#    y 0.000000 4.137040 0.000000 
#    z 0.118620 0.000000 3.733920 
# 
# 
# High freq. dielectric constant tensor:
#      x y z
#    x 1.851620 0.000000 0.003270 
#    y 0.000000 1.831960 0.000000 
#    z 0.003270 0.000000 1.833570 
# 
# From -- ./inp_files/86383.got.cif
#   From: 2010.06.25/outbox.cif.g09.slc.cpg/sg12_44_cif.got.tgz:86383.got - 2010.06.28 00:19:55.
