data_PCOD8114393
_publ_section_title
;
Structure prediction by ZEFSAII (Michael W. Deem and Ramdas Pophale) SiO2 
 PCOD8114393
Probable space group: C 2/M
;
_chemical_formula_sum "Si O2"
_cell_formula_units_Z 64
_cell_length_a 13.772255
_cell_length_b 17.433463
_cell_length_c 22.061536
_cell_angle_alpha 90.000000
_cell_angle_beta 138.594915
_cell_angle_gamma 90.000000
_cell_volume 3503.277147
_symmetry_space_group_name_H-M "C 2/M"
_symmetry_group_IT_number 12
_symmetry_cell_setting 'monoclinic'
loop_
_space_group_symop_operation_xyz
x,y,z
-x,y,-z
-x,-y,-z
x,-y,z
1/2+x,1/2+y,z
1/2-x,1/2+y,-z
1/2-x,1/2-y,-z
1/2+x,1/2-y,z
loop_
_atom_site_type_symbol
_atom_site_label
_atom_site_fract_x
_atom_site_fract_y
_atom_site_fract_z
Si Si1 0.264940 0.088616 0.406834
Si Si2 0.479072 0.331563 0.244263
Si Si3 0.704475 0.587419 0.048226
Si Si4 0.574717 0.858681 0.943671
Si Si5 0.486553 0.692721 0.878244
Si Si6 0.695109 0.087830 0.122191
Si Si7 0.035191 0.587880 0.613862
Si Si8 0.173664 0.320438 0.783727
O O1 0.370472 0.104063 0.513374
O O2 0.349981 0.107564 0.384948
O O3 0.129123 0.147141 0.348949
O O4 0.212229 0.000000 0.381618
O O5 0.503158 0.343284 0.183749
O O6 0.362319 0.392702 0.215842
O O7 0.423065 0.246607 0.232237
O O8 0.655663 0.500000 0.036044
O O9 0.828507 0.589525 0.054836
O O10 0.775376 0.619611 0.142298
O O11 0.559539 0.634169 0.960234
O O12 0.576369 0.771761 0.920933
O O13 0.410039 0.893393 0.869920
O O14 0.647516 0.858213 0.044133
O O15 0.318878 0.710674 0.817966
O O16 0.677018 0.000000 0.094417
O O17 0.052103 0.500000 0.641330
O O18 0.065058 0.639352 0.685922
#
# Coordination Sequence:
#
# PCOD8114393 Si02
#       8
#     8   8   8   8   8   8   8   8
#     4   9  19  37  63  87 111 141 182 234 285 336
#     4  12  22  37  58  84 114 148 187 231 284 336
#     4  12  25  38  56  82 114 157 197 233 280 333
#     4  11  21  38  55  77 111 151 193 236 274 325
#     4  12  24  39  55  78 118 155 189 235 276 331
#     4  11  22  35  57  83 108 147 196 241 278 319
#     4   9  19  38  61  86 113 144 182 230 283 336
#     4  12  24  38  58  82 117 152 188 232 280 343
#
# _framework density 18.268609000000001
#
# number of rings (size 3 to 8) (size 9 to 14) (size 15 to 20)
#    0.000    1.000    5.000    4.500    1.750    2.500 
#    0.000    0.000    0.000    0.000    0.000    0.000 
#    0.000    6.000    0.000    0.000    0.000    0.000 
#
# Total GULP energy -396880.244730 kJ/mol
# GULP energy per Si atom -12402.507648 kJ/mol
# Density = 1.822703 g / cm^3
# Si number density = 18.268609 Si / 1000 Ang^3
#
#
#
# Elastic Constant Matrix: (Units=GPa)
#
#
# Indices 1 2 3 4 5 6 
#
# 1 63.2000 13.1778 32.3036 0.0000 11.8712 0.0000
# 2 13.1778 92.2044 44.0959 0.0000 7.1590 0.0000
# 3 32.3036 44.0959 109.3032 0.0000 7.2884 0.0000
# 4 0.0000 0.0000 0.0000 34.1866 0.0000 0.9908
# 5 11.8712 7.1590 7.2884 0.0000 31.6449 0.0000
# 6 0.0000 0.0000 0.0000 0.9908 0.0000 17.7584
#
#
#
# Elastic Compliance Matrix: (Units=1/GPa)
#
#
# Indices 1 2 3 4 5 6 
#
# 1 0.019761 0.000313 -0.005553 0.000000 -0.006205 0.000000
# 2 0.000313 0.013547 -0.005429 0.000000 -0.001932 0.000000
# 3 -0.005553 -0.005429 0.012958 0.000000 0.000327 0.000000
# 4 0.000000 0.000000 0.000000 0.029299 0.000000 -0.001635
# 5 -0.006205 -0.001932 0.000327 0.000000 0.034290 0.000000
# 6 0.000000 0.000000 0.000000 -0.001635 0.000000 0.056403
#
#
# Mechanical properties :
#
#
# Convention : Reuss Voigt Hill
#
# Bulk Modulus (GPa) = 40.11344 49.31801 44.71573
# Shear Modulus (GPa) = 25.52254 28.39334 26.95794
#
# Velocity S-wave (km/s) = 3.74180 3.94663 3.84558
# Velocity P-wave (km/s) = 6.37756 6.91538 6.65191
#
# Compressibility (1/GPa) = 0.02492930
#
# Stress axis : x y z
#
# Youngs Moduli (GPa) = 50.60408 73.81666 77.17023
#
# Poissons Ratio (x) = -0.02311 0.42851
# Poissons Ratio (y) = -0.01584 0.41896
# Poissons Ratio (z) = 0.28099 0.40075
#
# Static dielectric constant tensor:
#      x y z
#    x 3.490480 0.000000 0.165310 
#    y 0.000000 3.256890 0.000000 
#    z 0.165310 0.000000 3.289320 
# 
# 
# High freq. dielectric constant tensor:
#      x y z
#    x 1.710180 0.000000 0.013240 
#    y 0.000000 1.708860 0.000000 
#    z 0.013240 0.000000 1.694680 
# 
# From -- ./inp_files/340194.got.cif
#   From: 2010.06.25/outbox.cif.g09.slc.cpg/sg12_171_cif.got.tgz:340194.got - 2010.06.28 00:19:55.
