data_PCOD8114461
_publ_section_title
;
Structure prediction by ZEFSAII (Michael W. Deem and Ramdas Pophale) SiO2 
 PCOD8114461
Probable space group: C 2/M
;
_chemical_formula_sum "Si O2"
_cell_formula_units_Z 64
_cell_length_a 9.865997
_cell_length_b 17.052442
_cell_length_c 34.856630
_cell_angle_alpha 90.000000
_cell_angle_beta 33.175492
_cell_angle_gamma 90.000000
_cell_volume 3208.951943
_symmetry_space_group_name_H-M "C 2/M"
_symmetry_group_IT_number 12
_symmetry_cell_setting 'monoclinic'
loop_
_space_group_symop_operation_xyz
x,y,z
-x,y,-z
-x,-y,-z
x,-y,z
1/2+x,1/2+y,z
1/2-x,1/2+y,-z
1/2-x,1/2-y,-z
1/2+x,1/2-y,z
loop_
_atom_site_type_symbol
_atom_site_label
_atom_site_fract_x
_atom_site_fract_y
_atom_site_fract_z
Si Si1 0.372608 0.907425 0.713318
Si Si2 0.886711 0.909789 0.713058
Si Si3 0.896940 0.908942 0.084329
Si Si4 0.940194 0.664691 0.777020
Si Si5 0.576815 0.093066 0.440561
Si Si6 0.616129 0.908730 0.072954
Si Si7 0.778226 0.593385 0.438409
Si Si8 0.892178 0.155306 0.793484
O O1 0.484089 0.882690 0.727601
O O2 0.558153 0.877481 0.636213
O O3 0.107149 0.866049 0.772301
O O4 0.339198 0.000000 0.719288
O O5 0.672923 0.853078 0.748920
O O6 0.912509 0.902793 0.752609
O O7 0.141632 0.881782 0.633510
O O8 0.824203 0.000000 0.717773
O O9 0.811412 0.861149 0.141841
O O10 0.708675 0.892962 0.094136
O O11 0.894900 0.000000 0.095487
O O12 0.173256 0.882154 0.007101
O O13 0.921096 0.756067 0.772458
O O14 0.500000 0.128390 0.500000
O O15 0.398337 0.126492 0.449330
O O16 0.553212 0.000000 0.446266
O O17 0.370961 0.857801 0.123070
O O18 0.555604 0.000000 0.081690
O O19 0.500000 0.627011 0.500000
O O20 0.772478 0.500000 0.440602
#
# Coordination Sequence:
#
# PCOD8114461 Si02
#       8
#     8   8   8   8   8   8   8   8
#     4  11  23  39  59  87 121 158 196 242 301 359
#     4  11  21  39  65  87 113 158 210 248 283 349
#     4   9  18  36  61  90 116 147 200 251 288 342
#     4  12  25  37  58  90 125 156 192 250 302 345
#     4   9  18  32  56  89 115 143 198 258 291 331
#     4   9  18  35  64  89 111 152 202 246 288 346
#     4   9  18  33  55  85 119 151 190 245 303 349
#     4  12  23  39  60  87 122 160 197 242 296 355
#
# _framework density 19.944208
#
# number of rings (size 3 to 8) (size 9 to 14) (size 15 to 20)
#    0.000    1.750    2.500    3.750    1.750    0.500 
#    0.000    0.625    0.000    6.750    0.000    0.000 
#    0.000    0.000    0.000    0.000    0.000    0.000 
#
# Total GULP energy -396900.191811 kJ/mol
# GULP energy per Si atom -12403.130994 kJ/mol
# Density = 1.989881 g / cm^3
# Si number density = 19.944208 Si / 1000 Ang^3
#
#
#
# Elastic Constant Matrix: (Units=GPa)
#
#
# Indices 1 2 3 4 5 6 
#
# 1 76.0220 22.6957 47.4106 -0.0117 0.4145 -0.0003
# 2 22.6957 53.6674 36.9874 -0.0273 -6.9904 0.0075
# 3 47.4106 36.9874 127.6322 -0.0756 -7.1066 0.0246
# 4 -0.0117 -0.0273 -0.0756 7.3224 0.0192 2.8842
# 5 0.4145 -6.9904 -7.1066 0.0192 39.6380 -0.0070
# 6 -0.0003 0.0075 0.0246 2.8842 -0.0070 20.2997
#
#
#
# Elastic Compliance Matrix: (Units=1/GPa)
#
#
# Indices 1 2 3 4 5 6 
#
# 1 0.017821 -0.003932 -0.005585 -0.000045 -0.001881 0.000014
# 2 -0.003932 0.024492 -0.005449 0.000022 0.003384 -0.000004
# 3 -0.005585 -0.005449 0.011554 0.000097 0.001169 -0.000025
# 4 -0.000045 0.000022 0.000097 0.144665 -0.000052 -0.020554
# 5 -0.001881 0.003384 0.001169 -0.000052 0.026054 0.000014
# 6 0.000014 -0.000004 -0.000025 -0.020554 0.000014 0.052182
#
#
# Mechanical properties :
#
#
# Convention : Reuss Voigt Hill
#
# Bulk Modulus (GPa) = 41.77961 52.38990 47.08476
# Shear Modulus (GPa) = 15.88915 23.46721 19.67818
#
# Velocity S-wave (km/s) = 2.82561 3.43394 3.14452
# Velocity P-wave (km/s) = 5.62487 6.48443 6.06989
#
# Compressibility (1/GPa) = 0.02393512
#
# Stress axis : x y z
#
# Youngs Moduli (GPa) = 56.11209 40.82934 86.55129
#
# Poissons Ratio (x) = 0.16056 0.48341
# Poissons Ratio (y) = 0.22065 0.47159
# Poissons Ratio (z) = 0.31340 0.22246
#
# Static dielectric constant tensor:
#      x y z
#    x 3.542610 -0.000010 -0.068640 
#    y -0.000010 3.196970 0.000030 
#    z -0.068640 0.000030 3.867480 
# 
# 
# High freq. dielectric constant tensor:
#      x y z
#    x 1.771840 0.000000 -0.006370 
#    y 0.000000 1.745330 0.000000 
#    z -0.006370 0.000000 1.792130 
# 
# From -- ./inp_files/372954.got.cif
#   From: 2010.06.25/outbox.cif.g09.slc.cpg/sg12_187_cif.got.tgz:372954.got - 2010.06.28 00:19:55.
