data_PCOD8114758
_publ_section_title
;
Structure prediction by ZEFSAII (Michael W. Deem and Ramdas Pophale) SiO2 
 PCOD8114758
Probable space group: C 2/M
;
_chemical_formula_sum "Si O2"
_cell_formula_units_Z 56
_cell_length_a 9.055049
_cell_length_b 26.799650
_cell_length_c 17.635830
_cell_angle_alpha 90.000000
_cell_angle_beta 140.405234
_cell_angle_gamma 90.000000
_cell_volume 2727.697931
_symmetry_space_group_name_H-M "C 2/M"
_symmetry_group_IT_number 12
_symmetry_cell_setting 'monoclinic'
loop_
_space_group_symop_operation_xyz
x,y,z
-x,y,-z
-x,-y,-z
x,-y,z
1/2+x,1/2+y,z
1/2-x,1/2+y,-z
1/2-x,1/2-y,-z
1/2+x,1/2-y,z
loop_
_atom_site_type_symbol
_atom_site_label
_atom_site_fract_x
_atom_site_fract_y
_atom_site_fract_z
Si Si1 0.380788 0.804301 0.374428
Si Si2 0.516718 0.056053 0.365995
Si Si3 0.411833 0.600311 0.752177
Si Si4 0.262613 0.799770 0.624796
Si Si5 0.980310 0.941689 0.625812
Si Si6 0.171492 0.557966 0.997400
Si Si7 0.073152 0.603730 0.241509
O O1 0.500000 0.822144 0.500000
O O2 0.184496 0.844019 0.272497
O O3 0.576259 0.797717 0.386700
O O4 0.243355 0.753178 0.335218
O O5 0.303554 0.061407 0.339466
O O6 0.748075 0.078736 0.494660
O O7 0.431949 0.088973 0.261056
O O8 0.563083 0.000000 0.359732
O O9 0.538566 0.592424 0.722078
O O10 0.585221 0.584032 0.887350
O O11 0.363738 0.837914 0.727560
O O12 0.000000 0.815635 0.500000
O O13 0.199292 0.931399 0.659146
O O14 0.963447 0.000000 0.640128
O O15 0.206728 0.500000 0.987294
O O16 0.000000 0.561064 0.000000
O O17 0.072016 0.590975 0.889966
#
# Coordination Sequence:
#
# PCOD8114758 Si02
#       7
#     8   8   8   8   8   8   8
#     4  11  24  42  69 102 134 171 217 272 337 399
#     4  11  22  37  58  94 131 163 205 268 338 392
#     4  12  24  40  64  93 131 173 220 267 323 388
#     4  11  24  42  69 102 134 171 217 272 337 399
#     4  11  22  37  62  92 129 171 213 264 326 400
#     4  11  24  43  66  91 126 181 234 269 312 383
#     4  12  24  40  64  93 131 173 220 267 323 388
#
# _framework density 20.530134
#
# number of rings (size 3 to 8) (size 9 to 14) (size 15 to 20)
#    0.000    0.714    2.857    6.857    4.000    2.857 
#    0.000    2.143    0.000    0.000    0.000    0.000 
#    0.000    0.000    0.000    0.000    0.000    0.000 
#
# Total GULP energy -347172.656152 kJ/mol
# GULP energy per Si atom -12399.023434 kJ/mol
# Density = 2.048341 g / cm^3
# Si number density = 20.530134 Si / 1000 Ang^3
#
#
#
# Elastic Constant Matrix: (Units=GPa)
#
#
# Indices 1 2 3 4 5 6 
#
# 1 85.8300 44.1046 29.4574 -0.0001 -1.0807 -0.0002
# 2 44.1046 138.3943 68.1862 0.0000 -3.7613 -0.0001
# 3 29.4574 68.1862 130.6170 -0.0087 -2.7970 -0.0025
# 4 -0.0001 0.0000 -0.0087 36.5844 -0.0015 -1.2295
# 5 -1.0807 -3.7613 -2.7970 -0.0015 30.7954 -0.0005
# 6 -0.0002 -0.0001 -0.0025 -1.2295 -0.0005 34.2392
#
#
#
# Elastic Compliance Matrix: (Units=1/GPa)
#
#
# Indices 1 2 3 4 5 6 
#
# 1 0.014053 -0.003929 -0.001120 0.000000 -0.000088 0.000000
# 2 -0.003929 0.010843 -0.004758 -0.000001 0.000754 0.000000
# 3 -0.001120 -0.004758 0.010399 0.000003 0.000324 0.000001
# 4 0.000000 -0.000001 0.000003 0.027367 0.000001 0.000983
# 5 -0.000088 0.000754 0.000324 0.000001 0.032591 0.000001
# 6 0.000000 0.000000 0.000001 0.000983 0.000001 0.029242
#
#
# Mechanical properties :
#
#
# Convention : Reuss Voigt Hill
#
# Bulk Modulus (GPa) = 63.77209 70.92643 67.34926
# Shear Modulus (GPa) = 33.48155 34.53001 34.00578
#
# Velocity S-wave (km/s) = 4.04276 4.10557 4.07428
# Velocity P-wave (km/s) = 7.27475 7.55624 7.41683
#
# Compressibility (1/GPa) = 0.01568084
#
# Stress axis : x y z
#
# Youngs Moduli (GPa) = 71.15775 92.22883 96.16025
#
# Poissons Ratio (x) = 0.36238 0.10771
# Poissons Ratio (y) = 0.27959 0.45752
# Poissons Ratio (z) = 0.07971 0.43882
#
# Static dielectric constant tensor:
#      x y z
#    x 3.838210 0.000000 0.047710 
#    y 0.000000 3.685900 0.000000 
#    z 0.047710 0.000000 3.558680 
# 
# 
# High freq. dielectric constant tensor:
#      x y z
#    x 1.823970 0.000000 0.002740 
#    y 0.000000 1.801330 0.000000 
#    z 0.002740 0.000000 1.781330 
# 
# From -- ./inp_files/259795.got.cif
#   From: 2010.06.25/outbox.cif.g09.slc.cpg/sg12_130_cif.got.tgz:259795.got - 2010.06.28 00:19:55.
