data_PCOD8114940
_publ_section_title
;
Structure prediction by ZEFSAII (Michael W. Deem and Ramdas Pophale) SiO2 
 PCOD8114940
Probable space group: C 2/M
;
_chemical_formula_sum "Si O2"
_cell_formula_units_Z 48
_cell_length_a 18.853091
_cell_length_b 8.741101
_cell_length_c 14.702560
_cell_angle_alpha 90.000000
_cell_angle_beta 99.523009
_cell_angle_gamma 90.000000
_cell_volume 2389.544563
_symmetry_space_group_name_H-M "C 2/M"
_symmetry_group_IT_number 12
_symmetry_cell_setting 'monoclinic'
loop_
_space_group_symop_operation_xyz
x,y,z
-x,y,-z
-x,-y,-z
x,-y,z
1/2+x,1/2+y,z
1/2-x,1/2+y,-z
1/2-x,1/2-y,-z
1/2+x,1/2-y,z
loop_
_atom_site_type_symbol
_atom_site_label
_atom_site_fract_x
_atom_site_fract_y
_atom_site_fract_z
Si Si1 0.558797 0.172410 0.090127
Si Si2 0.192195 0.824938 0.551094
Si Si3 0.975571 0.180761 0.234193
Si Si4 0.788653 0.819185 0.920491
Si Si5 0.956410 0.175518 0.570642
Si Si6 0.827215 0.320486 0.254873
O O1 0.524032 0.274836 0.160100
O O2 0.632600 0.247158 0.071634
O O3 0.574807 0.000000 0.127544
O O4 0.500000 0.168418 0.000000
O O5 0.250000 0.750000 0.500000
O O6 0.126121 0.807797 0.468957
O O7 0.181515 0.745045 0.645673
O O8 0.210685 0.000000 0.576256
O O9 0.896424 0.253756 0.217516
O O10 0.021067 0.247895 0.328807
O O11 0.965329 0.000000 0.232857
O O12 0.742731 0.780128 0.820204
O O13 0.796042 0.000000 0.935464
O O14 0.750000 0.750000 0.000000
O O15 0.000000 0.260696 0.500000
O O16 0.981779 0.000000 0.580715
O O17 0.837629 0.500000 0.265816
#
# Coordination Sequence:
#
# PCOD8114940 Si02
#       6
#     8   8   8   8   8   8
#     4  11  25  44  65  93 128 161 200 256 313 369
#     4  11  23  40  62  89 125 167 210 259 311 367
#     4  11  22  39  66  94 123 164 209 255 309 368
#     4  11  25  44  67  93 125 164 206 255 312 373
#     4   9  18  37  61  87 121 161 203 250 303 356
#     4  11  24  42  62  91 128 165 206 258 314 367
#
# _framework density 20.087510999999999
#
# number of rings (size 3 to 8) (size 9 to 14) (size 15 to 20)
#    0.000    1.333    1.667    3.500    2.333    8.000 
#    0.000    3.333    0.000    0.000    0.000    0.000 
#    0.000    0.000    0.000    0.000    0.000    0.000 
#
# Total GULP energy -297531.928634 kJ/mol
# GULP energy per Si atom -12397.163693 kJ/mol
# Density = 2.004179 g / cm^3
# Si number density = 20.087511 Si / 1000 Ang^3
#
#
#
# Elastic Constant Matrix: (Units=GPa)
#
#
# Indices 1 2 3 4 5 6 
#
# 1 136.8621 62.3565 47.7831 0.0000 -18.6073 0.0000
# 2 62.3565 106.6211 37.3904 0.0000 5.9492 0.0000
# 3 47.7831 37.3904 90.2648 0.0000 -3.1647 0.0000
# 4 0.0000 0.0000 0.0000 23.6919 0.0000 16.8495
# 5 -18.6073 5.9492 -3.1647 0.0000 39.7163 0.0000
# 6 0.0000 0.0000 0.0000 16.8495 0.0000 -14.1085
#
#
#
# Elastic Compliance Matrix: (Units=1/GPa)
#
#
# Indices 1 2 3 4 5 6 
#
# 1 0.012330 -0.006270 -0.003705 0.000000 0.006421 0.000000
# 2 -0.006270 0.014324 -0.002800 0.000000 -0.005306 0.000000
# 3 -0.003705 -0.002800 0.014193 0.000000 -0.000185 0.000000
# 4 0.000000 0.000000 0.000000 0.022823 0.000000 0.027257
# 5 0.006421 -0.005306 -0.000185 0.000000 0.028967 0.000000
# 6 0.000000 0.000000 0.000000 0.027257 0.000000 -0.038326
#
#
# Mechanical properties :
#
#
# Convention : Reuss Voigt Hill
#
# Bulk Modulus (GPa) = 65.37262 69.86756 67.62009
# Shear Modulus (GPa) = 58.85164 22.27448 40.56306
#
# Velocity S-wave (km/s) = 5.41860 3.33359 4.49856
# Velocity P-wave (km/s) = 8.47130 7.04799 7.79221
#
# Compressibility (1/GPa) = 0.01529692
#
# Stress axis : x y z
#
# Youngs Moduli (GPa) = 81.10541 69.81245 70.45682
#
# Poissons Ratio (x) = 0.43772 0.26101
# Poissons Ratio (y) = 0.50853 0.19731
# Poissons Ratio (z) = 0.30046 0.19550
#
# Static dielectric constant tensor:
#      x y z
#    x 3.606570 0.000000 -0.133870 
#    y 0.000000 3.732060 0.000000 
#    z -0.133870 0.000000 3.545750 
# 
# 
# High freq. dielectric constant tensor:
#      x y z
#    x 1.799540 0.000000 0.000810 
#    y 0.000000 1.783600 0.000000 
#    z 0.000810 0.000000 1.801580 
# 
# From -- ./inp_files/221537.got.cif
#   From: 2010.06.25/outbox.cif.g09.slc.cpg/sg12_111_cif.got.tgz:221537.got - 2010.06.28 00:19:55.
