data_PCOD8114928
_publ_section_title
;
Structure prediction by ZEFSAII (Michael W. Deem and Ramdas Pophale) SiO2 
 PCOD8114928
Probable space group: C 2/M
;
_chemical_formula_sum "Si O2"
_cell_formula_units_Z 56
_cell_length_a 8.443137
_cell_length_b 25.413478
_cell_length_c 14.377591
_cell_angle_alpha 90.000000
_cell_angle_beta 112.144273
_cell_angle_gamma 90.000000
_cell_volume 2857.435876
_symmetry_space_group_name_H-M "C 2/M"
_symmetry_group_IT_number 12
_symmetry_cell_setting 'monoclinic'
loop_
_space_group_symop_operation_xyz
x,y,z
-x,y,-z
-x,-y,-z
x,-y,z
1/2+x,1/2+y,z
1/2-x,1/2+y,-z
1/2-x,1/2-y,-z
1/2+x,1/2-y,z
loop_
_atom_site_type_symbol
_atom_site_label
_atom_site_fract_x
_atom_site_fract_y
_atom_site_fract_z
Si Si1 0.821210 0.000000 0.083086
Si Si2 0.355585 0.697989 0.188283
Si Si3 0.376909 0.108575 0.204021
Si Si4 0.989793 0.323561 0.397296
Si Si5 0.360800 0.300916 0.888903
Si Si6 0.357799 0.899594 0.891524
Si Si7 0.220142 0.000000 0.138020
Si Si8 0.648734 0.712063 0.602816
O O1 0.768314 0.050809 0.130709
O O2 0.021438 0.000000 0.113378
O O3 0.733378 0.000000 0.961575
O O4 0.546605 0.697664 0.190347
O O5 0.274251 0.753840 0.143757
O O6 0.247379 0.653243 0.112358
O O7 0.366937 0.684519 0.300070
O O8 0.410243 0.134348 0.310761
O O9 0.243254 0.144959 0.116811
O O10 0.555899 0.103577 0.190279
O O11 0.299426 0.051223 0.203452
O O12 0.861765 0.274475 0.382002
O O13 0.000000 0.351881 0.500000
O O14 0.169811 0.301015 0.401958
O O15 0.500000 0.292588 0.000000
O O16 0.500000 0.906489 0.000000
O O17 0.500000 0.692161 0.500000
#
# Coordination Sequence:
#
# PCOD8114928 Si02
#       8
#     4   8   8   8   8   8   4   8
#     4  11  24  43  66  92 124 168 221 258 312 360
#     4  12  23  39  60  91 134 164 215 254 320 375
#     4  12  24  41  66  93 126 164 219 258 327 369
#     4  11  23  41  65  96 126 168 211 264 319 380
#     4  12  25  39  57  91 132 179 205 256 306 392
#     4  12  22  40  63  93 126 171 206 264 307 380
#     4  11  25  44  66  93 123 165 217 268 304 380
#     4  11  22  39  64  93 126 167 210 262 312 374
#
# _framework density 19.597989999999999
#
# number of rings (size 3 to 8) (size 9 to 14) (size 15 to 20)
#    0.000    0.429    4.286    6.643    4.000    0.000 
#    0.000    0.357    0.000    0.000    0.000    2.000 
#    0.000    0.000    0.000    0.000    0.000    0.000 
#
# Total GULP energy -347331.482831 kJ/mol
# GULP energy per Si atom -12404.695815 kJ/mol
# Density = 1.955338 g / cm^3
# Si number density = 19.597990 Si / 1000 Ang^3
#
#
#
# Elastic Constant Matrix: (Units=GPa)
#
#
# Indices 1 2 3 4 5 6 
#
# 1 103.3918 46.1544 31.0236 0.0000 -12.5292 0.0000
# 2 46.1544 129.5270 24.4843 0.0000 7.6709 0.0000
# 3 31.0236 24.4843 96.2489 0.0000 -8.8704 0.0000
# 4 0.0000 0.0000 0.0000 27.1885 0.0000 0.0402
# 5 -12.5292 7.6709 -8.8704 0.0000 32.7955 0.0000
# 6 0.0000 0.0000 0.0000 0.0402 0.0000 6.5941
#
#
#
# Elastic Compliance Matrix: (Units=1/GPa)
#
#
# Indices 1 2 3 4 5 6 
#
# 1 0.013106 -0.004498 -0.002586 0.000000 0.005360 0.000000
# 2 -0.004498 0.009862 -0.001466 0.000000 -0.004422 0.000000
# 3 -0.002586 -0.001466 0.011832 0.000000 0.002555 0.000000
# 4 0.000000 0.000000 0.000000 0.036781 0.000000 -0.000224
# 5 0.005360 -0.004422 0.002555 0.000000 0.034265 0.000000
# 6 0.000000 0.000000 0.000000 -0.000224 0.000000 0.151651
#
#
# Mechanical properties :
#
#
# Convention : Reuss Voigt Hill
#
# Bulk Modulus (GPa) = 56.50355 59.16579 57.83467
# Shear Modulus (GPa) = 17.82544 28.48264 23.15404
#
# Velocity S-wave (km/s) = 3.01915 3.81641 3.44095
# Velocity P-wave (km/s) = 6.40684 7.04807 6.73509
#
# Compressibility (1/GPa) = 0.01769800
#
# Stress axis : x y z
#
# Youngs Moduli (GPa) = 76.30381 101.39502 84.51812
#
# Poissons Ratio (x) = 0.45612 0.21856
# Poissons Ratio (y) = 0.34325 0.12394
# Poissons Ratio (z) = 0.19732 0.14869
#
# Static dielectric constant tensor:
#      x y z
#    x 3.857390 0.000000 -0.144570 
#    y 0.000000 3.587840 0.000000 
#    z -0.144570 0.000000 3.743470 
# 
# 
# High freq. dielectric constant tensor:
#      x y z
#    x 1.787900 0.000000 -0.003690 
#    y 0.000000 1.747280 0.000000 
#    z -0.003690 0.000000 1.757190 
# 
# From -- ./inp_files/199002.got.cif
#   From: 2010.06.25/outbox.cif.g09.slc.cpg/sg12_100_cif.got.tgz:199002.got - 2010.06.28 00:19:55.
