data_PCOD8114439
_publ_section_title
;
Structure prediction by ZEFSAII (Michael W. Deem and Ramdas Pophale) SiO2 
 PCOD8114439
Probable space group: C 2/M
;
_chemical_formula_sum "Si O2"
_cell_formula_units_Z 40
_cell_length_a 15.150880
_cell_length_b 13.687548
_cell_length_c 9.155709
_cell_angle_alpha 90.000000
_cell_angle_beta 113.039760
_cell_angle_gamma 90.000000
_cell_volume 1747.243878
_symmetry_space_group_name_H-M "C 2/M"
_symmetry_group_IT_number 12
_symmetry_cell_setting 'monoclinic'
loop_
_space_group_symop_operation_xyz
x,y,z
-x,y,-z
-x,-y,-z
x,-y,z
1/2+x,1/2+y,z
1/2-x,1/2+y,-z
1/2-x,1/2-y,-z
1/2+x,1/2-y,z
loop_
_atom_site_type_symbol
_atom_site_label
_atom_site_fract_x
_atom_site_fract_y
_atom_site_fract_z
Si Si1 0.895857 0.893562 0.384162
Si Si2 0.288594 0.611678 0.889298
Si Si3 0.747282 0.137869 0.526073
Si Si4 0.119267 0.740916 0.866942
Si Si5 0.471024 0.108212 0.644013
O O1 0.827554 0.910731 0.478331
O O2 0.853453 0.811897 0.250304
O O3 0.000000 0.856127 0.500000
O O4 0.905337 0.000000 0.312642
O O5 0.309666 0.500000 0.953740
O O6 0.269822 0.610012 0.705898
O O7 0.196589 0.653282 0.917990
O O8 0.375466 0.687566 0.987238
O O9 0.750000 0.250000 0.500000
O O10 0.642663 0.100741 0.412408
O O11 0.015450 0.688645 0.784487
O O12 0.500000 0.141405 0.500000
O O13 0.513829 0.000000 0.704094
#
# Coordination Sequence:
#
# PCOD8114439 Si02
#       5
#     8   8   8   8   8
#     4  11  23  41  64  95 132 173 224 278 332 391
#     4  11  23  40  66  97 133 177 222 270 333 401
#     4  12  22  41  69  99 132 174 224 275 331 396
#     4  11  22  40  65  97 132 174 215 274 338 397
#     4  11  21  38  67 100 132 169 220 275 330 394
#
# _framework density 22.893197000000001
#
# number of rings (size 3 to 8) (size 9 to 14) (size 15 to 20)
#    0.000    0.800    4.000    4.800    0.000    0.000 
#    0.000    4.000    0.000    8.400    0.000    0.000 
#    0.000    0.000    0.000    0.000    0.000    0.000 
#
# Total GULP energy -247899.925517 kJ/mol
# GULP energy per Si atom -12394.996276 kJ/mol
# Density = 2.284109 g / cm^3
# Si number density = 22.893197 Si / 1000 Ang^3
#
#
#
# Elastic Constant Matrix: (Units=GPa)
#
#
# Indices 1 2 3 4 5 6 
#
# 1 114.8340 13.3747 34.8406 0.0000 21.9139 0.0000
# 2 13.3747 173.4015 51.3649 0.0000 19.1871 0.0000
# 3 34.8406 51.3649 100.8144 0.0000 29.9669 0.0000
# 4 0.0000 0.0000 0.0000 25.8908 0.0000 -1.6605
# 5 21.9139 19.1871 29.9669 0.0000 25.6493 0.0000
# 6 0.0000 0.0000 0.0000 -1.6605 0.0000 28.3993
#
#
#
# Elastic Compliance Matrix: (Units=1/GPa)
#
#
# Indices 1 2 3 4 5 6 
#
# 1 0.010585 0.000512 -0.001711 0.000000 -0.007427 0.000000
# 2 0.000512 0.006859 -0.003090 0.000000 -0.001959 0.000000
# 3 -0.001711 -0.003090 0.016796 0.000000 -0.015850 0.000000
# 4 0.000000 0.000000 0.000000 0.038769 0.000000 0.002267
# 5 -0.007427 -0.001959 -0.015850 0.000000 0.065317 0.000000
# 6 0.000000 0.000000 0.000000 0.002267 0.000000 0.035345
#
#
# Mechanical properties :
#
#
# Convention : Reuss Voigt Hill
#
# Bulk Modulus (GPa) = 38.96558 65.35671 52.16114
# Shear Modulus (GPa) = 26.20496 35.28585 30.74541
#
# Velocity S-wave (km/s) = 3.38696 3.93023 3.66866
# Velocity P-wave (km/s) = 5.68795 7.01471 6.38588
#
# Compressibility (1/GPa) = 0.02566368
#
# Stress axis : x y z
#
# Youngs Moduli (GPa) = 94.47178 145.78475 59.53713
#
# Poissons Ratio (x) = -0.07469 0.10189
# Poissons Ratio (y) = -0.04840 0.18394
# Poissons Ratio (z) = 0.16168 0.45041
#
# Static dielectric constant tensor:
#      x y z
#    x 4.959630 0.000000 -0.357970 
#    y 0.000000 4.500770 0.000000 
#    z -0.357970 0.000000 4.430180 
# 
# 
# High freq. dielectric constant tensor:
#      x y z
#    x 1.877070 0.000000 0.021020 
#    y 0.000000 1.942110 0.000000 
#    z 0.021020 0.000000 1.885290 
# 
# From -- ./inp_files/59222.got.cif
#   From: 2010.06.25/outbox.cif.g09.slc.cpg/sg12_30_cif.got.tgz:59222.got - 2010.06.28 00:19:55.
