data_PCOD8114728
_publ_section_title
;
Structure prediction by ZEFSAII (Michael W. Deem and Ramdas Pophale) SiO2 
 PCOD8114728
Probable space group: C 2/M
;
_chemical_formula_sum "Si O2"
_cell_formula_units_Z 56
_cell_length_a 9.068303
_cell_length_b 19.143365
_cell_length_c 24.377909
_cell_angle_alpha 90.000000
_cell_angle_beta 138.565696
_cell_angle_gamma 90.000000
_cell_volume 2800.540296
_symmetry_space_group_name_H-M "C 2/M"
_symmetry_group_IT_number 12
_symmetry_cell_setting 'monoclinic'
loop_
_space_group_symop_operation_xyz
x,y,z
-x,y,-z
-x,-y,-z
x,-y,z
1/2+x,1/2+y,z
1/2-x,1/2+y,-z
1/2-x,1/2-y,-z
1/2+x,1/2-y,z
loop_
_atom_site_type_symbol
_atom_site_label
_atom_site_fract_x
_atom_site_fract_y
_atom_site_fract_z
Si Si1 0.750493 0.695595 0.422049
Si Si2 0.571261 0.674528 0.759412
Si Si3 0.857716 0.177402 0.014447
Si Si4 0.460957 0.080514 0.733848
Si Si5 0.582654 0.662868 0.578461
Si Si6 0.478127 0.080911 0.866293
Si Si7 0.315842 0.682619 0.799395
O O1 0.602702 0.652679 0.336897
O O2 0.623921 0.694762 0.445032
O O3 0.764744 0.773454 0.400882
O O4 0.000000 0.664038 0.500000
O O5 0.736626 0.609994 0.815779
O O6 0.436702 0.692293 0.775962
O O7 0.717952 0.741901 0.785906
O O8 0.014681 0.153886 0.107760
O O9 0.750000 0.250000 0.000000
O O10 0.670941 0.118625 0.954254
O O11 0.000000 0.188357 0.000000
O O12 0.213388 0.108894 0.653199
O O13 0.520521 0.093262 0.813732
O O14 0.626754 0.123825 0.741442
O O15 0.475240 0.000000 0.721361
O O16 0.500000 0.623513 0.500000
O O17 0.484939 0.000000 0.883834
#
# Coordination Sequence:
#
# PCOD8114728 Si02
#       7
#     8   8   8   8   8   8   8
#     4  11  22  36  62 101 126 162 210 267 322 369
#     4  12  23  41  69  94 130 171 213 265 323 379
#     4  12  24  40  66  98 126 163 216 269 318 372
#     4  11  24  43  64  91 128 174 218 260 321 388
#     4  11  22  37  64  95 128 164 209 267 323 379
#     4  11  25  45  66  92 131 176 214 261 326 386
#     4  12  24  39  67  98 124 164 218 268 315 379
#
# _framework density 19.996141999999999
#
# number of rings (size 3 to 8) (size 9 to 14) (size 15 to 20)
#    0.000    0.571    5.714    4.286    2.000    1.714 
#    0.000    0.714    0.000    0.857    0.000    0.000 
#    0.000    0.000    0.000    0.000    0.000    0.000 
#
# Total GULP energy -347262.973725 kJ/mol
# GULP energy per Si atom -12402.249062 kJ/mol
# Density = 1.995063 g / cm^3
# Si number density = 19.996142 Si / 1000 Ang^3
#
#
#
# Elastic Constant Matrix: (Units=GPa)
#
#
# Indices 1 2 3 4 5 6 
#
# 1 132.9777 48.7804 35.5280 0.0002 0.2845 0.0004
# 2 48.7804 117.9420 49.1049 0.0000 15.1774 0.0001
# 3 35.5280 49.1049 147.6618 0.0002 4.3655 0.0004
# 4 0.0002 0.0000 0.0002 28.8893 0.0002 -3.2006
# 5 0.2845 15.1774 4.3655 0.0002 32.4629 0.0003
# 6 0.0004 0.0001 0.0004 -3.2006 0.0003 5.0589
#
#
#
# Elastic Compliance Matrix: (Units=1/GPa)
#
#
# Indices 1 2 3 4 5 6 
#
# 1 0.009100 -0.003543 -0.001062 0.000000 0.001719 -0.000001
# 2 -0.003543 0.011819 -0.002927 0.000000 -0.005101 0.000001
# 3 -0.001062 -0.002927 0.007992 0.000000 0.000303 -0.000001
# 4 0.000000 0.000000 0.000000 0.037224 0.000000 0.023551
# 5 0.001719 -0.005101 0.000303 0.000000 0.033133 -0.000002
# 6 -0.000001 0.000001 -0.000001 0.023551 -0.000002 0.212573
#
#
# Mechanical properties :
#
#
# Convention : Reuss Voigt Hill
#
# Bulk Modulus (GPa) = 72.21765 73.93422 73.07594
# Shear Modulus (GPa) = 15.08200 30.96010 23.02105
#
# Velocity S-wave (km/s) = 2.74933 3.93912 3.39672
# Velocity P-wave (km/s) = 6.80240 7.59891 7.21166
#
# Compressibility (1/GPa) = 0.01384703
#
# Stress axis : x y z
#
# Youngs Moduli (GPa) = 109.89365 84.60833 125.12050
#
# Poissons Ratio (x) = 0.29974 0.13290
# Poissons Ratio (y) = 0.38931 0.36626
# Poissons Ratio (z) = 0.11672 0.24767
#
# Static dielectric constant tensor:
#      x y z
#    x 3.681740 0.000000 0.020920 
#    y 0.000000 3.377170 0.000000 
#    z 0.020920 0.000000 4.180310 
# 
# 
# High freq. dielectric constant tensor:
#      x y z
#    x 1.789520 0.000000 0.002450 
#    y 0.000000 1.750430 0.000000 
#    z 0.002450 0.000000 1.803670 
# 
# From -- ./inp_files/356758.got.cif
#   From: 2010.06.25/outbox.cif.g09.slc.cpg/sg12_179_cif.got.tgz:356758.got - 2010.06.28 00:19:55.
