data_PCOD8114503
_publ_section_title
;
Structure prediction by ZEFSAII (Michael W. Deem and Ramdas Pophale) SiO2 
 PCOD8114503
Probable space group: C 2/M
;
_chemical_formula_sum "Si O2"
_cell_formula_units_Z 56
_cell_length_a 11.854262
_cell_length_b 15.509459
_cell_length_c 14.280554
_cell_angle_alpha 90.000000
_cell_angle_beta 90.000000
_cell_angle_gamma 90.000000
_cell_volume 2625.525414
_symmetry_space_group_name_H-M "C 2/M"
_symmetry_group_IT_number 12
_symmetry_cell_setting 'monoclinic'
loop_
_space_group_symop_operation_xyz
x,y,z
-x,y,-z
-x,-y,-z
x,-y,z
1/2+x,1/2+y,z
1/2-x,1/2+y,-z
1/2-x,1/2-y,-z
1/2+x,1/2-y,z
loop_
_atom_site_type_symbol
_atom_site_label
_atom_site_fract_x
_atom_site_fract_y
_atom_site_fract_z
Si Si1 0.067757 0.096073 0.747773
Si Si2 0.105694 0.750000 0.250000
Si Si3 0.067757 0.596073 0.752227
Si Si4 0.776713 0.677128 0.392028
Si Si5 0.882725 0.844057 0.451009
Si Si6 0.117275 0.655943 0.951009
Si Si7 0.776713 0.822871 0.107972
O O1 0.123601 0.103251 0.645291
O O2 0.168537 0.108780 0.822025
O O3 0.970287 0.165467 0.764985
O O4 0.018006 0.000000 0.760732
O O5 0.182109 0.763979 0.341195
O O6 0.182109 0.736021 0.158805
O O7 0.029713 0.665467 0.264985
O O8 0.018006 0.500000 0.739268
O O9 0.168537 0.608780 0.677974
O O10 0.123601 0.603251 0.854709
O O11 0.872730 0.741981 0.429567
O O12 0.718073 0.627198 0.478775
O O13 0.000000 0.864378 0.500000
O O14 0.127270 0.758019 0.929567
O O15 0.218073 0.627198 0.021225
O O16 0.000000 0.635622 0.000000
#
# Coordination Sequence:
#
# PCOD8114503 Si02
#       7
#     8   8   8   8   8   8   8
#     4  12  25  41  66  99 132 169 215 269 325 382
#     4  12  20  46  64  92 132 170 214 260 322 386
#     4  12  25  41  66  99 132 169 215 269 325 382
#     4  11  22  41  70  92 130 178 214 261 327 389
#     4  11  21  40  68  97 126 170 221 267 323 380
#     4  11  21  40  68  97 126 170 221 267 323 380
#     4  11  22  41  70  92 130 178 214 261 327 389
#
# _framework density 21.329065
#
# number of rings (size 3 to 8) (size 9 to 14) (size 15 to 20)
#    0.000    0.571    8.571    0.000    0.000    2.857 
#    0.000    0.000    0.000    7.714    0.000    0.000 
#    0.000    0.000    0.000    0.000    0.000    0.000 
#
# Total GULP energy -347218.698026 kJ/mol
# GULP energy per Si atom -12400.667787 kJ/mol
# Density = 2.128052 g / cm^3
# Si number density = 21.329065 Si / 1000 Ang^3
#
#
#
# Elastic Constant Matrix: (Units=GPa)
#
#
# Indices 1 2 3 4 5 6 
#
# 1 57.1428 31.4682 15.1367 0.0000 -0.0001 0.0000
# 2 31.4682 108.4237 7.1954 0.0000 -0.0002 0.0000
# 3 15.1367 7.1954 94.4547 0.0000 -0.0001 0.0000
# 4 0.0000 0.0000 0.0000 9.1051 0.0000 0.0000
# 5 -0.0001 -0.0002 -0.0001 0.0000 39.5613 0.0000
# 6 0.0000 0.0000 0.0000 0.0000 0.0000 8.6511
#
#
#
# Elastic Compliance Matrix: (Units=1/GPa)
#
#
# Indices 1 2 3 4 5 6 
#
# 1 0.021646 -0.006083 -0.003005 0.000000 0.000000 0.000000
# 2 -0.006083 0.010979 0.000138 0.000000 0.000000 0.000000
# 3 -0.003005 0.000138 0.011058 0.000000 0.000000 0.000000
# 4 0.000000 0.000000 0.000000 0.109829 0.000000 0.000000
# 5 0.000000 0.000000 0.000000 0.000000 0.025277 0.000000
# 6 0.000000 0.000000 0.000000 0.000000 0.000000 0.115593
#
#
# Mechanical properties :
#
#
# Convention : Reuss Voigt Hill
#
# Bulk Modulus (GPa) = 38.78440 40.84687 39.81564
# Shear Modulus (GPa) = 15.58230 25.21153 20.39691
#
# Velocity S-wave (km/s) = 2.70583 3.44179 3.09576
# Velocity P-wave (km/s) = 5.29012 5.91498 5.61125
#
# Compressibility (1/GPa) = 0.02578356
#
# Stress axis : x y z
#
# Youngs Moduli (GPa) = 46.19799 91.07993 90.43079
#
# Poissons Ratio (x) = 0.55403 0.27179
# Poissons Ratio (y) = 0.28102 -0.01252
# Poissons Ratio (z) = 0.13885 -0.01261
#
# Static dielectric constant tensor:
#      x y z
#    x 3.889640 0.000000 0.000000 
#    y 0.000000 3.444670 0.000000 
#    z 0.000000 0.000000 4.282150 
# 
# 
# High freq. dielectric constant tensor:
#      x y z
#    x 1.836160 0.000000 0.000000 
#    y 0.000000 1.799980 0.000000 
#    z 0.000000 0.000000 1.860280 
# 
# From -- ./inp_files/205038.got.cif
#   From: 2010.06.25/outbox.cif.g09.slc.cpg/sg12_103_cif.got.tgz:205038.got - 2010.06.28 00:19:55.
