data_PCOD8114274
_publ_section_title
;
Structure prediction by ZEFSAII (Michael W. Deem and Ramdas Pophale) SiO2 
 PCOD8114274
Probable space group: C 2/M
;
_chemical_formula_sum "Si O2"
_cell_formula_units_Z 56
_cell_length_a 14.722269
_cell_length_b 27.572751
_cell_length_c 10.499146
_cell_angle_alpha 90.000000
_cell_angle_beta 135.760450
_cell_angle_gamma 90.000000
_cell_volume 2973.394435
_symmetry_space_group_name_H-M "C 2/M"
_symmetry_group_IT_number 12
_symmetry_cell_setting 'monoclinic'
loop_
_space_group_symop_operation_xyz
x,y,z
-x,y,-z
-x,-y,-z
x,-y,z
1/2+x,1/2+y,z
1/2-x,1/2+y,-z
1/2-x,1/2-y,-z
1/2+x,1/2-y,z
loop_
_atom_site_type_symbol
_atom_site_label
_atom_site_fract_x
_atom_site_fract_y
_atom_site_fract_z
Si Si1 0.379956 0.947732 0.698249
Si Si2 0.999957 0.192774 0.305240
Si Si3 0.751064 0.645948 0.523949
Si Si4 0.871676 0.249305 0.955708
Si Si5 0.165152 0.446526 0.047679
Si Si6 0.739155 0.345660 0.809720
Si Si7 0.626844 0.783678 0.551025
O O1 0.294067 0.908858 0.534604
O O2 0.357745 0.946583 0.825821
O O3 0.338577 0.000000 0.601061
O O4 0.533963 0.939551 0.834007
O O5 0.912039 0.168268 0.325710
O O6 0.097606 0.153665 0.337689
O O7 0.098404 0.231073 0.465600
O O8 0.900739 0.217378 0.108350
O O9 0.777016 0.653309 0.699667
O O10 0.843595 0.680962 0.536136
O O11 0.832895 0.303718 0.961670
O O12 0.752761 0.222149 0.766397
O O13 0.000000 0.251191 0.000000
O O14 0.227661 0.500000 0.074202
O O15 0.248252 0.397653 0.104642
O O16 0.500000 0.803028 0.500000
#
# Coordination Sequence:
#
# PCOD8114274 Si02
#       7
#     8   8   8   8   8   8   8
#     4   8  16  31  53  80 107 141 185 232 283 335
#     4  12  23  38  54  83 117 153 191 236 270 344
#     4  11  21  36  57  79 114 151 184 231 286 330
#     4  12  24  38  57  80 116 158 193 231 278 333
#     4   8  16  30  50  79 112 142 183 230 276 342
#     4  11  22  34  55  83 115 152 185 223 292 333
#     4  12  24  40  55  81 117 152 195 237 275 330
#
# _framework density 18.833694000000001
#
# number of rings (size 3 to 8) (size 9 to 14) (size 15 to 20)
#    0.000    1.429    4.286    3.000    6.000    0.000 
#    0.000    0.714    0.000    3.857    0.000    3.000 
#    0.000    0.000    0.000    0.000    0.000    0.000 
#
# Total GULP energy -346950.355723 kJ/mol
# GULP energy per Si atom -12391.084133 kJ/mol
# Density = 1.879083 g / cm^3
# Si number density = 18.833694 Si / 1000 Ang^3
#
#
#
# Elastic Constant Matrix: (Units=GPa)
#
#
# Indices 1 2 3 4 5 6 
#
# 1 88.9961 42.4924 21.8826 0.0000 21.9349 0.0000
# 2 42.4924 159.7394 54.7082 0.0000 13.0903 0.0000
# 3 21.8826 54.7082 89.2629 0.0000 14.9142 0.0000
# 4 0.0000 0.0000 0.0000 23.5300 0.0000 0.7834
# 5 21.9349 13.0903 14.9142 0.0000 23.9292 0.0000
# 6 0.0000 0.0000 0.0000 0.7834 0.0000 15.2327
#
#
#
# Elastic Compliance Matrix: (Units=1/GPa)
#
#
# Indices 1 2 3 4 5 6 
#
# 1 0.015929 -0.003264 0.000264 0.000000 -0.012981 0.000000
# 2 -0.003264 0.008638 -0.004693 0.000000 0.001192 0.000000
# 3 0.000264 -0.004693 0.015210 0.000000 -0.007155 0.000000
# 4 0.000000 0.000000 0.000000 0.042572 0.000000 -0.002189
# 5 -0.012981 0.001192 -0.007155 0.000000 0.057496 0.000000
# 6 0.000000 0.000000 0.000000 -0.002189 0.000000 0.065761
#
#
# Mechanical properties :
#
#
# Convention : Reuss Voigt Hill
#
# Bulk Modulus (GPa) = 40.99785 64.01832 52.50808
# Shear Modulus (GPa) = 21.82240 27.13275 24.47757
#
# Velocity S-wave (km/s) = 3.40765 3.79971 3.60900
# Velocity P-wave (km/s) = 6.10724 7.30175 6.73104
#
# Compressibility (1/GPa) = 0.02439152
#
# Stress axis : x y z
#
# Youngs Moduli (GPa) = 62.77711 115.76529 65.74697
#
# Poissons Ratio (x) = 0.37788 -0.01738
# Poissons Ratio (y) = 0.20492 0.30856
# Poissons Ratio (z) = -0.01660 0.54330
#
# Static dielectric constant tensor:
#      x y z
#    x 3.368890 0.000000 0.174750 
#    y 0.000000 4.018860 0.000000 
#    z 0.174750 0.000000 3.400590 
# 
# 
# High freq. dielectric constant tensor:
#      x y z
#    x 1.708000 0.000000 0.021260 
#    y 0.000000 1.729550 0.000000 
#    z 0.021260 0.000000 1.717330 
# 
# From -- ./inp_files/149486.got.cif
#   From: 2010.06.25/outbox.cif.g09.slc.cpg/sg12_75_cif.got.tgz:149486.got - 2010.06.28 00:19:55.
