data_PCOD8114970
_publ_section_title
;
Structure prediction by ZEFSAII (Michael W. Deem and Ramdas Pophale) SiO2 
 PCOD8114970
Probable space group: C 2/M
;
_chemical_formula_sum "Si O2"
_cell_formula_units_Z 40
_cell_length_a 7.574549
_cell_length_b 30.414597
_cell_length_c 11.004170
_cell_angle_alpha 90.000000
_cell_angle_beta 130.503446
_cell_angle_gamma 90.000000
_cell_volume 1927.610761
_symmetry_space_group_name_H-M "C 2/M"
_symmetry_group_IT_number 12
_symmetry_cell_setting 'monoclinic'
loop_
_space_group_symop_operation_xyz
x,y,z
-x,y,-z
-x,-y,-z
x,-y,z
1/2+x,1/2+y,z
1/2-x,1/2+y,-z
1/2-x,1/2-y,-z
1/2+x,1/2-y,z
loop_
_atom_site_type_symbol
_atom_site_label
_atom_site_fract_x
_atom_site_fract_y
_atom_site_fract_z
Si Si1 0.983408 0.224155 0.622190
Si Si2 0.660730 0.891295 0.681186
Si Si3 0.392281 0.550680 0.170316
Si Si4 0.514289 0.949758 0.196079
Si Si5 0.849827 0.199082 0.814612
O O1 0.185214 0.259552 0.727408
O O2 0.000000 0.197184 0.500000
O O3 0.750000 0.250000 0.500000
O O4 0.986738 0.194031 0.745648
O O5 0.500000 0.875599 0.500000
O O6 0.491548 0.920614 0.687206
O O7 0.726438 0.847372 0.784031
O O8 0.885959 0.918187 0.738725
O O9 0.474136 0.500000 0.217769
O O10 0.234748 0.564645 0.214476
O O11 0.232149 0.556588 0.980647
O O12 0.545563 0.000000 0.249051
O O13 0.000000 0.209477 0.000000
#
# Coordination Sequence:
#
# PCOD8114970 Si02
#       5
#     8   8   8   8   8
#     4   9  19  39  63  87 118 152 186 242 304 356
#     4  12  24  37  56  88 125 160 198 252 306 354
#     4   9  19  38  61  86 116 156 204 251 303 360
#     4   9  19  38  62  85 116 157 203 252 302 360
#     4  11  22  40  63  89 119 157 205 243 292 368
#
# _framework density 20.751076999999999
#
# number of rings (size 3 to 8) (size 9 to 14) (size 15 to 20)
#    0.000    2.000    0.000    6.000    0.000    4.000 
#   10.800    2.000    0.000    0.000    0.000    0.000 
#    0.000    0.000    0.000    0.000    0.000    0.000 
#
# Total GULP energy -247855.852105 kJ/mol
# GULP energy per Si atom -12392.792605 kJ/mol
# Density = 2.070385 g / cm^3
# Si number density = 20.751077 Si / 1000 Ang^3
#
#
#
# Elastic Constant Matrix: (Units=GPa)
#
#
# Indices 1 2 3 4 5 6 
#
# 1 62.7769 10.5157 28.0669 0.0000 -27.5659 0.0000
# 2 10.5157 57.4021 17.4963 0.0000 -7.5702 0.0000
# 3 28.0669 17.4963 109.3161 0.0000 -18.2227 0.0000
# 4 0.0000 0.0000 0.0000 18.7556 0.0000 -6.7305
# 5 -27.5659 -7.5702 -18.2227 0.0000 38.1972 0.0000
# 6 0.0000 0.0000 0.0000 -6.7305 0.0000 12.9368
#
#
#
# Elastic Compliance Matrix: (Units=1/GPa)
#
#
# Indices 1 2 3 4 5 6 
#
# 1 0.024688 -0.001369 -0.003471 0.000000 0.015889 0.000000
# 2 -0.001369 0.018599 -0.002364 0.000000 0.001570 0.000000
# 3 -0.003471 -0.002364 0.010779 0.000000 0.002169 0.000000
# 4 0.000000 0.000000 0.000000 0.065557 0.000000 0.034107
# 5 0.015889 0.001570 0.002169 0.000000 0.038993 0.000000
# 6 0.000000 0.000000 0.000000 0.034107 0.000000 0.095044
#
#
# Mechanical properties :
#
#
# Convention : Reuss Voigt Hill
#
# Bulk Modulus (GPa) = 25.21513 37.96144 31.58828
# Shear Modulus (GPa) = 17.77554 25.53899 21.65727
#
# Velocity S-wave (km/s) = 2.92996 3.51198 3.23409
# Velocity P-wave (km/s) = 4.86044 5.89736 5.40383
#
# Compressibility (1/GPa) = 0.03965874
#
# Stress axis : x y z
#
# Youngs Moduli (GPa) = 40.50608 53.76542 92.77519
#
# Poissons Ratio (x) = 0.07362 0.32199
# Poissons Ratio (y) = 0.05546 0.21928
# Poissons Ratio (z) = 0.14058 0.12708
#
# Static dielectric constant tensor:
#      x y z
#    x 4.299610 0.000000 -0.342960 
#    y 0.000000 3.497960 0.000000 
#    z -0.342960 0.000000 3.730220 
# 
# 
# High freq. dielectric constant tensor:
#      x y z
#    x 1.823430 0.000000 -0.007870 
#    y 0.000000 1.794710 0.000000 
#    z -0.007870 0.000000 1.814260 
# 
# From -- ./inp_files/125463.got.cif
#   From: 2010.06.25/outbox.cif.g09.slc.cpg/sg12_63_cif.got.tgz:125463.got - 2010.06.28 00:19:55.
