data_PCOD8114749
_publ_section_title
;
Structure prediction by ZEFSAII (Michael W. Deem and Ramdas Pophale) SiO2 
 PCOD8114749
Probable space group: C 2/M
;
_chemical_formula_sum "Si O2"
_cell_formula_units_Z 48
_cell_length_a 14.124071
_cell_length_b 8.660947
_cell_length_c 30.066621
_cell_angle_alpha 90.000000
_cell_angle_beta 44.763444
_cell_angle_gamma 90.000000
_cell_volume 2589.968079
_symmetry_space_group_name_H-M "C 2/M"
_symmetry_group_IT_number 12
_symmetry_cell_setting 'monoclinic'
loop_
_space_group_symop_operation_xyz
x,y,z
-x,y,-z
-x,-y,-z
x,-y,z
1/2+x,1/2+y,z
1/2-x,1/2+y,-z
1/2-x,1/2-y,-z
1/2+x,1/2-y,z
loop_
_atom_site_type_symbol
_atom_site_label
_atom_site_fract_x
_atom_site_fract_y
_atom_site_fract_z
Si Si1 0.347707 0.818731 0.670469
Si Si2 0.162870 0.678111 0.227086
Si Si3 0.849825 0.676282 0.332516
Si Si4 0.856029 0.682165 0.430943
Si Si5 0.357013 0.818611 0.092901
Si Si6 0.142347 0.183518 0.002262
O O1 0.306246 0.759590 0.733406
O O2 0.235910 0.779553 0.672031
O O3 0.494567 0.752797 0.607509
O O4 0.364878 0.000000 0.669389
O O5 0.207191 0.500000 0.206241
O O6 0.243328 0.786853 0.166988
O O7 0.005684 0.697413 0.268988
O O8 0.805449 0.500000 0.340718
O O9 0.818769 0.731174 0.393061
O O10 0.852934 0.500000 0.436427
O O11 0.750000 0.750000 0.500000
O O12 0.316105 0.733379 0.061137
O O13 0.369301 0.000000 0.079759
O O14 0.498286 0.753616 0.063590
O O15 0.136350 0.000000 0.007472
O O16 0.250000 0.250000 0.000000
#
# Coordination Sequence:
#
# PCOD8114749 Si02
#       6
#     8   8   8   8   8   8
#     4   9  19  35  54  75 103 136 174 216 262 311
#     4   9  19  37  55  74 105 143 176 215 264 314
#     4   9  19  35  54  75 103 136 174 216 262 311
#     4   9  19  35  52  74 103 137 171 211 260 312
#     4  11  22  37  57  84 113 143 180 221 267 322
#     4  11  22  39  60  82 110 145 182 223 268 316
#
# _framework density 18.533045999999999
#
# number of rings (size 3 to 8) (size 9 to 14) (size 15 to 20)
#    0.000    2.333    0.000    6.000    0.000    4.667 
#    0.000   10.000    0.000    0.000    0.000    0.000 
#    0.000    0.000    0.000    0.000    0.000    0.000 
#
# Total GULP energy -297590.363269 kJ/mol
# GULP energy per Si atom -12399.598470 kJ/mol
# Density = 1.849086 g / cm^3
# Si number density = 18.533046 Si / 1000 Ang^3
#
#
#
# Elastic Constant Matrix: (Units=GPa)
#
#
# Indices 1 2 3 4 5 6 
#
# 1 118.1828 15.7602 42.5358 0.0001 -0.8788 0.0004
# 2 15.7602 57.5286 22.4944 0.0004 -4.2925 0.0008
# 3 42.5358 22.4944 130.4085 -0.0001 2.3911 -0.0001
# 4 0.0001 0.0004 -0.0001 31.6029 0.0001 -0.2586
# 5 -0.8788 -4.2925 2.3911 0.0001 12.7081 0.0002
# 6 0.0004 0.0008 -0.0001 -0.2586 0.0002 34.1336
#
#
#
# Elastic Compliance Matrix: (Units=1/GPa)
#
#
# Indices 1 2 3 4 5 6 
#
# 1 0.009717 -0.001462 -0.002931 0.000000 0.000730 0.000000
# 2 -0.001462 0.019487 -0.003014 0.000000 0.007048 0.000000
# 3 -0.002931 -0.003014 0.009198 0.000000 -0.002951 0.000000
# 4 0.000000 0.000000 0.000000 0.031645 0.000000 0.000240
# 5 0.000730 0.007048 -0.002951 0.000000 0.081677 -0.000001
# 6 0.000000 0.000000 0.000000 0.000240 -0.000001 0.029298
#
#
# Mechanical properties :
#
#
# Convention : Reuss Voigt Hill
#
# Bulk Modulus (GPa) = 42.39086 51.96675 47.17880
# Shear Modulus (GPa) = 24.54622 30.71087 27.62855
#
# Velocity S-wave (km/s) = 3.64326 4.07515 3.86524
# Velocity P-wave (km/s) = 6.37342 7.08826 6.74032
#
# Compressibility (1/GPa) = 0.02358999
#
# Stress axis : x y z
#
# Youngs Moduli (GPa) = 102.91713 51.31499 108.71836
#
# Poissons Ratio (x) = 0.07500 0.31861
# Poissons Ratio (y) = 0.15042 0.32767
# Poissons Ratio (z) = 0.30160 0.15466
#
# Static dielectric constant tensor:
#      x y z
#    x 3.158440 0.000000 0.802670 
#    y 0.000000 3.317650 0.000000 
#    z 0.802670 0.000000 0.725370 
# 
# 
# High freq. dielectric constant tensor:
#      x y z
#    x 1.722390 0.000000 0.000580 
#    y 0.000000 1.715280 0.000000 
#    z 0.000580 0.000000 1.724590 
# 
# From -- ./inp_files/374904.got.cif
#   From: 2010.06.25/outbox.cif.g09.slc.cpg/sg12_188_cif.got.tgz:374904.got - 2010.06.28 00:19:55.
