data_PCOD8114178
_publ_section_title
;
Structure prediction by ZEFSAII (Michael W. Deem and Ramdas Pophale) SiO2 
 PCOD8114178
Probable space group: C 2/M
;
_chemical_formula_sum "Si O2"
_cell_formula_units_Z 56
_cell_length_a 19.125857
_cell_length_b 8.739268
_cell_length_c 20.764947
_cell_angle_alpha 90.000000
_cell_angle_beta 58.763754
_cell_angle_gamma 90.000000
_cell_volume 2967.641132
_symmetry_space_group_name_H-M "C 2/M"
_symmetry_group_IT_number 12
_symmetry_cell_setting 'monoclinic'
loop_
_space_group_symop_operation_xyz
x,y,z
-x,y,-z
-x,-y,-z
x,-y,z
1/2+x,1/2+y,z
1/2-x,1/2+y,-z
1/2-x,1/2-y,-z
1/2+x,1/2-y,z
loop_
_atom_site_type_symbol
_atom_site_label
_atom_site_fract_x
_atom_site_fract_y
_atom_site_fract_z
Si Si1 0.210557 0.678485 0.792086
Si Si2 0.492724 0.180397 0.429536
Si Si3 0.467776 0.168213 0.818297
Si Si4 0.836066 0.176411 0.445786
Si Si5 0.389101 0.319090 0.734833
Si Si6 0.035398 0.316774 0.916134
Si Si7 0.849536 0.333545 0.313571
O O1 0.209109 0.500000 0.807957
O O2 0.296137 0.746820 0.777567
O O3 0.128127 0.750278 0.863332
O O4 0.211548 0.709862 0.714999
O O5 0.500000 0.235804 0.500000
O O6 0.402428 0.228762 0.452976
O O7 0.558977 0.252539 0.349491
O O8 0.502849 0.000000 0.418689
O O9 0.423825 0.278481 0.788599
O O10 0.472400 0.236489 0.889099
O O11 0.561342 0.145759 0.756566
O O12 0.425141 0.000000 0.836781
O O13 0.750000 0.250000 0.500000
O O14 0.850586 0.194983 0.362992
O O15 0.840501 0.000000 0.463464
O O16 0.391272 0.500000 0.725261
O O17 0.038435 0.500000 0.913352
O O18 0.000000 0.252945 0.000000
O O19 0.823416 0.500000 0.356185
#
# Coordination Sequence:
#
# PCOD8114178 Si02
#       7
#     8   8   8   8   8   8   8
#     4   8  17  31  50  79 109 142 184 226 270 320
#     4  11  25  43  59  79 110 146 187 238 289 333
#     4   9  17  31  54  79 106 140 181 227 273 323
#     4  12  25  39  57  81 109 142 185 230 280 335
#     4  11  21  34  54  80 112 147 184 227 278 339
#     4   8  14  29  55  83 109 142 187 231 268 319
#     4   9  17  34  55  74 101 140 183 230 274 318
#
# _framework density 18.870206
#
# number of rings (size 3 to 8) (size 9 to 14) (size 15 to 20)
#    0.000    2.286    1.429    3.857    2.000    1.143 
#    0.000    1.429    0.000    2.143    0.000    0.000 
#    0.000    0.000    0.000    0.000    0.000    0.000 
#
# Total GULP energy -346933.331611 kJ/mol
# GULP energy per Si atom -12390.476129 kJ/mol
# Density = 1.882726 g / cm^3
# Si number density = 18.870206 Si / 1000 Ang^3
#
#
#
# Elastic Constant Matrix: (Units=GPa)
#
#
# Indices 1 2 3 4 5 6 
#
# 1 140.6670 22.8085 65.5200 -0.0004 12.4625 -0.0005
# 2 22.8085 42.2659 27.0541 -0.0009 4.6254 -0.0016
# 3 65.5200 27.0541 124.2586 -0.0001 19.8075 -0.0003
# 4 -0.0004 -0.0009 -0.0001 9.1163 0.0000 -8.7009
# 5 12.4625 4.6254 19.8075 0.0000 25.2763 -0.0003
# 6 -0.0005 -0.0016 -0.0003 -8.7009 -0.0003 5.4176
#
#
#
# Elastic Compliance Matrix: (Units=1/GPa)
#
#
# Indices 1 2 3 4 5 6 
#
# 1 0.009621 -0.002252 -0.004448 0.000000 -0.000846 0.000000
# 2 -0.002252 0.028022 -0.004883 -0.000019 -0.000191 -0.000023
# 3 -0.004448 -0.004883 0.012529 0.000004 -0.006732 0.000004
# 4 0.000000 -0.000019 0.000004 -0.205860 -0.000002 -0.330619
# 5 -0.000846 -0.000191 -0.006732 -0.000002 0.045290 -0.000002
# 6 0.000000 -0.000023 0.000004 -0.330619 -0.000002 -0.346402
#
#
# Mechanical properties :
#
#
# Convention : Reuss Voigt Hill
#
# Bulk Modulus (GPa) = 37.02924 59.77295 48.40109
# Shear Modulus (GPa) = -11.77488 20.74930 4.48721
#
# Velocity S-wave (km/s) = -2.50070 3.31959 1.54373
# Velocity P-wave (km/s) = 3.36567 6.81451 5.37426
#
# Compressibility (1/GPa) = 0.02700569
#
# Stress axis : x y z
#
# Youngs Moduli (GPa) = 103.94158 35.68681 79.81367
#
# Poissons Ratio (x) = 0.08038 0.35499
# Poissons Ratio (y) = 0.23410 0.38973
# Poissons Ratio (z) = 0.46230 0.17426
#
# Static dielectric constant tensor:
#      x y z
#    x 3.698450 0.000000 0.052270 
#    y 0.000000 3.142500 0.000000 
#    z 0.052270 0.000000 3.490420 
# 
# 
# High freq. dielectric constant tensor:
#      x y z
#    x 1.740020 0.000000 0.010700 
#    y 0.000000 1.703350 0.000000 
#    z 0.010700 0.000000 1.727270 
# 
# From -- ./inp_files/275279.got.cif
#   From: 2010.06.25/outbox.cif.g09.slc.cpg/sg12_138_cif.got.tgz:275279.got - 2010.06.28 00:19:55.
