data_PCOD8114172
_publ_section_title
;
Structure prediction by ZEFSAII (Michael W. Deem and Ramdas Pophale) SiO2 
 PCOD8114172
Probable space group: C 2/M
;
_chemical_formula_sum "Si O2"
_cell_formula_units_Z 56
_cell_length_a 19.155020
_cell_length_b 8.908959
_cell_length_c 21.963696
_cell_angle_alpha 90.000000
_cell_angle_beta 56.325693
_cell_angle_gamma 90.000000
_cell_volume 3119.206956
_symmetry_space_group_name_H-M "C 2/M"
_symmetry_group_IT_number 12
_symmetry_cell_setting 'monoclinic'
loop_
_space_group_symop_operation_xyz
x,y,z
-x,y,-z
-x,-y,-z
x,-y,z
1/2+x,1/2+y,z
1/2-x,1/2+y,-z
1/2-x,1/2-y,-z
1/2+x,1/2-y,z
loop_
_atom_site_type_symbol
_atom_site_label
_atom_site_fract_x
_atom_site_fract_y
_atom_site_fract_z
Si Si1 0.045256 0.822985 0.691756
Si Si2 0.757258 0.324055 0.061671
Si Si3 0.365306 0.828620 0.560195
Si Si4 0.423529 0.678380 0.993892
Si Si5 0.573056 0.324484 0.145785
Si Si6 0.008902 0.328612 0.396478
Si Si7 0.219037 0.675740 0.576859
O O1 0.131428 0.735728 0.643408
O O2 0.999367 0.762041 0.774879
O O3 0.986455 0.782516 0.662864
O O4 0.061247 0.000000 0.685883
O O5 0.775706 0.500000 0.047424
O O6 0.663950 0.292686 0.133953
O O7 0.750000 0.250000 0.000000
O O8 0.834584 0.247283 0.061084
O O9 0.418970 0.813062 0.472533
O O10 0.418855 0.778496 0.592311
O O11 0.286649 0.717169 0.595880
O O12 0.334643 0.000000 0.582019
O O13 0.415355 0.500000 0.000109
O O14 0.437325 0.740472 0.918038
O O15 0.500000 0.733257 0.000000
O O16 0.560601 0.500000 0.145135
O O17 0.021972 0.500000 0.368953
O O18 0.212458 0.500000 0.569614
O O19 0.250000 0.750000 0.500000
#
# Coordination Sequence:
#
# PCOD8114172 Si02
#       7
#     8   8   8   8   8   8   8
#     4  11  21  34  53  75 104 141 174 211 263 316
#     4   9  16  30  52  76 103 134 170 210 249 299
#     4   9  18  34  54  74  98 127 163 214 265 305
#     4   9  17  32  55  81 108 139 176 214 251 300
#     4   8  17  33  51  74 105 139 173 212 260 308
#     4   9  18  33  53  75  99 127 164 212 260 306
#     4  12  23  35  52  76 103 134 176 221 262 311
#
# _framework density 17.953281
#
# number of rings (size 3 to 8) (size 9 to 14) (size 15 to 20)
#    0.000    2.429    1.429    3.857    0.000    0.857 
#    0.000   10.000    0.000    5.143    0.000    0.000 
#    0.000    0.000    0.000    0.000    0.000    0.000 
#
# Total GULP energy -347004.908432 kJ/mol
# GULP energy per Si atom -12393.032444 kJ/mol
# Density = 1.791242 g / cm^3
# Si number density = 17.953281 Si / 1000 Ang^3
#
#
#
# Elastic Constant Matrix: (Units=GPa)
#
#
# Indices 1 2 3 4 5 6 
#
# 1 127.9974 43.6037 58.7264 0.0000 -16.7887 -0.0001
# 2 43.6037 77.5439 39.1406 0.0000 -10.6842 -0.0006
# 3 58.7264 39.1406 105.7147 0.0000 -13.8734 0.0000
# 4 0.0000 0.0000 0.0000 21.0602 0.0000 -4.2736
# 5 -16.7887 -10.6842 -13.8734 0.0000 24.9531 0.0000
# 6 -0.0001 -0.0006 0.0000 -4.2736 0.0000 32.8340
#
#
#
# Elastic Compliance Matrix: (Units=1/GPa)
#
#
# Indices 1 2 3 4 5 6 
#
# 1 0.011692 -0.003728 -0.004629 0.000000 0.003696 0.000000
# 2 -0.003728 0.017391 -0.004012 0.000000 0.002707 0.000000
# 3 -0.004629 -0.004012 0.013896 0.000000 0.002893 0.000000
# 4 0.000000 0.000000 0.000000 0.048771 0.000000 0.006348
# 5 0.003696 0.002707 0.002893 0.000000 0.045330 0.000000
# 6 0.000000 0.000000 0.000000 0.006348 0.000000 0.031282
#
#
# Mechanical properties :
#
#
# Convention : Reuss Voigt Hill
#
# Bulk Modulus (GPa) = 54.82976 66.02194 60.42585
# Shear Modulus (GPa) = 25.10273 27.08849 26.09561
#
# Velocity S-wave (km/s) = 3.74334 3.88858 3.81665
# Velocity P-wave (km/s) = 7.02069 7.55087 7.29060
#
# Compressibility (1/GPa) = 0.01823827
#
# Stress axis : x y z
#
# Youngs Moduli (GPa) = 85.53187 57.50216 71.96073
#
# Poissons Ratio (x) = 0.21439 0.33314
# Poissons Ratio (y) = 0.31889 0.28874
# Poissons Ratio (z) = 0.39596 0.23073
#
# Static dielectric constant tensor:
#      x y z
#    x 3.655590 0.000000 -0.197020 
#    y 0.000000 3.243600 0.000000 
#    z -0.197020 0.000000 3.429780 
# 
# 
# High freq. dielectric constant tensor:
#      x y z
#    x 1.702570 0.000000 -0.015460 
#    y 0.000000 1.684040 0.000000 
#    z -0.015460 0.000000 1.669570 
# 
# From -- ./inp_files/342242.got.cif
#   From: 2010.06.25/outbox.cif.g09.slc.cpg/sg12_172_cif.got.tgz:342242.got - 2010.06.28 00:19:55.
