data_PCOD8114586
_publ_section_title
;
Structure prediction by ZEFSAII (Michael W. Deem and Ramdas Pophale) SiO2 
 PCOD8114586
Probable space group: C 2/M
;
_chemical_formula_sum "Si O2"
_cell_formula_units_Z 56
_cell_length_a 27.858096
_cell_length_b 9.101240
_cell_length_c 17.781158
_cell_angle_alpha 90.000000
_cell_angle_beta 43.494510
_cell_angle_gamma 90.000000
_cell_volume 3102.990075
_symmetry_space_group_name_H-M "C 2/M"
_symmetry_group_IT_number 12
_symmetry_cell_setting 'monoclinic'
loop_
_space_group_symop_operation_xyz
x,y,z
-x,y,-z
-x,-y,-z
x,-y,z
1/2+x,1/2+y,z
1/2-x,1/2+y,-z
1/2-x,1/2-y,-z
1/2+x,1/2-y,z
loop_
_atom_site_type_symbol
_atom_site_label
_atom_site_fract_x
_atom_site_fract_y
_atom_site_fract_z
Si Si1 0.574580 0.174840 0.886936
Si Si2 0.449958 0.825591 0.248656
Si Si3 0.843165 0.174070 0.662089
Si Si4 0.189154 0.674989 0.871921
Si Si5 0.076034 0.668954 0.301648
Si Si6 0.601997 0.825585 0.108231
Si Si7 0.085467 0.330867 0.549839
O O1 0.587018 0.227260 0.786374
O O2 0.636928 0.238111 0.867420
O O3 0.574042 0.000000 0.892804
O O4 0.500000 0.235596 0.000000
O O5 0.528532 0.761022 0.161828
O O6 0.407485 0.776183 0.371369
O O7 0.455882 0.000000 0.243930
O O8 0.766519 0.235613 0.769701
O O9 0.898277 0.230721 0.660025
O O10 0.862833 0.231544 0.557371
O O11 0.844881 0.000000 0.659435
O O12 0.188825 0.500000 0.869453
O O13 0.163464 0.731022 0.983403
O O14 0.094066 0.500000 0.299478
O O15 0.114146 0.721938 0.181135
O O16 0.993575 0.689895 0.387723
O O17 0.597376 0.000000 0.110876
O O18 0.108022 0.500000 0.515538
#
# Coordination Sequence:
#
# PCOD8114586 Si02
#       7
#     8   8   8   8   8   8   8
#     4   9  13  21  43  71  96 119 146 185 234 279
#     4   8  13  23  44  72  92 112 149 196 236 267
#     4  11  22  32  43  65  99 132 156 184 228 279
#     4   9  17  27  40  65 101 128 146 181 234 283
#     4   9  18  32  52  71  87 116 160 202 234 266
#     4   8  13  25  44  67  92 116 147 191 238 275
#     4   9  18  33  51  69  91 119 158 201 231 261
#
# _framework density 18.047108999999999
#
# number of rings (size 3 to 8) (size 9 to 14) (size 15 to 20)
#    0.000    3.000    1.429    2.571    0.000    2.857 
#    0.000    0.714    0.000    0.857    0.000    1.000 
#    0.000    2.857    0.000    0.000    0.000    0.000 
#
# Total GULP energy -347005.376125 kJ/mol
# GULP energy per Si atom -12393.049147 kJ/mol
# Density = 1.800603 g / cm^3
# Si number density = 18.047109 Si / 1000 Ang^3
#
#
#
# Elastic Constant Matrix: (Units=GPa)
#
#
# Indices 1 2 3 4 5 6 
#
# 1 44.8643 11.5385 31.4212 -0.0142 16.6807 0.0088
# 2 11.5385 26.9751 25.3603 0.0023 1.8188 0.0160
# 3 31.4212 25.3603 136.3304 -0.0108 21.1377 0.0089
# 4 -0.0142 0.0023 -0.0108 17.5490 0.0017 -1.6619
# 5 16.6807 1.8188 21.1377 0.0017 29.1001 -0.0037
# 6 0.0088 0.0160 0.0089 -1.6619 -0.0037 7.6187
#
#
#
# Elastic Compliance Matrix: (Units=1/GPa)
#
#
# Indices 1 2 3 4 5 6 
#
# 1 0.033098 -0.009981 -0.003298 0.000026 -0.015953 -0.000015
# 2 -0.009981 0.048290 -0.008003 -0.000028 0.008516 -0.000083
# 3 -0.003298 -0.008003 0.010383 0.000006 -0.005151 0.000007
# 4 0.000026 -0.000028 0.000006 0.058185 -0.000019 0.012692
# 5 -0.015953 0.008516 -0.005151 -0.000019 0.046718 0.000025
# 6 -0.000015 -0.000083 0.000007 0.012692 0.000025 0.134025
#
#
# Mechanical properties :
#
#
# Convention : Reuss Voigt Hill
#
# Bulk Modulus (GPa) = 20.32264 38.31219 29.31741
# Shear Modulus (GPa) = 12.83155 20.17689 16.50422
#
# Velocity S-wave (km/s) = 2.66936 3.34730 3.02736
# Velocity P-wave (km/s) = 4.55916 6.01783 5.33855
#
# Compressibility (1/GPa) = 0.04920622
#
# Stress axis : x y z
#
# Youngs Moduli (GPa) = 30.21375 20.70803 96.31439
#
# Poissons Ratio (x) = 0.20669 0.31766
# Poissons Ratio (y) = 0.30156 0.77081
# Poissons Ratio (z) = 0.09965 0.16573
#
# Static dielectric constant tensor:
#      x y z
#    x 3.430030 -0.000010 0.242890 
#    y -0.000010 2.710880 0.000010 
#    z 0.242890 0.000010 3.695130 
# 
# 
# High freq. dielectric constant tensor:
#      x y z
#    x 1.692570 0.000000 0.021160 
#    y 0.000000 1.632220 0.000000 
#    z 0.021160 0.000000 1.708780 
# 
# From -- ./inp_files/295050.got.cif
#   From: 2010.06.25/outbox.cif.g09.slc.cpg/sg12_148_cif.got.tgz:295050.got - 2010.06.28 00:19:55.
