data_PCOD8114584
_publ_section_title
;
Structure prediction by ZEFSAII (Michael W. Deem and Ramdas Pophale) SiO2 
 PCOD8114584
Probable space group: C 2/M
;
_chemical_formula_sum "Si O2"
_cell_formula_units_Z 48
_cell_length_a 31.344163
_cell_length_b 18.867261
_cell_length_c 9.102596
_cell_angle_alpha 90.000000
_cell_angle_beta 150.601212
_cell_angle_gamma 90.000000
_cell_volume 2642.474779
_symmetry_space_group_name_H-M "C 2/M"
_symmetry_group_IT_number 12
_symmetry_cell_setting 'monoclinic'
loop_
_space_group_symop_operation_xyz
x,y,z
-x,y,-z
-x,-y,-z
x,-y,z
1/2+x,1/2+y,z
1/2-x,1/2+y,-z
1/2-x,1/2-y,-z
1/2+x,1/2-y,z
loop_
_atom_site_type_symbol
_atom_site_label
_atom_site_fract_x
_atom_site_fract_y
_atom_site_fract_z
Si Si1 0.844677 0.921361 0.708528
Si Si2 0.500000 0.674197 0.175171
Si Si3 0.649693 0.917148 0.118350
Si Si4 0.500000 0.834668 0.825996
Si Si5 0.655324 0.421361 0.640469
Si Si6 0.850307 0.582852 0.220189
O O1 0.747532 0.898345 0.463507
O O2 0.849263 0.924440 0.547788
O O3 0.865920 0.000000 0.834130
O O4 0.914408 0.865574 0.980717
O O5 0.500000 0.754228 0.233533
O O6 0.585592 0.634425 0.494271
O O7 0.500000 0.672170 0.000000
O O8 0.630799 0.000000 0.084036
O O9 0.586064 0.872627 0.028252
O O10 0.634539 0.896184 0.903617
O O11 0.413936 0.872627 0.511868
O O12 0.500000 0.837046 0.000000
O O13 0.634081 0.500000 0.638613
O O14 0.752469 0.398345 0.978318
O O15 0.869201 0.500000 0.299241
#
# Coordination Sequence:
#
# PCOD8114584 Si02
#       6
#     8   8   8   8   8   8
#     4   8  14  27  49  72  91 117 155 196 235 272
#     4   9  17  28  43  69 102 125 146 186 236 283
#     4   9  18  33  52  71  90 118 160 202 232 265
#     4  11  22  31  43  69 102 131 154 182 230 285
#     4   8  14  27  49  72  91 117 155 196 235 272
#     4   9  18  33  52  71  90 118 160 202 232 265
#
# _framework density 18.16479
#
# number of rings (size 3 to 8) (size 9 to 14) (size 15 to 20)
#    0.000    3.000    0.000    3.500    0.000    6.000 
#    0.000    0.000    0.000    2.000    0.000    0.000 
#    0.000   10.667    0.000    0.000    0.000    0.000 
#
# Total GULP energy -297519.061285 kJ/mol
# GULP energy per Si atom -12396.627554 kJ/mol
# Density = 1.812345 g / cm^3
# Si number density = 18.164790 Si / 1000 Ang^3
#
#
#
# Elastic Constant Matrix: (Units=GPa)
#
#
# Indices 1 2 3 4 5 6 
#
# 1 51.8347 50.9930 49.7706 0.0000 18.6718 0.0000
# 2 50.9930 125.2806 85.6628 0.0000 25.8324 0.0000
# 3 49.7706 85.6628 125.7822 0.0000 36.4258 0.0000
# 4 0.0000 0.0000 0.0000 -15.4997 0.0000 -18.2338
# 5 18.6718 25.8324 36.4258 0.0000 26.7903 0.0000
# 6 0.0000 0.0000 0.0000 -18.2338 0.0000 8.9737
#
#
#
# Elastic Compliance Matrix: (Units=1/GPa)
#
#
# Indices 1 2 3 4 5 6 
#
# 1 0.037328 -0.009393 -0.005710 0.000000 -0.009194 0.000000
# 2 -0.009393 0.017317 -0.008473 0.000000 0.001370 0.000000
# 3 -0.005710 -0.008473 0.020556 0.000000 -0.015798 0.000000
# 4 0.000000 0.000000 0.000000 -0.019030 0.000000 -0.038667
# 5 -0.009194 0.001370 -0.015798 0.000000 0.063894 0.000000
# 6 0.000000 0.000000 0.000000 -0.038667 0.000000 0.032869
#
#
# Mechanical properties :
#
#
# Convention : Reuss Voigt Hill
#
# Bulk Modulus (GPa) = 35.65543 75.08337 55.36940
# Shear Modulus (GPa) = 23.87365 11.81761 17.84563
#
# Velocity S-wave (km/s) = 3.62924 2.55341 3.13777
# Velocity P-wave (km/s) = 6.10191 7.07937 6.60874
#
# Compressibility (1/GPa) = 0.02804622
#
# Stress axis : x y z
#
# Youngs Moduli (GPa) = 26.78985 57.74780 48.64836
#
# Poissons Ratio (x) = 0.54243 0.27780
# Poissons Ratio (y) = 0.25164 0.41222
# Poissons Ratio (z) = 0.15298 0.48932
#
# Static dielectric constant tensor:
#      x y z
#    x 2.985750 0.000000 0.356370 
#    y 0.000000 3.515920 0.000000 
#    z 0.356370 0.000000 3.464040 
# 
# 
# High freq. dielectric constant tensor:
#      x y z
#    x 1.663580 0.000000 0.031550 
#    y 0.000000 1.703410 0.000000 
#    z 0.031550 0.000000 1.705930 
# 
# From -- ./inp_files/75068.got.cif
#   From: 2010.06.25/outbox.cif.g09.slc.cpg/sg12_38_cif.got.tgz:75068.got - 2010.06.28 00:19:55.
