data_PCOD8114953
_publ_section_title
;
Structure prediction by ZEFSAII (Michael W. Deem and Ramdas Pophale) SiO2 
 PCOD8114953
Probable space group: C 2/M
;
_chemical_formula_sum "Si O2"
_cell_formula_units_Z 40
_cell_length_a 11.210881
_cell_length_b 15.217636
_cell_length_c 10.009851
_cell_angle_alpha 90.000000
_cell_angle_beta 87.711720
_cell_angle_gamma 90.000000
_cell_volume 1706.349916
_symmetry_space_group_name_H-M "C 2/M"
_symmetry_group_IT_number 12
_symmetry_cell_setting 'monoclinic'
loop_
_space_group_symop_operation_xyz
x,y,z
-x,y,-z
-x,-y,-z
x,-y,z
1/2+x,1/2+y,z
1/2-x,1/2+y,-z
1/2-x,1/2-y,-z
1/2+x,1/2-y,z
loop_
_atom_site_type_symbol
_atom_site_label
_atom_site_fract_x
_atom_site_fract_y
_atom_site_fract_z
Si Si1 0.868615 0.604664 0.974411
Si Si2 0.259495 0.898705 0.702246
Si Si3 0.884895 0.647598 0.444196
Si Si4 0.018813 0.164935 0.644911
Si Si5 0.284914 0.599039 0.774958
O O1 0.871670 0.500000 0.982297
O O2 0.826367 0.636579 0.830862
O O3 0.773967 0.638904 0.088437
O O4 0.000000 0.643433 0.000000
O O5 0.296127 0.837646 0.574300
O O6 0.116954 0.888636 0.725423
O O7 0.292253 0.000000 0.673012
O O8 0.935712 0.736324 0.377389
O O9 0.817317 0.593706 0.333795
O O10 0.000000 0.595265 0.500000
O O11 0.000000 0.120139 0.500000
O O12 0.894209 0.162180 0.730657
O O13 0.332676 0.500000 0.794415
#
# Coordination Sequence:
#
# PCOD8114953 Si02
#       5
#     8   8   8   8   8
#     4   9  20  40  65  98 135 165 211 282 333 375
#     4  11  22  39  67  97 127 173 226 270 323 392
#     4  11  24  39  65  91 133 173 218 267 330 384
#     4  11  24  40  64  93 141 173 211 272 336 378
#     4  11  23  42  70  98 129 174 222 270 326 387
#
# _framework density 23.441849999999999
#
# number of rings (size 3 to 8) (size 9 to 14) (size 15 to 20)
#    0.000    1.400    2.000    3.000    2.800    4.800 
#    0.000    4.000    8.800    0.000    0.000    0.000 
#    0.000    0.000    0.000    0.000    0.000    0.000 
#
# Total GULP energy -247976.174819 kJ/mol
# GULP energy per Si atom -12398.808741 kJ/mol
# Density = 2.338850 g / cm^3
# Si number density = 23.441850 Si / 1000 Ang^3
#
#
#
# Elastic Constant Matrix: (Units=GPa)
#
#
# Indices 1 2 3 4 5 6 
#
# 1 139.8488 38.3010 47.4771 0.0000 -4.5177 0.0000
# 2 38.3010 59.8143 39.4565 0.0000 -12.0440 0.0000
# 3 47.4771 39.4565 146.2689 0.0000 -11.1288 0.0000
# 4 0.0000 0.0000 0.0000 18.4521 0.0000 -6.6165
# 5 -4.5177 -12.0440 -11.1288 0.0000 55.1186 0.0000
# 6 0.0000 0.0000 0.0000 -6.6165 0.0000 26.1327
#
#
#
# Elastic Compliance Matrix: (Units=1/GPa)
#
#
# Indices 1 2 3 4 5 6 
#
# 1 0.009013 -0.004792 -0.001682 0.000000 -0.000648 0.000000
# 2 -0.004792 0.023528 -0.004499 0.000000 0.003840 0.000000
# 3 -0.001682 -0.004499 0.008644 0.000000 0.000624 0.000000
# 4 0.000000 0.000000 0.000000 0.059606 0.000000 0.015091
# 5 -0.000648 0.003840 0.000624 0.000000 0.019055 0.000000
# 6 0.000000 0.000000 0.000000 0.015091 0.000000 0.042087
#
#
# Mechanical properties :
#
#
# Convention : Reuss Voigt Hill
#
# Bulk Modulus (GPa) = 51.98024 66.26679 59.12351
# Shear Modulus (GPa) = 26.27533 34.65385 30.46459
#
# Velocity S-wave (km/s) = 3.35158 3.84902 3.60888
# Velocity P-wave (km/s) = 6.09915 6.93421 6.53004
#
# Compressibility (1/GPa) = 0.01923808
#
# Stress axis : x y z
#
# Youngs Moduli (GPa) = 110.94832 42.50242 115.68891
#
# Poissons Ratio (x) = 0.20368 0.19461
# Poissons Ratio (y) = 0.53170 0.52049
# Poissons Ratio (z) = 0.18663 0.19122
#
# Static dielectric constant tensor:
#      x y z
#    x 4.572130 0.000000 0.091950 
#    y 0.000000 3.633150 0.000000 
#    z 0.091950 0.000000 4.269500 
# 
# 
# High freq. dielectric constant tensor:
#      x y z
#    x 1.946520 0.000000 0.000980 
#    y 0.000000 1.894720 0.000000 
#    z 0.000980 0.000000 1.923520 
# 
# From -- ./inp_files/46961.got.cif
#   From: 2010.06.25/outbox.cif.g09.slc.cpg/sg12_24_cif.got.tgz:46961.got - 2010.06.28 00:19:55.
