data_PCOD8114988
_publ_section_title
;
Structure prediction by ZEFSAII (Michael W. Deem and Ramdas Pophale) SiO2 
 PCOD8114988
Probable space group: C 2/M
;
_chemical_formula_sum "Si O2"
_cell_formula_units_Z 56
_cell_length_a 15.042890
_cell_length_b 8.376294
_cell_length_c 24.371988
_cell_angle_alpha 90.000000
_cell_angle_beta 59.772295
_cell_angle_gamma 90.000000
_cell_volume 2653.406006
_symmetry_space_group_name_H-M "C 2/M"
_symmetry_group_IT_number 12
_symmetry_cell_setting 'monoclinic'
loop_
_space_group_symop_operation_xyz
x,y,z
-x,y,-z
-x,-y,-z
x,-y,z
1/2+x,1/2+y,z
1/2-x,1/2+y,-z
1/2-x,1/2-y,-z
1/2+x,1/2-y,z
loop_
_atom_site_type_symbol
_atom_site_label
_atom_site_fract_x
_atom_site_fract_y
_atom_site_fract_z
Si Si1 0.670550 0.814177 0.286405
Si Si2 0.670606 0.814044 0.069086
Si Si3 0.981227 0.185182 0.067657
Si Si4 0.260226 0.816187 0.150066
Si Si5 0.722711 0.812286 0.644369
Si Si6 0.051699 0.811537 0.626965
Si Si7 0.105263 0.811432 0.491144
O O1 0.693556 0.715916 0.224558
O O2 0.756833 0.777438 0.305070
O O3 0.562027 0.757445 0.343981
O O4 0.669513 0.000000 0.272547
O O5 0.554144 0.783205 0.085981
O O6 0.689381 0.725908 0.120416
O O7 0.689675 0.000000 0.072029
O O8 0.750000 0.750000 0.000000
O O9 0.863182 0.210964 0.120346
O O10 0.010012 0.000000 0.063883
O O11 0.000000 0.246688 0.000000
O O12 0.292721 0.000000 0.136847
O O13 0.607388 0.770192 0.661333
O O14 0.799277 0.743901 0.573524
O O15 0.735316 0.000000 0.650030
O O16 0.114461 0.764735 0.552265
O O17 0.045769 0.000000 0.637221
O O18 0.000000 0.737224 0.500000
O O19 0.102545 0.000000 0.484835
#
# Coordination Sequence:
#
# PCOD8114988 Si02
#       7
#     8   8   8   8   8   8   8
#     4  12  26  45  65  91 127 170 218 266 320 384
#     4  12  24  41  67 100 134 170 211 259 314 375
#     4  11  23  41  68 100 134 169 209 259 315 375
#     4  12  26  45  69  97 130 170 215 265 322 382
#     4  11  22  40  65  94 129 169 215 265 323 383
#     4  11  22  40  65  94 129 169 215 266 323 381
#     4   9  17  34  62  93 126 166 210 265 323 379
#
# _framework density 21.104949000000001
#
# number of rings (size 3 to 8) (size 9 to 14) (size 15 to 20)
#    0.000    0.857    2.857    5.571    0.000    1.714 
#    0.000    8.571    0.000    0.000    0.000    0.000 
#    0.000    0.000    0.000    0.000    0.000    0.000 
#
# Total GULP energy -347394.792042 kJ/mol
# GULP energy per Si atom -12406.956859 kJ/mol
# Density = 2.105691 g / cm^3
# Si number density = 21.104949 Si / 1000 Ang^3
#
#
#
# Elastic Constant Matrix: (Units=GPa)
#
#
# Indices 1 2 3 4 5 6 
#
# 1 109.1392 12.3221 29.1263 0.0000 20.3687 0.0000
# 2 12.3221 77.1080 26.8117 0.0000 5.3364 0.0000
# 3 29.1263 26.8117 88.3446 0.0000 23.4060 0.0000
# 4 0.0000 0.0000 0.0000 27.2480 0.0000 -0.6932
# 5 20.3687 5.3364 23.4060 0.0000 33.0023 0.0000
# 6 0.0000 0.0000 0.0000 -0.6932 0.0000 36.5136
#
#
#
# Elastic Compliance Matrix: (Units=1/GPa)
#
#
# Indices 1 2 3 4 5 6 
#
# 1 0.010719 -0.000672 -0.001978 0.000000 -0.005104 0.000000
# 2 -0.000672 0.014566 -0.004537 0.000000 0.001278 0.000000
# 3 -0.001978 -0.004537 0.015799 0.000000 -0.009251 0.000000
# 4 0.000000 0.000000 0.000000 0.036718 0.000000 0.000697
# 5 -0.005104 0.001278 -0.009251 0.000000 0.039806 0.000000
# 6 0.000000 0.000000 0.000000 0.000697 0.000000 0.027400
#
#
# Mechanical properties :
#
#
# Convention : Reuss Voigt Hill
#
# Bulk Modulus (GPa) = 37.43963 45.67912 41.55938
# Shear Modulus (GPa) = 29.71156 33.10824 31.40990
#
# Velocity S-wave (km/s) = 3.75614 3.96503 3.86200
# Velocity P-wave (km/s) = 6.04894 6.53091 6.29454
#
# Compressibility (1/GPa) = 0.02670966
#
# Stress axis : x y z
#
# Youngs Moduli (GPa) = 93.29334 68.65527 63.29382
#
# Poissons Ratio (x) = 0.04614 0.12517
# Poissons Ratio (y) = 0.06269 0.28719
# Poissons Ratio (z) = 0.18450 0.31152
#
# Static dielectric constant tensor:
#      x y z
#    x 3.933200 0.000000 0.067390 
#    y 0.000000 3.711760 0.000000 
#    z 0.067390 0.000000 3.787460 
# 
# 
# High freq. dielectric constant tensor:
#      x y z
#    x 1.839700 0.000000 0.007180 
#    y 0.000000 1.824130 0.000000 
#    z 0.007180 0.000000 1.822950 
# 
# From -- ./inp_files/338552.got.cif
#   From: 2010.06.25/outbox.cif.g09.slc.cpg/sg12_170_cif.got.tgz:338552.got - 2010.06.28 00:19:55.
