data_PCOD8114244
_publ_section_title
;
Structure prediction by ZEFSAII (Michael W. Deem and Ramdas Pophale) SiO2 
 PCOD8114244
Probable space group: C 2/M
;
_chemical_formula_sum "Si O2"
_cell_formula_units_Z 52
_cell_length_a 15.362258
_cell_length_b 26.830517
_cell_length_c 10.973452
_cell_angle_alpha 90.000000
_cell_angle_beta 143.256378
_cell_angle_gamma 90.000000
_cell_volume 2705.823567
_symmetry_space_group_name_H-M "C 2/M"
_symmetry_group_IT_number 12
_symmetry_cell_setting 'monoclinic'
loop_
_space_group_symop_operation_xyz
x,y,z
-x,y,-z
-x,-y,-z
x,-y,z
1/2+x,1/2+y,z
1/2-x,1/2+y,-z
1/2-x,1/2-y,-z
1/2+x,1/2-y,z
loop_
_atom_site_type_symbol
_atom_site_label
_atom_site_fract_x
_atom_site_fract_y
_atom_site_fract_z
Si Si1 0.452324 0.055594 0.250174
Si Si2 0.839409 0.264204 0.852810
Si Si3 0.449442 0.237011 0.578251
Si Si4 0.266531 0.944707 0.277374
Si Si5 0.000000 0.873937 0.000000
Si Si6 0.117048 0.187613 0.913641
Si Si7 0.387732 0.156190 0.084400
O O1 0.613506 0.057298 0.483445
O O2 0.337833 0.068658 0.227910
O O3 0.442132 0.098942 0.135943
O O4 0.421566 0.000000 0.161436
O O5 0.724451 0.250248 0.618316
O O6 0.794257 0.232861 0.922202
O O7 0.849629 0.322335 0.906471
O O8 0.000000 0.244880 0.000000
O O9 0.500000 0.221870 0.500000
O O10 0.520167 0.289178 0.697492
O O11 0.487333 0.191585 0.713086
O O12 0.143353 0.906464 0.177713
O O13 0.198762 0.000000 0.194684
O O14 0.984324 0.841681 0.104884
O O15 0.240067 0.152445 0.996291
#
# Coordination Sequence:
#
# PCOD8114244 Si02
#       7
#     8   8   8   8   4   8   8
#     4   9  19  34  53  78 105 139 187 223 264 334
#     4  11  23  37  52  83 113 136 187 231 259 326
#     4  11  21  36  58  74 111 152 179 220 265 318
#     4   9  19  32  49  77 109 141 175 221 277 326
#     4  12  21  32  54  78 118 138 177 226 268 326
#     4  11  22  35  52  84 109 147 185 216 268 330
#     4  11  21  35  59  79 105 153 183 214 284 318
#
# _framework density 19.217808000000002
#
# number of rings (size 3 to 8) (size 9 to 14) (size 15 to 20)
#    0.000    1.538    5.385    2.077    4.308    3.692 
#    0.000    0.000    0.000    0.462    0.000    4.308 
#    0.000    0.000    0.000    0.000    0.000    0.000 
#
# Total GULP energy -322200.014791 kJ/mol
# GULP energy per Si atom -12392.308261 kJ/mol
# Density = 1.917407 g / cm^3
# Si number density = 19.217808 Si / 1000 Ang^3
#
#
#
# Elastic Constant Matrix: (Units=GPa)
#
#
# Indices 1 2 3 4 5 6 
#
# 1 34.3034 13.2462 15.6747 0.0000 15.0690 0.0000
# 2 13.2462 118.6476 39.9495 0.0000 8.2421 0.0000
# 3 15.6747 39.9495 94.3945 0.0000 17.8616 0.0000
# 4 0.0000 0.0000 0.0000 29.9358 0.0000 -1.6814
# 5 15.0690 8.2421 17.8616 0.0000 24.5651 0.0000
# 6 0.0000 0.0000 0.0000 -1.6814 0.0000 27.3908
#
#
#
# Elastic Compliance Matrix: (Units=1/GPa)
#
#
# Indices 1 2 3 4 5 6 
#
# 1 0.040974 -0.002506 -0.001329 0.000000 -0.023327 0.000000
# 2 -0.002506 0.009984 -0.004019 0.000000 0.001110 0.000000
# 3 -0.001329 -0.004019 0.014038 0.000000 -0.008043 0.000000
# 4 0.000000 0.000000 0.000000 0.033520 0.000000 0.002058
# 5 -0.023327 0.001110 -0.008043 0.000000 0.060494 0.000000
# 6 0.000000 0.000000 0.000000 0.002058 0.000000 0.036635
#
#
# Mechanical properties :
#
#
# Convention : Reuss Voigt Hill
#
# Bulk Modulus (GPa) = 20.28966 42.78735 31.53850
# Shear Modulus (GPa) = 21.95062 28.27669 25.11365
#
# Velocity S-wave (km/s) = 3.38331 3.84002 3.61888
# Velocity P-wave (km/s) = 5.08361 6.47871 5.82309
#
# Compressibility (1/GPa) = 0.04928620
#
# Stress axis : x y z
#
# Youngs Moduli (GPa) = 24.40554 100.15619 71.23740
#
# Poissons Ratio (x) = 0.25104 0.09468
# Poissons Ratio (y) = 0.06117 0.28633
# Poissons Ratio (z) = 0.03244 0.40257
#
# Static dielectric constant tensor:
#      x y z
#    x 3.361810 0.000000 0.144350 
#    y 0.000000 3.582480 0.000000 
#    z 0.144350 0.000000 3.469490 
# 
# 
# High freq. dielectric constant tensor:
#      x y z
#    x 1.731250 0.000000 0.021760 
#    y 0.000000 1.742000 0.000000 
#    z 0.021760 0.000000 1.734760 
# 
# From -- ./inp_files/160832.got.cif
#   From: 2010.06.25/outbox.cif.g09.slc.cpg/sg12_81_cif.got.tgz:160832.got - 2010.06.28 00:19:55.
