data_PCOD8114240
_publ_section_title
;
Structure prediction by ZEFSAII (Michael W. Deem and Ramdas Pophale) SiO2 
 PCOD8114240
Probable space group: C 2/M
;
_chemical_formula_sum "Si O2"
_cell_formula_units_Z 56
_cell_length_a 9.572475
_cell_length_b 26.156298
_cell_length_c 13.800097
_cell_angle_alpha 90.000000
_cell_angle_beta 55.350363
_cell_angle_gamma 90.000000
_cell_volume 2842.461915
_symmetry_space_group_name_H-M "C 2/M"
_symmetry_group_IT_number 12
_symmetry_cell_setting 'monoclinic'
loop_
_space_group_symop_operation_xyz
x,y,z
-x,y,-z
-x,-y,-z
x,-y,z
1/2+x,1/2+y,z
1/2-x,1/2+y,-z
1/2-x,1/2-y,-z
1/2+x,1/2-y,z
loop_
_atom_site_type_symbol
_atom_site_label
_atom_site_fract_x
_atom_site_fract_y
_atom_site_fract_z
Si Si1 0.002997 0.825711 0.765823
Si Si2 0.569117 0.942624 0.696420
Si Si3 0.332955 0.358137 0.012059
Si Si4 0.876810 0.555615 0.970704
Si Si5 0.627375 0.775616 0.626612
Si Si6 0.845145 0.138814 0.633446
Si Si7 0.149792 0.353061 0.277433
O O1 0.913682 0.858887 0.716547
O O2 0.037188 0.768299 0.722072
O O3 0.180672 0.853788 0.724270
O O4 0.878437 0.818399 0.908222
O O5 0.472481 0.950277 0.833244
O O6 0.745834 0.913684 0.649773
O O7 0.447702 0.907765 0.674984
O O8 0.602081 0.000000 0.638813
O O9 0.285938 0.409515 0.974357
O O10 0.192666 0.340235 0.146247
O O11 0.500000 0.374902 0.000000
O O12 0.818001 0.500000 0.032276
O O13 0.000000 0.582131 0.000000
O O14 0.750000 0.750000 0.500000
O O15 0.727093 0.811929 0.661762
O O16 0.478188 0.808886 0.634311
O O17 0.000000 0.142376 0.500000
#
# Coordination Sequence:
#
# PCOD8114240 Si02
#       7
#     8   8   8   8   8   8   8
#     4  11  21  35  58  83 117 148 184 236 281 328
#     4   9  19  37  57  78 112 151 185 229 284 334
#     4   9  19  35  51  79 114 146 182 225 280 333
#     4   9  16  29  52  78 104 142 187 228 274 330
#     4  11  22  39  58  83 112 149 191 231 278 337
#     4  11  22  37  56  87 110 142 194 236 279 330
#     4   9  21  38  58  83 114 150 189 230 277 340
#
# _framework density 19.701231
#
# number of rings (size 3 to 8) (size 9 to 14) (size 15 to 20)
#    0.000    2.143    1.429    1.714    0.000    1.143 
#    0.000    4.286    0.000    0.857    0.000    0.000 
#    0.000    0.000    0.000    0.000    0.000    0.000 
#
# Total GULP energy -346975.195518 kJ/mol
# GULP energy per Si atom -12391.971268 kJ/mol
# Density = 1.965639 g / cm^3
# Si number density = 19.701231 Si / 1000 Ang^3
#
#
#
# Elastic Constant Matrix: (Units=GPa)
#
#
# Indices 1 2 3 4 5 6 
#
# 1 50.8800 -12.8388 7.4514 0.0000 5.6770 0.0000
# 2 -12.8388 58.3440 8.7455 0.0000 -6.6121 0.0000
# 3 7.4514 8.7455 51.8989 0.0000 -6.5622 0.0000
# 4 0.0000 0.0000 0.0000 -40.9457 0.0000 19.4654
# 5 5.6770 -6.6121 -6.5622 0.0000 26.8465 0.0000
# 6 0.0000 0.0000 0.0000 19.4654 0.0000 12.2038
#
#
#
# Elastic Compliance Matrix: (Units=1/GPa)
#
#
# Indices 1 2 3 4 5 6 
#
# 1 0.022107 0.005038 -0.004599 0.000000 -0.004558 0.000000
# 2 0.005038 0.019100 -0.003593 0.000000 0.002761 0.000000
# 3 -0.004599 -0.003593 0.021200 0.000000 0.005270 0.000000
# 4 0.000000 0.000000 0.000000 -0.013890 0.000000 0.022155
# 5 -0.004558 0.002761 0.005270 0.000000 0.040181 0.000000
# 6 0.000000 0.000000 0.000000 0.022155 0.000000 0.046604
#
#
# Mechanical properties :
#
#
# Convention : Reuss Voigt Hill
#
# Bulk Modulus (GPa) = 17.82575 18.64878 18.23726
# Shear Modulus (GPa) = 31.18958 10.13858 20.66408
#
# Velocity S-wave (km/s) = 3.98317 2.27098 3.24214
# Velocity P-wave (km/s) = 5.49744 4.04510 4.82621
#
# Compressibility (1/GPa) = 0.05609862
#
# Stress axis : x y z
#
# Youngs Moduli (GPa) = 45.23366 52.35693 47.16909
#
# Poissons Ratio (x) = -0.26376 0.21695
# Poissons Ratio (y) = -0.22787 0.16946
# Poissons Ratio (z) = 0.20804 0.18810
#
# Static dielectric constant tensor:
#      x y z
#    x 3.519540 0.000000 -0.043660 
#    y 0.000000 3.976510 0.000000 
#    z -0.043660 0.000000 3.720050 
# 
# 
# High freq. dielectric constant tensor:
#      x y z
#    x 1.775720 0.000000 -0.006470 
#    y 0.000000 1.759230 0.000000 
#    z -0.006470 0.000000 1.759690 
# 
# From -- ./inp_files/198788.got.cif
#   From: 2010.06.25/outbox.cif.g09.slc.cpg/sg12_100_cif.got.tgz:198788.got - 2010.06.28 00:19:55.
