data_PCOD8114935
_publ_section_title
;
Structure prediction by ZEFSAII (Michael W. Deem and Ramdas Pophale) SiO2 
 PCOD8114935
Probable space group: C 2/M
;
_chemical_formula_sum "Si O2"
_cell_formula_units_Z 56
_cell_length_a 16.925605
_cell_length_b 18.406796
_cell_length_c 23.220385
_cell_angle_alpha 90.000000
_cell_angle_beta 157.388184
_cell_angle_gamma 90.000000
_cell_volume 2781.454857
_symmetry_space_group_name_H-M "C 2/M"
_symmetry_group_IT_number 12
_symmetry_cell_setting 'monoclinic'
loop_
_space_group_symop_operation_xyz
x,y,z
-x,y,-z
-x,-y,-z
x,-y,z
1/2+x,1/2+y,z
1/2-x,1/2+y,-z
1/2-x,1/2-y,-z
1/2+x,1/2-y,z
loop_
_atom_site_type_symbol
_atom_site_label
_atom_site_fract_x
_atom_site_fract_y
_atom_site_fract_z
Si Si1 0.485037 0.668015 0.148616
Si Si2 0.380349 0.176051 0.590529
Si Si3 0.025856 0.672007 0.814110
Si Si4 0.320963 0.293252 0.837597
Si Si5 0.291685 0.418335 0.333585
Si Si6 0.716782 0.126631 0.163029
Si Si7 0.559699 0.585696 0.309852
O O1 0.476979 0.741934 0.179433
O O2 0.641527 0.675987 0.201022
O O3 0.567418 0.606532 0.247607
O O4 0.261398 0.645622 0.974031
O O5 0.250000 0.250000 0.500000
O O6 0.416748 0.152814 0.680753
O O7 0.598352 0.181369 0.706673
O O8 0.263530 0.111354 0.479733
O O9 0.903170 0.630623 0.781426
O O10 0.325296 0.206616 0.840859
O O11 0.500000 0.323401 0.000000
O O12 0.500000 0.384466 0.500000
O O13 0.259428 0.500000 0.335253
O O14 0.316990 0.419918 0.281656
O O15 0.864686 0.126222 0.207343
O O16 0.500000 0.090775 0.000000
O O17 0.536880 0.500000 0.300893
#
# Coordination Sequence:
#
# PCOD8114935 Si02
#       7
#     8   8   8   8   8   8   8
#     4  11  23  41  66  98 130 177 224 281 323 394
#     4  12  23  42  68  99 132 175 223 275 339 396
#     4  11  22  39  65  94 134 174 229 268 325 404
#     4  11  22  42  70 102 130 166 229 285 326 391
#     4  11  24  38  57  92 135 172 211 267 333 398
#     4  11  22  39  66  97 133 172 212 266 334 408
#     4  12  27  45  66 100 141 178 222 279 345 408
#
# _framework density 20.133348000000002
#
# number of rings (size 3 to 8) (size 9 to 14) (size 15 to 20)
#    0.000    0.714    5.714    2.143    4.000    5.143 
#    0.000    1.429    0.000    0.857    0.000    0.000 
#    0.000    0.000    0.000    0.000    0.000    0.000 
#
# Total GULP energy -347335.767907 kJ/mol
# GULP energy per Si atom -12404.848854 kJ/mol
# Density = 2.008752 g / cm^3
# Si number density = 20.133348 Si / 1000 Ang^3
#
#
#
# Elastic Constant Matrix: (Units=GPa)
#
#
# Indices 1 2 3 4 5 6 
#
# 1 135.2897 30.0019 56.9096 -0.0204 -1.8537 -0.0021
# 2 30.0019 58.7848 30.1436 -0.0479 -0.6798 -0.0186
# 3 56.9096 30.1436 137.7440 -0.0182 -1.2319 -0.0440
# 4 -0.0204 -0.0479 -0.0182 17.7132 -0.0140 -1.9592
# 5 -1.8537 -0.6798 -1.2319 -0.0140 48.0567 0.0001
# 6 -0.0021 -0.0186 -0.0440 -1.9592 0.0001 21.1098
#
#
#
# Elastic Compliance Matrix: (Units=1/GPa)
#
#
# Indices 1 2 3 4 5 6 
#
# 1 0.009448 -0.003175 -0.003206 -0.000002 0.000237 -0.000009
# 2 -0.003175 0.020230 -0.003115 0.000050 0.000084 0.000016
# 3 -0.003206 -0.003115 0.009267 -0.000001 0.000070 0.000016
# 4 -0.000002 0.000050 -0.000001 0.057041 0.000017 0.005294
# 5 0.000237 0.000084 0.000070 0.000017 0.020821 0.000002
# 6 -0.000009 0.000016 0.000016 0.005294 0.000002 0.047863
#
#
# Mechanical properties :
#
#
# Convention : Reuss Voigt Hill
#
# Bulk Modulus (GPa) = 50.11922 62.88096 56.50009
# Shear Modulus (GPa) = 26.27279 31.69350 28.98314
#
# Velocity S-wave (km/s) = 3.61631 3.97190 3.79827
# Velocity P-wave (km/s) = 6.51035 7.23427 6.88183
#
# Compressibility (1/GPa) = 0.01995242
#
# Stress axis : x y z
#
# Youngs Moduli (GPa) = 105.84645 49.43243 107.91196
#
# Poissons Ratio (x) = 0.15694 0.34601
# Poissons Ratio (y) = 0.33605 0.33610
# Poissons Ratio (z) = 0.33939 0.15396
#
# Static dielectric constant tensor:
#      x y z
#    x 3.673520 0.000000 -0.104350 
#    y 0.000000 3.335620 -0.000020 
#    z -0.104350 -0.000020 3.934750 
# 
# 
# High freq. dielectric constant tensor:
#      x y z
#    x 1.793720 0.000000 -0.007190 
#    y 0.000000 1.756860 -0.000020 
#    z -0.007190 -0.000020 1.803150 
# 
# From -- ./inp_files/344784.got.cif
#   From: 2010.06.25/outbox.cif.g09.slc.cpg/sg12_173_cif.got.tgz:344784.got - 2010.06.28 00:19:55.
