data_PCOD8114362
_publ_section_title
;
Structure prediction by ZEFSAII (Michael W. Deem and Ramdas Pophale) SiO2 
 PCOD8114362
Probable space group: C 2/M
;
_chemical_formula_sum "Si O2"
_cell_formula_units_Z 56
_cell_length_a 20.900427
_cell_length_b 17.933969
_cell_length_c 15.324092
_cell_angle_alpha 90.000000
_cell_angle_beta 151.837924
_cell_angle_gamma 90.000000
_cell_volume 2710.929726
_symmetry_space_group_name_H-M "C 2/M"
_symmetry_group_IT_number 12
_symmetry_cell_setting 'monoclinic'
loop_
_space_group_symop_operation_xyz
x,y,z
-x,y,-z
-x,-y,-z
x,-y,z
1/2+x,1/2+y,z
1/2-x,1/2+y,-z
1/2-x,1/2-y,-z
1/2+x,1/2-y,z
loop_
_atom_site_type_symbol
_atom_site_label
_atom_site_fract_x
_atom_site_fract_y
_atom_site_fract_z
Si Si1 0.057401 0.585448 0.264630
Si Si2 0.898658 0.685903 0.956267
Si Si3 0.409968 0.324598 0.473137
Si Si4 0.143766 0.914609 0.423888
Si Si5 0.527943 0.350908 0.931069
Si Si6 0.692205 0.086031 0.760762
Si Si7 0.964826 0.657880 0.583346
O O1 0.023966 0.500000 0.248367
O O2 0.193669 0.591573 0.370807
O O3 0.086077 0.634585 0.383749
O O4 0.927763 0.619951 0.059735
O O5 0.744477 0.683536 0.741684
O O6 0.931125 0.765765 0.037840
O O7 0.000000 0.671212 0.000000
O O8 0.500000 0.353419 0.500000
O O9 0.423971 0.381723 0.570210
O O10 0.467445 0.246359 0.576015
O O11 0.100423 0.870882 0.283586
O O12 0.097725 0.000000 0.359756
O O13 0.500000 0.365353 0.000000
O O14 0.647368 0.404068 0.040207
O O15 0.616785 0.127219 0.749970
O O16 0.641745 0.122219 0.610828
O O17 0.652668 0.000000 0.715848
#
# Coordination Sequence:
#
# PCOD8114362 Si02
#       7
#     8   8   8   8   8   8   8
#     4  11  24  41  66  96 130 171 222 276 333 392
#     4  11  23  42  66  95 127 172 225 271 321 386
#     4  12  24  45  70  94 135 179 224 274 332 389
#     4  11  26  43  64  98 134 175 222 276 332 397
#     4  11  23  40  65  98 135 171 216 273 339 402
#     4  11  21  37  62  93 134 172 206 262 328 399
#     4  11  21  40  64  95 127 166 219 266 326 390
#
# _framework density 20.657119000000002
#
# number of rings (size 3 to 8) (size 9 to 14) (size 15 to 20)
#    0.000    0.857    4.286    3.857    2.000    5.714 
#    0.000    4.286    0.000    0.000    0.000    0.000 
#    0.000    0.000    0.000    0.000    0.000    0.000 
#
# Total GULP energy -347291.947998 kJ/mol
# GULP energy per Si atom -12403.283857 kJ/mol
# Density = 2.061010 g / cm^3
# Si number density = 20.657119 Si / 1000 Ang^3
#
#
#
# Elastic Constant Matrix: (Units=GPa)
#
#
# Indices 1 2 3 4 5 6 
#
# 1 111.2094 41.8894 15.4384 0.0000 -4.5999 0.0000
# 2 41.8894 79.1363 42.7524 0.0000 -12.3651 0.0000
# 3 15.4384 42.7524 48.9185 0.0000 -0.2966 0.0000
# 4 0.0000 0.0000 0.0000 25.4063 0.0000 1.9838
# 5 -4.5999 -12.3651 -0.2966 0.0000 34.7093 0.0000
# 6 0.0000 0.0000 0.0000 1.9838 0.0000 33.5392
#
#
#
# Elastic Compliance Matrix: (Units=1/GPa)
#
#
# Indices 1 2 3 4 5 6 
#
# 1 0.011549 -0.008250 0.003557 0.000000 -0.001378 0.000000
# 2 -0.008250 0.032525 -0.025759 0.000000 0.010273 0.000000
# 3 0.003557 -0.025759 0.041781 0.000000 -0.008348 0.000000
# 4 0.000000 0.000000 0.000000 0.039543 0.000000 -0.002339
# 5 -0.001378 0.010273 -0.008348 0.000000 0.032217 0.000000
# 6 0.000000 0.000000 0.000000 -0.002339 0.000000 0.029954
#
#
# Mechanical properties :
#
#
# Convention : Reuss Voigt Hill
#
# Bulk Modulus (GPa) = 40.07935 48.82496 44.45215
# Shear Modulus (GPa) = 19.47123 28.00991 23.74057
#
# Velocity S-wave (km/s) = 3.07350 3.68631 3.39376
# Velocity P-wave (km/s) = 5.66034 6.46573 6.07640
#
# Compressibility (1/GPa) = 0.02495051
#
# Stress axis : x y z
#
# Youngs Moduli (GPa) = 86.58862 30.74584 23.93434
#
# Poissons Ratio (x) = 0.25366 -0.08514
# Poissons Ratio (y) = 0.71438 0.61652
# Poissons Ratio (z) = -0.30802 0.79198
#
# Static dielectric constant tensor:
#      x y z
#    x 4.091610 0.000000 0.755150 
#    y 0.000000 3.834200 0.000000 
#    z 0.755150 0.000000 5.242850 
# 
# 
# High freq. dielectric constant tensor:
#      x y z
#    x 1.809540 0.000000 0.004390 
#    y 0.000000 1.815330 0.000000 
#    z 0.004390 0.000000 1.803540 
# 
# From -- ./inp_files/234747.got.cif
#   From: 2010.06.25/outbox.cif.g09.slc.cpg/sg12_118_cif.got.tgz:234747.got - 2010.06.28 00:19:55.
