data_PCOD8114352
_publ_section_title
;
Structure prediction by ZEFSAII (Michael W. Deem and Ramdas Pophale) SiO2 
 PCOD8114352
Probable space group: C 2/M
;
_chemical_formula_sum "Si O2"
_cell_formula_units_Z 64
_cell_length_a 14.687769
_cell_length_b 27.413892
_cell_length_c 11.865198
_cell_angle_alpha 90.000000
_cell_angle_beta 138.057078
_cell_angle_gamma 90.000000
_cell_volume 3193.239074
_symmetry_space_group_name_H-M "C 2/M"
_symmetry_group_IT_number 12
_symmetry_cell_setting 'monoclinic'
loop_
_space_group_symop_operation_xyz
x,y,z
-x,y,-z
-x,-y,-z
x,-y,z
1/2+x,1/2+y,z
1/2-x,1/2+y,-z
1/2-x,1/2-y,-z
1/2+x,1/2-y,z
loop_
_atom_site_type_symbol
_atom_site_label
_atom_site_fract_x
_atom_site_fract_y
_atom_site_fract_z
Si Si1 0.651283 0.852775 0.139625
Si Si2 0.845003 0.329738 0.334739
Si Si3 0.636481 0.720688 0.567830
Si Si4 0.576164 0.369024 0.179180
Si Si5 0.477499 0.724486 0.202619
Si Si6 0.214066 0.946380 0.710519
Si Si7 0.488404 0.445198 0.681329
Si Si8 0.312330 0.812594 0.046409
O O1 0.740750 0.815948 0.297236
O O2 0.665864 0.907652 0.198412
O O3 0.500000 0.833377 0.000000
O O4 0.691703 0.856677 0.045168
O O5 0.823918 0.273914 0.351225
O O6 0.738646 0.363949 0.304871
O O7 0.814080 0.333624 0.173740
O O8 0.000000 0.347355 0.500000
O O9 0.500000 0.700234 0.500000
O O10 0.603956 0.723027 0.405167
O O11 0.511990 0.314903 0.138460
O O12 0.545542 0.404842 0.255174
O O13 0.500000 0.390957 0.000000
O O14 0.448460 0.780447 0.138846
O O15 0.328047 0.714603 0.117863
O O16 0.128794 0.944796 0.518405
O O17 0.126055 0.932222 0.740344
O O18 0.277600 0.000000 0.785301
O O19 0.498083 0.500000 0.743443
#
# Coordination Sequence:
#
# PCOD8114352 Si02
#       8
#     8   8   8   8   8   8   8   8
#     4  12  26  35  60  97 128 159 209 265 315 375
#     4  11  24  42  57  83 127 176 215 251 311 370
#     4  11  21  39  60  81 116 174 215 257 298 364
#     4  12  25  36  63  94 125 166 206 264 310 373
#     4  11  21  37  62  83 118 167 218 256 303 356
#     4   9  20  42  69  94 124 158 200 261 330 379
#     4   9  20  41  71  99 119 152 210 269 313 375
#     4  11  21  38  58  85 125 164 209 263 311 364
#
# _framework density 20.042345999999998
#
# number of rings (size 3 to 8) (size 9 to 14) (size 15 to 20)
#    0.000    1.250    5.000    3.000    3.500    3.000 
#    0.000    0.000    0.000    0.375    0.000    0.000 
#    0.000    0.000    0.000    0.000    0.000    0.000 
#
# Total GULP energy -396467.872869 kJ/mol
# GULP energy per Si atom -12389.621027 kJ/mol
# Density = 1.999673 g / cm^3
# Si number density = 20.042346 Si / 1000 Ang^3
#
#
#
# Elastic Constant Matrix: (Units=GPa)
#
#
# Indices 1 2 3 4 5 6 
#
# 1 62.1508 31.7104 36.3266 0.0000 1.8136 0.0000
# 2 31.7104 56.5527 35.9638 0.0000 6.3266 0.0000
# 3 36.3266 35.9638 113.3288 0.0000 9.2307 0.0000
# 4 0.0000 0.0000 0.0000 17.4960 0.0000 -1.3341
# 5 1.8136 6.3266 9.2307 0.0000 37.7837 0.0000
# 6 0.0000 0.0000 0.0000 -1.3341 0.0000 27.6255
#
#
#
# Elastic Compliance Matrix: (Units=1/GPa)
#
#
# Indices 1 2 3 4 5 6 
#
# 1 0.024219 -0.010961 -0.004428 0.000000 0.001755 0.000000
# 2 -0.010961 0.027268 -0.004908 0.000000 -0.002841 0.000000
# 3 -0.004428 -0.004908 0.011954 0.000000 -0.001886 0.000000
# 4 0.000000 0.000000 0.000000 0.057367 0.000000 0.002770
# 5 0.001755 -0.002841 -0.001886 0.000000 0.027319 0.000000
# 6 0.000000 0.000000 0.000000 0.002770 0.000000 0.036332
#
#
# Mechanical properties :
#
#
# Convention : Reuss Voigt Hill
#
# Bulk Modulus (GPa) = 43.76874 48.89264 46.33069
# Shear Modulus (GPa) = 21.48975 25.11647 23.30311
#
# Velocity S-wave (km/s) = 3.27803 3.54385 3.41353
# Velocity P-wave (km/s) = 6.01771 6.41816 6.22116
#
# Compressibility (1/GPa) = 0.02284736
#
# Stress axis : x y z
#
# Youngs Moduli (GPa) = 41.28976 36.67337 83.65067
#
# Poissons Ratio (x) = 0.40196 0.37040
# Poissons Ratio (y) = 0.45256 0.41060
# Poissons Ratio (z) = 0.18283 0.18001
#
# Static dielectric constant tensor:
#      x y z
#    x 3.565410 0.000000 -0.001320 
#    y 0.000000 3.544040 0.000000 
#    z -0.001320 0.000000 3.814380 
# 
# 
# High freq. dielectric constant tensor:
#      x y z
#    x 1.773060 0.000000 -0.002410 
#    y 0.000000 1.755660 0.000000 
#    z -0.002410 0.000000 1.792040 
# 
# From -- ./inp_files/150283.got.cif
#   From: 2010.06.25/outbox.cif.g09.slc.cpg/sg12_76_cif.got.tgz:150283.got - 2010.06.28 00:19:55.
