data_PCOD8114546
_publ_section_title
;
Structure prediction by ZEFSAII (Michael W. Deem and Ramdas Pophale) SiO2 
 PCOD8114546
Probable space group: C 2/M
;
_chemical_formula_sum "Si O2"
_cell_formula_units_Z 36
_cell_length_a 9.132677
_cell_length_b 19.267603
_cell_length_c 14.228311
_cell_angle_alpha 90.000000
_cell_angle_beta 136.929170
_cell_angle_gamma 90.000000
_cell_volume 1709.769201
_symmetry_space_group_name_H-M "C 2/M"
_symmetry_group_IT_number 12
_symmetry_cell_setting 'monoclinic'
loop_
_space_group_symop_operation_xyz
x,y,z
-x,y,-z
-x,-y,-z
x,-y,z
1/2+x,1/2+y,z
1/2-x,1/2+y,-z
1/2-x,1/2-y,-z
1/2+x,1/2-y,z
loop_
_atom_site_type_symbol
_atom_site_label
_atom_site_fract_x
_atom_site_fract_y
_atom_site_fract_z
Si Si1 0.804965 0.000000 0.478315
Si Si2 0.500235 0.253496 0.607842
Si Si3 0.124468 0.000000 0.783739
Si Si4 0.131160 0.000000 0.151619
Si Si5 0.145111 0.358830 0.156681
Si Si6 0.029840 0.614725 0.722140
O O1 0.679500 0.071379 0.404155
O O2 0.000000 0.000000 0.500000
O O3 0.894931 0.000000 0.625112
O O4 0.500000 0.271560 0.500000
O O5 0.645331 0.309955 0.731328
O O6 0.581643 0.179087 0.679333
O O7 0.250000 0.250000 0.500000
O O8 0.271181 0.935145 0.826368
O O9 0.053679 0.000000 0.857300
O O10 0.269178 0.931020 0.211804
O O11 0.000000 0.000000 0.000000
O O12 0.996171 0.361360 0.180929
O O13 0.000000 0.332648 0.000000
#
# Coordination Sequence:
#
# PCOD8114546 Si02
#       6
#     4   8   4   4   8   8
#     4  11  21  41  72 100 130 176 230 282 337 402
#     4  12  27  47  71 100 139 184 235 285 345 411
#     4  12  24  40  76 101 136 177 235 285 346 410
#     4  11  26  44  66 103 141 175 221 291 345 403
#     4  12  26  46  72 101 137 188 232 282 351 419
#     4  11  25  44  68 100 141 179 228 283 345 407
#
# _framework density 21.055472999999999
#
# number of rings (size 3 to 8) (size 9 to 14) (size 15 to 20)
#    0.000    0.444    4.444    3.667    6.222    2.667 
#    0.000    0.000    0.000    0.000    0.000    0.000 
#    0.000    0.000    0.000    0.000    0.000    0.000 
#
# Total GULP energy -222986.532164 kJ/mol
# GULP energy per Si atom -12388.140676 kJ/mol
# Density = 2.100755 g / cm^3
# Si number density = 21.055473 Si / 1000 Ang^3
#
#
#
# Elastic Constant Matrix: (Units=GPa)
#
#
# Indices 1 2 3 4 5 6 
#
# 1 49.6188 13.3409 20.2776 0.0002 1.1616 0.0000
# 2 13.3409 141.8313 54.0563 -0.0002 10.0383 -0.0001
# 3 20.2776 54.0563 143.3489 -0.0001 -14.3386 -0.0001
# 4 0.0002 -0.0002 -0.0001 -71.0281 0.0000 -43.3863
# 5 1.1616 10.0383 -14.3386 0.0000 38.0267 0.0000
# 6 0.0000 -0.0001 -0.0001 -43.3863 0.0000 15.2977
#
#
#
# Elastic Compliance Matrix: (Units=1/GPa)
#
#
# Indices 1 2 3 4 5 6 
#
# 1 0.021595 -0.000817 -0.002900 0.000000 -0.001538 0.000000
# 2 -0.000817 0.008732 -0.003539 0.000000 -0.003615 0.000000
# 3 -0.002900 -0.003539 0.009169 0.000000 0.004480 0.000000
# 4 0.000000 0.000000 0.000000 -0.005153 0.000000 -0.014613
# 5 -0.001538 -0.003615 0.004480 0.000000 0.028988 0.000000
# 6 0.000000 0.000000 0.000000 -0.014613 0.000000 0.023924
#
#
# Mechanical properties :
#
#
# Convention : Reuss Voigt Hill
#
# Bulk Modulus (GPa) = 40.02696 56.68317 48.35506
# Shear Modulus (GPa) = 45.41556 12.93421 29.17489
#
# Velocity S-wave (km/s) = 4.64933 2.48118 3.72643
# Velocity P-wave (km/s) = 6.91905 5.93192 6.44441
#
# Compressibility (1/GPa) = 0.02498316
#
# Stress axis : x y z
#
# Youngs Moduli (GPa) = 46.30784 114.52073 109.06487
#
# Poissons Ratio (x) = 0.09356 0.31633
# Poissons Ratio (y) = 0.03783 0.38596
# Poissons Ratio (z) = 0.13431 0.40527
#
# Static dielectric constant tensor:
#      x y z
#    x 3.685730 0.000000 -0.077630 
#    y 0.000000 3.968960 0.000000 
#    z -0.077630 0.000000 3.773730 
# 
# 
# High freq. dielectric constant tensor:
#      x y z
#    x 1.834780 0.000000 -0.001180 
#    y 0.000000 1.835970 0.000000 
#    z -0.001180 0.000000 1.841310 
# 
# From -- ./inp_files/197470.got.cif
#   From: 2010.06.25/outbox.cif.g09.slc.cpg/sg12_99_cif.got.tgz:197470.got - 2010.06.28 00:19:55.
