data_PCOD8114790
_publ_section_title
;
Structure prediction by ZEFSAII (Michael W. Deem and Ramdas Pophale) SiO2 
 PCOD8114790
Probable space group: C 2/M
;
_chemical_formula_sum "Si O2"
_cell_formula_units_Z 56
_cell_length_a 28.743391
_cell_length_b 8.746202
_cell_length_c 11.451694
_cell_angle_alpha 90.000000
_cell_angle_beta 110.264674
_cell_angle_gamma 90.000000
_cell_volume 2700.707863
_symmetry_space_group_name_H-M "C 2/M"
_symmetry_group_IT_number 12
_symmetry_cell_setting 'monoclinic'
loop_
_space_group_symop_operation_xyz
x,y,z
-x,y,-z
-x,-y,-z
x,-y,z
1/2+x,1/2+y,z
1/2-x,1/2+y,-z
1/2-x,1/2-y,-z
1/2+x,1/2-y,z
loop_
_atom_site_type_symbol
_atom_site_label
_atom_site_fract_x
_atom_site_fract_y
_atom_site_fract_z
Si Si1 0.047427 0.821440 0.616531
Si Si2 0.075878 0.676424 0.120438
Si Si3 0.302980 0.674779 0.060885
Si Si4 0.149965 0.319886 0.676331
Si Si5 0.736820 0.320290 0.611952
Si Si6 0.522660 0.177162 0.836456
Si Si7 0.175386 0.172690 0.181192
O O1 0.093476 0.728127 0.603783
O O2 0.038489 0.782641 0.743652
O O3 0.000000 0.772601 0.500000
O O4 0.059117 0.000000 0.615971
O O5 0.091251 0.500000 0.130170
O O6 0.124321 0.773456 0.196115
O O7 0.035145 0.705847 0.184903
O O8 0.054744 0.725863 0.976361
O O9 0.296709 0.500000 0.097941
O O10 0.335201 0.767150 0.181416
O O11 0.250000 0.750000 0.000000
O O12 0.331842 0.683603 0.963933
O O13 0.156105 0.500000 0.672046
O O14 0.184148 0.243345 0.608159
O O15 0.732936 0.500000 0.596263
O O16 0.750000 0.250000 0.500000
O O17 0.778837 0.278204 0.742190
O O18 0.531786 0.000000 0.812658
O O19 0.186993 0.000000 0.231496
#
# Coordination Sequence:
#
# PCOD8114790 Si02
#       7
#     8   8   8   8   8   8   8
#     4  11  25  43  63  89 123 164 211 262 315 370
#     4   9  19  36  60  90 124 160 199 251 315 371
#     4  11  22  37  62  94 130 167 207 257 312 372
#     4  12  25  43  67  95 128 165 210 261 317 377
#     4  12  26  45  67  89 122 163 207 255 308 372
#     4   9  19  38  62  89 121 158 204 256 311 374
#     4  11  23  38  59  92 128 163 208 253 306 372
#
# _framework density 20.735305
#
# number of rings (size 3 to 8) (size 9 to 14) (size 15 to 20)
#    0.000    1.286    1.429    5.571    0.000    7.429 
#    0.000    4.286    0.000    0.000    0.000    0.000 
#    0.000    0.000    0.000    0.000    0.000    0.000 
#
# Total GULP energy -347365.835791 kJ/mol
# GULP energy per Si atom -12405.922707 kJ/mol
# Density = 2.068811 g / cm^3
# Si number density = 20.735305 Si / 1000 Ang^3
#
#
#
# Elastic Constant Matrix: (Units=GPa)
#
#
# Indices 1 2 3 4 5 6 
#
# 1 139.7496 61.4717 41.7580 0.0000 4.9687 0.0000
# 2 61.4717 146.3298 42.8765 0.0000 1.8521 0.0000
# 3 41.7580 42.8765 78.3273 0.0000 -5.3946 0.0000
# 4 0.0000 0.0000 0.0000 34.3379 0.0000 -1.2595
# 5 4.9687 1.8521 -5.3946 0.0000 33.9009 0.0000
# 6 0.0000 0.0000 0.0000 -1.2595 0.0000 38.4166
#
#
#
# Elastic Compliance Matrix: (Units=1/GPa)
#
#
# Indices 1 2 3 4 5 6 
#
# 1 0.009602 -0.002946 -0.003632 0.000000 -0.001824 0.000000
# 2 -0.002946 0.009089 -0.003447 0.000000 -0.000613 0.000000
# 3 -0.003632 -0.003447 0.016824 0.000000 0.003398 0.000000
# 4 0.000000 0.000000 0.000000 0.029157 0.000000 0.000956
# 5 -0.001824 -0.000613 0.003398 0.000000 0.030339 0.000000
# 6 0.000000 0.000000 0.000000 0.000956 0.000000 0.026062
#
#
# Mechanical properties :
#
#
# Convention : Reuss Voigt Hill
#
# Bulk Modulus (GPa) = 64.66226 72.95767 68.80996
# Shear Modulus (GPa) = 34.18135 35.88444 35.03290
#
# Velocity S-wave (km/s) = 4.06453 4.16456 4.11485
# Velocity P-wave (km/s) = 7.29928 7.64110 7.47214
#
# Compressibility (1/GPa) = 0.01546497
#
# Stress axis : x y z
#
# Youngs Moduli (GPa) = 104.14834 110.01838 59.43905
#
# Poissons Ratio (x) = 0.32415 0.21586
# Poissons Ratio (y) = 0.30686 0.20489
# Poissons Ratio (z) = 0.37823 0.37923
#
# Static dielectric constant tensor:
#      x y z
#    x 3.877090 0.000000 0.007760 
#    y 0.000000 3.812860 0.000000 
#    z 0.007760 0.000000 3.740540 
# 
# 
# High freq. dielectric constant tensor:
#      x y z
#    x 1.826920 0.000000 -0.000300 
#    y 0.000000 1.817860 0.000000 
#    z -0.000300 0.000000 1.801930 
# 
# From -- ./inp_files/181031.got.cif
#   From: 2010.06.25/outbox.cif.g09.slc.cpg/sg12_91_cif.got.tgz:181031.got - 2010.06.28 00:19:55.
