data_PCOD8114587
_publ_section_title
;
Structure prediction by ZEFSAII (Michael W. Deem and Ramdas Pophale) SiO2 
 PCOD8114587
Probable space group: C 2/M
;
_chemical_formula_sum "Si O2"
_cell_formula_units_Z 56
_cell_length_a 22.783748
_cell_length_b 9.274782
_cell_length_c 14.950290
_cell_angle_alpha 90.000000
_cell_angle_beta 89.768941
_cell_angle_gamma 90.000000
_cell_volume 3159.184315
_symmetry_space_group_name_H-M "C 2/M"
_symmetry_group_IT_number 12
_symmetry_cell_setting 'monoclinic'
loop_
_space_group_symop_operation_xyz
x,y,z
-x,y,-z
-x,-y,-z
x,-y,z
1/2+x,1/2+y,z
1/2-x,1/2+y,-z
1/2-x,1/2-y,-z
1/2+x,1/2-y,z
loop_
_atom_site_type_symbol
_atom_site_label
_atom_site_fract_x
_atom_site_fract_y
_atom_site_fract_z
Si Si1 0.976435 0.168011 0.903658
Si Si2 0.668076 0.830398 0.670808
Si Si3 0.393938 0.165994 0.794335
Si Si4 0.129234 0.332053 0.474367
Si Si5 0.715294 0.836669 0.311999
Si Si6 0.937242 0.164098 0.257698
Si Si7 0.454076 0.333099 0.634269
O O1 0.025731 0.207694 0.830194
O O2 0.916730 0.259727 0.885760
O O3 0.960018 0.000000 0.899074
O O4 0.000000 0.213369 0.000000
O O5 0.654986 0.784148 0.569179
O O6 0.730713 0.770004 0.699513
O O7 0.618726 0.766998 0.736552
O O8 0.669036 0.000000 0.683064
O O9 0.323844 0.176331 0.778490
O O10 0.422975 0.254340 0.715308
O O11 0.414461 0.000000 0.791118
O O12 0.112970 0.500000 0.471770
O O13 0.177612 0.292843 0.399491
O O14 0.068794 0.243220 0.456384
O O15 0.738312 0.000000 0.323279
O O16 0.976222 0.182338 0.348188
O O17 0.915347 0.000000 0.249069
O O18 0.435626 0.500000 0.632164
#
# Coordination Sequence:
#
# PCOD8114587 Si02
#       7
#     8   8   8   8   8   8   8
#     4   9  18  34  57  82 103 124 154 193 237 289
#     4  11  22  32  46  69  97 131 169 207 244 284
#     4   9  17  30  50  76 102 127 156 195 244 290
#     4   9  19  33  47  68  96 127 166 211 253 284
#     4   9  18  33  50  67  94 131 168 204 241 283
#     4   9  19  34  49  69  99 130 158 192 242 296
#     4   9  17  30  49  70  93 127 167 204 242 287
#
# _framework density 17.726094
#
# number of rings (size 3 to 8) (size 9 to 14) (size 15 to 20)
#    0.000    2.714    0.000    3.429    0.000    7.714 
#    0.000    2.857    0.000    0.857    0.000    0.000 
#    0.000    0.000    0.000    0.000    0.000    0.000 
#
# Total GULP energy -347073.233033 kJ/mol
# GULP energy per Si atom -12395.472608 kJ/mol
# Density = 1.768575 g / cm^3
# Si number density = 17.726094 Si / 1000 Ang^3
#
#
#
# Elastic Constant Matrix: (Units=GPa)
#
#
# Indices 1 2 3 4 5 6 
#
# 1 76.8992 41.7551 44.3957 0.0000 8.2334 0.0000
# 2 41.7551 77.8363 40.8407 0.0000 9.4056 0.0000
# 3 44.3957 40.8407 90.1991 0.0000 19.2993 0.0000
# 4 0.0000 0.0000 0.0000 26.7577 0.0000 8.6667
# 5 8.2334 9.4056 19.2993 0.0000 16.2885 0.0000
# 6 0.0000 0.0000 0.0000 8.6667 0.0000 31.0555
#
#
#
# Elastic Compliance Matrix: (Units=1/GPa)
#
#
# Indices 1 2 3 4 5 6 
#
# 1 0.021295 -0.007800 -0.007516 0.000000 0.002645 0.000000
# 2 -0.007800 0.019718 -0.004684 0.000000 -0.001894 0.000000
# 3 -0.007516 -0.004684 0.020784 0.000000 -0.018122 0.000000
# 4 0.000000 0.000000 0.000000 0.041086 0.000000 -0.011466
# 5 0.002645 -0.001894 -0.018122 0.000000 0.082622 0.000000
# 6 0.000000 0.000000 0.000000 -0.011466 0.000000 0.035400
#
#
# Mechanical properties :
#
#
# Convention : Reuss Voigt Hill
#
# Bulk Modulus (GPa) = 45.87423 55.43529 50.65476
# Shear Modulus (GPa) = 18.64493 22.68322 20.66408
#
# Velocity S-wave (km/s) = 3.24672 3.58110 3.41800
# Velocity P-wave (km/s) = 6.32381 6.95990 6.64947
#
# Compressibility (1/GPa) = 0.02179873
#
# Stress axis : x y z
#
# Youngs Moduli (GPa) = 46.95949 50.71488 48.11407
#
# Poissons Ratio (x) = 0.39556 0.36160
# Poissons Ratio (y) = 0.36627 0.22536
# Poissons Ratio (z) = 0.35293 0.23754
#
# Static dielectric constant tensor:
#      x y z
#    x 3.255820 0.000000 0.454230 
#    y 0.000000 3.402240 0.000000 
#    z 0.454230 0.000000 3.471440 
# 
# 
# High freq. dielectric constant tensor:
#      x y z
#    x 1.667540 0.000000 0.025210 
#    y 0.000000 1.693780 0.000000 
#    z 0.025210 0.000000 1.664440 
# 
# From -- ./inp_files/237865.got.cif
#   From: 2010.06.25/outbox.cif.g09.slc.cpg/sg12_119_cif.got.tgz:237865.got - 2010.06.28 00:19:55.
