data_PCOD8114609
_publ_section_title
;
Structure prediction by ZEFSAII (Michael W. Deem and Ramdas Pophale) SiO2 
 PCOD8114609
Probable space group: C 2/M
;
_chemical_formula_sum "Si O2"
_cell_formula_units_Z 64
_cell_length_a 9.074790
_cell_length_b 27.255005
_cell_length_c 14.605094
_cell_angle_alpha 90.000000
_cell_angle_beta 108.319635
_cell_angle_gamma 90.000000
_cell_volume 3429.247563
_symmetry_space_group_name_H-M "C 2/M"
_symmetry_group_IT_number 12
_symmetry_cell_setting 'monoclinic'
loop_
_space_group_symop_operation_xyz
x,y,z
-x,y,-z
-x,-y,-z
x,-y,z
1/2+x,1/2+y,z
1/2-x,1/2+y,-z
1/2-x,1/2-y,-z
1/2+x,1/2-y,z
loop_
_atom_site_type_symbol
_atom_site_label
_atom_site_fract_x
_atom_site_fract_y
_atom_site_fract_z
Si Si1 0.521070 0.801291 0.398783
Si Si2 0.851095 0.103858 0.289240
Si Si3 0.336607 0.944189 0.605921
Si Si4 0.842666 0.057309 0.608384
Si Si5 0.773686 0.944078 0.890333
Si Si6 0.869947 0.604185 0.298854
Si Si7 0.624254 0.300738 0.601445
Si Si8 0.623484 0.443841 0.893709
O O1 0.500000 0.817801 0.500000
O O2 0.433478 0.840694 0.318182
O O3 0.430779 0.750442 0.365609
O O4 0.703136 0.796601 0.408528
O O5 0.694182 0.089442 0.311261
O O6 0.884200 0.160860 0.316409
O O7 0.831992 0.094051 0.177723
O O8 0.974576 0.067156 0.361358
O O9 0.238156 0.925241 0.500681
O O10 0.518258 0.934415 0.625597
O O11 0.298936 0.000000 0.619129
O O12 0.790857 0.093648 0.680104
O O13 0.810247 0.000000 0.622946
O O14 0.655416 0.908537 0.813300
O O15 0.945117 0.937462 0.884274
O O16 0.718645 0.000000 0.865442
O O17 0.771197 0.930711 0.997534
O O18 0.500000 0.316852 0.500000
O O19 0.654481 0.500000 0.868361
#
# Coordination Sequence:
#
# PCOD8114609 Si02
#       8
#     8   8   8   8   8   8   8   8
#     4  11  24  40  61  86 115 152 197 245 291 343
#     4  12  22  35  57  82 114 154 195 233 287 340
#     4  11  22  34  48  78 122 153 182 226 276 347
#     4  11  22  34  52  80 114 159 196 224 268 339
#     4   9  18  34  57  84 112 148 198 245 283 334
#     4  12  22  35  57  82 114 154 195 233 287 340
#     4  11  24  40  61  86 115 152 197 245 291 343
#     4   9  18  34  57  84 112 148 198 245 283 334
#
# _framework density 18.662987000000001
#
# number of rings (size 3 to 8) (size 9 to 14) (size 15 to 20)
#    0.000    1.250    2.500    6.750    3.500    2.000 
#    0.000    0.625    0.000    3.000    0.000    0.000 
#    0.000    0.000    0.000    0.000    0.000    0.000 
#
# Total GULP energy -396737.079646 kJ/mol
# GULP energy per Si atom -12398.033739 kJ/mol
# Density = 1.862051 g / cm^3
# Si number density = 18.662987 Si / 1000 Ang^3
#
#
#
# Elastic Constant Matrix: (Units=GPa)
#
#
# Indices 1 2 3 4 5 6 
#
# 1 65.1719 34.5716 24.8993 0.0000 -3.4498 0.0000
# 2 34.5716 116.8920 70.1387 0.0000 -2.6553 0.0000
# 3 24.8993 70.1387 130.3443 0.0000 -7.8794 0.0000
# 4 0.0000 0.0000 0.0000 33.2747 0.0000 1.0947
# 5 -3.4498 -2.6553 -7.8794 0.0000 22.3368 0.0000
# 6 0.0000 0.0000 0.0000 1.0947 0.0000 28.9855
#
#
#
# Elastic Compliance Matrix: (Units=1/GPa)
#
#
# Indices 1 2 3 4 5 6 
#
# 1 0.018350 -0.004949 -0.000722 0.000000 0.001991 0.000000
# 2 -0.004949 0.013987 -0.006669 0.000000 -0.001454 0.000000
# 3 -0.000722 -0.006669 0.011591 0.000000 0.003184 0.000000
# 4 0.000000 0.000000 0.000000 0.030090 0.000000 -0.001136
# 5 0.001991 -0.001454 0.003184 0.000000 0.046027 0.000000
# 6 0.000000 0.000000 0.000000 -0.001136 0.000000 0.034543
#
#
# Mechanical properties :
#
#
# Convention : Reuss Voigt Hill
#
# Bulk Modulus (GPa) = 51.95132 63.51415 57.73274
# Shear Modulus (GPa) = 26.92726 29.10596 28.01661
#
# Velocity S-wave (km/s) = 3.80256 3.95340 3.87872
# Velocity P-wave (km/s) = 6.86850 7.41251 7.14568
#
# Compressibility (1/GPa) = 0.01924879
#
# Stress axis : x y z
#
# Youngs Moduli (GPa) = 54.49446 71.49411 86.27301
#
# Poissons Ratio (x) = 0.35381 0.06230
# Poissons Ratio (y) = 0.26968 0.57536
# Poissons Ratio (z) = 0.03935 0.47680
#
# Static dielectric constant tensor:
#      x y z
#    x 3.422970 0.000000 0.020240 
#    y 0.000000 3.292500 0.000000 
#    z 0.020240 0.000000 3.440780 
# 
# 
# High freq. dielectric constant tensor:
#      x y z
#    x 1.732000 0.000000 0.002750 
#    y 0.000000 1.707670 0.000000 
#    z 0.002750 0.000000 1.707700 
# 
# From -- ./inp_files/199881.got.cif
#   From: 2010.06.25/outbox.cif.g09.slc.cpg/sg12_100_cif.got.tgz:199881.got - 2010.06.28 00:19:55.
