data_PCOD8114235
_publ_section_title
;
Structure prediction by ZEFSAII (Michael W. Deem and Ramdas Pophale) SiO2 
 PCOD8114235
Probable space group: C 2/M
;
_chemical_formula_sum "Si O2"
_cell_formula_units_Z 56
_cell_length_a 29.771785
_cell_length_b 8.505498
_cell_length_c 11.822498
_cell_angle_alpha 90.000000
_cell_angle_beta 71.216235
_cell_angle_gamma 90.000000
_cell_volume 2834.293646
_symmetry_space_group_name_H-M "C 2/M"
_symmetry_group_IT_number 12
_symmetry_cell_setting 'monoclinic'
loop_
_space_group_symop_operation_xyz
x,y,z
-x,y,-z
-x,-y,-z
x,-y,z
1/2+x,1/2+y,z
1/2-x,1/2+y,-z
1/2-x,1/2-y,-z
1/2+x,1/2-y,z
loop_
_atom_site_type_symbol
_atom_site_label
_atom_site_fract_x
_atom_site_fract_y
_atom_site_fract_z
Si Si1 0.622495 0.683769 0.203567
Si Si2 0.350918 0.316248 0.370247
Si Si3 0.829792 0.681813 0.622138
Si Si4 0.437116 0.313154 0.150793
Si Si5 0.959366 0.813673 0.886392
Si Si6 0.702216 0.182361 0.988889
Si Si7 0.226737 0.679713 0.715273
O O1 0.622797 0.500000 0.233070
O O2 0.633665 0.780747 0.306975
O O3 0.571469 0.741345 0.196497
O O4 0.659872 0.716410 0.074202
O O5 0.357258 0.500000 0.387423
O O6 0.355157 0.227257 0.485272
O O7 0.392278 0.245726 0.256250
O O8 0.299570 0.286062 0.356131
O O9 0.816589 0.500000 0.634385
O O10 0.781836 0.778723 0.679351
O O11 0.433809 0.500000 0.152495
O O12 0.486123 0.258081 0.171853
O O13 0.437246 0.247077 0.022109
O O14 0.957529 0.000000 0.897284
O O15 0.701430 0.206526 0.855412
O O16 0.697209 0.000000 0.027095
O O17 0.750000 0.250000 0.000000
O O18 0.222701 0.500000 0.679314
#
# Coordination Sequence:
#
# PCOD8114235 Si02
#       7
#     8   8   8   8   8   8   8
#     4  11  21  35  57  85 116 148 186 233 284 333
#     4  11  22  37  59  84 111 145 188 235 282 331
#     4  12  25  40  56  75 109 153 194 234 277 335
#     4   8  15  31  56  87 116 142 176 224 278 332
#     4   8  15  30  56  88 117 142 175 223 279 335
#     4  11  22  35  55  81 114 149 184 227 273 329
#     4  11  23  39  58  82 112 147 188 232 279 333
#
# _framework density 19.758009000000001
#
# number of rings (size 3 to 8) (size 9 to 14) (size 15 to 20)
#    0.000    1.714    1.429    5.143    0.000    2.857 
#    0.000    0.714    0.000    7.714    0.000   10.000 
#    0.000    0.000    0.000    0.000    0.000    0.000 
#
# Total GULP energy -347233.679979 kJ/mol
# GULP energy per Si atom -12401.202856 kJ/mol
# Density = 1.971304 g / cm^3
# Si number density = 19.758009 Si / 1000 Ang^3
#
#
#
# Elastic Constant Matrix: (Units=GPa)
#
#
# Indices 1 2 3 4 5 6 
#
# 1 119.6828 9.0706 45.9108 0.0000 14.7801 0.0000
# 2 9.0706 41.8262 22.5599 0.0000 3.0573 0.0000
# 3 45.9108 22.5599 99.1510 0.0000 12.5908 0.0000
# 4 0.0000 0.0000 0.0000 29.4989 0.0000 4.1780
# 5 14.7801 3.0573 12.5908 0.0000 25.7017 0.0000
# 6 0.0000 0.0000 0.0000 4.1780 0.0000 20.6192
#
#
#
# Elastic Compliance Matrix: (Units=1/GPa)
#
#
# Indices 1 2 3 4 5 6 
#
# 1 0.010521 0.000415 -0.004470 0.000000 -0.003910 0.000000
# 2 0.000415 0.027271 -0.006350 0.000000 -0.000372 0.000000
# 3 -0.004470 -0.006350 0.014052 0.000000 -0.003558 0.000000
# 4 0.000000 0.000000 0.000000 0.034901 0.000000 -0.007072
# 5 -0.003910 -0.000372 -0.003558 0.000000 0.042944 0.000000
# 6 0.000000 0.000000 0.000000 -0.007072 0.000000 0.049931
#
#
# Mechanical properties :
#
#
# Convention : Reuss Voigt Hill
#
# Bulk Modulus (GPa) = 32.22194 46.19362 39.20778
# Shear Modulus (GPa) = 23.72203 27.37186 25.54694
#
# Velocity S-wave (km/s) = 3.46877 3.72607 3.59972
# Velocity P-wave (km/s) = 5.69094 6.47626 6.09626
#
# Compressibility (1/GPa) = 0.03103476
#
# Stress axis : x y z
#
# Youngs Moduli (GPa) = 95.04376 36.66955 71.16480
#
# Poissons Ratio (x) = -0.01522 0.31809
# Poissons Ratio (y) = -0.03944 0.45188
# Poissons Ratio (z) = 0.42482 0.23284
#
# Static dielectric constant tensor:
#      x y z
#    x 3.836440 0.000000 -0.015680 
#    y 0.000000 3.390540 0.000000 
#    z -0.015680 0.000000 3.735690 
# 
# 
# High freq. dielectric constant tensor:
#      x y z
#    x 1.773550 0.000000 0.008000 
#    y 0.000000 1.750480 0.000000 
#    z 0.008000 0.000000 1.767570 
# 
# From -- ./inp_files/186488.got.cif
#   From: 2010.06.25/outbox.cif.g09.slc.cpg/sg12_94_cif.got.tgz:186488.got - 2010.06.28 00:19:55.
