data_PCOD8114862
_publ_section_title
;
Structure prediction by ZEFSAII (Michael W. Deem and Ramdas Pophale) SiO2 
 PCOD8114862
Probable space group: C 2/M
;
_chemical_formula_sum "Si O2"
_cell_formula_units_Z 56
_cell_length_a 9.105878
_cell_length_b 25.794085
_cell_length_c 18.213983
_cell_angle_alpha 90.000000
_cell_angle_beta 137.553725
_cell_angle_gamma 90.000000
_cell_volume 2887.256691
_symmetry_space_group_name_H-M "C 2/M"
_symmetry_group_IT_number 12
_symmetry_cell_setting 'monoclinic'
loop_
_space_group_symop_operation_xyz
x,y,z
-x,y,-z
-x,-y,-z
x,-y,z
1/2+x,1/2+y,z
1/2-x,1/2+y,-z
1/2-x,1/2-y,-z
1/2+x,1/2-y,z
loop_
_atom_site_type_symbol
_atom_site_label
_atom_site_fract_x
_atom_site_fract_y
_atom_site_fract_z
Si Si1 0.600707 0.304502 0.616320
Si Si2 0.988717 0.875867 0.806965
Si Si3 0.324308 0.695433 0.999310
Si Si4 0.663419 0.057302 0.127347
Si Si5 0.018807 0.624002 0.196650
Si Si6 0.332567 0.559635 0.872191
Si Si7 0.255224 0.198383 0.384479
O O1 0.500000 0.316790 0.500000
O O2 0.754556 0.353288 0.690776
O O3 0.745443 0.252088 0.662280
O O4 0.412717 0.297526 0.608813
O O5 0.168203 0.895423 0.816270
O O6 0.934987 0.929195 0.830494
O O7 0.801059 0.849352 0.689611
O O8 0.075086 0.833877 0.895079
O O9 0.103759 0.668817 0.891903
O O10 0.500000 0.700468 0.000000
O O11 0.250000 0.750000 0.000000
O O12 0.537429 0.072062 0.154553
O O13 0.767792 0.000000 0.174698
O O14 0.500000 0.057308 0.000000
O O15 0.866868 0.600502 0.204344
O O16 0.261533 0.500000 0.851598
O O17 0.500000 0.574278 0.000000
O O18 0.500000 0.187404 0.500000
#
# Coordination Sequence:
#
# PCOD8114862 Si02
#       7
#     8   8   8   8   8   8   8
#     4  11  25  42  66  93 122 163 210 254 307 373
#     4  12  22  40  62  92 127 161 204 253 311 367
#     4  12  26  38  57  90 128 166 201 248 309 374
#     4  11  22  38  63  94 127 163 206 254 302 366
#     4  12  22  40  62  92 127 161 204 253 311 367
#     4  11  22  40  65  94 127 167 212 254 306 368
#     4  11  25  42  66  93 122 163 210 254 307 373
#
# _framework density 19.395574
#
# number of rings (size 3 to 8) (size 9 to 14) (size 15 to 20)
#    0.000    0.571    5.714    3.429    6.000    4.571 
#    0.000    0.000    0.000    5.143    0.000    0.000 
#    0.000    0.000    0.000    0.000    0.000    0.000 
#
# Total GULP energy -347081.623661 kJ/mol
# GULP energy per Si atom -12395.772274 kJ/mol
# Density = 1.935143 g / cm^3
# Si number density = 19.395574 Si / 1000 Ang^3
#
#
#
# Elastic Constant Matrix: (Units=GPa)
#
#
# Indices 1 2 3 4 5 6 
#
# 1 91.8667 42.8618 34.8181 0.0000 3.9919 0.0001
# 2 42.8618 129.8474 53.1225 -0.0002 4.4901 0.0003
# 3 34.8181 53.1225 82.4778 0.0016 3.9164 -0.0021
# 4 0.0000 -0.0002 0.0016 46.6458 0.0006 -26.7129
# 5 3.9919 4.4901 3.9164 0.0006 29.0420 -0.0008
# 6 0.0001 0.0003 -0.0021 -26.7129 -0.0008 96.6372
#
#
#
# Elastic Compliance Matrix: (Units=1/GPa)
#
#
# Indices 1 2 3 4 5 6 
#
# 1 0.013760 -0.002922 -0.003884 0.000000 -0.000916 0.000000
# 2 -0.002922 0.011092 -0.005886 0.000000 -0.000520 0.000000
# 3 -0.003884 -0.005886 0.017599 0.000000 -0.000929 0.000000
# 4 0.000000 0.000000 0.000000 0.025470 0.000000 0.007041
# 5 -0.000916 -0.000520 -0.000929 0.000000 0.034764 0.000000
# 6 0.000000 0.000000 0.000000 0.007041 0.000000 0.012294
#
#
# Mechanical properties :
#
#
# Convention : Reuss Voigt Hill
#
# Bulk Modulus (GPa) = 58.58692 62.86629 60.72661
# Shear Modulus (GPa) = 34.23442 46.02429 40.12936
#
# Velocity S-wave (km/s) = 4.20582 4.87656 4.55356
# Velocity P-wave (km/s) = 7.33875 8.01192 7.68271
#
# Compressibility (1/GPa) = 0.01706866
#
# Stress axis : x y z
#
# Youngs Moduli (GPa) = 72.67348 90.15699 56.82095
#
# Poissons Ratio (x) = 0.26341 0.22067
# Poissons Ratio (y) = 0.21233 0.33445
# Poissons Ratio (z) = 0.28224 0.53066
#
# Static dielectric constant tensor:
#      x y z
#    x 3.701450 0.000000 -0.047500 
#    y 0.000000 3.620350 0.000000 
#    z -0.047500 0.000000 3.365850 
# 
# 
# High freq. dielectric constant tensor:
#      x y z
#    x 1.778900 0.000000 0.000530 
#    y 0.000000 1.764890 0.000000 
#    z 0.000530 0.000000 1.730650 
# 
# From -- ./inp_files/259857.got.cif
#   From: 2010.06.25/outbox.cif.g09.slc.cpg/sg12_130_cif.got.tgz:259857.got - 2010.06.28 00:19:55.
