data_PCOD8114779
_publ_section_title
;
Structure prediction by ZEFSAII (Michael W. Deem and Ramdas Pophale) SiO2 
 PCOD8114779
Probable space group: C 2/M
;
_chemical_formula_sum "Si O2"
_cell_formula_units_Z 56
_cell_length_a 13.944222
_cell_length_b 15.872170
_cell_length_c 20.683059
_cell_angle_alpha 90.000000
_cell_angle_beta 34.273891
_cell_angle_gamma 90.000000
_cell_volume 2577.918036
_symmetry_space_group_name_H-M "C 2/M"
_symmetry_group_IT_number 12
_symmetry_cell_setting 'monoclinic'
loop_
_space_group_symop_operation_xyz
x,y,z
-x,y,-z
-x,-y,-z
x,-y,z
1/2+x,1/2+y,z
1/2-x,1/2+y,-z
1/2-x,1/2-y,-z
1/2+x,1/2-y,z
loop_
_atom_site_type_symbol
_atom_site_label
_atom_site_fract_x
_atom_site_fract_y
_atom_site_fract_z
Si Si1 0.718314 0.909248 0.644538
Si Si2 0.597563 0.774437 0.320613
Si Si3 0.631774 0.906343 0.483855
Si Si4 0.514897 0.407284 0.390030
Si Si5 0.891219 0.699289 0.828096
Si Si6 0.920143 0.095159 0.976695
Si Si7 0.110617 0.163270 0.755334
O O1 0.860919 0.901084 0.619021
O O2 0.575846 0.841065 0.733115
O O3 0.817328 0.900548 0.521256
O O4 0.627726 0.000000 0.698796
O O5 0.435846 0.833753 0.429746
O O6 0.545590 0.677663 0.332320
O O7 0.669834 0.805860 0.212094
O O8 0.741931 0.777146 0.295706
O O9 0.500000 0.914059 0.500000
O O10 0.814688 0.881951 0.350485
O O11 0.647242 0.000000 0.508118
O O12 0.542679 0.500000 0.339906
O O13 0.934197 0.790844 0.833258
O O14 0.741980 0.653812 0.951030
O O15 0.057426 0.099016 0.842049
O O16 0.854542 0.000000 0.020309
O O17 0.000000 0.125682 0.000000
#
# Coordination Sequence:
#
# PCOD8114779 Si02
#       7
#     8   8   8   8   8   8   8
#     4   9  18  32  55  85 117 156 201 250 301 357
#     4  11  22  37  61  93 127 164 209 254 309 373
#     4   9  20  36  59  90 129 171 203 247 313 379
#     4   9  18  35  56  83 124 165 200 244 301 361
#     4  12  23  38  63  93 121 162 210 256 312 377
#     4  11  24  43  65  90 121 159 208 269 322 372
#     4  11  22  41  62  87 126 163 207 256 315 376
#
# _framework density 21.722954999999999
#
# number of rings (size 3 to 8) (size 9 to 14) (size 15 to 20)
#    0.000    1.714    2.857    3.000    4.000    4.000 
#    0.000    2.857    0.000    0.000    0.000    2.000 
#    0.000    0.000    0.000    0.000    0.000    0.000 
#
# Total GULP energy -346878.958091 kJ/mol
# GULP energy per Si atom -12388.534218 kJ/mol
# Density = 2.167351 g / cm^3
# Si number density = 21.722955 Si / 1000 Ang^3
#
#
#
# Elastic Constant Matrix: (Units=GPa)
#
#
# Indices 1 2 3 4 5 6 
#
# 1 36.3474 14.8821 9.5441 0.0002 -4.9676 0.0000
# 2 14.8821 133.5690 40.3590 -0.0003 -2.6227 0.0001
# 3 9.5441 40.3590 92.4140 0.0005 2.2720 -0.0003
# 4 0.0002 -0.0003 0.0005 30.0689 -0.0001 -3.2445
# 5 -4.9676 -2.6227 2.2720 -0.0001 31.1761 0.0003
# 6 0.0000 0.0001 -0.0003 -3.2445 0.0003 14.8571
#
#
#
# Elastic Compliance Matrix: (Units=1/GPa)
#
#
# Indices 1 2 3 4 5 6 
#
# 1 0.029755 -0.002604 -0.002051 0.000000 0.004672 0.000000
# 2 -0.002604 0.008884 -0.003626 0.000000 0.000597 0.000000
# 3 -0.002051 -0.003626 0.012654 0.000000 -0.001554 0.000000
# 4 0.000000 0.000000 0.000000 0.034060 0.000000 0.007438
# 5 0.004672 0.000597 -0.001554 0.000000 0.032984 -0.000001
# 6 0.000000 0.000000 0.000000 0.007438 -0.000001 0.068932
#
#
# Mechanical properties :
#
#
# Convention : Reuss Voigt Hill
#
# Bulk Modulus (GPa) = 28.79082 43.54452 36.16767
# Shear Modulus (GPa) = 23.21185 28.39011 25.80098
#
# Velocity S-wave (km/s) = 3.27240 3.61905 3.45008
# Velocity P-wave (km/s) = 5.24981 6.12799 5.70582
#
# Compressibility (1/GPa) = 0.03473329
#
# Stress axis : x y z
#
# Youngs Moduli (GPa) = 33.60733 112.56036 79.02496
#
# Poissons Ratio (x) = 0.29310 0.16205
# Poissons Ratio (y) = 0.08751 0.28651
# Poissons Ratio (z) = 0.06892 0.40810
#
# Static dielectric constant tensor:
#      x y z
#    x 3.658960 0.000000 -0.024740 
#    y 0.000000 4.249650 0.000000 
#    z -0.024740 0.000000 3.740200 
# 
# 
# High freq. dielectric constant tensor:
#      x y z
#    x 1.844830 0.000000 -0.010230 
#    y 0.000000 1.861010 0.000000 
#    z -0.010230 0.000000 1.830960 
# 
# From -- ./inp_files/340311.got.cif
#   From: 2010.06.25/outbox.cif.g09.slc.cpg/sg12_171_cif.got.tgz:340311.got - 2010.06.28 00:19:55.
