data_PCOD8114100
_publ_section_title
;
Structure prediction by ZEFSAII (Michael W. Deem and Ramdas Pophale) SiO2 
 PCOD8114100
Probable space group: C 2/M
;
_chemical_formula_sum "Si O2"
_cell_formula_units_Z 56
_cell_length_a 14.304860
_cell_length_b 9.250492
_cell_length_c 27.627698
_cell_angle_alpha 90.000000
_cell_angle_beta 122.230525
_cell_angle_gamma 90.000000
_cell_volume 3092.550971
_symmetry_space_group_name_H-M "C 2/M"
_symmetry_group_IT_number 12
_symmetry_cell_setting 'monoclinic'
loop_
_space_group_symop_operation_xyz
x,y,z
-x,y,-z
-x,-y,-z
x,-y,z
1/2+x,1/2+y,z
1/2-x,1/2+y,-z
1/2-x,1/2-y,-z
1/2+x,1/2-y,z
loop_
_atom_site_type_symbol
_atom_site_label
_atom_site_fract_x
_atom_site_fract_y
_atom_site_fract_z
Si Si1 0.057205 0.667701 0.649507
Si Si2 0.413156 0.327925 0.142840
Si Si3 0.828859 0.329249 0.948750
Si Si4 0.987857 0.671070 0.074752
Si Si5 0.748042 0.168330 0.350113
Si Si6 0.500153 0.167013 0.742637
Si Si7 0.811561 0.670524 0.559718
O O1 0.076397 0.500000 0.644901
O O2 0.156432 0.751006 0.651959
O O3 0.055471 0.699420 0.706194
O O4 0.940128 0.716982 0.594594
O O5 0.421908 0.500000 0.144349
O O6 0.292873 0.268082 0.094024
O O7 0.496566 0.257783 0.127302
O O8 0.440315 0.272334 0.203565
O O9 0.827975 0.500000 0.947929
O O10 0.906172 0.277406 0.926254
O O11 0.878783 0.279803 0.014263
O O12 0.988158 0.500000 0.085119
O O13 0.629869 0.203686 0.293636
O O14 0.745048 0.217074 0.405360
O O15 0.773633 0.000000 0.353659
O O16 0.518164 0.000000 0.762092
O O17 0.801294 0.500000 0.549767
O O18 0.750000 0.750000 0.500000
#
# Coordination Sequence:
#
# PCOD8114100 Si02
#       7
#     8   8   8   8   8   8   8
#     4   9  19  36  56  76 102 135 172 211 252 293
#     4  11  21  32  49  77 104 125 160 212 256 292
#     4   8  17  33  52  72  97 130 166 200 243 303
#     4   9  17  34  55  71  94 133 169 197 242 306
#     4   9  19  36  56  75 100 135 173 208 248 297
#     4   9  20  38  53  69  98 136 171 204 247 303
#     4   9  19  35  53  78 110 140 169 206 248 296
#
# _framework density 18.108028000000001
#
# number of rings (size 3 to 8) (size 9 to 14) (size 15 to 20)
#    0.000    2.857    0.000    3.429    0.000    4.000 
#    0.000   13.571    0.000    0.000    0.000    0.000 
#    0.000    0.000    0.000    0.000    0.000    0.000 
#
# Total GULP energy -347130.162556 kJ/mol
# GULP energy per Si atom -12397.505806 kJ/mol
# Density = 1.806681 g / cm^3
# Si number density = 18.108028 Si / 1000 Ang^3
#
#
#
# Elastic Constant Matrix: (Units=GPa)
#
#
# Indices 1 2 3 4 5 6 
#
# 1 119.7681 46.2836 43.0956 0.0000 -7.9481 0.0000
# 2 46.2836 59.5763 43.5793 0.0000 -5.0789 0.0000
# 3 43.0956 43.5793 98.9428 0.0000 -9.5123 0.0000
# 4 0.0000 0.0000 0.0000 35.5277 0.0000 -2.3323
# 5 -7.9481 -5.0789 -9.5123 0.0000 17.2579 0.0000
# 6 0.0000 0.0000 0.0000 -2.3323 0.0000 32.6485
#
#
#
# Elastic Compliance Matrix: (Units=1/GPa)
#
#
# Indices 1 2 3 4 5 6 
#
# 1 0.012209 -0.008201 -0.001475 0.000000 0.002396 0.000000
# 2 -0.008201 0.030303 -0.009800 0.000000 -0.000261 0.000000
# 3 -0.001475 -0.009800 0.015547 0.000000 0.005006 0.000000
# 4 0.000000 0.000000 0.000000 0.028280 0.000000 0.002020
# 5 0.002396 -0.000261 0.005006 0.000000 0.061730 0.000000
# 6 0.000000 0.000000 0.000000 0.002020 0.000000 0.030774
#
#
# Mechanical properties :
#
#
# Convention : Reuss Voigt Hill
#
# Bulk Modulus (GPa) = 52.33919 60.46711 56.40315
# Shear Modulus (GPa) = 22.30522 26.77542 24.54032
#
# Velocity S-wave (km/s) = 3.51349 3.84949 3.68532
# Velocity P-wave (km/s) = 6.73989 7.29541 7.02314
#
# Compressibility (1/GPa) = 0.01910614
#
# Stress axis : x y z
#
# Youngs Moduli (GPa) = 81.90965 33.00013 64.32197
#
# Poissons Ratio (x) = 0.27065 0.09487
# Poissons Ratio (y) = 0.67178 0.63034
# Poissons Ratio (z) = 0.12081 0.32339
#
# Static dielectric constant tensor:
#      x y z
#    x 3.498200 0.000000 0.105540 
#    y 0.000000 3.066840 0.000000 
#    z 0.105540 0.000000 3.443670 
# 
# 
# High freq. dielectric constant tensor:
#      x y z
#    x 1.707500 0.000000 -0.004010 
#    y 0.000000 1.684110 0.000000 
#    z -0.004010 0.000000 1.703860 
# 
# From -- ./inp_files/359655.got.cif
#   From: 2010.06.25/outbox.cif.g09.slc.cpg/sg12_180_cif.got.tgz:359655.got - 2010.06.28 00:19:55.
