data_PCOD8114656
_publ_section_title
;
Structure prediction by ZEFSAII (Michael W. Deem and Ramdas Pophale) SiO2 
 PCOD8114656
Probable space group: C 2/M
;
_chemical_formula_sum "Si O2"
_cell_formula_units_Z 64
_cell_length_a 19.934845
_cell_length_b 18.869672
_cell_length_c 9.964699
_cell_angle_alpha 90.000000
_cell_angle_beta 106.326094
_cell_angle_gamma 90.000000
_cell_volume 3597.217129
_symmetry_space_group_name_H-M "C 2/M"
_symmetry_group_IT_number 12
_symmetry_cell_setting 'monoclinic'
loop_
_space_group_symop_operation_xyz
x,y,z
-x,y,-z
-x,-y,-z
x,-y,z
1/2+x,1/2+y,z
1/2-x,1/2+y,-z
1/2-x,1/2-y,-z
1/2+x,1/2-y,z
loop_
_atom_site_type_symbol
_atom_site_label
_atom_site_fract_x
_atom_site_fract_y
_atom_site_fract_z
Si Si1 0.330651 0.281329 0.697724
Si Si2 0.103388 0.080498 0.159014
Si Si3 0.613237 0.079365 0.569363
Si Si4 0.324193 0.775184 0.400004
Si Si5 0.047714 0.796054 0.655928
Si Si6 0.501941 0.078519 0.721949
Si Si7 0.445028 0.420482 0.158802
Si Si8 0.031538 0.714908 0.156896
O O1 0.346067 0.363652 0.739751
O O2 0.334516 0.270038 0.540455
O O3 0.252770 0.261002 0.704422
O O4 0.385298 0.228987 0.801729
O O5 0.026322 0.090301 0.173688
O O6 0.130044 0.000000 0.200141
O O7 0.101308 0.096322 0.998599
O O8 0.671086 0.139601 0.575793
O O9 0.577435 0.089988 0.695141
O O10 0.555486 0.089962 0.423814
O O11 0.646163 0.000000 0.578968
O O12 0.384892 0.752183 0.332913
O O13 0.076409 0.869984 0.730449
O O14 0.000000 0.809284 0.500000
O O15 0.999712 0.758498 0.738145
O O16 0.487457 0.132542 0.834884
O O17 0.497262 0.000000 0.781480
O O18 0.430148 0.500000 0.198868
O O19 0.000000 0.742793 0.000000
#
# Coordination Sequence:
#
# PCOD8114656 Si02
#       8
#     8   8   8   8   8   8   8   8
#     4  11  22  36  53  84 116 142 183 233 279 322
#     4   9  17  34  55  79 110 146 183 222 274 335
#     4   9  16  31  56  82 107 139 181 225 272 327
#     4  11  22  35  55  83 115 145 181 235 277 326
#     4  12  20  35  59  82 111 147 188 227 275 330
#     4   9  17  31  55  83 107 137 183 229 270 321
#     4   9  18  32  56  83 108 140 184 231 273 321
#     4  12  22  35  58  83 113 146 187 228 275 332
#
# _framework density 17.791530999999999
#
# number of rings (size 3 to 8) (size 9 to 14) (size 15 to 20)
#    0.000    1.750    5.000    2.250    0.000    1.000 
#    0.000    3.125    0.000    1.500    0.000    0.000 
#    0.000    0.000    0.000    0.000    0.000    0.000 
#
# Total GULP energy -396707.638609 kJ/mol
# GULP energy per Si atom -12397.113707 kJ/mol
# Density = 1.775104 g / cm^3
# Si number density = 17.791531 Si / 1000 Ang^3
#
#
#
# Elastic Constant Matrix: (Units=GPa)
#
#
# Indices 1 2 3 4 5 6 
#
# 1 73.4539 34.7827 32.5773 0.0000 14.1775 0.0000
# 2 34.7827 129.9271 52.4006 0.0000 3.0866 0.0000
# 3 32.5773 52.4006 82.3300 0.0000 7.9697 0.0000
# 4 0.0000 0.0000 0.0000 25.8570 0.0000 -1.9461
# 5 14.1775 3.0866 7.9697 0.0000 19.1189 0.0000
# 6 0.0000 0.0000 0.0000 -1.9461 0.0000 19.6176
#
#
#
# Elastic Compliance Matrix: (Units=1/GPa)
#
#
# Indices 1 2 3 4 5 6 
#
# 1 0.019407 -0.003070 -0.004564 0.000000 -0.011993 0.000000
# 2 -0.003070 0.010863 -0.005992 0.000000 0.003020 0.000000
# 3 -0.004564 -0.005992 0.018074 0.000000 -0.003182 0.000000
# 4 0.000000 0.000000 0.000000 0.038965 0.000000 0.003865
# 5 -0.011993 0.003020 -0.003182 0.000000 0.062036 0.000000
# 6 0.000000 0.000000 0.000000 0.003865 0.000000 0.051358
#
#
# Mechanical properties :
#
#
# Convention : Reuss Voigt Hill
#
# Bulk Modulus (GPa) = 47.41106 58.35913 52.88509
# Shear Modulus (GPa) = 21.27788 23.98206 22.62997
#
# Velocity S-wave (km/s) = 3.46201 3.67542 3.57031
# Velocity P-wave (km/s) = 6.53350 7.13334 6.84000
#
# Compressibility (1/GPa) = 0.02109213
#
# Stress axis : x y z
#
# Youngs Moduli (GPa) = 51.52889 92.05403 55.32804
#
# Poissons Ratio (x) = 0.28256 0.25254
# Poissons Ratio (y) = 0.15817 0.33152
# Poissons Ratio (z) = 0.23520 0.55158
#
# Static dielectric constant tensor:
#      x y z
#    x 3.155900 0.000000 -0.006870 
#    y 0.000000 3.724930 0.000000 
#    z -0.006870 0.000000 3.175340 
# 
# 
# High freq. dielectric constant tensor:
#      x y z
#    x 1.660080 0.000000 0.002870 
#    y 0.000000 1.704750 0.000000 
#    z 0.002870 0.000000 1.668420 
# 
# From -- ./inp_files/89190.got.cif
#   From: 2010.06.25/outbox.cif.g09.slc.cpg/sg12_45_cif.got.tgz:89190.got - 2010.06.28 00:19:55.
