data_PCOD8114695
_publ_section_title
;
Structure prediction by ZEFSAII (Michael W. Deem and Ramdas Pophale) SiO2 
 PCOD8114695
Probable space group: C 2/M
;
_chemical_formula_sum "Si O2"
_cell_formula_units_Z 56
_cell_length_a 19.364453
_cell_length_b 8.840636
_cell_length_c 20.167360
_cell_angle_alpha 90.000000
_cell_angle_beta 61.040444
_cell_angle_gamma 90.000000
_cell_volume 3020.833859
_symmetry_space_group_name_H-M "C 2/M"
_symmetry_group_IT_number 12
_symmetry_cell_setting 'monoclinic'
loop_
_space_group_symop_operation_xyz
x,y,z
-x,y,-z
-x,-y,-z
x,-y,z
1/2+x,1/2+y,z
1/2-x,1/2+y,-z
1/2-x,1/2-y,-z
1/2+x,1/2-y,z
loop_
_atom_site_type_symbol
_atom_site_label
_atom_site_fract_x
_atom_site_fract_y
_atom_site_fract_z
Si Si1 0.458973 0.679839 0.420468
Si Si2 0.872179 0.177609 0.119555
Si Si3 0.488562 0.821280 0.871004
Si Si4 0.428594 0.673730 0.288920
Si Si5 0.229639 0.170430 0.710329
Si Si6 0.116839 0.821694 0.413076
Si Si7 0.829923 0.178883 0.990237
O O1 0.456419 0.500000 0.418642
O O2 0.438150 0.744180 0.357770
O O3 0.396354 0.737971 0.505215
O O4 0.545914 0.738848 0.399853
O O5 0.805585 0.227754 0.203258
O O6 0.840112 0.222227 0.062631
O O7 0.954273 0.262179 0.096893
O O8 0.890231 0.000000 0.118536
O O9 0.521445 0.776126 0.784055
O O10 0.480955 0.000000 0.880261
O O11 0.402763 0.747347 0.916336
O O12 0.458340 0.500000 0.269696
O O13 0.336447 0.682584 0.315248
O O14 0.301020 0.274396 0.655880
O O15 0.260927 0.000000 0.702948
O O16 0.113153 0.000000 0.416044
O O17 0.827365 0.000000 0.981231
O O18 0.750000 0.250000 0.000000
#
# Coordination Sequence:
#
# PCOD8114695 Si02
#       7
#     8   8   8   8   8   8   8
#     4   8  16  32  52  72  97 134 176 213 253 306
#     4   9  20  39  59  77 104 143 178 212 261 318
#     4  11  22  36  56  82 109 137 175 222 266 313
#     4   9  18  35  55  73  99 138 177 211 255 312
#     4   9  18  32  50  74 102 131 166 208 255 307
#     4   9  17  31  51  74 100 131 170 214 258 306
#     4  11  23  39  58  81 110 142 177 217 262 311
#
# _framework density 18.537928000000001
#
# number of rings (size 3 to 8) (size 9 to 14) (size 15 to 20)
#    0.000    2.571    0.000    3.857    0.000    6.857 
#    0.000    5.714    0.000    0.000    0.000    0.000 
#    0.000    0.000    0.000    0.000    0.000    0.000 
#
# Total GULP energy -347159.689982 kJ/mol
# GULP energy per Si atom -12398.560356 kJ/mol
# Density = 1.849574 g / cm^3
# Si number density = 18.537928 Si / 1000 Ang^3
#
#
#
# Elastic Constant Matrix: (Units=GPa)
#
#
# Indices 1 2 3 4 5 6 
#
# 1 83.1533 23.9333 41.5652 0.0000 -12.6310 -0.0004
# 2 23.9333 51.1538 17.3096 0.0002 -7.9590 -0.0011
# 3 41.5652 17.3096 73.9575 0.0000 -13.3416 -0.0002
# 4 0.0000 0.0002 0.0000 27.1348 0.0000 -7.9602
# 5 -12.6310 -7.9590 -13.3416 0.0000 32.0310 0.0000
# 6 -0.0004 -0.0011 -0.0002 -7.9602 0.0000 28.0097
#
#
#
# Elastic Compliance Matrix: (Units=1/GPa)
#
#
# Indices 1 2 3 4 5 6 
#
# 1 0.018167 -0.005243 -0.008569 0.000000 0.002292 0.000000
# 2 -0.005243 0.023106 -0.001944 0.000000 0.002864 0.000001
# 3 -0.008569 -0.001944 0.019566 0.000000 0.004287 0.000000
# 4 0.000000 0.000000 0.000000 0.040205 0.000000 0.011426
# 5 0.002292 0.002864 0.004287 0.000000 0.034621 0.000000
# 6 0.000000 0.000001 0.000000 0.011426 0.000000 0.038949
#
#
# Mechanical properties :
#
#
# Convention : Reuss Voigt Hill
#
# Bulk Modulus (GPa) = 34.10178 41.54232 37.82205
# Shear Modulus (GPa) = 23.15865 25.79886 24.47876
#
# Velocity S-wave (km/s) = 3.53832 3.73457 3.63777
# Velocity P-wave (km/s) = 5.92693 6.40734 6.17181
#
# Compressibility (1/GPa) = 0.02932398
#
# Stress axis : x y z
#
# Youngs Moduli (GPa) = 55.04554 43.27956 51.10934
#
# Poissons Ratio (x) = 0.22693 0.43798
# Poissons Ratio (y) = 0.28863 0.09937
# Poissons Ratio (z) = 0.47171 0.08415
#
# Static dielectric constant tensor:
#      x y z
#    x 3.479760 0.000000 0.144480 
#    y 0.000000 3.177390 0.000000 
#    z 0.144480 0.000000 3.625770 
# 
# 
# High freq. dielectric constant tensor:
#      x y z
#    x 1.717640 0.000000 0.003390 
#    y 0.000000 1.698610 0.000000 
#    z 0.003390 0.000000 1.730070 
# 
# From -- ./inp_files/275231.got.cif
#   From: 2010.06.25/outbox.cif.g09.slc.cpg/sg12_138_cif.got.tgz:275231.got - 2010.06.28 00:19:55.
