data_PCOD8114312
_publ_section_title
;
Structure prediction by ZEFSAII (Michael W. Deem and Ramdas Pophale) SiO2 
 PCOD8114312
Probable space group: C 2/M
;
_chemical_formula_sum "Si O2"
_cell_formula_units_Z 56
_cell_length_a 11.747222
_cell_length_b 18.456396
_cell_length_c 15.964045
_cell_angle_alpha 90.000000
_cell_angle_beta 117.684741
_cell_angle_gamma 90.000000
_cell_volume 3064.940968
_symmetry_space_group_name_H-M "C 2/M"
_symmetry_group_IT_number 12
_symmetry_cell_setting 'monoclinic'
loop_
_space_group_symop_operation_xyz
x,y,z
-x,y,-z
-x,-y,-z
x,-y,z
1/2+x,1/2+y,z
1/2-x,1/2+y,-z
1/2-x,1/2-y,-z
1/2+x,1/2-y,z
loop_
_atom_site_type_symbol
_atom_site_label
_atom_site_fract_x
_atom_site_fract_y
_atom_site_fract_z
Si Si1 0.477449 0.180969 0.282656
Si Si2 0.773763 0.817605 0.398965
Si Si3 0.637677 0.840888 0.584546
Si Si4 0.357824 0.583224 0.573693
Si Si5 0.905881 0.841208 0.270010
Si Si6 0.451609 0.916344 0.115954
Si Si7 0.797560 0.583204 0.902692
O O1 0.623612 0.163944 0.359765
O O2 0.376378 0.160141 0.320286
O O3 0.469405 0.266347 0.261906
O O4 0.431958 0.135463 0.187758
O O5 0.807104 0.734696 0.433490
O O6 0.854774 0.868560 0.488611
O O7 0.811951 0.833030 0.316860
O O8 0.500000 0.857738 0.500000
O O9 0.734234 0.903937 0.590278
O O10 0.361882 0.500000 0.547381
O O11 0.483340 0.601989 0.670172
O O12 0.825370 0.869318 0.163319
O O13 0.583745 0.895744 0.115876
O O14 0.453370 0.000000 0.145875
O O15 0.334070 0.902512 0.011825
O O16 0.761633 0.500000 0.876362
#
# Coordination Sequence:
#
# PCOD8114312 Si02
#       7
#     8   8   8   8   8   8   8
#     4  11  21  36  62  82 112 151 187 230 280 327
#     4  11  21  39  58  81 111 151 188 233 277 323
#     4  11  22  39  58  77 111 155 193 224 272 330
#     4  12  25  38  55  83 118 149 186 229 276 335
#     4  11  22  36  60  84 112 147 188 232 279 333
#     4   9  19  36  58  85 112 141 183 232 282 334
#     4   9  18  35  59  84 113 144 178 232 288 328
#
# _framework density 18.271151
#
# number of rings (size 3 to 8) (size 9 to 14) (size 15 to 20)
#    0.000    1.429    4.286    3.857    0.000    3.714 
#    0.000    0.000    0.000    0.857    0.000    3.000 
#    0.000    0.000    0.000    0.000    0.000    0.000 
#
# Total GULP energy -347314.936203 kJ/mol
# GULP energy per Si atom -12404.104864 kJ/mol
# Density = 1.822957 g / cm^3
# Si number density = 18.271151 Si / 1000 Ang^3
#
#
#
# Elastic Constant Matrix: (Units=GPa)
#
#
# Indices 1 2 3 4 5 6 
#
# 1 60.5680 25.1619 26.6543 0.0000 3.6094 0.0000
# 2 25.1619 93.3502 49.9068 0.0000 -4.0468 0.0000
# 3 26.6543 49.9068 102.3928 0.0000 11.4694 0.0000
# 4 0.0000 0.0000 0.0000 36.5650 0.0000 -1.5191
# 5 3.6094 -4.0468 11.4694 0.0000 30.6134 0.0000
# 6 0.0000 0.0000 0.0000 -1.5191 0.0000 11.3645
#
#
#
# Elastic Compliance Matrix: (Units=1/GPa)
#
#
# Indices 1 2 3 4 5 6 
#
# 1 0.019497 -0.003664 -0.003108 0.000000 -0.001618 0.000000
# 2 -0.003664 0.015872 -0.007376 0.000000 0.005293 0.000000
# 3 -0.003108 -0.007376 0.014862 0.000000 -0.006177 0.000000
# 4 0.000000 0.000000 0.000000 0.027501 0.000000 0.003676
# 5 -0.001618 0.005293 -0.006177 0.000000 0.035870 0.000000
# 6 0.000000 0.000000 0.000000 0.003676 0.000000 0.088485
#
#
# Mechanical properties :
#
#
# Convention : Reuss Voigt Hill
#
# Bulk Modulus (GPa) = 45.58635 51.08410 48.33522
# Shear Modulus (GPa) = 21.03543 26.01446 23.52495
#
# Velocity S-wave (km/s) = 3.39675 3.77742 3.59213
# Velocity P-wave (km/s) = 6.35515 6.85892 6.61184
#
# Compressibility (1/GPa) = 0.02193639
#
# Stress axis : x y z
#
# Youngs Moduli (GPa) = 51.29079 63.00240 67.28483
#
# Poissons Ratio (x) = 0.23082 0.20914
# Poissons Ratio (y) = 0.18791 0.49626
# Poissons Ratio (z) = 0.15943 0.46468
#
# Static dielectric constant tensor:
#      x y z
#    x 3.355250 0.000000 0.004340 
#    y 0.000000 3.264160 0.000000 
#    z 0.004340 0.000000 3.315330 
# 
# 
# High freq. dielectric constant tensor:
#      x y z
#    x 1.704170 0.000000 0.004650 
#    y 0.000000 1.701430 0.000000 
#    z 0.004650 0.000000 1.707630 
# 
# From -- ./inp_files/206775.got.cif
#   From: 2010.06.25/outbox.cif.g09.slc.cpg/sg12_104_cif.got.tgz:206775.got - 2010.06.28 00:19:55.
