data_PCOD8114129
_publ_section_title
;
Structure prediction by ZEFSAII (Michael W. Deem and Ramdas Pophale) SiO2 
 PCOD8114129
Probable space group: C 2/M
;
_chemical_formula_sum "Si O2"
_cell_formula_units_Z 64
_cell_length_a 19.817012
_cell_length_b 8.942266
_cell_length_c 24.717816
_cell_angle_alpha 90.000000
_cell_angle_beta 54.998118
_cell_angle_gamma 90.000000
_cell_volume 3587.983046
_symmetry_space_group_name_H-M "C 2/M"
_symmetry_group_IT_number 12
_symmetry_cell_setting 'monoclinic'
loop_
_space_group_symop_operation_xyz
x,y,z
-x,y,-z
-x,-y,-z
x,-y,z
1/2+x,1/2+y,z
1/2-x,1/2+y,-z
1/2-x,1/2-y,-z
1/2+x,1/2-y,z
loop_
_atom_site_type_symbol
_atom_site_label
_atom_site_fract_x
_atom_site_fract_y
_atom_site_fract_z
Si Si1 0.909148 0.172475 0.057391
Si Si2 0.334166 0.176676 0.800711
Si Si3 0.522903 0.176285 0.698346
Si Si4 0.838474 0.822587 0.295571
Si Si5 0.260081 0.670084 0.051620
Si Si6 0.728128 0.334133 0.428442
Si Si7 0.691595 0.822725 0.804670
Si Si8 0.374512 0.835096 0.446535
O O1 0.852820 0.192265 0.030274
O O2 0.876654 0.276775 0.120097
O O3 0.907828 0.000000 0.077617
O O4 0.000000 0.226150 0.000000
O O5 0.428736 0.221476 0.750366
O O6 0.303930 0.231039 0.873797
O O7 0.281518 0.260995 0.779367
O O8 0.318713 0.000000 0.800808
O O9 0.577366 0.269538 0.715070
O O10 0.547423 0.219266 0.625160
O O11 0.539004 0.000000 0.700791
O O12 0.757917 0.771732 0.366185
O O13 0.836064 0.748740 0.238461
O O14 0.838160 0.000000 0.290939
O O15 0.238938 0.500000 0.049750
O O16 0.250000 0.750000 0.000000
O O17 0.710644 0.500000 0.413654
O O18 0.643700 0.272392 0.494227
O O19 0.797197 0.339761 0.442224
O O20 0.695054 0.000000 0.797761
O O21 0.391145 0.000000 0.462584
#
# Coordination Sequence:
#
# PCOD8114129 Si02
#       8
#     8   8   8   8   8   8   8   8
#     4   9  19  37  57  76 100 132 170 210 253 300
#     4   9  19  37  56  74 101 138 173 207 254 306
#     4   9  18  33  53  77 104 132 169 216 258 302
#     4  11  21  33  51  75 104 136 173 215 258 303
#     4   9  18  32  51  74 100 129 162 201 245 294
#     4   9  16  27  44  68  99 132 167 208 253 301
#     4  11  22  36  54  76 104 137 174 212 253 305
#     4   8  14  25  43  69  99 130 162 201 254 308
#
# _framework density 17.837319999999998
#
# number of rings (size 3 to 8) (size 9 to 14) (size 15 to 20)
#    0.000    2.625    0.000    4.125    0.000    6.750 
#    0.000    2.500    0.000    0.750    0.000    5.250 
#    0.000    0.000    0.000    0.000    0.000    0.000 
#
# Total GULP energy -396730.368013 kJ/mol
# GULP energy per Si atom -12397.824000 kJ/mol
# Density = 1.779672 g / cm^3
# Si number density = 17.837320 Si / 1000 Ang^3
#
#
#
# Elastic Constant Matrix: (Units=GPa)
#
#
# Indices 1 2 3 4 5 6 
#
# 1 75.8029 45.2129 65.1947 -0.0003 -15.6298 -0.0004
# 2 45.2129 107.5644 50.6625 -0.0008 -0.1259 -0.0012
# 3 65.1947 50.6625 103.1183 -0.0001 -18.2549 -0.0004
# 4 -0.0003 -0.0008 -0.0001 31.8678 0.0000 3.7380
# 5 -15.6298 -0.1259 -18.2549 0.0000 26.3147 -0.0001
# 6 -0.0004 -0.0012 -0.0004 3.7380 -0.0001 24.0918
#
#
#
# Elastic Compliance Matrix: (Units=1/GPa)
#
#
# Indices 1 2 3 4 5 6 
#
# 1 0.032137 -0.005978 -0.015968 0.000000 0.007982 0.000000
# 2 -0.005978 0.013725 -0.004082 0.000000 -0.006317 0.000000
# 3 -0.015968 -0.004082 0.022932 0.000000 0.006405 0.000000
# 4 0.000000 0.000000 0.000000 0.031961 0.000000 -0.004959
# 5 0.007982 -0.006317 0.006405 0.000000 0.047155 0.000000
# 6 0.000000 0.000000 0.000000 -0.004959 0.000000 0.042277
#
#
# Mechanical properties :
#
#
# Convention : Reuss Voigt Hill
#
# Bulk Modulus (GPa) = 59.74254 67.62507 63.68380
# Shear Modulus (GPa) = 20.17577 24.81588 22.49583
#
# Velocity S-wave (km/s) = 3.36683 3.73397 3.55514
# Velocity P-wave (km/s) = 6.97709 7.52227 7.25480
#
# Compressibility (1/GPa) = 0.01673849
#
# Stress axis : x y z
#
# Youngs Moduli (GPa) = 31.11700 72.86197 43.60709
#
# Poissons Ratio (x) = 0.43557 0.69631
# Poissons Ratio (y) = 0.18602 0.17799
# Poissons Ratio (z) = 0.49687 0.29740
#
# Static dielectric constant tensor:
#      x y z
#    x 3.099660 0.000000 -0.174240 
#    y 0.000000 3.372880 0.000000 
#    z -0.174240 0.000000 3.535290 
# 
# 
# High freq. dielectric constant tensor:
#      x y z
#    x 1.659320 0.000000 -0.009600 
#    y 0.000000 1.690180 0.000000 
#    z -0.009600 0.000000 1.699900 
# 
# From -- ./inp_files/319918.got.cif
#   From: 2010.06.25/outbox.cif.g09.slc.cpg/sg12_160_cif.got.tgz:319918.got - 2010.06.28 00:19:55.
