data_PCOD8114422
_publ_section_title
;
Structure prediction by ZEFSAII (Michael W. Deem and Ramdas Pophale) SiO2 
 PCOD8114422
Probable space group: C 2/M
;
_chemical_formula_sum "Si O2"
_cell_formula_units_Z 40
_cell_length_a 17.523754
_cell_length_b 12.453264
_cell_length_c 16.861105
_cell_angle_alpha 90.000000
_cell_angle_beta 33.186616
_cell_angle_gamma 90.000000
_cell_volume 2014.074716
_symmetry_space_group_name_H-M "C 2/M"
_symmetry_group_IT_number 12
_symmetry_cell_setting 'monoclinic'
loop_
_space_group_symop_operation_xyz
x,y,z
-x,y,-z
-x,-y,-z
x,-y,z
1/2+x,1/2+y,z
1/2-x,1/2+y,-z
1/2-x,1/2-y,-z
1/2+x,1/2-y,z
loop_
_atom_site_type_symbol
_atom_site_label
_atom_site_fract_x
_atom_site_fract_y
_atom_site_fract_z
Si Si1 0.981095 0.119205 0.428025
Si Si2 0.833335 0.623517 0.645652
Si Si3 0.217407 0.281670 0.617066
Si Si4 0.196360 0.266619 0.167303
Si Si5 0.409700 0.872658 0.894144
O O1 0.059244 0.193890 0.297288
O O2 0.000000 0.166664 0.500000
O O3 0.817195 0.118169 0.551530
O O4 0.043355 0.000000 0.368592
O O5 0.791041 0.500000 0.674586
O O6 0.758889 0.682162 0.637108
O O7 0.768788 0.668493 0.783504
O O8 0.000000 0.637270 0.500000
O O9 0.250000 0.250000 0.500000
O O10 0.061234 0.320367 0.764599
O O11 0.166545 0.351167 0.123231
O O12 0.324071 0.186850 0.037701
O O13 0.415725 0.000000 0.904395
#
# Coordination Sequence:
#
# PCOD8114422 Si02
#       5
#     8   8   8   8   8
#     4  11  21  38  63  88 122 164 208 252 302 365
#     4  11  22  41  69  93 122 167 210 255 309 363
#     4  12  22  41  61  95 127 156 205 262 306 366
#     4  11  21  44  64  89 125 163 214 252 300 375
#     4  11  25  41  64  93 127 166 201 256 319 364
#
# _framework density 19.860237000000001
#
# number of rings (size 3 to 8) (size 9 to 14) (size 15 to 20)
#    0.000    0.800    6.000    1.800    0.000    4.000 
#    0.000    4.000    0.000    0.000    0.000    0.000 
#    0.000    0.000    0.000    0.000    0.000    0.000 
#
# Total GULP energy -248005.269462 kJ/mol
# GULP energy per Si atom -12400.263473 kJ/mol
# Density = 1.981503 g / cm^3
# Si number density = 19.860237 Si / 1000 Ang^3
#
#
#
# Elastic Constant Matrix: (Units=GPa)
#
#
# Indices 1 2 3 4 5 6 
#
# 1 123.0339 56.5272 51.4209 -0.0001 9.2450 0.0000
# 2 56.5272 152.7140 62.9856 -0.0001 5.4891 0.0000
# 3 51.4209 62.9856 129.3125 -0.0002 -1.0053 0.0001
# 4 -0.0001 -0.0001 -0.0002 29.8741 0.0001 -4.1192
# 5 9.2450 5.4891 -1.0053 0.0001 37.5513 0.0000
# 6 0.0000 0.0000 0.0001 -4.1192 0.0000 20.4848
#
#
#
# Elastic Compliance Matrix: (Units=1/GPa)
#
#
# Indices 1 2 3 4 5 6 
#
# 1 0.010787 -0.002668 -0.003008 0.000000 -0.002346 0.000000
# 2 -0.002668 0.008919 -0.003289 0.000000 -0.000735 0.000000
# 3 -0.003008 -0.003289 0.010543 0.000000 0.001504 0.000000
# 4 0.000000 0.000000 0.000000 0.034428 0.000000 0.006923
# 5 -0.002346 -0.000735 0.001504 0.000000 0.027356 0.000000
# 6 0.000000 0.000000 0.000000 0.006923 0.000000 0.050209
#
#
# Mechanical properties :
#
#
# Convention : Reuss Voigt Hill
#
# Bulk Modulus (GPa) = 81.17681 82.99197 82.08439
# Shear Modulus (GPa) = 30.43625 33.19050 31.81337
#
# Velocity S-wave (km/s) = 3.91899 4.09247 4.00667
# Velocity P-wave (km/s) = 7.83842 8.01310 7.92624
#
# Compressibility (1/GPa) = 0.01231879
#
# Stress axis : x y z
#
# Youngs Moduli (GPa) = 92.70297 112.12546 94.84857
#
# Poissons Ratio (x) = 0.29913 0.28533
# Poissons Ratio (y) = 0.24731 0.31195
# Poissons Ratio (z) = 0.27888 0.36877
#
# Static dielectric constant tensor:
#      x y z
#    x 3.540180 0.000000 0.126120 
#    y 0.000000 3.721330 0.000000 
#    z 0.126120 0.000000 3.636850 
# 
# 
# High freq. dielectric constant tensor:
#      x y z
#    x 1.775270 0.000000 0.008400 
#    y 0.000000 1.787610 0.000000 
#    z 0.008400 0.000000 1.775050 
# 
# From -- ./inp_files/277176.got.cif
#   From: 2010.06.25/outbox.cif.g09.slc.cpg/sg12_139_cif.got.tgz:277176.got - 2010.06.28 00:19:55.
