data_PCOD8114714
_publ_section_title
;
Structure prediction by ZEFSAII (Michael W. Deem and Ramdas Pophale) SiO2 
 PCOD8114714
Probable space group: C 2/M
;
_chemical_formula_sum "Si O2"
_cell_formula_units_Z 56
_cell_length_a 9.350441
_cell_length_b 16.540052
_cell_length_c 24.574382
_cell_angle_alpha 90.000000
_cell_angle_beta 132.649531
_cell_angle_gamma 90.000000
_cell_volume 2795.381817
_symmetry_space_group_name_H-M "C 2/M"
_symmetry_group_IT_number 12
_symmetry_cell_setting 'monoclinic'
loop_
_space_group_symop_operation_xyz
x,y,z
-x,y,-z
-x,-y,-z
x,-y,z
1/2+x,1/2+y,z
1/2-x,1/2+y,-z
1/2-x,1/2-y,-z
1/2+x,1/2-y,z
loop_
_atom_site_type_symbol
_atom_site_label
_atom_site_fract_x
_atom_site_fract_y
_atom_site_fract_z
Si Si1 0.519857 0.091670 0.661044
Si Si2 0.725704 0.092297 0.215262
Si Si3 0.702296 0.196994 0.309220
Si Si4 0.488300 0.404036 0.085423
Si Si5 0.045607 0.293651 0.450886
Si Si6 0.449288 0.356740 0.780366
Si Si7 0.198180 0.595328 0.920516
O O1 0.437440 0.144729 0.688895
O O2 0.448847 0.127105 0.585244
O O3 0.752066 0.092456 0.723970
O O4 0.444127 0.000000 0.646492
O O5 0.794383 0.142194 0.285584
O O6 0.521172 0.128502 0.140349
O O7 0.885543 0.096708 0.209969
O O8 0.696593 0.000000 0.226025
O O9 0.573201 0.267159 0.249226
O O10 0.880479 0.231322 0.389579
O O11 0.480814 0.500000 0.095754
O O12 0.485551 0.353252 0.140182
O O13 0.684065 0.380376 0.103356
O O14 0.303847 0.373158 0.002489
O O15 0.250000 0.250000 0.500000
O O16 0.000000 0.322796 0.500000
O O17 0.200423 0.500000 0.926246
#
# Coordination Sequence:
#
# PCOD8114714 Si02
#       7
#     8   8   8   8   8   8   8
#     4  11  23  41  65  93 120 159 206 244 285 351
#     4  11  22  37  58  89 120 152 200 254 297 346
#     4  11  24  42  64  84 121 165 197 232 299 368
#     4   9  16  32  56  83 116 159 205 248 298 361
#     4  11  23  44  68  92 124 161 195 237 301 360
#     4  11  22  36  58  90 122 155 197 252 305 349
#     4   8  17  32  54  82 117 159 200 247 305 358
#
# _framework density 20.033042999999999
#
# number of rings (size 3 to 8) (size 9 to 14) (size 15 to 20)
#    0.000    1.714    1.429    5.143    2.000    2.000 
#    0.000    5.000    0.000    1.714    0.000    0.000 
#    0.000    0.000    0.000    0.000    0.000    0.000 
#
# Total GULP energy -347267.910379 kJ/mol
# GULP energy per Si atom -12402.425371 kJ/mol
# Density = 1.998745 g / cm^3
# Si number density = 20.033043 Si / 1000 Ang^3
#
#
#
# Elastic Constant Matrix: (Units=GPa)
#
#
# Indices 1 2 3 4 5 6 
#
# 1 120.8548 37.6702 62.1400 0.0000 -9.5029 0.0000
# 2 37.6702 99.3655 47.1626 0.0000 -7.9768 0.0000
# 3 62.1400 47.1626 123.8912 0.0000 -18.0454 0.0000
# 4 0.0000 0.0000 0.0000 25.7261 0.0000 -6.8898
# 5 -9.5029 -7.9768 -18.0454 0.0000 42.6189 0.0000
# 6 0.0000 0.0000 0.0000 -6.8898 0.0000 31.1160
#
#
#
# Elastic Compliance Matrix: (Units=1/GPa)
#
#
# Indices 1 2 3 4 5 6 
#
# 1 0.011458 -0.001972 -0.004986 0.000000 0.000075 0.000000
# 2 -0.001972 0.012627 -0.003770 0.000000 0.000327 0.000000
# 3 -0.004986 -0.003770 0.012515 0.000000 0.003482 0.000000
# 4 0.000000 0.000000 0.000000 0.041321 0.000000 0.009149
# 5 0.000075 0.000327 0.003482 0.000000 0.025016 0.000000
# 6 0.000000 0.000000 0.000000 0.009149 0.000000 0.034164
#
#
# Mechanical properties :
#
#
# Convention : Reuss Voigt Hill
#
# Bulk Modulus (GPa) = 66.02860 70.89525 68.46192
# Shear Modulus (GPa) = 30.56153 33.03477 31.79815
#
# Velocity S-wave (km/s) = 3.91007 4.06521 3.98840
# Velocity P-wave (km/s) = 7.30865 7.58291 7.44704
#
# Compressibility (1/GPa) = 0.01514495
#
# Stress axis : x y z
#
# Youngs Moduli (GPa) = 87.27294 79.19483 79.90627
#
# Poissons Ratio (x) = 0.15613 0.39839
# Poissons Ratio (y) = 0.17206 0.30127
# Poissons Ratio (z) = 0.43512 0.29859
#
# Static dielectric constant tensor:
#      x y z
#    x 3.714710 0.000000 -0.003170 
#    y 0.000000 3.484770 0.000000 
#    z -0.003170 0.000000 4.176190 
# 
# 
# High freq. dielectric constant tensor:
#      x y z
#    x 1.790160 0.000000 -0.004340 
#    y 0.000000 1.764660 0.000000 
#    z -0.004340 0.000000 1.789980 
# 
# From -- ./inp_files/333383.got.cif
#   From: 2010.06.25/outbox.cif.g09.slc.cpg/sg12_167_cif.got.tgz:333383.got - 2010.06.28 00:19:55.
