data_PCOD8114977
_publ_section_title
;
Structure prediction by ZEFSAII (Michael W. Deem and Ramdas Pophale) SiO2 
 PCOD8114977
Probable space group: C 2/M
;
_chemical_formula_sum "Si O2"
_cell_formula_units_Z 40
_cell_length_a 25.074702
_cell_length_b 8.277635
_cell_length_c 10.205875
_cell_angle_alpha 90.000000
_cell_angle_beta 114.541331
_cell_angle_gamma 90.000000
_cell_volume 1926.958219
_symmetry_space_group_name_H-M "C 2/M"
_symmetry_group_IT_number 12
_symmetry_cell_setting 'monoclinic'
loop_
_space_group_symop_operation_xyz
x,y,z
-x,y,-z
-x,-y,-z
x,-y,z
1/2+x,1/2+y,z
1/2-x,1/2+y,-z
1/2-x,1/2-y,-z
1/2+x,1/2-y,z
loop_
_atom_site_type_symbol
_atom_site_label
_atom_site_fract_x
_atom_site_fract_y
_atom_site_fract_z
Si Si1 0.305794 0.691605 0.810672
Si Si2 0.111794 0.812576 0.873786
Si Si3 0.673607 0.812726 0.687951
Si Si4 0.873582 0.812806 0.625133
Si Si5 0.507644 0.186831 0.156749
O O1 0.305518 0.500000 0.809150
O O2 0.239659 0.757649 0.751670
O O3 0.335997 0.755493 0.708892
O O4 0.342130 0.756008 0.972498
O O5 0.137504 0.789572 0.755971
O O6 0.051943 0.713192 0.824115
O O7 0.098407 0.000000 0.885646
O O8 0.643809 0.792641 0.517145
O O9 0.672971 0.000000 0.727635
O O10 0.942131 0.792180 0.724313
O O11 0.860057 0.000000 0.583764
O O12 0.525817 0.000000 0.179702
O O13 0.500000 0.247431 0.000000
#
# Coordination Sequence:
#
# PCOD8114977 Si02
#       5
#     8   8   8   8   8
#     4   9  20  38  63  90 122 160 203 247 296 355
#     4  11  22  40  64  91 121 161 204 247 298 358
#     4  11  23  40  59  90 129 162 198 249 302 353
#     4  11  22  40  64  91 121 161 204 247 298 358
#     4  11  23  40  63  92 121 154 198 250 305 360
#
# _framework density 20.758102999999998
#
# number of rings (size 3 to 8) (size 9 to 14) (size 15 to 20)
#    0.000    1.400    2.000    3.600    0.000    1.600 
#    0.000   10.000    0.000    0.000    0.000    0.000 
#    0.000    0.000    0.000    0.000    0.000    0.000 
#
# Total GULP energy -248155.183870 kJ/mol
# GULP energy per Si atom -12407.759193 kJ/mol
# Density = 2.071086 g / cm^3
# Si number density = 20.758103 Si / 1000 Ang^3
#
#
#
# Elastic Constant Matrix: (Units=GPa)
#
#
# Indices 1 2 3 4 5 6 
#
# 1 153.3677 4.9564 51.2740 0.0000 -4.6502 0.0000
# 2 4.9564 43.1010 5.6532 0.0000 0.8261 0.0000
# 3 51.2740 5.6532 95.8672 0.0000 -17.4881 0.0000
# 4 0.0000 0.0000 0.0000 12.9903 0.0000 0.1914
# 5 -4.6502 0.8261 -17.4881 0.0000 35.5577 0.0000
# 6 0.0000 0.0000 0.0000 0.1914 0.0000 18.5554
#
#
#
# Elastic Compliance Matrix: (Units=1/GPa)
#
#
# Indices 1 2 3 4 5 6 
#
# 1 0.007987 -0.000311 -0.004462 0.000000 -0.001143 0.000000
# 2 -0.000311 0.023453 -0.001454 0.000000 -0.001301 0.000000
# 3 -0.004462 -0.001454 0.014065 0.000000 0.006368 0.000000
# 4 0.000000 0.000000 0.000000 0.076992 0.000000 -0.000794
# 5 -0.001143 -0.001301 0.006368 0.000000 0.031136 0.000000
# 6 0.000000 0.000000 0.000000 -0.000794 0.000000 0.053901
#
#
# Mechanical properties :
#
#
# Convention : Reuss Voigt Hill
#
# Bulk Modulus (GPa) = 30.25651 46.23368 38.24509
# Shear Modulus (GPa) = 21.64450 28.78417 25.21433
#
# Velocity S-wave (km/s) = 3.23259 3.72781 3.48900
# Velocity P-wave (km/s) = 5.34231 6.39138 5.89025
#
# Compressibility (1/GPa) = 0.03305074
#
# Stress axis : x y z
#
# Youngs Moduli (GPa) = 125.19591 42.63901 71.09867
#
# Poissons Ratio (x) = 0.01328 0.31725
# Poissons Ratio (y) = 0.03898 0.10335
# Poissons Ratio (z) = 0.55864 0.06198
#
# Static dielectric constant tensor:
#      x y z
#    x 3.841460 0.000000 0.034840 
#    y 0.000000 3.477940 0.000000 
#    z 0.034840 0.000000 3.709150 
# 
# 
# High freq. dielectric constant tensor:
#      x y z
#    x 1.824200 0.000000 0.001060 
#    y 0.000000 1.798520 0.000000 
#    z 0.001060 0.000000 1.816420 
# 
# From -- ./inp_files/93014.got.cif
#   From: 2010.06.25/outbox.cif.g09.slc.cpg/sg12_47_cif.got.tgz:93014.got - 2010.06.28 00:19:55.
