data_PCOD8114715
_publ_section_title
;
Structure prediction by ZEFSAII (Michael W. Deem and Ramdas Pophale) SiO2 
 PCOD8114715
Probable space group: C 2/M
;
_chemical_formula_sum "Si O2"
_cell_formula_units_Z 64
_cell_length_a 21.725084
_cell_length_b 29.773371
_cell_length_c 9.072628
_cell_angle_alpha 90.000000
_cell_angle_beta 151.171801
_cell_angle_gamma 90.000000
_cell_volume 2829.672582
_symmetry_space_group_name_H-M "C 2/M"
_symmetry_group_IT_number 12
_symmetry_cell_setting 'monoclinic'
loop_
_space_group_symop_operation_xyz
x,y,z
-x,y,-z
-x,-y,-z
x,-y,z
1/2+x,1/2+y,z
1/2-x,1/2+y,-z
1/2-x,1/2-y,-z
1/2+x,1/2-y,z
loop_
_atom_site_type_symbol
_atom_site_label
_atom_site_fract_x
_atom_site_fract_y
_atom_site_fract_z
Si Si1 0.767802 0.250531 0.274991
Si Si2 0.685252 0.094927 0.789280
Si Si3 0.526373 0.705847 0.895299
Si Si4 0.573480 0.950108 0.291109
Si Si5 0.857799 0.308348 0.206287
Si Si6 0.559822 0.609361 0.857321
Si Si7 0.331042 0.448598 0.340100
Si Si8 0.834859 0.950502 0.682169
O O1 0.774304 0.288361 0.163439
O O2 0.911790 0.241594 0.630393
O O3 0.665227 0.269361 0.179131
O O4 0.711561 0.204142 0.092082
O O5 0.572662 0.076859 0.444141
O O6 0.631722 0.138633 0.756746
O O7 0.809692 0.105947 0.956416
O O8 0.715109 0.059656 0.982838
O O9 0.522767 0.662008 0.784642
O O10 0.500000 0.686165 0.000000
O O11 0.718037 0.954018 0.546790
O O12 0.513453 0.000000 0.191014
O O13 0.500000 0.925831 0.000000
O O14 0.000000 0.287152 0.500000
O O15 0.447540 0.583580 0.535085
O O16 0.568763 0.585125 0.038263
O O17 0.374710 0.500000 0.418333
O O18 0.290586 0.436326 0.423989
O O19 0.899699 0.000000 0.812930
#
# Coordination Sequence:
#
# PCOD8114715 Si02
#       8
#     8   8   8   8   8   8   8   8
#     4  11  24  44  68  97 126 172 215 266 337 403
#     4  11  23  38  60  93 127 163 217 274 319 383
#     4  12  24  43  69  99 134 171 219 275 329 398
#     4   9  19  38  61  84 118 169 217 260 318 383
#     4  11  23  43  68  91 128 167 215 269 330 401
#     4  11  22  38  61  92 129 171 214 261 326 395
#     4  11  22  36  58  93 131 169 214 267 325 381
#     4   9  19  36  58  86 126 170 211 258 318 390
#
# _framework density 22.617459
#
# number of rings (size 3 to 8) (size 9 to 14) (size 15 to 20)
#    0.000    1.375    2.500    3.375    0.000    4.000 
#    0.000    1.875    0.000    3.750    0.000    0.000 
#    0.000    0.000    0.000    0.000    0.000    0.000 
#
# Total GULP energy -396603.722530 kJ/mol
# GULP energy per Si atom -12393.866329 kJ/mol
# Density = 2.256598 g / cm^3
# Si number density = 22.617459 Si / 1000 Ang^3
#
#
#
# Elastic Constant Matrix: (Units=GPa)
#
#
# Indices 1 2 3 4 5 6 
#
# 1 74.5732 20.0865 11.3396 0.0000 1.8237 0.0000
# 2 20.0865 109.5158 30.0422 0.0000 -3.7757 0.0000
# 3 11.3396 30.0422 97.8049 0.0000 -9.7300 0.0000
# 4 0.0000 0.0000 0.0000 31.3207 0.0000 -0.7227
# 5 1.8237 -3.7757 -9.7300 0.0000 36.3028 0.0000
# 6 0.0000 0.0000 0.0000 -0.7227 0.0000 29.2190
#
#
#
# Elastic Compliance Matrix: (Units=1/GPa)
#
#
# Indices 1 2 3 4 5 6 
#
# 1 0.014237 -0.002367 -0.001047 0.000000 -0.001242 0.000000
# 2 -0.002367 0.010366 -0.002867 0.000000 0.000429 0.000000
# 3 -0.001047 -0.002867 0.011509 0.000000 0.002839 0.000000
# 4 0.000000 0.000000 0.000000 0.031946 0.000000 0.000790
# 5 -0.001242 0.000429 0.002839 0.000000 0.028414 0.000000
# 6 0.000000 0.000000 0.000000 0.000790 0.000000 0.034244
#
#
# Mechanical properties :
#
#
# Convention : Reuss Voigt Hill
#
# Bulk Modulus (GPa) = 42.46290 44.98117 43.72203
# Shear Modulus (GPa) = 33.08448 34.06354 33.57401
#
# Velocity S-wave (km/s) = 3.82879 3.88503 3.85701
# Velocity P-wave (km/s) = 6.19365 6.32895 6.26166
#
# Compressibility (1/GPa) = 0.02354997
#
# Stress axis : x y z
#
# Youngs Moduli (GPa) = 70.24076 96.46472 86.88864
#
# Poissons Ratio (x) = 0.22831 0.09099
# Poissons Ratio (y) = 0.16624 0.24912
# Poissons Ratio (z) = 0.07356 0.27658
#
# Static dielectric constant tensor:
#      x y z
#    x 4.061040 0.000000 -0.091510 
#    y 0.000000 3.968330 0.000000 
#    z -0.091510 0.000000 4.089600 
# 
# 
# High freq. dielectric constant tensor:
#      x y z
#    x 1.898200 0.000000 0.002150 
#    y 0.000000 1.877410 0.000000 
#    z 0.002150 0.000000 1.887940 
# 
# From -- ./inp_files/100231.got.cif
#   From: 2010.06.25/outbox.cif.g09.slc.cpg/sg12_51_cif.got.tgz:100231.got - 2010.06.28 00:19:55.
