data_PCOD8114944
_publ_section_title
;
Structure prediction by ZEFSAII (Michael W. Deem and Ramdas Pophale) SiO2 
 PCOD8114944
Probable space group: C 2/M
;
_chemical_formula_sum "Si O2"
_cell_formula_units_Z 44
_cell_length_a 13.059883
_cell_length_b 18.079045
_cell_length_c 9.471155
_cell_angle_alpha 90.000000
_cell_angle_beta 69.115692
_cell_angle_gamma 90.000000
_cell_volume 2089.320476
_symmetry_space_group_name_H-M "C 2/M"
_symmetry_group_IT_number 12
_symmetry_cell_setting 'monoclinic'
loop_
_space_group_symop_operation_xyz
x,y,z
-x,y,-z
-x,-y,-z
x,-y,z
1/2+x,1/2+y,z
1/2-x,1/2+y,-z
1/2-x,1/2-y,-z
1/2+x,1/2-y,z
loop_
_atom_site_type_symbol
_atom_site_label
_atom_site_fract_x
_atom_site_fract_y
_atom_site_fract_z
Si Si1 0.625775 0.303580 0.415544
Si Si2 0.655911 0.305208 0.078967
Si Si3 0.967357 0.414045 0.224136
Si Si4 0.000000 0.297667 0.000000
Si Si5 0.193523 0.359015 0.470318
Si Si6 0.717931 0.083629 0.159440
O O1 0.500000 0.324091 0.500000
O O2 0.654023 0.326802 0.242907
O O3 0.701368 0.351902 0.480938
O O4 0.648077 0.217919 0.433735
O O5 0.750000 0.250000 0.000000
O O6 0.548590 0.259806 0.088569
O O7 0.682833 0.376346 0.970730
O O8 0.953890 0.500000 0.183573
O O9 0.921857 0.355267 0.128113
O O10 0.903957 0.401636 0.401324
O O11 0.094907 0.390700 0.178212
O O12 0.233063 0.407374 0.319411
O O13 0.733237 0.000000 0.108306
#
# Coordination Sequence:
#
# PCOD8114944 Si02
#       6
#     8   8   8   4   8   8
#     4  11  24  40  65  96 131 170 225 270 319 381
#     4  12  23  42  65 100 131 167 221 269 317 386
#     4  11  23  39  64 101 138 167 211 271 337 394
#     4  12  23  38  67  94 132 174 218 262 321 390
#     4  11  22  39  66  96 129 171 216 271 327 392
#     4  11  24  43  67  97 133 171 215 271 336 392
#
# _framework density 21.059477999999999
#
# number of rings (size 3 to 8) (size 9 to 14) (size 15 to 20)
#    0.000    0.727    3.636    4.636    5.091    1.455 
#    0.000    1.364    0.000    2.727    0.000    0.000 
#    0.000    0.000    0.000    0.000    0.000    0.000 
#
# Total GULP energy -272708.596028 kJ/mol
# GULP energy per Si atom -12395.845274 kJ/mol
# Density = 2.101155 g / cm^3
# Si number density = 21.059478 Si / 1000 Ang^3
#
#
#
# Elastic Constant Matrix: (Units=GPa)
#
#
# Indices 1 2 3 4 5 6 
#
# 1 76.0490 36.8697 37.4689 0.0000 2.3733 0.0000
# 2 36.8697 93.6053 40.5139 0.0000 -4.2095 0.0000
# 3 37.4689 40.5139 163.5138 0.0000 -0.2076 0.0000
# 4 0.0000 0.0000 0.0000 27.1878 0.0000 -3.5482
# 5 2.3733 -4.2095 -0.2076 0.0000 32.8808 0.0000
# 6 0.0000 0.0000 0.0000 -3.5482 0.0000 26.2254
#
#
#
# Elastic Compliance Matrix: (Units=1/GPa)
#
#
# Indices 1 2 3 4 5 6 
#
# 1 0.017266 -0.005799 -0.002522 0.000000 -0.002005 0.000000
# 2 -0.005799 0.013990 -0.002135 0.000000 0.002196 0.000000
# 3 -0.002522 -0.002135 0.007222 0.000000 -0.000046 0.000000
# 4 0.000000 0.000000 0.000000 0.037442 0.000000 0.005066
# 5 -0.002005 0.002196 -0.000046 0.000000 0.030838 0.000000
# 6 0.000000 0.000000 0.000000 0.005066 0.000000 0.038816
#
#
# Mechanical properties :
#
#
# Convention : Reuss Voigt Hill
#
# Bulk Modulus (GPa) = 56.92668 62.54146 59.73407
# Shear Modulus (GPa) = 29.01174 31.81317 30.41246
#
# Velocity S-wave (km/s) = 3.71564 3.89090 3.80428
# Velocity P-wave (km/s) = 6.74523 7.06736 6.90817
#
# Compressibility (1/GPa) = 0.01756646
#
# Stress axis : x y z
#
# Youngs Moduli (GPa) = 57.91632 71.47891 138.45665
#
# Poissons Ratio (x) = 0.41454 0.34921
# Poissons Ratio (y) = 0.33588 0.29555
# Poissons Ratio (z) = 0.14607 0.15258
#
# Static dielectric constant tensor:
#      x y z
#    x 3.481490 0.000000 0.206990 
#    y 0.000000 3.185800 0.000000 
#    z 0.206990 0.000000 3.854770 
# 
# 
# High freq. dielectric constant tensor:
#      x y z
#    x 1.809480 0.000000 0.010990 
#    y 0.000000 1.816830 0.000000 
#    z 0.010990 0.000000 1.844390 
# 
# From -- ./inp_files/60965.got.cif
#   From: 2010.06.25/outbox.cif.g09.slc.cpg/sg12_31_cif.got.tgz:60965.got - 2010.06.28 00:19:55.
