data_PCOD8114317
_publ_section_title
;
Structure prediction by ZEFSAII (Michael W. Deem and Ramdas Pophale) SiO2 
 PCOD8114317
Probable space group: C 2/M
;
_chemical_formula_sum "Si O2"
_cell_formula_units_Z 64
_cell_length_a 9.034032
_cell_length_b 28.744633
_cell_length_c 24.713883
_cell_angle_alpha 90.000000
_cell_angle_beta 30.942186
_cell_angle_gamma 90.000000
_cell_volume 3299.807125
_symmetry_space_group_name_H-M "C 2/M"
_symmetry_group_IT_number 12
_symmetry_cell_setting 'monoclinic'
loop_
_space_group_symop_operation_xyz
x,y,z
-x,y,-z
-x,-y,-z
x,-y,z
1/2+x,1/2+y,z
1/2-x,1/2+y,-z
1/2-x,1/2-y,-z
1/2+x,1/2-y,z
loop_
_atom_site_type_symbol
_atom_site_label
_atom_site_fract_x
_atom_site_fract_y
_atom_site_fract_z
Si Si1 0.263480 0.786839 0.878833
Si Si2 0.109418 0.552130 0.798614
Si Si3 0.747293 0.450003 0.621654
Si Si4 0.797604 0.284106 0.435492
Si Si5 0.854701 0.350702 0.604577
Si Si6 0.651152 0.611955 0.894979
Si Si7 0.169254 0.553870 0.000656
Si Si8 0.849963 0.778760 0.754174
O O1 0.197072 0.833887 0.865608
O O2 0.548317 0.796084 0.824903
O O3 0.303562 0.743213 0.827398
O O4 0.000000 0.773919 0.000000
O O5 0.001213 0.500000 0.819866
O O6 0.449555 0.557070 0.682730
O O7 0.958305 0.586316 0.803154
O O8 0.035597 0.564477 0.884060
O O9 0.733176 0.500000 0.658616
O O10 0.797462 0.403913 0.641879
O O11 0.000000 0.453858 0.500000
O O12 0.500000 0.296913 0.500000
O O13 0.750000 0.250000 0.500000
O O14 0.935948 0.331020 0.415059
O O15 0.012129 0.260637 0.326359
O O16 0.555710 0.323056 0.695552
O O17 0.000000 0.347993 0.500000
O O18 0.453167 0.586359 0.912842
O O19 0.500000 0.607215 0.000000
O O20 0.265560 0.500000 0.969073
O O21 0.000000 0.568000 0.000000
#
# Coordination Sequence:
#
# PCOD8114317 Si02
#       8
#     8   8   8   8   8   8   8   8
#     4  11  24  39  54  77 115 158 195 233 276 339
#     4   9  16  31  56  81 108 144 186 231 276 329
#     4   9  19  35  56  85 115 148 191 229 272 340
#     4  12  20  37  60  90 118 142 185 240 296 345
#     4  11  21  36  63  90 115 148 184 240 297 335
#     4   9  18  34  52  78 108 144 189 232 277 329
#     4   9  17  31  54  83 113 142 179 234 288 331
#     4  12  21  38  59  82 114 153 192 239 285 339
#
# _framework density 19.395074000000001
#
# number of rings (size 3 to 8) (size 9 to 14) (size 15 to 20)
#    0.000    1.750    3.750    1.500    0.000    1.500 
#    2.250    3.125    0.000    0.375    0.000    0.000 
#    0.000    0.000    0.000    0.000    0.000    0.000 
#
# Total GULP energy -396728.503650 kJ/mol
# GULP energy per Si atom -12397.765739 kJ/mol
# Density = 1.935093 g / cm^3
# Si number density = 19.395074 Si / 1000 Ang^3
#
#
#
# Elastic Constant Matrix: (Units=GPa)
#
#
# Indices 1 2 3 4 5 6 
#
# 1 114.4022 58.5415 39.7183 0.0014 -26.8718 -0.0007
# 2 58.5415 156.2356 42.9635 -0.0011 -13.3539 0.0004
# 3 39.7183 42.9635 98.8974 0.0179 -21.5845 -0.0048
# 4 0.0014 -0.0011 0.0179 3.9079 0.0001 -4.3420
# 5 -26.8718 -13.3539 -21.5845 0.0001 33.2952 0.0005
# 6 -0.0007 0.0004 -0.0048 -4.3420 0.0005 26.4956
#
#
#
# Elastic Compliance Matrix: (Units=1/GPa)
#
#
# Indices 1 2 3 4 5 6 
#
# 1 0.013176 -0.003727 -0.001954 0.000003 0.007872 0.000000
# 2 -0.003727 0.008352 -0.002396 0.000017 -0.001211 0.000002
# 3 -0.001954 -0.002396 0.013259 -0.000071 0.006057 -0.000009
# 4 0.000003 0.000017 -0.000071 0.312851 -0.000039 0.051268
# 5 0.007872 -0.001211 0.006057 -0.000039 0.039829 -0.000006
# 6 0.000000 0.000002 -0.000009 0.051268 -0.000006 0.046144
#
#
# Mechanical properties :
#
#
# Convention : Reuss Voigt Hill
#
# Bulk Modulus (GPa) = 53.66832 72.44242 63.05537
# Shear Modulus (GPa) = 10.96549 27.96055 19.46302
#
# Velocity S-wave (km/s) = 2.38034 3.80100 3.17125
# Velocity P-wave (km/s) = 5.94019 7.52964 6.78164
#
# Compressibility (1/GPa) = 0.01863297
#
# Stress axis : x y z
#
# Youngs Moduli (GPa) = 75.89744 119.72670 75.41819
#
# Poissons Ratio (x) = 0.44617 0.14740
# Poissons Ratio (y) = 0.28284 0.18071
# Poissons Ratio (z) = 0.14834 0.28688
#
# Static dielectric constant tensor:
#      x y z
#    x 3.701850 0.000000 -0.311570 
#    y 0.000000 3.936790 0.000000 
#    z -0.311570 0.000000 3.551280 
# 
# 
# High freq. dielectric constant tensor:
#      x y z
#    x 1.734380 0.000000 -0.027030 
#    y 0.000000 1.764960 0.000000 
#    z -0.027030 0.000000 1.753100 
# 
# From -- ./inp_files/334335.got.cif
#   From: 2010.06.25/outbox.cif.g09.slc.cpg/sg12_168_cif.got.tgz:334335.got - 2010.06.28 00:19:55.
