data_PCOD8114964
_publ_section_title
;
Structure prediction by ZEFSAII (Michael W. Deem and Ramdas Pophale) SiO2 
 PCOD8114964
Probable space group: C 2/M
;
_chemical_formula_sum "Si O2"
_cell_formula_units_Z 44
_cell_length_a 16.910632
_cell_length_b 23.380026
_cell_length_c 5.400102
_cell_angle_alpha 90.000000
_cell_angle_beta 67.110688
_cell_angle_gamma 90.000000
_cell_volume 1966.926144
_symmetry_space_group_name_H-M "C 2/M"
_symmetry_group_IT_number 12
_symmetry_cell_setting 'monoclinic'
loop_
_space_group_symop_operation_xyz
x,y,z
-x,y,-z
-x,-y,-z
x,-y,z
1/2+x,1/2+y,z
1/2-x,1/2+y,-z
1/2-x,1/2-y,-z
1/2+x,1/2-y,z
loop_
_atom_site_type_symbol
_atom_site_label
_atom_site_fract_x
_atom_site_fract_y
_atom_site_fract_z
Si Si1 0.500000 0.351572 0.000000
Si Si2 0.262099 0.064533 0.180110
Si Si3 0.292326 0.793373 0.632885
Si Si4 0.432337 0.749129 0.775097
Si Si5 0.819948 0.104316 0.206055
Si Si6 0.093553 0.645934 0.871353
O O1 0.531145 0.312839 0.193486
O O2 0.420228 0.392616 0.156752
O O3 0.220490 0.077684 0.497110
O O4 0.342295 0.107748 0.039357
O O5 0.297460 0.000000 0.148059
O O6 0.197456 0.068150 0.023614
O O7 0.250000 0.750000 0.500000
O O8 0.336532 0.750809 0.776014
O O9 0.213552 0.832001 0.824747
O O10 0.361859 0.840585 0.446796
O O11 0.500000 0.776010 0.500000
O O12 0.423342 0.789896 0.018417
O O13 0.000000 0.614647 0.000000
#
# Coordination Sequence:
#
# PCOD8114964 Si02
#       6
#     4   8   8   8   8   8
#     4  12  28  40  65 106 141 184 224 280 348 426
#     4  11  26  50  75  97 132 181 241 300 351 397
#     4  11  23  38  62  97 142 190 221 270 340 420
#     4  12  21  37  62  97 146 179 222 264 337 421
#     4  11  26  46  70 103 139 178 236 289 346 413
#     4  11  22  40  62 101 137 177 222 283 336 415
#
# _framework density 22.369931000000001
#
# number of rings (size 3 to 8) (size 9 to 14) (size 15 to 20)
#    0.000    0.727    4.545    2.727    7.636    1.818 
#    0.000    2.727    0.000    3.818    0.000    0.000 
#    0.000    0.000    0.000    0.000    0.000    0.000 
#
# Total GULP energy -272543.602244 kJ/mol
# GULP energy per Si atom -12388.345557 kJ/mol
# Density = 2.231902 g / cm^3
# Si number density = 22.369931 Si / 1000 Ang^3
#
#
#
# Elastic Constant Matrix: (Units=GPa)
#
#
# Indices 1 2 3 4 5 6 
#
# 1 155.4224 23.5649 32.2677 0.0000 -5.2828 0.0000
# 2 23.5649 76.0487 8.4386 0.0000 -0.4504 0.0000
# 3 32.2677 8.4386 75.0925 0.0000 7.9834 0.0000
# 4 0.0000 0.0000 0.0000 19.2121 0.0000 5.9946
# 5 -5.2828 -0.4504 7.9834 0.0000 43.6058 0.0000
# 6 0.0000 0.0000 0.0000 5.9946 0.0000 20.3559
#
#
#
# Elastic Compliance Matrix: (Units=1/GPa)
#
#
# Indices 1 2 3 4 5 6 
#
# 1 0.007428 -0.001946 -0.003127 0.000000 0.001452 0.000000
# 2 -0.001946 0.013833 -0.000722 0.000000 0.000039 0.000000
# 3 -0.003127 -0.000722 0.015077 0.000000 -0.003147 0.000000
# 4 0.000000 0.000000 0.000000 0.057317 0.000000 -0.016879
# 5 0.001452 0.000039 -0.003147 0.000000 0.023685 0.000000
# 6 0.000000 0.000000 0.000000 -0.016879 0.000000 0.054097
#
#
# Mechanical properties :
#
#
# Convention : Reuss Voigt Hill
#
# Bulk Modulus (GPa) = 40.41171 48.34512 44.37841
# Shear Modulus (GPa) = 26.14014 32.78758 29.46386
#
# Velocity S-wave (km/s) = 3.42210 3.83260 3.63315
# Velocity P-wave (km/s) = 5.80679 6.42212 6.12219
#
# Compressibility (1/GPa) = 0.02474530
#
# Stress axis : x y z
#
# Youngs Moduli (GPa) = 134.62932 72.29161 66.32828
#
# Poissons Ratio (x) = 0.14068 0.20744
# Poissons Ratio (y) = 0.26199 0.04792
# Poissons Ratio (z) = 0.42105 0.05223
#
# Static dielectric constant tensor:
#      x y z
#    x 4.224460 0.000000 -0.142700 
#    y 0.000000 4.432180 0.000000 
#    z -0.142700 0.000000 4.089910 
# 
# 
# High freq. dielectric constant tensor:
#      x y z
#    x 1.900780 0.000000 -0.004670 
#    y 0.000000 1.845960 0.000000 
#    z -0.004670 0.000000 1.882650 
# 
# From -- ./inp_files/16818.got.cif
#   From: 2010.06.25/outbox.cif.g09.slc.cpg/sg12_9_cif.got.tgz:16818.got - 2010.06.28 00:19:55.
