data_PCOD8114962
_publ_section_title
;
Structure prediction by ZEFSAII (Michael W. Deem and Ramdas Pophale) SiO2 
 PCOD8114962
Probable space group: C 2/M
;
_chemical_formula_sum "Si O2"
_cell_formula_units_Z 48
_cell_length_a 14.915328
_cell_length_b 7.471890
_cell_length_c 22.048048
_cell_angle_alpha 90.000000
_cell_angle_beta 71.760262
_cell_angle_gamma 90.000000
_cell_volume 2333.700417
_symmetry_space_group_name_H-M "C 2/M"
_symmetry_group_IT_number 12
_symmetry_cell_setting 'monoclinic'
loop_
_space_group_symop_operation_xyz
x,y,z
-x,y,-z
-x,-y,-z
x,-y,z
1/2+x,1/2+y,z
1/2-x,1/2+y,-z
1/2-x,1/2-y,-z
1/2+x,1/2-y,z
loop_
_atom_site_type_symbol
_atom_site_label
_atom_site_fract_x
_atom_site_fract_y
_atom_site_fract_z
Si Si1 0.573402 0.291459 0.174283
Si Si2 0.207716 0.212418 0.595127
Si Si3 0.357604 0.000000 0.067020
Si Si4 0.064548 0.500000 0.076045
Si Si5 0.600423 0.705898 0.500717
Si Si6 0.772012 0.792417 0.165198
Si Si7 0.626592 0.289992 0.736899
O O1 0.572175 0.500000 0.156412
O O2 0.660827 0.237385 0.197980
O O3 0.482930 0.239269 0.233654
O O4 0.578764 0.179634 0.111442
O O5 0.317376 0.270721 0.566863
O O6 0.142627 0.291910 0.554121
O O7 0.167910 0.294311 0.666382
O O8 0.201668 0.000000 0.595207
O O9 0.461691 0.000000 0.070616
O O10 0.304815 0.820918 0.100168
O O11 0.358114 0.000000 0.993955
O O12 0.500000 0.794481 0.500000
O O13 0.579018 0.500000 0.517666
O O14 0.820254 0.713405 0.215384
O O15 0.797773 0.000000 0.148392
O O16 0.643448 0.500000 0.731230
#
# Coordination Sequence:
#
# PCOD8114962 Si02
#       7
#     8   8   4   4   8   8   8
#     4  11  22  40  62  87 121 157 196 248 301 351
#     4   9  18  35  55  78 112 152 188 234 288 337
#     4  11  24  42  64  89 117 157 197 246 305 351
#     4  11  24  42  64  89 119 155 199 246 299 361
#     4   9  18  33  53  80 116 147 187 238 281 337
#     4  11  22  40  61  86 121 156 198 249 298 355
#     4   9  20  37  58  81 114 154 195 242 296 349
#
# _framework density 20.568193999999998
#
# number of rings (size 3 to 8) (size 9 to 14) (size 15 to 20)
#    0.000    2.000    3.333    0.000    0.000    3.000 
#    3.000    3.333    0.000    0.000    0.000    0.000 
#    0.000    0.000    0.000    0.000    0.000    0.000 
#
# Total GULP energy -297534.044938 kJ/mol
# GULP energy per Si atom -12397.251872 kJ/mol
# Density = 2.052138 g / cm^3
# Si number density = 20.568194 Si / 1000 Ang^3
#
#
#
# Elastic Constant Matrix: (Units=GPa)
#
#
# Indices 1 2 3 4 5 6 
#
# 1 125.6029 14.7662 44.2628 0.0000 -23.5642 0.0000
# 2 14.7662 78.7449 32.5908 -0.0001 -1.0450 0.0000
# 3 44.2628 32.5908 151.0287 0.0000 -22.5030 0.0000
# 4 0.0000 -0.0001 0.0000 24.6367 0.0000 -5.5045
# 5 -23.5642 -1.0450 -22.5030 0.0000 18.9423 0.0000
# 6 0.0000 0.0000 0.0000 -5.5045 0.0000 13.5701
#
#
#
# Elastic Compliance Matrix: (Units=1/GPa)
#
#
# Indices 1 2 3 4 5 6 
#
# 1 0.010762 -0.001424 -0.001050 0.000000 0.012062 0.000000
# 2 -0.001424 0.014317 -0.003425 0.000000 -0.005049 0.000000
# 3 -0.001050 -0.003425 0.009046 0.000000 0.009252 0.000000
# 4 0.000000 0.000000 0.000000 0.044635 0.000000 0.018106
# 5 0.012062 -0.005049 0.009252 0.000000 0.078510 0.000000
# 6 0.000000 0.000000 0.000000 0.018106 0.000000 0.081036
#
#
# Mechanical properties :
#
#
# Convention : Reuss Voigt Hill
#
# Bulk Modulus (GPa) = 44.78397 59.84623 52.31510
# Shear Modulus (GPa) = 19.41415 29.01360 24.21387
#
# Velocity S-wave (km/s) = 3.07562 3.75988 3.43483
# Velocity P-wave (km/s) = 5.86798 6.92882 6.42035
#
# Compressibility (1/GPa) = 0.02232942
#
# Stress axis : x y z
#
# Youngs Moduli (GPa) = 92.92113 69.84944 110.54092
#
# Poissons Ratio (x) = 0.09944 0.11602
# Poissons Ratio (y) = 0.13228 0.37855
# Poissons Ratio (z) = 0.09753 0.23920
#
# Static dielectric constant tensor:
#      x y z
#    x 4.023870 0.000000 0.042190 
#    y 0.000000 3.658940 0.000000 
#    z 0.042190 0.000000 3.946680 
# 
# 
# High freq. dielectric constant tensor:
#      x y z
#    x 1.814620 0.000000 -0.004680 
#    y 0.000000 1.798720 0.000000 
#    z -0.004680 0.000000 1.793040 
# 
# From -- ./inp_files/308327.got.cif
#   From: 2010.06.25/outbox.cif.g09.slc.cpg/sg12_155_cif.got.tgz:308327.got - 2010.06.28 00:19:55.
