data_PCOD8114486
_publ_section_title
;
Structure prediction by ZEFSAII (Michael W. Deem and Ramdas Pophale) SiO2 
 PCOD8114486
Probable space group: C 2/M
;
_chemical_formula_sum "Si O2"
_cell_formula_units_Z 64
_cell_length_a 30.355178
_cell_length_b 17.262311
_cell_length_c 9.480514
_cell_angle_alpha 90.000000
_cell_angle_beta 141.364351
_cell_angle_gamma 90.000000
_cell_volume 3101.720522
_symmetry_space_group_name_H-M "C 2/M"
_symmetry_group_IT_number 12
_symmetry_cell_setting 'monoclinic'
loop_
_space_group_symop_operation_xyz
x,y,z
-x,y,-z
-x,-y,-z
x,-y,z
1/2+x,1/2+y,z
1/2-x,1/2+y,-z
1/2-x,1/2-y,-z
1/2+x,1/2-y,z
loop_
_atom_site_type_symbol
_atom_site_label
_atom_site_fract_x
_atom_site_fract_y
_atom_site_fract_z
Si Si1 0.996800 0.167915 0.650863
Si Si2 0.863552 0.355634 0.913627
Si Si3 0.338326 0.841099 0.358094
Si Si4 0.364140 0.667649 0.492086
Si Si5 0.487919 0.851181 0.625322
Si Si6 0.730122 0.913247 0.549196
Si Si7 0.368820 0.681684 0.832182
Si Si8 0.775595 0.408854 0.938237
O O1 0.930097 0.133349 0.569074
O O2 0.987947 0.259165 0.617060
O O3 0.000000 0.132299 0.500000
O O4 0.066891 0.148157 0.914585
O O5 0.816890 0.416035 0.709432
O O6 0.849160 0.269020 0.823903
O O7 0.837293 0.363461 0.008869
O O8 0.946504 0.377305 0.112097
O O9 0.339659 0.748373 0.361566
O O10 0.414417 0.878802 0.509093
O O11 0.318027 0.868652 0.461084
O O12 0.278889 0.872859 0.102979
O O13 0.387235 0.677982 0.712466
O O14 0.300555 0.606860 0.321042
O O15 0.500000 0.886828 0.500000
O O16 0.802790 0.870725 0.703714
O O17 0.746743 0.000000 0.640765
O O18 0.789969 0.500000 0.977004
#
# Coordination Sequence:
#
# PCOD8114486 Si02
#       8
#     8   8   8   8   8   8   8   8
#     4   9  21  37  64  97 122 152 203 260 312 363
#     4  11  21  40  65  90 121 159 210 253 301 366
#     4  11  23  41  63  92 122 162 208 260 309 362
#     4  11  22  40  66  94 122 164 206 253 308 369
#     4   9  18  37  62  88 117 155 202 254 300 357
#     4  12  25  41  60  90 129 164 204 255 311 364
#     4  11  22  40  66  93 124 162 206 254 307 370
#     4  12  25  40  61  92 128 165 209 256 306 365
#
# _framework density 20.633710000000001
#
# number of rings (size 3 to 8) (size 9 to 14) (size 15 to 20)
#    0.000    1.250    3.750    2.625    3.500    0.500 
#    0.000    4.375    0.000    2.250    0.000    0.000 
#    0.000    0.000    0.000    0.000    0.000    0.000 
#
# Total GULP energy -396870.653587 kJ/mol
# GULP energy per Si atom -12402.207925 kJ/mol
# Density = 2.058675 g / cm^3
# Si number density = 20.633710 Si / 1000 Ang^3
#
#
#
# Elastic Constant Matrix: (Units=GPa)
#
#
# Indices 1 2 3 4 5 6 
#
# 1 118.0254 14.2083 25.7025 0.0000 12.4375 0.0000
# 2 14.2083 39.6737 15.0414 0.0000 7.0678 0.0000
# 3 25.7025 15.0414 110.6008 0.0000 5.8772 0.0000
# 4 0.0000 0.0000 0.0000 4.5598 0.0000 -1.6348
# 5 12.4375 7.0678 5.8772 0.0000 26.6956 0.0000
# 6 0.0000 0.0000 0.0000 -1.6348 0.0000 3.4861
#
#
#
# Elastic Compliance Matrix: (Units=1/GPa)
#
#
# Indices 1 2 3 4 5 6 
#
# 1 0.009470 -0.002118 -0.001728 0.000000 -0.003471 0.000000
# 2 -0.002118 0.028145 -0.003027 0.000000 -0.005798 0.000000
# 3 -0.001728 -0.003027 0.009885 0.000000 -0.000570 0.000000
# 4 0.000000 0.000000 0.000000 0.263633 0.000000 0.123628
# 5 -0.003471 -0.005798 -0.000570 0.000000 0.040737 0.000000
# 6 0.000000 0.000000 0.000000 0.123628 0.000000 0.344825
#
#
# Mechanical properties :
#
#
# Convention : Reuss Voigt Hill
#
# Bulk Modulus (GPa) = 29.62710 42.02271 35.82491
# Shear Modulus (GPa) = 6.92816 21.17147 14.04981
#
# Velocity S-wave (km/s) = 1.83439 3.20670 2.61227
# Velocity P-wave (km/s) = 4.34470 5.84130 5.14768
#
# Compressibility (1/GPa) = 0.03375288
#
# Stress axis : x y z
#
# Youngs Moduli (GPa) = 105.59868 35.53051 101.16215
#
# Poissons Ratio (x) = 0.07525 0.17483
# Poissons Ratio (y) = 0.22365 0.30625
# Poissons Ratio (z) = 0.18250 0.10756
#
# Static dielectric constant tensor:
#      x y z
#    x 3.978170 0.000000 -0.021530 
#    y 0.000000 3.301500 0.000000 
#    z -0.021530 0.000000 3.868400 
# 
# 
# High freq. dielectric constant tensor:
#      x y z
#    x 1.818970 0.000000 -0.000960 
#    y 0.000000 1.769550 0.000000 
#    z -0.000960 0.000000 1.820180 
# 
# From -- ./inp_files/112875.got.cif
#   From: 2010.06.25/outbox.cif.g09.slc.cpg/sg12_57_cif.got.tgz:112875.got - 2010.06.28 00:19:55.
