data_PCOD8114786
_publ_section_title
;
Structure prediction by ZEFSAII (Michael W. Deem and Ramdas Pophale) SiO2 
 PCOD8114786
Probable space group: C 2/M
;
_chemical_formula_sum "Si O2"
_cell_formula_units_Z 48
_cell_length_a 24.878023
_cell_length_b 8.472487
_cell_length_c 20.105384
_cell_angle_alpha 90.000000
_cell_angle_beta 35.243301
_cell_angle_gamma 90.000000
_cell_volume 2445.413872
_symmetry_space_group_name_H-M "C 2/M"
_symmetry_group_IT_number 12
_symmetry_cell_setting 'monoclinic'
loop_
_space_group_symop_operation_xyz
x,y,z
-x,y,-z
-x,-y,-z
x,-y,z
1/2+x,1/2+y,z
1/2-x,1/2+y,-z
1/2-x,1/2-y,-z
1/2+x,1/2-y,z
loop_
_atom_site_type_symbol
_atom_site_label
_atom_site_fract_x
_atom_site_fract_y
_atom_site_fract_z
Si Si1 0.304787 0.181714 0.127677
Si Si2 0.310072 0.682069 0.263347
Si Si3 0.308403 0.316188 0.502129
Si Si4 0.490322 0.318321 0.885738
Si Si5 0.303234 0.182937 0.882966
Si Si6 0.493930 0.818571 0.272441
O O1 0.285333 0.286551 0.212015
O O2 0.227648 0.224837 0.151293
O O3 0.294902 0.000000 0.157268
O O4 0.407212 0.209392 0.994867
O O5 0.292435 0.500000 0.299101
O O6 0.245105 0.788528 0.375139
O O7 0.417709 0.727548 0.166188
O O8 0.325178 0.500000 0.474135
O O9 0.250000 0.250000 0.500000
O O10 0.407509 0.228284 0.406265
O O11 0.462922 0.500000 0.925311
O O12 0.508243 0.291027 0.790025
O O13 0.413030 0.210433 0.779485
O O14 0.277120 0.000000 0.901929
O O15 0.250000 0.250000 0.000000
O O16 0.486312 0.000000 0.257345
#
# Coordination Sequence:
#
# PCOD8114786 Si02
#       6
#     8   8   8   8   8   8
#     4  12  25  40  61  91 128 167 206 255 311 370
#     4  11  24  42  63  90 125 165 208 256 310 369
#     4  12  24  40  64  92 125 164 206 254 305 365
#     4  11  22  37  62  92 126 164 204 254 311 367
#     4  11  23  40  64  91 123 163 207 255 307 366
#     4  11  23  39  63  94 125 159 206 258 308 361
#
# _framework density 19.628579999999999
#
# number of rings (size 3 to 8) (size 9 to 14) (size 15 to 20)
#    0.000    0.667    3.333    5.500    0.000    6.000 
#    0.000    0.833    0.000    5.000    0.000    0.000 
#    0.000    0.000    0.000    0.000    0.000    0.000 
#
# Total GULP energy -297807.551646 kJ/mol
# GULP energy per Si atom -12408.647985 kJ/mol
# Density = 1.958390 g / cm^3
# Si number density = 19.628580 Si / 1000 Ang^3
#
#
#
# Elastic Constant Matrix: (Units=GPa)
#
#
# Indices 1 2 3 4 5 6 
#
# 1 119.4047 26.0551 50.8001 -0.0020 1.1048 0.0014
# 2 26.0551 72.8045 32.6503 -0.0015 -13.1432 0.0010
# 3 50.8001 32.6503 85.5324 0.0029 -16.0691 -0.0015
# 4 -0.0020 -0.0015 0.0029 34.4033 0.0002 3.8823
# 5 1.1048 -13.1432 -16.0691 0.0002 32.0425 -0.0006
# 6 0.0014 0.0010 -0.0015 3.8823 -0.0006 27.5679
#
#
#
# Elastic Compliance Matrix: (Units=1/GPa)
#
#
# Indices 1 2 3 4 5 6 
#
# 1 0.011923 -0.001877 -0.007272 0.000001 -0.004828 -0.000001
# 2 -0.001877 0.017346 -0.004590 0.000001 0.004878 -0.000001
# 3 -0.007272 -0.004590 0.019272 -0.000003 0.008032 0.000002
# 4 0.000001 0.000001 -0.000003 0.029536 -0.000001 -0.004160
# 5 -0.004828 0.004878 0.008032 -0.000001 0.037404 0.000001
# 6 -0.000001 -0.000001 0.000002 -0.004160 0.000001 0.036860
#
#
# Mechanical properties :
#
#
# Convention : Reuss Voigt Hill
#
# Bulk Modulus (GPa) = 47.47798 55.19474 51.33636
# Shear Modulus (GPa) = 26.76074 30.01847 28.38960
#
# Velocity S-wave (km/s) = 3.69637 3.91490 3.80720
# Velocity P-wave (km/s) = 6.51600 6.97251 6.74812
#
# Compressibility (1/GPa) = 0.02106240
#
# Stress axis : x y z
#
# Youngs Moduli (GPa) = 83.87196 57.64868 51.88969
#
# Poissons Ratio (x) = 0.10823 0.37733
# Poissons Ratio (y) = 0.15746 0.23818
# Poissons Ratio (z) = 0.60989 0.26462
#
# Static dielectric constant tensor:
#      x y z
#    x 3.559910 -0.000030 -0.311990 
#    y -0.000030 3.728190 -0.000060 
#    z -0.311990 -0.000060 2.990800 
# 
# 
# High freq. dielectric constant tensor:
#      x y z
#    x 1.764740 0.000000 -0.004670 
#    y 0.000000 1.780230 0.000000 
#    z -0.004670 0.000000 1.763680 
# 
# From -- ./inp_files/323485.got.cif
#   From: 2010.06.25/outbox.cif.g09.slc.cpg/sg12_162_cif.got.tgz:323485.got - 2010.06.28 00:19:55.
