data_PCOD8114652
_publ_section_title
;
Structure prediction by ZEFSAII (Michael W. Deem and Ramdas Pophale) SiO2 
 PCOD8114652
Probable space group: C 2/M
;
_chemical_formula_sum "Si O2"
_cell_formula_units_Z 56
_cell_length_a 9.131637
_cell_length_b 17.576754
_cell_length_c 27.604029
_cell_angle_alpha 90.000000
_cell_angle_beta 139.713192
_cell_angle_gamma 90.000000
_cell_volume 2864.870538
_symmetry_space_group_name_H-M "C 2/M"
_symmetry_group_IT_number 12
_symmetry_cell_setting 'monoclinic'
loop_
_space_group_symop_operation_xyz
x,y,z
-x,y,-z
-x,-y,-z
x,-y,z
1/2+x,1/2+y,z
1/2-x,1/2+y,-z
1/2-x,1/2-y,-z
1/2+x,1/2-y,z
loop_
_atom_site_type_symbol
_atom_site_label
_atom_site_fract_x
_atom_site_fract_y
_atom_site_fract_z
Si Si1 0.294109 0.912600 0.303515
Si Si2 0.845615 0.166667 0.289402
Si Si3 0.562256 0.181812 0.742430
Si Si4 0.138681 0.090243 0.108710
Si Si5 0.295865 0.587774 0.184699
Si Si6 0.292590 0.087805 0.414563
Si Si7 0.316691 0.910074 0.049808
O O1 0.471092 0.866850 0.315132
O O2 0.364695 0.901778 0.376956
O O3 0.039040 0.877617 0.230077
O O4 0.304638 0.000000 0.290806
O O5 0.673091 0.185827 0.288503
O O6 0.865461 0.234453 0.255268
O O7 0.763204 0.096727 0.234853
O O8 0.082730 0.143172 0.374157
O O9 0.757917 0.140791 0.822683
O O10 0.245469 0.118269 0.085149
O O11 0.174127 0.000000 0.127647
O O12 0.869035 0.110944 0.037757
O O13 0.312954 0.500000 0.176889
O O14 0.070278 0.622203 0.101232
O O15 0.500000 0.114536 0.500000
O O16 0.226874 0.000000 0.408542
O O17 0.330407 0.000000 0.057497
#
# Coordination Sequence:
#
# PCOD8114652 Si02
#       7
#     8   8   8   8   8   8   8
#     4   9  19  34  56  84 113 143 182 230 276 327
#     4  11  22  35  55  81 111 149 189 224 270 333
#     4  12  23  37  53  78 115 152 193 234 272 325
#     4   9  17  30  54  83 109 142 187 239 285 327
#     4   9  16  32  56  80 107 141 184 232 282 336
#     4   9  19  40  67  92 117 142 172 216 272 332
#     4   8  14  28  53  83 108 138 185 237 286 334
#
# _framework density 19.547129999999999
#
# number of rings (size 3 to 8) (size 9 to 14) (size 15 to 20)
#    0.000    2.429    1.429    4.286    0.000    1.714 
#    0.000    5.000    0.000    6.000    0.000    0.000 
#    0.000    0.000    0.000    0.000    0.000    0.000 
#
# Total GULP energy -346906.365778 kJ/mol
# GULP energy per Si atom -12389.513063 kJ/mol
# Density = 1.950264 g / cm^3
# Si number density = 19.547130 Si / 1000 Ang^3
#
#
#
# Elastic Constant Matrix: (Units=GPa)
#
#
# Indices 1 2 3 4 5 6 
#
# 1 106.3249 30.1816 36.9983 0.0000 4.4553 0.0000
# 2 30.1816 46.6280 42.8398 0.0000 2.9871 0.0000
# 3 36.9983 42.8398 134.8962 -0.0003 13.2828 0.0001
# 4 0.0000 0.0000 -0.0003 18.5470 0.0000 -5.9179
# 5 4.4553 2.9871 13.2828 0.0000 19.1477 0.0001
# 6 0.0000 0.0000 0.0001 -5.9179 0.0001 28.1147
#
#
#
# Elastic Compliance Matrix: (Units=1/GPa)
#
#
# Indices 1 2 3 4 5 6 
#
# 1 0.011660 -0.006545 -0.001023 0.000000 -0.000983 0.000000
# 2 -0.006545 0.034033 -0.009274 0.000000 0.002647 0.000000
# 3 -0.001023 -0.009274 0.011241 0.000000 -0.006113 0.000000
# 4 0.000000 0.000000 0.000000 0.057799 0.000000 0.012166
# 5 -0.000983 0.002647 -0.006113 0.000000 0.056282 0.000000
# 6 0.000000 0.000000 0.000000 0.012166 0.000000 0.038130
#
#
# Mechanical properties :
#
#
# Convention : Reuss Voigt Hill
#
# Bulk Modulus (GPa) = 43.00789 56.43206 49.71997
# Shear Modulus (GPa) = 19.95387 25.01715 22.48551
#
# Velocity S-wave (km/s) = 3.19848 3.58136 3.39532
# Velocity P-wave (km/s) = 5.97413 6.78483 6.39235
#
# Compressibility (1/GPa) = 0.02325155
#
# Stress axis : x y z
#
# Youngs Moduli (GPa) = 85.76325 29.38285 88.96231
#
# Poissons Ratio (x) = 0.19230 0.09099
# Poissons Ratio (y) = 0.56129 0.82502
# Poissons Ratio (z) = 0.08772 0.27249
#
# Static dielectric constant tensor:
#      x y z
#    x 3.568520 0.000000 0.254730 
#    y 0.000000 3.389170 0.000000 
#    z 0.254730 0.000000 3.728990 
# 
# 
# High freq. dielectric constant tensor:
#      x y z
#    x 1.749400 0.000000 0.008210 
#    y 0.000000 1.739790 0.000000 
#    z 0.008210 0.000000 1.752530 
# 
# From -- ./inp_files/356749.got.cif
#   From: 2010.06.25/outbox.cif.g09.slc.cpg/sg12_179_cif.got.tgz:356749.got - 2010.06.28 00:19:55.
