data_PCOD8114004
_publ_section_title
;
Structure prediction by ZEFSAII (Michael W. Deem and Ramdas Pophale) SiO2 
 PCOD8114004
Probable space group: C 2/M
;
_chemical_formula_sum "Si O2"
_cell_formula_units_Z 56
_cell_length_a 28.714349
_cell_length_b 11.097608
_cell_length_c 14.777446
_cell_angle_alpha 90.000000
_cell_angle_beta 39.408700
_cell_angle_gamma 90.000000
_cell_volume 2989.491910
_symmetry_space_group_name_H-M "C 2/M"
_symmetry_group_IT_number 12
_symmetry_cell_setting 'monoclinic'
loop_
_space_group_symop_operation_xyz
x,y,z
-x,y,-z
-x,-y,-z
x,-y,z
1/2+x,1/2+y,z
1/2-x,1/2+y,-z
1/2-x,1/2-y,-z
1/2+x,1/2-y,z
loop_
_atom_site_type_symbol
_atom_site_label
_atom_site_fract_x
_atom_site_fract_y
_atom_site_fract_z
Si Si1 0.404979 0.856152 0.380598
Si Si2 0.575062 0.860610 0.850067
Si Si3 0.821795 0.759149 0.656501
Si Si4 0.445407 0.500000 0.722364
Si Si5 0.921220 0.359916 0.647994
Si Si6 0.664710 0.858745 0.889436
Si Si7 0.560117 0.757492 0.195816
Si Si8 0.603090 0.500000 0.399898
O O1 0.402910 0.806853 0.280620
O O2 0.336401 0.795087 0.534805
O O3 0.478164 0.810292 0.320454
O O4 0.399700 0.000000 0.395931
O O5 0.641487 0.842282 0.819940
O O6 0.557493 0.000000 0.859749
O O7 0.500000 0.799189 0.000000
O O8 0.855376 0.666110 0.678123
O O9 0.735321 0.776420 0.801285
O O10 0.859102 0.886653 0.612106
O O11 0.437500 0.612910 0.801818
O O12 0.520759 0.500000 0.556362
O O13 0.387946 0.500000 0.723692
O O14 0.931719 0.500000 0.643055
O O15 0.897635 0.305282 0.779290
O O16 0.000000 0.301606 0.500000
O O17 0.678536 0.000000 0.890725
O O18 0.599393 0.806902 0.047946
#
# Coordination Sequence:
#
# PCOD8114004 Si02
#       8
#     8   8   8   4   8   8   8   4
#     4  11  21  37  65  94 117 153 207 257 301 349
#     4   9  18  36  64  92 117 150 202 258 302 353
#     4  12  23  38  59  88 126 162 194 248 302 361
#     4  11  22  38  62  86 117 161 216 241 284 359
#     4  11  21  36  60  92 121 154 203 251 293 348
#     4  11  24  41  62  90 122 159 202 252 310 361
#     4  12  22  38  62  90 119 159 205 252 295 355
#     4  11  20  40  58  81 121 162 207 239 286 363
#
# _framework density 18.732279999999999
#
# number of rings (size 3 to 8) (size 9 to 14) (size 15 to 20)
#    0.000    1.000    6.429    1.714    0.000    1.143 
#    2.571    0.000    0.000    2.571    0.000    0.000 
#    0.000    0.000    0.000    0.000    0.000    0.000 
#
# Total GULP energy -347204.602210 kJ/mol
# GULP energy per Si atom -12400.164365 kJ/mol
# Density = 1.868964 g / cm^3
# Si number density = 18.732280 Si / 1000 Ang^3
#
#
#
# Elastic Constant Matrix: (Units=GPa)
#
#
# Indices 1 2 3 4 5 6 
#
# 1 58.6832 13.1904 18.4046 0.0000 8.4179 0.0000
# 2 13.1904 84.3868 25.0961 0.0000 3.4278 0.0000
# 3 18.4046 25.0961 60.7077 0.0000 4.3300 0.0000
# 4 0.0000 0.0000 0.0000 31.2146 0.0000 3.2380
# 5 8.4179 3.4278 4.3300 0.0000 36.5456 0.0000
# 6 0.0000 0.0000 0.0000 3.2380 0.0000 20.4144
#
#
#
# Elastic Compliance Matrix: (Units=1/GPa)
#
#
# Indices 1 2 3 4 5 6 
#
# 1 0.019480 -0.001386 -0.005065 0.000000 -0.003757 0.000000
# 2 -0.001386 0.013623 -0.005187 0.000000 -0.000344 0.000000
# 3 -0.005065 -0.005187 0.020205 0.000000 -0.000741 0.000000
# 4 0.000000 0.000000 0.000000 0.032572 0.000000 -0.005166
# 5 -0.003757 -0.000344 -0.000741 0.000000 0.028348 0.000000
# 6 0.000000 0.000000 0.000000 -0.005166 0.000000 0.049805
#
#
# Mechanical properties :
#
#
# Convention : Reuss Voigt Hill
#
# Bulk Modulus (GPa) = 33.29739 35.24000 34.26869
# Shear Modulus (GPa) = 25.33962 27.44068 26.39015
#
# Velocity S-wave (km/s) = 3.68193 3.83154 3.75748
# Velocity P-wave (km/s) = 5.99078 6.19899 6.09578
#
# Compressibility (1/GPa) = 0.03003239
#
# Stress axis : x y z
#
# Youngs Moduli (GPa) = 51.33599 73.40294 49.49277
#
# Poissons Ratio (x) = 0.10174 0.25066
# Poissons Ratio (y) = 0.07115 0.25672
# Poissons Ratio (z) = 0.26000 0.38075
#
# Static dielectric constant tensor:
#      x y z
#    x 3.507480 0.000000 0.143250 
#    y 0.000000 3.406050 0.000000 
#    z 0.143250 0.000000 3.376820 
# 
# 
# High freq. dielectric constant tensor:
#      x y z
#    x 1.728870 0.000000 0.013140 
#    y 0.000000 1.717770 0.000000 
#    z 0.013140 0.000000 1.716300 
# 
# From -- ./inp_files/245650.got.cif
#   From: 2010.06.25/outbox.cif.g09.slc.cpg/sg12_123_cif.got.tgz:245650.got - 2010.06.28 00:19:55.
