data_PCOD8114755
_publ_section_title
;
Structure prediction by ZEFSAII (Michael W. Deem and Ramdas Pophale) SiO2 
 PCOD8114755
Probable space group: C 2/M
;
_chemical_formula_sum "Si O2"
_cell_formula_units_Z 56
_cell_length_a 12.142692
_cell_length_b 16.816614
_cell_length_c 16.672694
_cell_angle_alpha 90.000000
_cell_angle_beta 57.936596
_cell_angle_gamma 90.000000
_cell_volume 2885.221233
_symmetry_space_group_name_H-M "C 2/M"
_symmetry_group_IT_number 12
_symmetry_cell_setting 'monoclinic'
loop_
_space_group_symop_operation_xyz
x,y,z
-x,y,-z
-x,-y,-z
x,-y,z
1/2+x,1/2+y,z
1/2-x,1/2+y,-z
1/2-x,1/2-y,-z
1/2+x,1/2-y,z
loop_
_atom_site_type_symbol
_atom_site_label
_atom_site_fract_x
_atom_site_fract_y
_atom_site_fract_z
Si Si1 0.696988 0.406576 0.882000
Si Si2 0.872526 0.911502 0.594990
Si Si3 0.429109 0.593615 0.906802
Si Si4 0.068325 0.148081 0.264464
Si Si5 0.779443 0.906482 0.366680
Si Si6 0.191564 0.332659 0.554183
Si Si7 0.390150 0.176881 0.701790
O O1 0.719297 0.500000 0.876010
O O2 0.581145 0.385369 0.863990
O O3 0.831493 0.366090 0.803191
O O4 0.657821 0.375224 0.985497
O O5 0.888553 0.915167 0.685043
O O6 0.757140 0.853178 0.613729
O O7 0.000000 0.878567 0.500000
O O8 0.842477 0.000000 0.576358
O O9 0.415296 0.500000 0.904049
O O10 0.373535 0.632378 0.846592
O O11 0.124709 0.229616 0.278053
O O12 0.913997 0.141493 0.313387
O O13 0.722294 0.901796 0.478123
O O14 0.683557 0.857776 0.346406
O O15 0.794283 0.000000 0.335774
O O16 0.250000 0.250000 0.500000
O O17 0.040721 0.336994 0.630328
#
# Coordination Sequence:
#
# PCOD8114755 Si02
#       7
#     8   8   8   8   8   8   8
#     4   9  19  37  64  95 124 156 206 266 317 370
#     4  11  22  37  58  84 116 159 210 255 297 366
#     4   9  18  37  65  94 123 159 206 261 316 375
#     4  12  23  38  64  89 128 165 207 255 319 374
#     4  12  24  42  66  93 122 166 219 263 307 376
#     4  12  24  42  59  88 131 171 204 255 322 375
#     4  12  25  38  63  91 129 163 207 260 326 367
#
# _framework density 19.409257
#
# number of rings (size 3 to 8) (size 9 to 14) (size 15 to 20)
#    0.000    1.000    4.286    4.286    0.000    3.429 
#    0.000    0.000    0.000    0.857    0.000    3.000 
#    0.000    0.000    0.000    0.000    0.000    0.000 
#
# Total GULP energy -347070.001867 kJ/mol
# GULP energy per Si atom -12395.357210 kJ/mol
# Density = 1.936508 g / cm^3
# Si number density = 19.409257 Si / 1000 Ang^3
#
#
#
# Elastic Constant Matrix: (Units=GPa)
#
#
# Indices 1 2 3 4 5 6 
#
# 1 118.2188 44.4857 53.2300 0.0000 10.5086 0.0000
# 2 44.4857 82.2469 31.7638 0.0000 -0.0747 0.0000
# 3 53.2300 31.7638 118.8152 0.0000 6.7091 0.0000
# 4 0.0000 0.0000 0.0000 25.2740 0.0000 -2.9449
# 5 10.5086 -0.0747 6.7091 0.0000 42.2460 0.0000
# 6 0.0000 0.0000 0.0000 -2.9449 0.0000 27.1268
#
#
#
# Elastic Compliance Matrix: (Units=1/GPa)
#
#
# Indices 1 2 3 4 5 6 
#
# 1 0.012449 -0.005169 -0.004056 0.000000 -0.002462 0.000000
# 2 -0.005169 0.015720 -0.001979 0.000000 0.001628 0.000000
# 3 -0.004056 -0.001979 0.010803 0.000000 -0.000710 0.000000
# 4 0.000000 0.000000 0.000000 0.040073 0.000000 0.004350
# 5 -0.002462 0.001628 -0.000710 0.000000 0.024399 0.000000
# 6 0.000000 0.000000 0.000000 0.004350 0.000000 0.037336
#
#
# Mechanical properties :
#
#
# Convention : Reuss Voigt Hill
#
# Bulk Modulus (GPa) = 60.37343 64.24887 62.31115
# Shear Modulus (GPa) = 29.63658 31.58280 30.60969
#
# Velocity S-wave (km/s) = 3.91183 4.03824 3.97554
# Velocity P-wave (km/s) = 7.18166 7.41061 7.29704
#
# Compressibility (1/GPa) = 0.01656358
#
# Stress axis : x y z
#
# Youngs Moduli (GPa) = 80.32514 63.61286 92.56843
#
# Poissons Ratio (x) = 0.32883 0.37550
# Poissons Ratio (y) = 0.41522 0.18316
# Poissons Ratio (z) = 0.32584 0.12587
#
# Static dielectric constant tensor:
#      x y z
#    x 3.621080 0.000000 0.250370 
#    y 0.000000 3.560500 0.000000 
#    z 0.250370 0.000000 3.913560 
# 
# 
# High freq. dielectric constant tensor:
#      x y z
#    x 1.744070 0.000000 0.016020 
#    y 0.000000 1.750290 0.000000 
#    z 0.016020 0.000000 1.761760 
# 
# From -- ./inp_files/263211.got.cif
#   From: 2010.06.25/outbox.cif.g09.slc.cpg/sg12_132_cif.got.tgz:263211.got - 2010.06.28 00:19:55.
