data_PCOD8114138
_publ_section_title
;
Structure prediction by ZEFSAII (Michael W. Deem and Ramdas Pophale) SiO2 
 PCOD8114138
Probable space group: C 2/M
;
_chemical_formula_sum "Si O2"
_cell_formula_units_Z 56
_cell_length_a 15.861360
_cell_length_b 8.785046
_cell_length_c 19.743137
_cell_angle_alpha 90.000000
_cell_angle_beta 88.883418
_cell_angle_gamma 90.000000
_cell_volume 2750.541153
_symmetry_space_group_name_H-M "C 2/M"
_symmetry_group_IT_number 12
_symmetry_cell_setting 'monoclinic'
loop_
_space_group_symop_operation_xyz
x,y,z
-x,y,-z
-x,-y,-z
x,-y,z
1/2+x,1/2+y,z
1/2-x,1/2+y,-z
1/2-x,1/2-y,-z
1/2+x,1/2-y,z
loop_
_atom_site_type_symbol
_atom_site_label
_atom_site_fract_x
_atom_site_fract_y
_atom_site_fract_z
Si Si1 0.403477 0.675037 0.928702
Si Si2 0.847421 0.327751 0.211109
Si Si3 0.844839 0.826286 0.791103
Si Si4 0.101007 0.175579 0.923738
Si Si5 0.083884 0.180134 0.345673
Si Si6 0.895822 0.821980 0.342183
Si Si7 0.756552 0.180393 0.573447
O O1 0.377440 0.500000 0.934591
O O2 0.358484 0.755169 0.864321
O O3 0.502016 0.693056 0.915140
O O4 0.375236 0.744448 0.002057
O O5 0.880977 0.500000 0.216936
O O6 0.750188 0.317556 0.233291
O O7 0.853603 0.274061 0.133821
O O8 0.897707 0.220537 0.262479
O O9 0.900008 0.750706 0.730013
O O10 0.874432 0.000000 0.801334
O O11 0.128386 0.000000 0.915931
O O12 0.155390 0.242525 0.395912
O O13 0.988678 0.220436 0.370922
O O14 0.095470 0.000000 0.340109
O O15 0.824691 0.727798 0.381823
O O16 0.877294 0.000000 0.351114
O O17 0.750000 0.250000 0.500000
O O18 0.757504 0.000000 0.568120
#
# Coordination Sequence:
#
# PCOD8114138 Si02
#       7
#     8   8   8   8   8   8   8
#     4   8  15  29  51  74  99 139 193 245 289 345
#     4  11  21  33  52  79 114 153 190 239 300 354
#     4   9  16  30  52  77 106 147 192 235 287 349
#     4   9  17  31  51  75 102 138 192 249 292 341
#     4   9  19  37  63  88 116 158 202 235 281 352
#     4  11  22  39  65  92 116 154 204 247 284 338
#     4  11  23  43  66  93 127 159 191 234 287 346
#
# _framework density 20.359629999999999
#
# number of rings (size 3 to 8) (size 9 to 14) (size 15 to 20)
#    0.000    2.286    1.429    3.000    0.000    3.429 
#    0.000    7.143    0.000    1.714    0.000    0.000 
#    0.000    0.000    0.000    0.000    0.000    0.000 
#
# Total GULP energy -346998.210285 kJ/mol
# GULP energy per Si atom -12392.793224 kJ/mol
# Density = 2.031329 g / cm^3
# Si number density = 20.359630 Si / 1000 Ang^3
#
#
#
# Elastic Constant Matrix: (Units=GPa)
#
#
# Indices 1 2 3 4 5 6 
#
# 1 100.8450 26.9003 54.1631 0.0000 12.4901 0.0000
# 2 26.9003 48.7511 23.8832 0.0000 0.4070 0.0000
# 3 54.1631 23.8832 141.7945 0.0000 15.5438 0.0000
# 4 0.0000 0.0000 0.0000 26.5491 0.0000 -1.6922
# 5 12.4901 0.4070 15.5438 0.0000 31.6696 0.0000
# 6 0.0000 0.0000 0.0000 -1.6922 0.0000 20.3643
#
#
#
# Elastic Compliance Matrix: (Units=1/GPa)
#
#
# Indices 1 2 3 4 5 6 
#
# 1 0.014037 -0.005752 -0.004010 0.000000 -0.003494 0.000000
# 2 -0.005752 0.024796 -0.002318 0.000000 0.003087 0.000000
# 3 -0.004010 -0.002318 0.009298 0.000000 -0.002952 0.000000
# 4 0.000000 0.000000 0.000000 0.037867 0.000000 0.003147
# 5 -0.003494 0.003087 -0.002952 0.000000 0.034363 0.000000
# 6 0.000000 0.000000 0.000000 0.003147 0.000000 0.049367
#
#
# Mechanical properties :
#
#
# Convention : Reuss Voigt Hill
#
# Bulk Modulus (GPa) = 41.71579 55.69821 48.70700
# Shear Modulus (GPa) = 24.76741 28.14620 26.45681
#
# Velocity S-wave (km/s) = 3.49161 3.72217 3.60873
# Velocity P-wave (km/s) = 6.06540 6.77416 6.42956
#
# Compressibility (1/GPa) = 0.02397174
#
# Stress axis : x y z
#
# Youngs Moduli (GPa) = 71.24030 40.32937 107.54643
#
# Poissons Ratio (x) = 0.23196 0.43127
# Poissons Ratio (y) = 0.40976 0.24928
# Poissons Ratio (z) = 0.28568 0.09348
#
# Static dielectric constant tensor:
#      x y z
#    x 3.583580 0.000000 0.123060 
#    y 0.000000 3.262070 0.000000 
#    z 0.123060 0.000000 3.989150 
# 
# 
# High freq. dielectric constant tensor:
#      x y z
#    x 1.795960 0.000000 0.003810 
#    y 0.000000 1.746710 0.000000 
#    z 0.003810 0.000000 1.811330 
# 
# From -- ./inp_files/308914.got.cif
#   From: 2010.06.25/outbox.cif.g09.slc.cpg/sg12_155_cif.got.tgz:308914.got - 2010.06.28 00:19:55.
