data_PCOD8114832
_publ_section_title
;
Structure prediction by ZEFSAII (Michael W. Deem and Ramdas Pophale) SiO2 
 PCOD8114832
Probable space group: C 2/M
;
_chemical_formula_sum "Si O2"
_cell_formula_units_Z 56
_cell_length_a 14.537455
_cell_length_b 8.540622
_cell_length_c 29.920826
_cell_angle_alpha 90.000000
_cell_angle_beta 52.671395
_cell_angle_gamma 90.000000
_cell_volume 2954.009645
_symmetry_space_group_name_H-M "C 2/M"
_symmetry_group_IT_number 12
_symmetry_cell_setting 'monoclinic'
loop_
_space_group_symop_operation_xyz
x,y,z
-x,y,-z
-x,-y,-z
x,-y,z
1/2+x,1/2+y,z
1/2-x,1/2+y,-z
1/2-x,1/2-y,-z
1/2+x,1/2-y,z
loop_
_atom_site_type_symbol
_atom_site_label
_atom_site_fract_x
_atom_site_fract_y
_atom_site_fract_z
Si Si1 0.142245 0.683336 0.558600
Si Si2 0.058058 0.817884 0.436070
Si Si3 0.545863 0.314241 0.763107
Si Si4 0.803279 0.183211 0.364009
Si Si5 0.827485 0.184838 0.938005
Si Si6 0.711136 0.315056 0.149820
Si Si7 0.084955 0.185123 0.850024
O O1 0.129071 0.500000 0.552195
O O2 0.250000 0.750000 0.500000
O O3 0.157902 0.710918 0.606221
O O4 0.029475 0.778837 0.577706
O O5 0.168550 0.710374 0.394845
O O6 0.000000 0.771124 0.500000
O O7 0.092718 0.000000 0.425185
O O8 0.546610 0.500000 0.764150
O O9 0.625125 0.252785 0.699498
O O10 0.413616 0.256183 0.795097
O O11 0.597361 0.252953 0.795242
O O12 0.826091 0.000000 0.366581
O O13 0.776958 0.242247 0.905105
O O14 0.960063 0.242459 0.905229
O O15 0.824273 0.000000 0.940528
O O16 0.750000 0.250000 0.000000
O O17 0.717967 0.500000 0.150242
O O18 0.813250 0.248235 0.149448
O O19 0.091058 0.000000 0.848991
#
# Coordination Sequence:
#
# PCOD8114832 Si02
#       7
#     8   8   8   8   8   8   8
#     4  12  24  39  59  83 111 144 181 222 272 331
#     4  11  23  39  59  82 111 145 181 222 270 329
#     4   8  18  37  57  78 108 143 179 221 273 327
#     4  11  22  38  61  86 113 145 181 228 281 333
#     4   9  19  34  52  76 111 148 182 223 269 319
#     4   9  18  35  56  78 107 145 183 223 271 320
#     4   9  18  35  56  78 107 144 183 224 270 319
#
# _framework density 18.957284000000001
#
# number of rings (size 3 to 8) (size 9 to 14) (size 15 to 20)
#    0.000    2.143    1.429    3.857    0.000    3.429 
#    0.000   10.714    0.000    0.000    0.000    0.000 
#    0.000    0.000    0.000    0.000    0.000    0.000 
#
# Total GULP energy -347163.910289 kJ/mol
# GULP energy per Si atom -12398.711082 kJ/mol
# Density = 1.891414 g / cm^3
# Si number density = 18.957284 Si / 1000 Ang^3
#
#
#
# Elastic Constant Matrix: (Units=GPa)
#
#
# Indices 1 2 3 4 5 6 
#
# 1 165.0292 16.5048 77.9118 0.0000 4.9823 -0.0001
# 2 16.5048 39.2741 29.2456 -0.0001 -1.2504 -0.0001
# 3 77.9118 29.2456 171.5236 0.0000 -4.2278 -0.0001
# 4 0.0000 -0.0001 0.0000 25.9458 0.0000 1.4934
# 5 4.9823 -1.2504 -4.2278 0.0000 22.4543 0.0000
# 6 -0.0001 -0.0001 -0.0001 1.4934 0.0000 35.3989
#
#
#
# Elastic Compliance Matrix: (Units=1/GPa)
#
#
# Indices 1 2 3 4 5 6 
#
# 1 0.007863 -0.000776 -0.003500 0.000000 -0.002447 0.000000
# 2 -0.000776 0.029252 -0.004612 0.000000 0.000933 0.000000
# 3 -0.003500 -0.004612 0.008257 0.000000 0.002074 0.000000
# 4 0.000000 0.000000 0.000000 0.038636 0.000000 -0.001630
# 5 -0.002447 0.000933 0.002074 0.000000 0.045520 0.000000
# 6 0.000000 0.000000 0.000000 -0.001630 0.000000 0.028318
#
#
# Mechanical properties :
#
#
# Convention : Reuss Voigt Hill
#
# Bulk Modulus (GPa) = 36.23613 69.23904 52.73758
# Shear Modulus (GPa) = 27.05300 33.57079 30.31189
#
# Velocity S-wave (km/s) = 3.78173 4.21273 4.00303
# Velocity P-wave (km/s) = 6.18262 7.76310 7.01750
#
# Compressibility (1/GPa) = 0.02759677
#
# Stress axis : x y z
#
# Youngs Moduli (GPa) = 127.17306 34.18526 121.10506
#
# Poissons Ratio (x) = 0.02654 0.42383
# Poissons Ratio (y) = 0.09873 0.55854
# Poissons Ratio (z) = 0.44507 0.15766
#
# Static dielectric constant tensor:
#      x y z
#    x 4.067350 0.000000 0.185360 
#    y 0.000000 3.391150 0.000000 
#    z 0.185360 0.000000 2.901050 
# 
# 
# High freq. dielectric constant tensor:
#      x y z
#    x 1.746850 0.000000 0.000890 
#    y 0.000000 1.721920 0.000000 
#    z 0.000890 0.000000 1.739410 
# 
# From -- ./inp_files/359664.got.cif
#   From: 2010.06.25/outbox.cif.g09.slc.cpg/sg12_180_cif.got.tgz:359664.got - 2010.06.28 00:19:55.
