data_PCOD8114484
_publ_section_title
;
Structure prediction by ZEFSAII (Michael W. Deem and Ramdas Pophale) SiO2 
 PCOD8114484
Probable space group: C 2/M
;
_chemical_formula_sum "Si O2"
_cell_formula_units_Z 56
_cell_length_a 9.733949
_cell_length_b 27.482246
_cell_length_c 11.798871
_cell_angle_alpha 90.000000
_cell_angle_beta 62.779021
_cell_angle_gamma 90.000000
_cell_volume 2806.758854
_symmetry_space_group_name_H-M "C 2/M"
_symmetry_group_IT_number 12
_symmetry_cell_setting 'monoclinic'
loop_
_space_group_symop_operation_xyz
x,y,z
-x,y,-z
-x,-y,-z
x,-y,z
1/2+x,1/2+y,z
1/2-x,1/2+y,-z
1/2-x,1/2-y,-z
1/2+x,1/2-y,z
loop_
_atom_site_type_symbol
_atom_site_label
_atom_site_fract_x
_atom_site_fract_y
_atom_site_fract_z
Si Si1 0.923248 0.340684 0.243885
Si Si2 0.770829 0.396654 0.895316
Si Si3 0.306665 0.000000 0.171839
Si Si4 0.098204 0.845804 0.759578
Si Si5 0.138964 0.500000 0.114054
Si Si6 0.682468 0.396962 0.190277
Si Si7 0.570941 0.743524 0.091170
Si Si8 0.661267 0.797737 0.493431
O O1 0.781005 0.356968 0.220395
O O2 0.863518 0.334458 0.393821
O O3 0.053137 0.381380 0.189235
O O4 0.995818 0.290680 0.173860
O O5 0.654160 0.367202 0.859122
O O6 0.772868 0.454020 0.864565
O O7 0.723674 0.389354 0.042822
O O8 0.453084 0.000000 0.202671
O O9 0.209290 0.950827 0.230319
O O10 0.351996 0.000000 0.024278
O O11 0.246821 0.827746 0.635979
O O12 0.001395 0.886701 0.727504
O O13 0.972648 0.802311 0.815072
O O14 0.500000 0.730631 0.000000
O O15 0.750000 0.750000 0.000000
O O16 0.500000 0.780647 0.500000
O O17 0.750000 0.750000 0.500000
#
# Coordination Sequence:
#
# PCOD8114484 Si02
#       8
#     8   8   4   8   4   8   8   8
#     4  12  23  40  66  90 127 172 220 259 308 383
#     4  11  21  40  64  99 132 167 210 262 327 387
#     4   9  18  37  61  98 131 160 210 263 312 401
#     4  12  25  42  62  92 135 170 214 266 313 384
#     4   9  18  35  65  94 130 169 204 255 327 391
#     4  11  23  38  67 100 129 165 209 264 332 381
#     4  12  24  37  58  92 129 161 198 255 323 376
#     4  12  28  47  65  87 126 178 231 262 308 371
#
# _framework density 19.951837999999999
#
# number of rings (size 3 to 8) (size 9 to 14) (size 15 to 20)
#    0.000    0.714    4.286    5.143    2.000    0.571 
#    0.000    2.143    0.000    5.143    0.000    0.000 
#    0.000    0.000    0.000    0.000    0.000    0.000 
#
# Total GULP energy -347171.278062 kJ/mol
# GULP energy per Si atom -12398.974217 kJ/mol
# Density = 1.990643 g / cm^3
# Si number density = 19.951838 Si / 1000 Ang^3
#
#
#
# Elastic Constant Matrix: (Units=GPa)
#
#
# Indices 1 2 3 4 5 6 
#
# 1 142.6402 47.5084 34.5583 0.0000 -8.1465 0.0000
# 2 47.5084 119.0443 42.0877 0.0000 2.0340 0.0000
# 3 34.5583 42.0877 70.6736 0.0000 -6.6749 0.0000
# 4 0.0000 0.0000 0.0000 -21.0492 0.0000 4.9315
# 5 -8.1465 2.0340 -6.6749 0.0000 27.3117 0.0000
# 6 0.0000 0.0000 0.0000 4.9315 0.0000 27.7640
#
#
#
# Elastic Compliance Matrix: (Units=1/GPa)
#
#
# Indices 1 2 3 4 5 6 
#
# 1 0.008593 -0.002600 -0.002450 0.000000 0.002158 0.000000
# 2 -0.002600 0.011583 -0.005918 0.000000 -0.003084 0.000000
# 3 -0.002450 -0.005918 0.019289 0.000000 0.004424 0.000000
# 4 0.000000 0.000000 0.000000 -0.045610 0.000000 0.008101
# 5 0.002158 -0.003084 0.004424 0.000000 0.038569 0.000000
# 6 0.000000 0.000000 0.000000 0.008101 0.000000 0.034579
#
#
# Mechanical properties :
#
#
# Convention : Reuss Voigt Hill
#
# Bulk Modulus (GPa) = 57.04385 64.51856 60.78121
# Shear Modulus (GPa) = 52.75225 20.68555 36.71890
#
# Velocity S-wave (km/s) = 5.14754 3.22339 4.29462
# Velocity P-wave (km/s) = 7.99890 6.80155 7.42440
#
# Compressibility (1/GPa) = 0.01753037
#
# Stress axis : x y z
#
# Youngs Moduli (GPa) = 116.36739 86.33474 51.84202
#
# Poissons Ratio (x) = 0.22449 0.12700
# Poissons Ratio (y) = 0.30259 0.30678
# Poissons Ratio (z) = 0.28507 0.51090
#
# Static dielectric constant tensor:
#      x y z
#    x 3.850560 0.000000 -0.163790 
#    y 0.000000 3.941900 0.000000 
#    z -0.163790 0.000000 3.613380 
# 
# 
# High freq. dielectric constant tensor:
#      x y z
#    x 1.793280 0.000000 -0.007810 
#    y 0.000000 1.788820 0.000000 
#    z -0.007810 0.000000 1.751520 
# 
# From -- ./inp_files/125665.got.cif
#   From: 2010.06.25/outbox.cif.g09.slc.cpg/sg12_63_cif.got.tgz:125665.got - 2010.06.28 00:19:55.
