data_PCOD8114788
_publ_section_title
;
Structure prediction by ZEFSAII (Michael W. Deem and Ramdas Pophale) SiO2 
 PCOD8114788
Probable space group: C 2/M
;
_chemical_formula_sum "Si O2"
_cell_formula_units_Z 64
_cell_length_a 15.284747
_cell_length_b 8.636007
_cell_length_c 28.822424
_cell_angle_alpha 90.000000
_cell_angle_beta 56.101043
_cell_angle_gamma 90.000000
_cell_volume 3157.850573
_symmetry_space_group_name_H-M "C 2/M"
_symmetry_group_IT_number 12
_symmetry_cell_setting 'monoclinic'
loop_
_space_group_symop_operation_xyz
x,y,z
-x,y,-z
-x,-y,-z
x,-y,z
1/2+x,1/2+y,z
1/2-x,1/2+y,-z
1/2-x,1/2-y,-z
1/2+x,1/2-y,z
loop_
_atom_site_type_symbol
_atom_site_label
_atom_site_fract_x
_atom_site_fract_y
_atom_site_fract_z
Si Si1 0.777897 0.318500 0.869802
Si Si2 0.448788 0.820104 0.064224
Si Si3 0.324661 0.317156 0.439019
Si Si4 0.170219 0.683028 0.244922
Si Si5 0.740159 0.683751 0.641996
Si Si6 0.127127 0.816116 0.764119
Si Si7 0.941184 0.818079 0.882422
Si Si8 0.549238 0.816909 0.368427
O O1 0.790601 0.500000 0.874780
O O2 0.655848 0.280686 0.898854
O O3 0.843187 0.263784 0.804409
O O4 0.823737 0.226480 0.900487
O O5 0.533052 0.771325 0.078104
O O6 0.420400 0.000000 0.077336
O O7 0.500000 0.781129 0.000000
O O8 0.315458 0.500000 0.441913
O O9 0.250000 0.250000 0.500000
O O10 0.286529 0.247504 0.400693
O O11 0.443931 0.269168 0.415116
O O12 0.179833 0.500000 0.244440
O O13 0.280263 0.752249 0.230988
O O14 0.076228 0.735288 0.307267
O O15 0.738463 0.500000 0.640666
O O16 0.649481 0.742604 0.704871
O O17 0.855980 0.736341 0.625427
O O18 0.017543 0.758119 0.818268
O O19 0.129705 0.000000 0.763817
O O20 0.950367 0.000000 0.889026
O O21 0.531353 0.000000 0.377081
#
# Coordination Sequence:
#
# PCOD8114788 Si02
#       8
#     8   8   8   8   8   8   8   8
#     4  11  22  38  61  92 126 160 198 242 298 362
#     4  11  25  45  65  86 118 160 207 256 301 351
#     4  11  23  38  56  81 113 151 195 240 287 344
#     4   8  15  31  57  86 117 150 185 231 292 351
#     4   8  17  34  57  81 110 150 191 229 281 349
#     4   8  14  30  56  85 115 148 188 234 285 348
#     4  11  22  37  62  93 124 159 198 244 300 357
#     4   9  18  36  60  83 110 147 190 236 285 343
#
# _framework density 20.266950999999999
#
# number of rings (size 3 to 8) (size 9 to 14) (size 15 to 20)
#    0.000    2.375    1.250    3.000    1.750    2.000 
#    0.000    4.375    0.000    0.000    0.000    0.000 
#    0.000    0.000    0.000    0.000    0.000    0.000 
#
# Total GULP energy -396659.256412 kJ/mol
# GULP energy per Si atom -12395.601763 kJ/mol
# Density = 2.022082 g / cm^3
# Si number density = 20.266951 Si / 1000 Ang^3
#
#
#
# Elastic Constant Matrix: (Units=GPa)
#
#
# Indices 1 2 3 4 5 6 
#
# 1 85.4354 12.8486 26.3723 0.0000 22.3296 0.0000
# 2 12.8486 38.4187 27.5284 0.0001 5.9062 0.0000
# 3 26.3723 27.5284 93.7842 0.0000 20.1849 -0.0001
# 4 0.0000 0.0001 0.0000 25.9520 0.0000 -2.2869
# 5 22.3296 5.9062 20.1849 0.0000 31.9572 0.0000
# 6 0.0000 0.0000 -0.0001 -2.2869 0.0000 29.2911
#
#
#
# Elastic Compliance Matrix: (Units=1/GPa)
#
#
# Indices 1 2 3 4 5 6 
#
# 1 0.014900 -0.002514 -0.001518 0.000000 -0.008988 0.000000
# 2 -0.002514 0.033386 -0.009424 0.000000 0.001539 0.000000
# 3 -0.001518 -0.009424 0.015338 0.000000 -0.006886 0.000000
# 4 0.000000 0.000000 0.000000 0.038800 0.000000 0.003029
# 5 -0.008988 0.001539 -0.006886 0.000000 0.041637 0.000000
# 6 0.000000 0.000000 0.000000 0.003029 0.000000 0.034377
#
#
# Mechanical properties :
#
#
# Convention : Reuss Voigt Hill
#
# Bulk Modulus (GPa) = 27.23846 39.01521 33.12684
# Shear Modulus (GPa) = 22.97943 27.49933 25.23938
#
# Velocity S-wave (km/s) = 3.37090 3.68755 3.53278
# Velocity P-wave (km/s) = 5.34974 6.11744 5.74643
#
# Compressibility (1/GPa) = 0.03671279
#
# Stress axis : x y z
#
# Youngs Moduli (GPa) = 67.11190 29.95286 65.19896
#
# Poissons Ratio (x) = 0.07530 0.09894
# Poissons Ratio (y) = 0.16872 0.61443
# Poissons Ratio (z) = 0.10185 0.28227
#
# Static dielectric constant tensor:
#      x y z
#    x 3.780680 0.000000 0.229170 
#    y 0.000000 3.238140 0.000000 
#    z 0.229170 0.000000 3.956840 
# 
# 
# High freq. dielectric constant tensor:
#      x y z
#    x 1.796060 0.000000 0.005290 
#    y 0.000000 1.756540 0.000000 
#    z 0.005290 0.000000 1.794540 
# 
# From -- ./inp_files/375396.got.cif
#   From: 2010.06.25/outbox.cif.g09.slc.cpg/sg12_188_cif.got.tgz:375396.got - 2010.06.28 00:19:55.
