data_PCOD8114084
_publ_section_title
;
Structure prediction by ZEFSAII (Michael W. Deem and Ramdas Pophale) SiO2 
 PCOD8114084
Probable space group: C 2/M
;
_chemical_formula_sum "Si O2"
_cell_formula_units_Z 64
_cell_length_a 30.424149
_cell_length_b 9.517737
_cell_length_c 24.057408
_cell_angle_alpha 90.000000
_cell_angle_beta 149.824410
_cell_angle_gamma 90.000000
_cell_volume 3501.612789
_symmetry_space_group_name_H-M "C 2/M"
_symmetry_group_IT_number 12
_symmetry_cell_setting 'monoclinic'
loop_
_space_group_symop_operation_xyz
x,y,z
-x,y,-z
-x,-y,-z
x,-y,z
1/2+x,1/2+y,z
1/2-x,1/2+y,-z
1/2-x,1/2-y,-z
1/2+x,1/2-y,z
loop_
_atom_site_type_symbol
_atom_site_label
_atom_site_fract_x
_atom_site_fract_y
_atom_site_fract_z
Si Si1 0.856552 0.339301 0.279123
Si Si2 0.275484 0.713448 0.089969
Si Si3 0.915187 0.655709 0.097851
Si Si4 0.020194 0.838485 0.428085
Si Si5 0.639503 0.339160 0.170449
Si Si6 0.297608 0.665513 0.315399
Si Si7 0.974255 0.159934 0.060873
Si Si8 0.451516 0.350564 0.239544
O O1 0.866884 0.500000 0.309954
O O2 0.805322 0.339882 0.163735
O O3 0.798294 0.249592 0.258144
O O4 0.951602 0.267164 0.381184
O O5 0.362348 0.620417 0.177895
O O6 0.250000 0.750000 0.000000
O O7 0.189978 0.641923 0.023096
O O8 0.955189 0.500000 0.141775
O O9 0.956462 0.739011 0.092503
O O10 0.943861 0.727857 0.186746
O O11 0.114805 0.802523 0.555016
O O12 0.024151 0.813781 0.365531
O O13 0.994460 0.000000 0.414252
O O14 0.673518 0.500000 0.206160
O O15 0.718389 0.229764 0.264888
O O16 0.573870 0.318590 0.150223
O O17 0.590449 0.302081 0.059738
O O18 0.283144 0.500000 0.289053
O O19 0.958778 0.000000 0.063287
O O20 0.473763 0.500000 0.234411
#
# Coordination Sequence:
#
# PCOD8114084 Si02
#       8
#     8   8   8   8   8   8   8   8
#     4  11  22  34  51  76 104 136 176 215 247 290
#     4   9  20  33  47  70 103 137 168 205 248 289
#     4  11  21  31  49  78 106 132 168 210 251 301
#     4   9  20  37  53  72 102 138 172 208 254 302
#     4   9  19  36  56  77 100 130 170 210 248 298
#     4  11  22  35  53  77 105 135 167 208 257 305
#     4   9  19  36  55  75 103 135 165 203 253 304
#     4   9  18  34  53  70  97 138 175 206 247 298
#
# _framework density 18.277293
#
# number of rings (size 3 to 8) (size 9 to 14) (size 15 to 20)
#    0.000    2.250    0.000    3.375    0.000   14.000 
#    0.000    1.250    0.000    0.750    0.000    0.000 
#    0.000    0.000    0.000    0.000    0.000    0.000 
#
# Total GULP energy -396537.751979 kJ/mol
# GULP energy per Si atom -12391.804749 kJ/mol
# Density = 1.823569 g / cm^3
# Si number density = 18.277293 Si / 1000 Ang^3
#
#
#
# Elastic Constant Matrix: (Units=GPa)
#
#
# Indices 1 2 3 4 5 6 
#
# 1 94.8969 57.1326 37.9329 0.0000 -1.2763 0.0000
# 2 57.1326 131.1875 41.6898 0.0000 1.6294 0.0000
# 3 37.9329 41.6898 83.9305 0.0000 -2.0530 0.0000
# 4 0.0000 0.0000 0.0000 22.3354 0.0000 0.2218
# 5 -1.2763 1.6294 -2.0530 0.0000 22.3607 0.0000
# 6 0.0000 0.0000 0.0000 0.2218 0.0000 26.1922
#
#
#
# Elastic Compliance Matrix: (Units=1/GPa)
#
#
# Indices 1 2 3 4 5 6 
#
# 1 0.015526 -0.005402 -0.004312 0.000000 0.000884 0.000000
# 2 -0.005402 0.010957 -0.003035 0.000000 -0.001385 0.000000
# 3 -0.004312 -0.003035 0.015405 0.000000 0.001389 0.000000
# 4 0.000000 0.000000 0.000000 0.044776 0.000000 -0.000379
# 5 0.000884 -0.001385 0.001389 0.000000 0.045000 0.000000
# 6 0.000000 0.000000 0.000000 -0.000379 0.000000 0.038183
#
#
# Mechanical properties :
#
#
# Convention : Reuss Voigt Hill
#
# Bulk Modulus (GPa) = 61.01448 64.83619 62.92534
# Shear Modulus (GPa) = 24.89951 25.72829 25.31390
#
# Velocity S-wave (km/s) = 3.69496 3.75596 3.72559
# Velocity P-wave (km/s) = 7.18741 7.37294 7.28076
#
# Compressibility (1/GPa) = 0.01638955
#
# Stress axis : x y z
#
# Youngs Moduli (GPa) = 64.40979 91.26587 64.91446
#
# Poissons Ratio (x) = 0.49303 0.27991
# Poissons Ratio (y) = 0.34795 0.19701
# Poissons Ratio (z) = 0.27773 0.27698
#
# Static dielectric constant tensor:
#      x y z
#    x 3.329380 0.000000 -0.016080 
#    y 0.000000 3.222330 0.000000 
#    z -0.016080 0.000000 3.593110 
# 
# 
# High freq. dielectric constant tensor:
#      x y z
#    x 1.694600 0.000000 -0.008330 
#    y 0.000000 1.708340 0.000000 
#    z -0.008330 0.000000 1.699110 
# 
# From -- ./inp_files/353525.got.cif
#   From: 2010.06.25/outbox.cif.g09.slc.cpg/sg12_177_cif.got.tgz:353525.got - 2010.06.28 00:19:55.
