data_PCOD8114844
_publ_section_title
;
Structure prediction by ZEFSAII (Michael W. Deem and Ramdas Pophale) SiO2 
 PCOD8114844
Probable space group: C 2/M
;
_chemical_formula_sum "Si O2"
_cell_formula_units_Z 48
_cell_length_a 14.652382
_cell_length_b 8.735801
_cell_length_c 18.549107
_cell_angle_alpha 90.000000
_cell_angle_beta 93.689967
_cell_angle_gamma 90.000000
_cell_volume 2369.369002
_symmetry_space_group_name_H-M "C 2/M"
_symmetry_group_IT_number 12
_symmetry_cell_setting 'monoclinic'
loop_
_space_group_symop_operation_xyz
x,y,z
-x,y,-z
-x,-y,-z
x,-y,z
1/2+x,1/2+y,z
1/2-x,1/2+y,-z
1/2-x,1/2-y,-z
1/2+x,1/2-y,z
loop_
_atom_site_type_symbol
_atom_site_label
_atom_site_fract_x
_atom_site_fract_y
_atom_site_fract_z
Si Si1 0.427560 0.821111 0.659945
Si Si2 0.391470 0.674459 0.357442
Si Si3 0.762301 0.680493 0.107039
Si Si4 0.603109 0.318943 0.992968
Si Si5 0.269859 0.680313 0.732248
Si Si6 0.347379 0.675639 0.515979
O O1 0.533555 0.780334 0.677540
O O2 0.372596 0.729980 0.718564
O O3 0.401337 0.769325 0.578551
O O4 0.410479 0.000000 0.668587
O O5 0.403905 0.500000 0.332611
O O6 0.292668 0.734670 0.329219
O O7 0.402698 0.684995 0.444139
O O8 0.772557 0.500000 0.101504
O O9 0.853957 0.754727 0.078810
O O10 0.754373 0.735788 0.188765
O O11 0.669878 0.734496 0.061290
O O12 0.599012 0.500000 0.986530
O O13 0.500000 0.254147 0.000000
O O14 0.258500 0.500000 0.723656
O O15 0.336491 0.500000 0.540904
O O16 0.250000 0.750000 0.500000
#
# Coordination Sequence:
#
# PCOD8114844 Si02
#       6
#     8   8   8   8   8   8
#     4  12  25  40  60  87 118 156 200 245 299 360
#     4  11  24  41  61  86 115 152 200 250 301 357
#     4   9  20  37  57  86 119 151 190 236 287 339
#     4   9  18  35  60  88 117 152 192 232 279 339
#     4  11  23  40  60  84 121 160 197 245 295 351
#     4  11  22  38  62  87 115 151 198 252 302 353
#
# _framework density 20.258557
#
# number of rings (size 3 to 8) (size 9 to 14) (size 15 to 20)
#    0.000    1.500    1.667    3.500    0.000    7.000 
#    0.000    1.667    0.000    0.000    0.000    0.000 
#    0.000    0.000    0.000    0.000    0.000    0.000 
#
# Total GULP energy -297692.411880 kJ/mol
# GULP energy per Si atom -12403.850495 kJ/mol
# Density = 2.021245 g / cm^3
# Si number density = 20.258557 Si / 1000 Ang^3
#
#
#
# Elastic Constant Matrix: (Units=GPa)
#
#
# Indices 1 2 3 4 5 6 
#
# 1 113.6604 21.4826 23.7778 0.0000 -22.8750 0.0000
# 2 21.4826 68.1358 34.4647 0.0000 -4.9587 0.0000
# 3 23.7778 34.4647 95.5632 0.0000 -22.4072 0.0000
# 4 0.0000 0.0000 0.0000 29.5206 0.0000 -5.3947
# 5 -22.8750 -4.9587 -22.4072 0.0000 25.7083 0.0000
# 6 0.0000 0.0000 0.0000 -5.3947 0.0000 31.1499
#
#
#
# Elastic Compliance Matrix: (Units=1/GPa)
#
#
# Indices 1 2 3 4 5 6 
#
# 1 0.011269 -0.003173 0.000689 0.000000 0.010016 0.000000
# 2 -0.003173 0.018999 -0.007372 0.000000 -0.005584 0.000000
# 3 0.000689 -0.007372 0.016040 0.000000 0.013171 0.000000
# 4 0.000000 0.000000 0.000000 0.034982 0.000000 0.006058
# 5 0.010016 -0.005584 0.013171 0.000000 0.058212 0.000000
# 6 0.000000 0.000000 0.000000 0.006058 0.000000 0.033152
#
#
# Mechanical properties :
#
#
# Convention : Reuss Voigt Hill
#
# Bulk Modulus (GPa) = 37.59833 48.53440 43.06636
# Shear Modulus (GPa) = 24.84690 30.45138 27.64914
#
# Velocity S-wave (km/s) = 3.50593 3.88124 3.69835
# Velocity P-wave (km/s) = 5.91508 6.64039 6.28820
#
# Compressibility (1/GPa) = 0.02659693
#
# Stress axis : x y z
#
# Youngs Moduli (GPa) = 88.73557 52.63329 62.34456
#
# Poissons Ratio (x) = 0.16698 -0.04293
# Poissons Ratio (y) = 0.28152 0.45960
# Poissons Ratio (z) = -0.06110 0.38801
#
# Static dielectric constant tensor:
#      x y z
#    x 3.733280 0.000000 -0.039060 
#    y 0.000000 3.638410 0.000000 
#    z -0.039060 0.000000 3.712430 
# 
# 
# High freq. dielectric constant tensor:
#      x y z
#    x 1.800830 0.000000 -0.009630 
#    y 0.000000 1.792300 0.000000 
#    z -0.009630 0.000000 1.783410 
# 
# From -- ./inp_files/267712.got.cif
#   From: 2010.06.25/outbox.cif.g09.slc.cpg/sg12_134_cif.got.tgz:267712.got - 2010.06.28 00:19:55.
