data_PCOD8114813
_publ_section_title
;
Structure prediction by ZEFSAII (Michael W. Deem and Ramdas Pophale) SiO2 
 PCOD8114813
Probable space group: C 2/M
;
_chemical_formula_sum "Si O2"
_cell_formula_units_Z 36
_cell_length_a 7.736438
_cell_length_b 32.495145
_cell_length_c 10.854237
_cell_angle_alpha 90.000000
_cell_angle_beta 137.570851
_cell_angle_gamma 90.000000
_cell_volume 1841.006699
_symmetry_space_group_name_H-M "C 2/M"
_symmetry_group_IT_number 12
_symmetry_cell_setting 'monoclinic'
loop_
_space_group_symop_operation_xyz
x,y,z
-x,y,-z
-x,-y,-z
x,-y,z
1/2+x,1/2+y,z
1/2-x,1/2+y,-z
1/2-x,1/2-y,-z
1/2+x,1/2-y,z
loop_
_atom_site_type_symbol
_atom_site_label
_atom_site_fract_x
_atom_site_fract_y
_atom_site_fract_z
Si Si1 0.216420 0.934046 0.011267
Si Si2 0.228753 0.726870 0.861685
Si Si3 0.419382 0.500000 0.715051
Si Si4 0.008848 0.500000 0.306634
Si Si5 0.500000 0.868710 0.000000
Si Si6 0.256134 0.695097 0.296925
O O1 0.450616 0.959703 0.194521
O O2 0.347245 0.894076 0.022713
O O3 0.000000 0.923134 0.000000
O O4 0.090313 0.959645 0.832008
O O5 0.197155 0.759741 0.735228
O O6 0.986564 0.696395 0.736470
O O7 0.500000 0.702074 0.000000
O O8 0.250000 0.750000 0.000000
O O9 0.184832 0.500000 0.683450
O O10 0.301974 0.500000 0.513867
O O11 0.713071 0.839390 0.171966
O O12 0.500000 0.680402 0.500000
#
# Coordination Sequence:
#
# PCOD8114813 Si02
#       6
#     8   8   4   4   4   8
#     4   9  20  37  56  80 114 151 186 231 284 337
#     4   9  17  37  63  81 104 141 189 245 290 331
#     4   8  15  33  61  84 105 142 198 238 270 326
#     4   8  15  33  61  84 103 144 196 238 271 326
#     4  12  24  37  52  84 126 152 184 230 294 355
#     4  11  22  38  59  84 112 148 195 243 289 343
#
# _framework density 19.554518000000002
#
# number of rings (size 3 to 8) (size 9 to 14) (size 15 to 20)
#    0.000    2.444    3.333    2.000    0.000    4.444 
#    0.000    1.111    0.000    0.000    0.000    0.000 
#    0.000    0.000    0.000    0.000    0.000    0.000 
#
# Total GULP energy -223029.229990 kJ/mol
# GULP energy per Si atom -12390.512777 kJ/mol
# Density = 1.951001 g / cm^3
# Si number density = 19.554518 Si / 1000 Ang^3
#
#
#
# Elastic Constant Matrix: (Units=GPa)
#
#
# Indices 1 2 3 4 5 6 
#
# 1 87.9430 32.5987 34.7641 0.0000 10.2858 0.0000
# 2 32.5987 81.3109 45.0877 0.0000 1.2490 0.0000
# 3 34.7641 45.0877 177.0454 0.0000 10.9233 0.0000
# 4 0.0000 0.0000 0.0000 -695.0257 0.0000 88.0160
# 5 10.2858 1.2490 10.9233 0.0000 22.5752 0.0000
# 6 0.0000 0.0000 0.0000 88.0160 0.0000 23.7356
#
#
#
# Elastic Compliance Matrix: (Units=1/GPa)
#
#
# Indices 1 2 3 4 5 6 
#
# 1 0.014366 -0.005010 -0.001194 0.000000 -0.005691 0.000000
# 2 -0.005010 0.016090 -0.003298 0.000000 0.002988 0.000000
# 3 -0.001194 -0.003298 0.006883 0.000000 -0.002604 0.000000
# 4 0.000000 0.000000 0.000000 -0.000979 0.000000 0.003630
# 5 -0.005691 0.002988 -0.002604 0.000000 0.047984 0.000000
# 6 0.000000 0.000000 0.000000 0.003630 0.000000 0.028668
#
#
# Mechanical properties :
#
#
# Convention : Reuss Voigt Hill
#
# Bulk Modulus (GPa) = 54.54087 63.46669 59.00378
# Shear Modulus (GPa) = 36.19837 -114.15306 -38.97735
#
# Velocity S-wave (km/s) = 4.30717 -7.64876 -4.46944
# Velocity P-wave (km/s) = 7.25864 6.74374 1.89866
#
# Compressibility (1/GPa) = 0.01833488
#
# Stress axis : x y z
#
# Youngs Moduli (GPa) = 69.61079 62.15016 145.27898
#
# Poissons Ratio (x) = 0.31137 0.17344
# Poissons Ratio (y) = 0.34875 0.47917
# Poissons Ratio (z) = 0.08310 0.20499
#
# Static dielectric constant tensor:
#      x y z
#    x 4.371050 0.000000 0.354130 
#    y 0.000000 3.097730 0.000000 
#    z 0.354130 0.000000 4.125750 
# 
# 
# High freq. dielectric constant tensor:
#      x y z
#    x 1.763230 0.000000 0.006780 
#    y 0.000000 1.729780 0.000000 
#    z 0.006780 0.000000 1.766610 
# 
# From -- ./inp_files/124943.got.cif
#   From: 2010.06.25/outbox.cif.g09.slc.cpg/sg12_63_cif.got.tgz:124943.got - 2010.06.28 00:19:55.
