data_PCOD8114589
_publ_section_title
;
Structure prediction by ZEFSAII (Michael W. Deem and Ramdas Pophale) SiO2 
 PCOD8114589
Probable space group: C 2/M
;
_chemical_formula_sum "Si O2"
_cell_formula_units_Z 64
_cell_length_a 24.591247
_cell_length_b 9.364666
_cell_length_c 17.884860
_cell_angle_alpha 90.000000
_cell_angle_beta 63.082194
_cell_angle_gamma 90.000000
_cell_volume 3672.452229
_symmetry_space_group_name_H-M "C 2/M"
_symmetry_group_IT_number 12
_symmetry_cell_setting 'monoclinic'
loop_
_space_group_symop_operation_xyz
x,y,z
-x,y,-z
-x,-y,-z
x,-y,z
1/2+x,1/2+y,z
1/2-x,1/2+y,-z
1/2-x,1/2-y,-z
1/2+x,1/2-y,z
loop_
_atom_site_type_symbol
_atom_site_label
_atom_site_fract_x
_atom_site_fract_y
_atom_site_fract_z
Si Si1 0.779201 0.338007 0.547025
Si Si2 0.758495 0.669533 0.723310
Si Si3 0.944777 0.660909 0.977018
Si Si4 0.418125 0.840270 0.488331
Si Si5 0.996821 0.833670 0.670078
Si Si6 0.978005 0.164342 0.177515
Si Si7 0.390804 0.165875 0.676547
Si Si8 0.369839 0.332527 0.134756
O O1 0.756121 0.500000 0.554348
O O2 0.750000 0.250000 0.500000
O O3 0.757734 0.270131 0.639307
O O4 0.851621 0.329250 0.494157
O O5 0.760948 0.500000 0.714590
O O6 0.820373 0.719078 0.726775
O O7 0.698225 0.721410 0.803729
O O8 0.923884 0.500000 0.970435
O O9 0.888977 0.746553 0.048880
O O10 0.966711 0.740182 0.888508
O O11 0.000000 0.660177 0.000000
O O12 0.460912 0.727290 0.421356
O O13 0.416008 0.806686 0.577501
O O14 0.444450 0.000000 0.459179
O O15 0.028344 0.804480 0.730558
O O16 0.930738 0.758082 0.709257
O O17 0.987405 0.000000 0.661400
O O18 0.913953 0.202485 0.177462
O O19 0.995097 0.000000 0.151275
O O20 0.395897 0.000000 0.694921
O O21 0.371233 0.500000 0.115202
#
# Coordination Sequence:
#
# PCOD8114589 Si02
#       8
#     8   8   8   8   8   8   8   8
#     4   9  18  31  47  68  98 131 163 200 241 285
#     4   8  16  31  52  72  91 125 170 200 230 287
#     4   9  17  30  48  72 101 128 153 189 237 288
#     4   9  19  34  49  68  94 131 172 204 240 290
#     4  11  22  32  48  75 100 125 162 210 250 284
#     4   9  19  32  47  72 101 128 157 191 240 293
#     4   9  18  35  53  68  92 130 171 206 240 285
#     4   9  16  30  53  74  95 126 160 194 232 288
#
# _framework density 17.427049
#
# number of rings (size 3 to 8) (size 9 to 14) (size 15 to 20)
#    0.000    2.875    0.000    2.625    1.750    5.000 
#    0.000    3.125    0.000    0.750    0.000    0.000 
#    0.000    0.000    0.000    0.000    0.000    0.000 
#
# Total GULP energy -396737.525000 kJ/mol
# GULP energy per Si atom -12398.047656 kJ/mol
# Density = 1.738738 g / cm^3
# Si number density = 17.427049 Si / 1000 Ang^3
#
#
#
# Elastic Constant Matrix: (Units=GPa)
#
#
# Indices 1 2 3 4 5 6 
#
# 1 61.0396 35.0528 34.2234 0.0000 -10.3494 0.0000
# 2 35.0528 75.7134 40.1596 0.0002 -8.5719 -0.0005
# 3 34.2234 40.1596 80.1613 0.0000 -25.9713 0.0000
# 4 0.0000 0.0002 0.0000 20.5765 0.0000 3.6603
# 5 -10.3494 -8.5719 -25.9713 0.0000 23.7514 0.0000
# 6 0.0000 -0.0005 0.0000 3.6603 0.0000 24.5007
#
#
#
# Elastic Compliance Matrix: (Units=1/GPa)
#
#
# Indices 1 2 3 4 5 6 
#
# 1 0.024613 -0.008019 -0.006123 0.000000 0.001136 0.000000
# 2 -0.008019 0.021026 -0.008957 0.000000 -0.005700 0.000000
# 3 -0.006123 -0.008957 0.027356 0.000000 0.024012 0.000000
# 4 0.000000 0.000000 0.000000 0.049926 0.000000 -0.007459
# 5 0.001136 -0.005700 0.024012 0.000000 0.066797 0.000000
# 6 0.000000 0.000000 0.000000 -0.007459 0.000000 0.041929
#
#
# Mechanical properties :
#
#
# Convention : Reuss Voigt Hill
#
# Bulk Modulus (GPa) = 37.31661 48.42064 42.86863
# Shear Modulus (GPa) = 17.43523 20.93097 19.18310
#
# Velocity S-wave (km/s) = 3.16645 3.46939 3.32138
# Velocity P-wave (km/s) = 5.90153 6.62526 6.27384
#
# Compressibility (1/GPa) = 0.02679772
#
# Stress axis : x y z
#
# Youngs Moduli (GPa) = 40.62857 47.56103 36.55565
#
# Poissons Ratio (x) = 0.38139 0.22382
# Poissons Ratio (y) = 0.32579 0.32742
# Poissons Ratio (z) = 0.24876 0.42599
#
# Static dielectric constant tensor:
#      x y z
#    x 3.283550 0.000000 -0.172340 
#    y 0.000000 3.168810 0.000000 
#    z -0.172340 0.000000 3.209600 
# 
# 
# High freq. dielectric constant tensor:
#      x y z
#    x 1.662970 0.000000 -0.008800 
#    y 0.000000 1.660500 0.000000 
#    z -0.008800 0.000000 1.662340 
# 
# From -- ./inp_files/323610.got.cif
#   From: 2010.06.25/outbox.cif.g09.slc.cpg/sg12_162_cif.got.tgz:323610.got - 2010.06.28 00:19:55.
