data_PCOD8114968
_publ_section_title
;
Structure prediction by ZEFSAII (Michael W. Deem and Ramdas Pophale) SiO2 
 PCOD8114968
Probable space group: C 2/M
;
_chemical_formula_sum "Si O2"
_cell_formula_units_Z 40
_cell_length_a 9.729706
_cell_length_b 17.900387
_cell_length_c 12.130618
_cell_angle_alpha 90.000000
_cell_angle_beta 67.307163
_cell_angle_gamma 90.000000
_cell_volume 1949.180593
_symmetry_space_group_name_H-M "C 2/M"
_symmetry_group_IT_number 12
_symmetry_cell_setting 'monoclinic'
loop_
_space_group_symop_operation_xyz
x,y,z
-x,y,-z
-x,-y,-z
x,-y,z
1/2+x,1/2+y,z
1/2-x,1/2+y,-z
1/2-x,1/2-y,-z
1/2+x,1/2-y,z
loop_
_atom_site_type_symbol
_atom_site_label
_atom_site_fract_x
_atom_site_fract_y
_atom_site_fract_z
Si Si1 0.109112 0.579952 0.865847
Si Si2 0.714915 0.800454 0.340239
Si Si3 0.330199 0.234051 0.087270
Si Si4 0.654653 0.650855 0.485377
Si Si5 0.028615 0.584108 0.653724
O O1 0.196949 0.500000 0.825312
O O2 0.215263 0.651323 0.853119
O O3 0.004332 0.593874 0.791823
O O4 0.000000 0.572234 0.000000
O O5 0.788284 0.792265 0.196663
O O6 0.652774 0.723571 0.407627
O O7 0.842493 0.828694 0.385261
O O8 0.577937 0.859062 0.378228
O O9 0.500000 0.239648 0.000000
O O10 0.250000 0.250000 0.000000
O O11 0.500000 0.608929 0.500000
O O12 0.796557 0.599435 0.418823
O O13 0.990520 0.500000 0.625988
#
# Coordination Sequence:
#
# PCOD8114968 Si02
#       5
#     8   8   8   8   8
#     4   9  18  35  60  90 124 162 204 257 313 370
#     4  11  22  40  62  92 129 166 212 260 318 382
#     4  11  23  37  64  97 126 162 213 264 309 383
#     4  11  24  38  63  90 126 168 209 268 321 376
#     4  11  23  42  66  93 126 170 218 262 318 388
#
# _framework density 20.521445
#
# number of rings (size 3 to 8) (size 9 to 14) (size 15 to 20)
#    0.000    1.400    2.000    5.400    2.800    2.000 
#    0.000    0.000    0.000    2.400    0.000    0.000 
#    0.000    0.000    0.000    0.000    0.000    0.000 
#
# Total GULP energy -247817.694432 kJ/mol
# GULP energy per Si atom -12390.884722 kJ/mol
# Density = 2.047474 g / cm^3
# Si number density = 20.521445 Si / 1000 Ang^3
#
#
#
# Elastic Constant Matrix: (Units=GPa)
#
#
# Indices 1 2 3 4 5 6 
#
# 1 130.0731 42.7828 51.2591 0.0000 13.2598 0.0000
# 2 42.7828 112.6818 26.1961 0.0000 5.5451 0.0000
# 3 51.2591 26.1961 133.9591 0.0000 20.3284 0.0000
# 4 0.0000 0.0000 0.0000 55.6585 0.0000 7.6900
# 5 13.2598 5.5451 20.3284 0.0000 34.6515 0.0000
# 6 0.0000 0.0000 0.0000 7.6900 0.0000 31.7134
#
#
#
# Elastic Compliance Matrix: (Units=1/GPa)
#
#
# Indices 1 2 3 4 5 6 
#
# 1 0.010031 -0.003032 -0.003004 0.000000 -0.001591 0.000000
# 2 -0.003032 0.010220 -0.000841 0.000000 0.000018 0.000000
# 3 -0.003004 -0.000841 0.009423 0.000000 -0.004244 0.000000
# 4 0.000000 0.000000 0.000000 0.018590 0.000000 -0.004508
# 5 -0.001591 0.000018 -0.004244 0.000000 0.031954 0.000000
# 6 0.000000 0.000000 0.000000 -0.004508 0.000000 0.032626
#
#
# Mechanical properties :
#
#
# Convention : Reuss Voigt Hill
#
# Bulk Modulus (GPa) = 62.81367 68.57667 65.69517
# Shear Modulus (GPa) = 37.90597 41.50305 39.70451
#
# Velocity S-wave (km/s) = 4.30250 4.50202 4.40339
# Velocity P-wave (km/s) = 7.44024 7.77906 7.61154
#
# Compressibility (1/GPa) = 0.01592010
#
# Stress axis : x y z
#
# Youngs Moduli (GPa) = 99.68809 97.84363 106.12347
#
# Poissons Ratio (x) = 0.29666 0.31881
# Poissons Ratio (y) = 0.30225 0.08927
# Poissons Ratio (z) = 0.29947 0.08231
#
# Static dielectric constant tensor:
#      x y z
#    x 3.678450 0.000000 0.210950 
#    y 0.000000 4.453190 0.000000 
#    z 0.210950 0.000000 4.043520 
# 
# 
# High freq. dielectric constant tensor:
#      x y z
#    x 1.775270 0.000000 0.022110 
#    y 0.000000 1.797760 0.000000 
#    z 0.022110 0.000000 1.829390 
# 
# From -- ./inp_files/118914.got.cif
#   From: 2010.06.25/outbox.cif.g09.slc.cpg/sg12_60_cif.got.tgz:118914.got - 2010.06.28 00:19:55.
