data_PCOD8114232
_publ_section_title
;
Structure prediction by ZEFSAII (Michael W. Deem and Ramdas Pophale) SiO2 
 PCOD8114232
Probable space group: C 2/M
;
_chemical_formula_sum "Si O2"
_cell_formula_units_Z 52
_cell_length_a 14.175363
_cell_length_b 19.726455
_cell_length_c 30.268076
_cell_angle_alpha 90.000000
_cell_angle_beta 159.448502
_cell_angle_gamma 90.000000
_cell_volume 2971.227812
_symmetry_space_group_name_H-M "C 2/M"
_symmetry_group_IT_number 12
_symmetry_cell_setting 'monoclinic'
loop_
_space_group_symop_operation_xyz
x,y,z
-x,y,-z
-x,-y,-z
x,-y,z
1/2+x,1/2+y,z
1/2-x,1/2+y,-z
1/2-x,1/2-y,-z
1/2+x,1/2-y,z
loop_
_atom_site_type_symbol
_atom_site_label
_atom_site_fract_x
_atom_site_fract_y
_atom_site_fract_z
Si Si1 0.896578 0.863604 0.221943
Si Si2 0.613210 0.210684 0.900056
Si Si3 0.553056 0.423385 0.199126
Si Si4 0.459226 0.924630 0.084527
Si Si5 0.602924 0.198454 0.668666
Si Si6 0.204108 0.731620 0.553163
Si Si7 0.500000 0.764915 0.000000
O O1 0.750331 0.917413 0.189517
O O2 0.671115 0.809627 0.108908
O O3 0.031592 0.901907 0.240468
O O4 0.131664 0.828181 0.351979
O O5 0.582243 0.130820 0.895551
O O6 0.321058 0.241594 0.762799
O O7 0.750000 0.250000 0.000000
O O8 0.796549 0.217137 0.937324
O O9 0.660315 0.500000 0.242346
O O10 0.759574 0.374573 0.263984
O O11 0.260843 0.414476 0.050102
O O12 0.437833 0.000000 0.096027
O O13 0.400720 0.209521 0.621090
O O14 0.450565 0.198148 0.555468
O O15 0.000000 0.763245 0.500000
#
# Coordination Sequence:
#
# PCOD8114232 Si02
#       7
#     8   8   8   8   8   8   4
#     4  12  18  35  56  85 115 146 179 234 291 338
#     4  12  19  36  58  84 112 148 190 236 283 336
#     4  11  21  35  56  87 121 146 182 230 288 351
#     4  11  22  35  56  86 119 151 182 229 291 347
#     4  11  21  37  56  81 114 151 190 233 282 330
#     4  11  22  35  58  82 113 144 196 243 273 327
#     4  12  20  30  60  90 110 136 194 236 276 338
#
# _framework density 17.501182
#
# number of rings (size 3 to 8) (size 9 to 14) (size 15 to 20)
#    0.000    0.615    9.231    0.462    0.000    1.231 
#    0.000    2.692    0.000    0.462    0.000    0.000 
#    0.000    0.000    0.000    0.000    0.000    0.000 
#
# Total GULP energy -322462.146036 kJ/mol
# GULP energy per Si atom -12402.390232 kJ/mol
# Density = 1.746135 g / cm^3
# Si number density = 17.501182 Si / 1000 Ang^3
#
#
#
# Elastic Constant Matrix: (Units=GPa)
#
#
# Indices 1 2 3 4 5 6 
#
# 1 108.8870 53.4558 31.7190 0.0138 25.8467 0.0038
# 2 53.4558 137.9334 42.6855 0.0031 8.5844 0.0026
# 3 31.7190 42.6855 94.5680 0.0316 2.7555 0.0040
# 4 0.0138 0.0031 0.0316 14.3461 0.0208 -2.8433
# 5 25.8467 8.5844 2.7555 0.0208 30.3986 0.0024
# 6 0.0038 0.0026 0.0040 -2.8433 0.0024 27.1686
#
#
#
# Elastic Compliance Matrix: (Units=1/GPa)
#
#
# Indices 1 2 3 4 5 6 
#
# 1 0.014623 -0.004141 -0.002714 0.000009 -0.011018 0.000001
# 2 -0.004141 0.009728 -0.003032 0.000007 0.001049 0.000001
# 3 -0.002714 -0.003032 0.012795 -0.000029 0.002004 -0.000004
# 4 0.000009 0.000007 -0.000029 0.071182 -0.000056 0.007449
# 5 -0.011018 0.001049 0.002004 -0.000056 0.041786 -0.000008
# 6 0.000001 0.000001 -0.000004 0.007449 -0.000008 0.037587
#
#
# Mechanical properties :
#
#
# Convention : Reuss Voigt Hill
#
# Bulk Modulus (GPa) = 57.57134 66.34547 61.95841
# Shear Modulus (GPa) = 23.44472 28.61787 26.03129
#
# Velocity S-wave (km/s) = 3.66404 4.04814 3.86087
# Velocity P-wave (km/s) = 7.13213 7.73572 7.44005
#
# Compressibility (1/GPa) = 0.01736975
#
# Stress axis : x y z
#
# Youngs Moduli (GPa) = 68.38557 102.79575 78.15432
#
# Poissons Ratio (x) = 0.42572 0.21214
# Poissons Ratio (y) = 0.28321 0.23700
# Poissons Ratio (z) = 0.18562 0.31173
#
# Static dielectric constant tensor:
#      x y z
#    x 3.371410 -0.000030 0.149330 
#    y -0.000030 3.242750 -0.000110 
#    z 0.149330 -0.000110 3.474370 
# 
# 
# High freq. dielectric constant tensor:
#      x y z
#    x 1.672310 0.000000 0.008110 
#    y 0.000000 1.656980 -0.000010 
#    z 0.008110 -0.000010 1.685090 
# 
# From -- ./inp_files/99009.got.cif
#   From: 2010.06.25/outbox.cif.g09.slc.cpg/sg12_50_cif.got.tgz:99009.got - 2010.06.28 00:19:55.
