data_PCOD8114955
_publ_section_title
;
Structure prediction by ZEFSAII (Michael W. Deem and Ramdas Pophale) SiO2 
 PCOD8114955
Probable space group: C 2/M
;
_chemical_formula_sum "Si O2"
_cell_formula_units_Z 64
_cell_length_a 20.980447
_cell_length_b 19.943588
_cell_length_c 12.870886
_cell_angle_alpha 90.000000
_cell_angle_beta 145.415483
_cell_angle_gamma 90.000000
_cell_volume 3056.927577
_symmetry_space_group_name_H-M "C 2/M"
_symmetry_group_IT_number 12
_symmetry_cell_setting 'monoclinic'
loop_
_space_group_symop_operation_xyz
x,y,z
-x,y,-z
-x,-y,-z
x,-y,z
1/2+x,1/2+y,z
1/2-x,1/2+y,-z
1/2-x,1/2-y,-z
1/2+x,1/2-y,z
loop_
_atom_site_type_symbol
_atom_site_label
_atom_site_fract_x
_atom_site_fract_y
_atom_site_fract_z
Si Si1 0.963000 0.384356 0.191270
Si Si2 0.399202 0.322165 0.435461
Si Si3 0.195956 0.574313 0.435611
Si Si4 0.122564 0.575962 0.708718
Si Si5 0.798716 0.422075 0.795031
Si Si6 0.752889 0.201373 0.808029
Si Si7 0.016127 0.769499 0.792789
Si Si8 0.177102 0.200720 0.331136
O O1 0.882445 0.411156 0.174512
O O2 0.081409 0.423056 0.348674
O O3 0.993711 0.307599 0.251383
O O4 0.901044 0.393835 0.999348
O O5 0.500000 0.347444 0.500000
O O6 0.313057 0.382858 0.325605
O O7 0.344450 0.256588 0.306442
O O8 0.448045 0.309731 0.614877
O O9 0.247214 0.500000 0.514524
O O10 0.166801 0.591453 0.277345
O O11 0.290050 0.623896 0.604666
O O12 0.164523 0.500000 0.744135
O O13 0.206016 0.626610 0.761901
O O14 0.000000 0.588608 0.500000
O O15 0.778493 0.500000 0.791321
O O16 0.802410 0.216345 0.761178
O O17 0.853279 0.210516 0.025474
O O18 0.953568 0.786587 0.817483
O O19 0.250000 0.250000 0.500000
#
# Coordination Sequence:
#
# PCOD8114955 Si02
#       8
#     8   8   8   8   8   8   8   8
#     4  12  23  40  69 101 133 172 228 285 341 403
#     4  12  25  43  66  98 133 175 226 272 334 407
#     4  11  22  39  67  98 135 175 222 283 346 404
#     4  11  25  45  67  98 137 180 227 277 340 410
#     4  11  24  42  64  96 137 177 222 283 344 407
#     4  12  25  43  68  98 136 175 225 284 341 399
#     4  12  25  41  69 102 132 174 226 280 343 401
#     4  12  22  42  67  97 133 174 224 281 340 403
#
# _framework density 20.936053000000001
#
# number of rings (size 3 to 8) (size 9 to 14) (size 15 to 20)
#    0.000    0.375    5.000    4.500    1.750    4.750 
#    0.000    1.250    0.000    1.500    0.000    0.000 
#    0.000    0.000    0.000    0.000    0.000    0.000 
#
# Total GULP energy -396984.212784 kJ/mol
# GULP energy per Si atom -12405.756650 kJ/mol
# Density = 2.088840 g / cm^3
# Si number density = 20.936053 Si / 1000 Ang^3
#
#
#
# Elastic Constant Matrix: (Units=GPa)
#
#
# Indices 1 2 3 4 5 6 
#
# 1 76.2023 29.7260 1.5802 0.0000 19.9465 0.0000
# 2 29.7260 77.4916 18.0872 0.0000 7.2327 0.0000
# 3 1.5802 18.0872 75.8824 0.0000 11.0194 0.0000
# 4 0.0000 0.0000 0.0000 20.2189 0.0000 9.3551
# 5 19.9465 7.2327 11.0194 0.0000 25.2595 0.0000
# 6 0.0000 0.0000 0.0000 9.3551 0.0000 31.8800
#
#
#
# Elastic Compliance Matrix: (Units=1/GPa)
#
#
# Indices 1 2 3 4 5 6 
#
# 1 0.019711 -0.006956 0.003436 0.000000 -0.015072 0.000000
# 2 -0.006956 0.016289 -0.004119 0.000000 0.002626 0.000000
# 3 0.003436 -0.004119 0.015279 0.000000 -0.008200 0.000000
# 4 0.000000 0.000000 0.000000 0.057229 0.000000 -0.016794
# 5 -0.015072 0.002626 -0.008200 0.000000 0.054316 0.000000
# 6 0.000000 0.000000 0.000000 -0.016794 0.000000 0.036296
#
#
# Mechanical properties :
#
#
# Convention : Reuss Voigt Hill
#
# Bulk Modulus (GPa) = 27.77710 36.48478 32.13094
# Shear Modulus (GPa) = 22.08495 27.48388 24.78441
#
# Velocity S-wave (km/s) = 3.25141 3.62712 3.44439
# Velocity P-wave (km/s) = 5.23373 5.91658 5.58560
#
# Compressibility (1/GPa) = 0.03600088
#
# Stress axis : x y z
#
# Youngs Moduli (GPa) = 50.73437 61.38941 65.44799
#
# Poissons Ratio (x) = 0.42705 -0.22490
# Poissons Ratio (y) = 0.35293 0.26959
# Poissons Ratio (z) = -0.17434 0.25287
#
# Static dielectric constant tensor:
#      x y z
#    x 3.990890 0.000000 0.020550 
#    y 0.000000 3.832440 0.000000 
#    z 0.020550 0.000000 3.776090 
# 
# 
# High freq. dielectric constant tensor:
#      x y z
#    x 1.828520 0.000000 -0.005690 
#    y 0.000000 1.823940 0.000000 
#    z -0.005690 0.000000 1.813640 
# 
# From -- ./inp_files/216816.got.cif
#   From: 2010.06.25/outbox.cif.g09.slc.cpg/sg12_109_cif.got.tgz:216816.got - 2010.06.28 00:19:55.
