data_PCOD8114289
_publ_section_title
;
Structure prediction by ZEFSAII (Michael W. Deem and Ramdas Pophale) SiO2 
 PCOD8114289
Probable space group: C 2/M
;
_chemical_formula_sum "Si O2"
_cell_formula_units_Z 56
_cell_length_a 30.207628
_cell_length_b 8.582773
_cell_length_c 16.719354
_cell_angle_alpha 90.000000
_cell_angle_beta 45.154476
_cell_angle_gamma 90.000000
_cell_volume 3073.381712
_symmetry_space_group_name_H-M "C 2/M"
_symmetry_group_IT_number 12
_symmetry_cell_setting 'monoclinic'
loop_
_space_group_symop_operation_xyz
x,y,z
-x,y,-z
-x,-y,-z
x,-y,z
1/2+x,1/2+y,z
1/2-x,1/2+y,-z
1/2-x,1/2-y,-z
1/2+x,1/2-y,z
loop_
_atom_site_type_symbol
_atom_site_label
_atom_site_fract_x
_atom_site_fract_y
_atom_site_fract_z
Si Si1 0.255114 0.182891 0.203292
Si Si2 0.449663 0.682150 0.389805
Si Si3 0.156898 0.183515 0.589792
Si Si4 0.619668 0.820075 0.374788
Si Si5 0.718845 0.182562 0.652884
Si Si6 0.195892 0.182296 0.013958
Si Si7 0.081205 0.679147 0.246493
O O1 0.191762 0.277908 0.272141
O O2 0.287507 0.227512 0.246095
O O3 0.239780 0.000000 0.218754
O O4 0.302902 0.232855 0.073363
O O5 0.465799 0.500000 0.364200
O O6 0.407283 0.739479 0.369222
O O7 0.412029 0.711155 0.519239
O O8 0.512067 0.782364 0.305014
O O9 0.215200 0.249809 0.463863
O O10 0.161919 0.242782 0.674844
O O11 0.159024 0.000000 0.585418
O O12 0.584529 0.787448 0.336524
O O13 0.613010 0.000000 0.408677
O O14 0.715483 0.000000 0.644315
O O15 0.129115 0.211585 0.138549
O O16 0.207000 0.000000 0.988328
O O17 0.250000 0.250000 0.000000
O O18 0.097304 0.500000 0.207200
#
# Coordination Sequence:
#
# PCOD8114289 Si02
#       7
#     8   8   8   8   8   8   8
#     4  11  21  36  58  83 115 147 183 231 280 329
#     4  11  22  37  56  81 115 152 188 228 280 334
#     4   9  18  33  52  79 112 145 182 225 273 332
#     4  11  22  35  54  81 114 150 188 229 274 331
#     4   9  18  33  53  81 111 144 181 224 277 331
#     4  12  24  39  59  83 110 147 190 232 278 324
#     4  11  24  40  56  80 112 149 193 233 275 330
#
# _framework density 18.220970999999999
#
# number of rings (size 3 to 8) (size 9 to 14) (size 15 to 20)
#    0.000    1.429    2.857    3.429    0.000    5.714 
#    0.000    0.000    0.000    0.857    0.000    6.000 
#    0.000    0.000    0.000    0.000    0.000    0.000 
#
# Total GULP energy -347306.935506 kJ/mol
# GULP energy per Si atom -12403.819125 kJ/mol
# Density = 1.817950 g / cm^3
# Si number density = 18.220971 Si / 1000 Ang^3
#
#
#
# Elastic Constant Matrix: (Units=GPa)
#
#
# Indices 1 2 3 4 5 6 
#
# 1 154.6848 40.0382 45.7404 0.0005 6.3728 -0.0001
# 2 40.0382 37.1579 18.1602 0.0046 4.8955 -0.0015
# 3 45.7404 18.1602 59.4416 0.0017 4.8059 -0.0007
# 4 0.0005 0.0046 0.0017 30.4104 -0.0004 0.0130
# 5 6.3728 4.8955 4.8059 -0.0004 27.7957 -0.0001
# 6 -0.0001 -0.0015 -0.0007 0.0130 -0.0001 27.8318
#
#
#
# Elastic Compliance Matrix: (Units=1/GPa)
#
#
# Indices 1 2 3 4 5 6 
#
# 1 0.010205 -0.008420 -0.005284 0.000001 0.000057 -0.000001
# 2 -0.008420 0.039019 -0.005113 -0.000006 -0.004057 0.000002
# 3 -0.005284 -0.005113 0.022597 0.000000 -0.001795 0.000000
# 4 0.000001 -0.000006 0.000000 0.032883 0.000001 -0.000015
# 5 0.000057 -0.004057 -0.001795 0.000001 0.036989 0.000000
# 6 -0.000001 0.000002 0.000000 -0.000015 0.000000 0.035930
#
#
# Mechanical properties :
#
#
# Convention : Reuss Voigt Hill
#
# Bulk Modulus (GPa) = 29.25336 51.01800 40.13568
# Shear Modulus (GPa) = 22.06011 27.03063 24.54537
#
# Velocity S-wave (km/s) = 3.48328 3.85579 3.67426
# Velocity P-wave (km/s) = 5.68043 6.91977 6.33050
#
# Compressibility (1/GPa) = 0.03418410
#
# Stress axis : x y z
#
# Youngs Moduli (GPa) = 97.99550 25.62861 44.25384
#
# Poissons Ratio (x) = 0.21580 0.23386
# Poissons Ratio (y) = 0.82516 0.22628
# Poissons Ratio (z) = 0.51785 0.13105
#
# Static dielectric constant tensor:
#      x y z
#    x 3.569880 0.000000 0.091930 
#    y 0.000000 3.405770 0.000000 
#    z 0.091930 0.000000 3.337330 
# 
# 
# High freq. dielectric constant tensor:
#      x y z
#    x 1.710630 0.000000 0.007570 
#    y 0.000000 1.713830 0.000000 
#    z 0.007570 0.000000 1.682230 
# 
# From -- ./inp_files/292529.got.cif
#   From: 2010.06.25/outbox.cif.g09.slc.cpg/sg12_147_cif.got.tgz:292529.got - 2010.06.28 00:19:55.
