data_PCOD8114982
_publ_section_title
;
Structure prediction by ZEFSAII (Michael W. Deem and Ramdas Pophale) SiO2 
 PCOD8114982
Probable space group: C 2/M
;
_chemical_formula_sum "Si O2"
_cell_formula_units_Z 60
_cell_length_a 14.548769
_cell_length_b 26.597880
_cell_length_c 14.062949
_cell_angle_alpha 90.000000
_cell_angle_beta 30.337125
_cell_angle_gamma 90.000000
_cell_volume 2748.627119
_symmetry_space_group_name_H-M "C 2/M"
_symmetry_group_IT_number 12
_symmetry_cell_setting 'monoclinic'
loop_
_space_group_symop_operation_xyz
x,y,z
-x,y,-z
-x,-y,-z
x,-y,z
1/2+x,1/2+y,z
1/2-x,1/2+y,-z
1/2-x,1/2-y,-z
1/2+x,1/2-y,z
loop_
_atom_site_type_symbol
_atom_site_label
_atom_site_fract_x
_atom_site_fract_y
_atom_site_fract_z
Si Si1 0.719315 0.940860 0.959097
Si Si2 0.595714 0.792587 0.640923
Si Si3 0.131919 0.595313 0.639156
Si Si4 0.156712 0.691191 0.300255
Si Si5 0.289376 0.609417 0.699463
Si Si6 0.000000 0.124116 0.000000
Si Si7 0.152929 0.718594 0.794259
Si Si8 0.924145 0.056582 0.246728
O O1 0.700340 0.915564 0.872281
O O2 0.918963 0.927972 0.819489
O O3 0.684113 0.000000 0.979734
O O4 0.581913 0.917900 0.161342
O O5 0.750000 0.750000 0.500000
O O6 0.672501 0.849217 0.559766
O O7 0.424262 0.784424 0.724567
O O8 0.535609 0.790199 0.803988
O O9 0.200051 0.586202 0.685461
O O10 0.233417 0.559413 0.473767
O O11 0.204438 0.735313 0.334118
O O12 0.000000 0.660970 0.500000
O O13 0.328330 0.657292 0.119763
O O14 0.500000 0.597318 0.500000
O O15 0.255848 0.668856 0.736812
O O16 0.070881 0.091542 0.849418
O O17 0.000000 0.738000 0.000000
O O18 0.951668 0.000000 0.185615
#
# Coordination Sequence:
#
# PCOD8114982 Si02
#       8
#     8   8   8   8   8   4   8   8
#     4  11  24  43  68 101 134 173 224 278 340 410
#     4  11  24  41  68  99 135 180 225 278 336 404
#     4  11  23  43  67  97 136 177 222 275 341 406
#     4  12  24  45  69  98 139 177 228 286 336 410
#     4  11  22  40  64  98 139 178 214 270 334 410
#     4  12  27  46  70 100 130 182 233 288 350 396
#     4  11  24  42  62 100 138 177 228 270 338 407
#     4  11  25  45  69  96 132 174 231 289 342 402
#
# _framework density 21.829079
#
# number of rings (size 3 to 8) (size 9 to 14) (size 15 to 20)
#    0.000    0.800    3.333    4.600    1.867    2.400 
#    0.000    0.000    0.000    4.000    0.000    0.000 
#    0.000    0.000    0.000    0.000    0.000    0.000 
#
# Total GULP energy -371899.234429 kJ/mol
# GULP energy per Si atom -12396.641148 kJ/mol
# Density = 2.177940 g / cm^3
# Si number density = 21.829079 Si / 1000 Ang^3
#
#
#
# Elastic Constant Matrix: (Units=GPa)
#
#
# Indices 1 2 3 4 5 6 
#
# 1 116.8087 35.8666 30.2764 0.0113 0.3407 0.0077
# 2 35.8666 97.4192 32.8364 0.0095 4.2857 0.0015
# 3 30.2764 32.8364 140.1811 0.0624 4.9117 -0.0118
# 4 0.0113 0.0095 0.0624 28.4867 -0.0257 6.3024
# 5 0.3407 4.2857 4.9117 -0.0257 29.9739 -0.0013
# 6 0.0077 0.0015 -0.0118 6.3024 -0.0013 24.6935
#
#
#
# Elastic Compliance Matrix: (Units=1/GPa)
#
#
# Indices 1 2 3 4 5 6 
#
# 1 0.009907 -0.003197 -0.001411 0.000002 0.000576 -0.000004
# 2 -0.003197 0.012218 -0.002124 0.000001 -0.001363 -0.000001
# 3 -0.001411 -0.002124 0.007970 -0.000019 -0.000986 0.000009
# 4 0.000002 0.000001 -0.000019 0.037205 0.000034 -0.009496
# 5 0.000576 -0.001363 -0.000986 0.000034 0.033712 -0.000008
# 6 -0.000004 -0.000001 0.000009 -0.009496 -0.000008 0.042920
#
#
# Mechanical properties :
#
#
# Convention : Reuss Voigt Hill
#
# Bulk Modulus (GPa) = 60.12701 61.37421 60.75061
# Shear Modulus (GPa) = 30.68627 33.65946 32.17286
#
# Velocity S-wave (km/s) = 3.75340 3.93103 3.84324
# Velocity P-wave (km/s) = 6.81090 6.98433 6.89816
#
# Compressibility (1/GPa) = 0.01663146
#
# Stress axis : x y z
#
# Youngs Moduli (GPa) = 100.94163 81.84827 125.46443
#
# Poissons Ratio (x) = 0.26168 0.17702
# Poissons Ratio (y) = 0.32272 0.26644
# Poissons Ratio (z) = 0.14242 0.17382
#
# Static dielectric constant tensor:
#      x y z
#    x 4.180970 -0.000020 -0.020630 
#    y -0.000020 3.905110 0.000000 
#    z -0.020630 0.000000 4.047990 
# 
# 
# High freq. dielectric constant tensor:
#      x y z
#    x 1.863190 0.000000 0.005100 
#    y 0.000000 1.854310 0.000000 
#    z 0.005100 0.000000 1.866380 
# 
# From -- ./inp_files/219214.got.cif
#   From: 2010.06.25/outbox.cif.g09.slc.cpg/sg12_110_cif.got.tgz:219214.got - 2010.06.28 00:19:55.
