data_PCOD8114137
_publ_section_title
;
Structure prediction by ZEFSAII (Michael W. Deem and Ramdas Pophale) SiO2 
 PCOD8114137
Probable space group: C 2/M
;
_chemical_formula_sum "Si O2"
_cell_formula_units_Z 48
_cell_length_a 18.111743
_cell_length_b 8.997308
_cell_length_c 15.456214
_cell_angle_alpha 90.000000
_cell_angle_beta 96.712743
_cell_angle_gamma 90.000000
_cell_volume 2501.430702
_symmetry_space_group_name_H-M "C 2/M"
_symmetry_group_IT_number 12
_symmetry_cell_setting 'monoclinic'
loop_
_space_group_symop_operation_xyz
x,y,z
-x,y,-z
-x,-y,-z
x,-y,z
1/2+x,1/2+y,z
1/2-x,1/2+y,-z
1/2-x,1/2-y,-z
1/2+x,1/2-y,z
loop_
_atom_site_type_symbol
_atom_site_label
_atom_site_fract_x
_atom_site_fract_y
_atom_site_fract_z
Si Si1 0.563855 0.823438 0.858514
Si Si2 0.911499 0.666263 0.479501
Si Si3 0.672346 0.672887 0.005812
Si Si4 0.091005 0.828456 0.168074
Si Si5 0.077970 0.833381 0.686277
Si Si6 0.098249 0.164197 0.357126
O O1 0.609158 0.753501 0.942948
O O2 0.478667 0.776922 0.860682
O O3 0.597792 0.764010 0.772996
O O4 0.570741 0.000000 0.861151
O O5 0.882545 0.500000 0.461932
O O6 0.884315 0.761768 0.393598
O O7 0.874460 0.727511 0.562894
O O8 0.000000 0.671507 0.500000
O O9 0.676168 0.500000 0.980680
O O10 0.750000 0.750000 0.000000
O O11 0.653453 0.693281 0.104333
O O12 0.127868 0.785959 0.266254
O O13 0.062551 0.000000 0.167512
O O14 0.990319 0.835502 0.661223
O O15 0.109218 0.000000 0.702518
O O16 0.127220 0.000000 0.384782
#
# Coordination Sequence:
#
# PCOD8114137 Si02
#       6
#     8   8   8   8   8   8
#     4  11  21  33  52  78 105 133 169 212 255 301
#     4   9  15  22  35  61  96 129 160 199 245 289
#     4  11  23  39  56  75 101 133 170 211 257 306
#     4   9  19  35  54  75 102 136 171 209 253 301
#     4   9  16  27  43  64  94 132 168 202 244 294
#     4   8  14  25  41  63  92 128 165 198 240 293
#
# _framework density 19.189018999999998
#
# number of rings (size 3 to 8) (size 9 to 14) (size 15 to 20)
#    0.000    2.500    0.000    4.500    0.000    9.333 
#    0.000    0.000    0.000    0.000    0.000    1.167 
#    0.000    0.000    0.000    0.000    0.000    0.000 
#
# Total GULP energy -297538.605191 kJ/mol
# GULP energy per Si atom -12397.441883 kJ/mol
# Density = 1.914534 g / cm^3
# Si number density = 19.189019 Si / 1000 Ang^3
#
#
#
# Elastic Constant Matrix: (Units=GPa)
#
#
# Indices 1 2 3 4 5 6 
#
# 1 30.9808 28.2499 30.5714 0.0000 -13.7469 0.0000
# 2 28.2499 155.2457 71.8495 0.0000 -17.2735 0.0000
# 3 30.5714 71.8495 150.3375 0.0000 -31.3839 0.0000
# 4 0.0000 0.0000 0.0000 34.5887 0.0000 2.7789
# 5 -13.7469 -17.2735 -31.3839 0.0000 11.7601 0.0000
# 6 0.0000 0.0000 0.0000 2.7789 0.0000 16.4585
#
#
#
# Elastic Compliance Matrix: (Units=1/GPa)
#
#
# Indices 1 2 3 4 5 6 
#
# 1 0.074383 -0.006465 0.009331 0.000000 0.102355 0.000000
# 2 -0.006465 0.008901 -0.004036 0.000000 -0.005255 0.000000
# 3 0.009331 -0.004036 0.017437 0.000000 0.051512 0.000000
# 4 0.000000 0.000000 0.000000 0.029309 0.000000 -0.004949
# 5 0.102355 -0.005255 0.051512 0.000000 0.334429 0.000000
# 6 0.000000 0.000000 0.000000 -0.004949 0.000000 0.061594
#
#
# Mechanical properties :
#
#
# Convention : Reuss Voigt Hill
#
# Bulk Modulus (GPa) = 10.16467 66.43398 38.29932
# Shear Modulus (GPa) = 8.90967 26.28768 17.59868
#
# Velocity S-wave (km/s) = 2.15713 3.70528 3.03169
# Velocity P-wave (km/s) = 3.39306 7.28021 5.67954
#
# Compressibility (1/GPa) = 0.09837996
#
# Stress axis : x y z
#
# Youngs Moduli (GPa) = 13.44391 112.34326 57.35060
#
# Poissons Ratio (x) = 0.72635 -0.53516
# Poissons Ratio (y) = 0.08692 0.23149
# Poissons Ratio (z) = -0.12545 0.45347
#
# Static dielectric constant tensor:
#      x y z
#    x 2.357470 0.000000 -0.327720 
#    y 0.000000 3.655970 0.000000 
#    z -0.327720 0.000000 3.941580 
# 
# 
# High freq. dielectric constant tensor:
#      x y z
#    x 1.672480 0.000000 -0.012950 
#    y 0.000000 1.755560 0.000000 
#    z -0.012950 0.000000 1.770110 
# 
# From -- ./inp_files/229292.got.cif
#   From: 2010.06.25/outbox.cif.g09.slc.cpg/sg12_115_cif.got.tgz:229292.got - 2010.06.28 00:19:55.
