data_PCOD8114978
_publ_section_title
;
Structure prediction by ZEFSAII (Michael W. Deem and Ramdas Pophale) SiO2 
 PCOD8114978
Probable space group: C 2/M
;
_chemical_formula_sum "Si O2"
_cell_formula_units_Z 40
_cell_length_a 9.203776
_cell_length_b 15.775752
_cell_length_c 17.240457
_cell_angle_alpha 90.000000
_cell_angle_beta 128.755132
_cell_angle_gamma 90.000000
_cell_volume 1952.108447
_symmetry_space_group_name_H-M "C 2/M"
_symmetry_group_IT_number 12
_symmetry_cell_setting 'monoclinic'
loop_
_space_group_symop_operation_xyz
x,y,z
-x,y,-z
-x,-y,-z
x,-y,z
1/2+x,1/2+y,z
1/2-x,1/2+y,-z
1/2-x,1/2-y,-z
1/2+x,1/2-y,z
loop_
_atom_site_type_symbol
_atom_site_label
_atom_site_fract_x
_atom_site_fract_y
_atom_site_fract_z
Si Si1 0.302569 0.000000 0.105419
Si Si2 0.887586 0.831206 0.768172
Si Si3 0.794471 0.326148 0.456666
Si Si4 0.955324 0.665530 0.226462
Si Si5 0.709431 0.405958 0.570875
Si Si6 0.527584 0.500000 0.883496
O O1 0.421660 0.915291 0.160210
O O2 0.130766 0.000000 0.105533
O O3 0.229386 0.000000 0.992468
O O4 0.837208 0.836369 0.661087
O O5 0.708581 0.823591 0.764763
O O6 0.022685 0.748678 0.820918
O O7 0.007540 0.915105 0.825970
O O8 0.750000 0.250000 0.500000
O O9 0.776594 0.410309 0.503728
O O10 0.000000 0.312180 0.500000
O O11 0.155948 0.654920 0.334890
O O12 0.500000 0.368497 0.500000
O O13 0.715792 0.500000 0.608783
#
# Coordination Sequence:
#
# PCOD8114978 Si02
#       6
#     4   8   8   8   8   4
#     4   9  20  44  69  85 118 161 205 261 320 369
#     4  11  23  38  61  95 125 162 205 253 304 369
#     4  12  22  35  56  84 125 164 200 243 299 361
#     4  11  22  40  64  91 123 163 206 251 309 369
#     4  11  24  38  56  89 125 169 207 247 303 370
#     4   9  22  42  65  92 118 156 211 263 308 367
#
# _framework density 20.490666000000001
#
# number of rings (size 3 to 8) (size 9 to 14) (size 15 to 20)
#    0.000    1.200    5.000    0.600    4.200    1.200 
#    0.000    1.000    0.000    1.200    0.000    0.000 
#    0.000    0.000    0.000    0.000    0.000    0.000 
#
# Total GULP energy -247876.542766 kJ/mol
# GULP energy per Si atom -12393.827138 kJ/mol
# Density = 2.044403 g / cm^3
# Si number density = 20.490666 Si / 1000 Ang^3
#
#
#
# Elastic Constant Matrix: (Units=GPa)
#
#
# Indices 1 2 3 4 5 6 
#
# 1 95.4634 47.6554 43.6538 0.0000 6.4106 0.0000
# 2 47.6554 170.5648 77.4385 0.0000 -0.7876 0.0000
# 3 43.6538 77.4385 142.5309 0.0000 -2.9938 0.0000
# 4 0.0000 0.0000 0.0000 29.0949 0.0000 -7.8107
# 5 6.4106 -0.7876 -2.9938 0.0000 20.4783 0.0000
# 6 0.0000 0.0000 0.0000 -7.8107 0.0000 36.7657
#
#
#
# Elastic Compliance Matrix: (Units=1/GPa)
#
#
# Indices 1 2 3 4 5 6 
#
# 1 0.013313 -0.002450 -0.002845 0.000000 -0.004678 0.000000
# 2 -0.002450 0.008235 -0.003713 0.000000 0.000541 0.000000
# 3 -0.002845 -0.003713 0.009951 0.000000 0.002203 0.000000
# 4 0.000000 0.000000 0.000000 0.036449 0.000000 0.007743
# 5 -0.004678 0.000541 0.002203 0.000000 0.050639 0.000000
# 6 0.000000 0.000000 0.000000 0.007743 0.000000 0.028844
#
#
# Mechanical properties :
#
#
# Convention : Reuss Voigt Hill
#
# Bulk Modulus (GPa) = 74.15745 82.89495 78.52620
# Shear Modulus (GPa) = 29.42192 33.25522 31.33857
#
# Velocity S-wave (km/s) = 3.79340 4.03295 3.91501
# Velocity P-wave (km/s) = 7.44687 7.88854 7.67088
#
# Compressibility (1/GPa) = 0.01348482
#
# Stress axis : x y z
#
# Youngs Moduli (GPa) = 75.11399 121.42629 100.49475
#
# Poissons Ratio (x) = 0.29745 0.28589
# Poissons Ratio (y) = 0.18400 0.37311
# Poissons Ratio (z) = 0.21368 0.45083
#
# Static dielectric constant tensor:
#      x y z
#    x 3.799860 0.000000 -0.082680 
#    y 0.000000 4.158990 0.000000 
#    z -0.082680 0.000000 3.799150 
# 
# 
# High freq. dielectric constant tensor:
#      x y z
#    x 1.786900 0.000000 0.003810 
#    y 0.000000 1.820780 0.000000 
#    z 0.003810 0.000000 1.790080 
# 
# From -- ./inp_files/256790.got.cif
#   From: 2010.06.25/outbox.cif.g09.slc.cpg/sg12_129_cif.got.tgz:256790.got - 2010.06.28 00:19:55.
