data_PCOD8114622
_publ_section_title
;
Structure prediction by ZEFSAII (Michael W. Deem and Ramdas Pophale) SiO2 
 PCOD8114622
Probable space group: C 2/M
;
_chemical_formula_sum "Si O2"
_cell_formula_units_Z 48
_cell_length_a 18.393150
_cell_length_b 8.577808
_cell_length_c 27.783396
_cell_angle_alpha 90.000000
_cell_angle_beta 33.852081
_cell_angle_gamma 90.000000
_cell_volume 2441.813647
_symmetry_space_group_name_H-M "C 2/M"
_symmetry_group_IT_number 12
_symmetry_cell_setting 'monoclinic'
loop_
_space_group_symop_operation_xyz
x,y,z
-x,y,-z
-x,-y,-z
x,-y,z
1/2+x,1/2+y,z
1/2-x,1/2+y,-z
1/2-x,1/2-y,-z
1/2+x,1/2-y,z
loop_
_atom_site_type_symbol
_atom_site_label
_atom_site_fract_x
_atom_site_fract_y
_atom_site_fract_z
Si Si1 0.488020 0.682785 0.741390
Si Si2 0.535217 0.315587 0.906740
Si Si3 0.894093 0.316525 0.419146
Si Si4 0.854927 0.814246 0.252568
Si Si5 0.208207 0.815374 0.899914
Si Si6 0.439235 0.185803 0.582894
O O1 0.508242 0.500000 0.722134
O O2 0.531058 0.772630 0.670297
O O3 0.575963 0.745153 0.737040
O O4 0.339331 0.719715 0.835986
O O5 0.540408 0.500000 0.903096
O O6 0.567831 0.246111 0.836257
O O7 0.644825 0.260395 0.884382
O O8 0.390548 0.265037 0.002979
O O9 0.884130 0.500000 0.428722
O O10 0.750000 0.250000 0.500000
O O11 0.975848 0.249397 0.419331
O O12 0.707687 0.749729 0.331993
O O13 0.856061 0.000000 0.250403
O O14 0.236502 0.000000 0.884652
O O15 0.500000 0.250137 0.500000
O O16 0.438587 0.000000 0.583405
#
# Coordination Sequence:
#
# PCOD8114622 Si02
#       6
#     8   8   8   8   8   8
#     4  11  22  34  51  77 109 141 171 208 257 311
#     4   8  15  30  53  77  99 133 182 225 259 303
#     4  11  22  37  59  82 105 134 169 212 258 304
#     4   9  17  30  49  74 104 138 178 217 251 300
#     4   9  17  32  55  78 100 131 176 226 267 305
#     4   9  17  31  54  80 101 128 171 214 249 296
#
# _framework density 19.657519000000001
#
# number of rings (size 3 to 8) (size 9 to 14) (size 15 to 20)
#    0.000    2.500    0.000    4.000    0.000    6.000 
#    0.000    1.667    0.000   20.000    0.000    0.000 
#    0.000    0.000    0.000    0.000    0.000    0.000 
#
# Total GULP energy -297583.281438 kJ/mol
# GULP energy per Si atom -12399.303393 kJ/mol
# Density = 1.961278 g / cm^3
# Si number density = 19.657519 Si / 1000 Ang^3
#
#
#
# Elastic Constant Matrix: (Units=GPa)
#
#
# Indices 1 2 3 4 5 6 
#
# 1 179.4902 19.0294 98.8886 0.0001 2.0962 -0.0153
# 2 19.0294 23.8133 11.5516 0.0032 -1.6916 -0.0044
# 3 98.8886 11.5516 165.8279 -0.0035 3.5749 -0.0036
# 4 0.0001 0.0032 -0.0035 25.1877 0.0015 -5.2567
# 5 2.0962 -1.6916 3.5749 0.0015 45.8451 0.0027
# 6 -0.0153 -0.0044 -0.0036 -5.2567 0.0027 21.2833
#
#
#
# Elastic Compliance Matrix: (Units=1/GPa)
#
#
# Indices 1 2 3 4 5 6 
#
# 1 0.008765 -0.004641 -0.004899 0.000001 -0.000190 0.000005
# 2 -0.004641 0.046075 -0.000484 -0.000005 0.001950 0.000005
# 3 -0.004899 -0.000484 0.008996 0.000001 -0.000495 -0.000002
# 4 0.000001 -0.000005 0.000001 0.041860 -0.000002 0.010339
# 5 -0.000190 0.001950 -0.000495 -0.000002 0.021932 -0.000003
# 6 0.000005 0.000005 -0.000002 0.010339 -0.000003 0.049539
#
#
# Mechanical properties :
#
#
# Convention : Reuss Voigt Hill
#
# Bulk Modulus (GPa) = 22.83743 69.78562 46.31152
# Shear Modulus (GPa) = 23.60586 34.44066 29.02326
#
# Velocity S-wave (km/s) = 3.46910 4.19027 3.84662
# Velocity P-wave (km/s) = 5.26204 7.68043 6.58324
#
# Compressibility (1/GPa) = 0.04378777
#
# Stress axis : x y z
#
# Youngs Moduli (GPa) = 114.09195 21.70358 111.15536
#
# Poissons Ratio (x) = 0.10072 0.54459
# Poissons Ratio (y) = 0.52949 0.05381
# Poissons Ratio (z) = 0.55898 0.01051
#
# Static dielectric constant tensor:
#      x y z
#    x 3.932440 0.000020 0.187170 
#    y 0.000020 3.043280 0.000020 
#    z 0.187170 0.000020 3.964090 
# 
# 
# High freq. dielectric constant tensor:
#      x y z
#    x 1.775680 0.000000 0.001120 
#    y 0.000000 1.713830 0.000000 
#    z 0.001120 0.000000 1.785220 
# 
# From -- ./inp_files/380137.got.cif
#   From: 2010.06.25/outbox.cif.g09.slc.cpg/sg12_191_cif.got.tgz:380137.got - 2010.06.28 00:19:55.
