data_PCOD8114472
_publ_section_title
;
Structure prediction by ZEFSAII (Michael W. Deem and Ramdas Pophale) SiO2 
 PCOD8114472
Probable space group: C 2/M
;
_chemical_formula_sum "Si O2"
_cell_formula_units_Z 40
_cell_length_a 9.701491
_cell_length_b 25.683110
_cell_length_c 12.557614
_cell_angle_alpha 90.000000
_cell_angle_beta 37.353638
_cell_angle_gamma 90.000000
_cell_volume 1898.413081
_symmetry_space_group_name_H-M "C 2/M"
_symmetry_group_IT_number 12
_symmetry_cell_setting 'monoclinic'
loop_
_space_group_symop_operation_xyz
x,y,z
-x,y,-z
-x,-y,-z
x,-y,z
1/2+x,1/2+y,z
1/2-x,1/2+y,-z
1/2-x,1/2-y,-z
1/2+x,1/2-y,z
loop_
_atom_site_type_symbol
_atom_site_label
_atom_site_fract_x
_atom_site_fract_y
_atom_site_fract_z
Si Si1 0.223717 0.559707 0.800510
Si Si2 0.731384 0.558612 0.794390
Si Si3 0.162766 0.697063 0.003067
Si Si4 0.428020 0.379210 0.300884
Si Si5 0.401758 0.121973 0.313401
O O1 0.197928 0.500000 0.785504
O O2 0.443348 0.568620 0.738656
O O3 0.258377 0.593806 0.674124
O O4 0.000000 0.580243 0.000000
O O5 0.788572 0.500000 0.718183
O O6 0.718368 0.601555 0.709313
O O7 0.925621 0.577462 0.754544
O O8 0.500000 0.557713 0.000000
O O9 0.028232 0.670130 0.181881
O O10 0.250000 0.750000 0.000000
O O11 0.387310 0.664886 0.835263
O O12 0.000000 0.705600 0.000000
O O13 0.253809 0.356676 0.495310
#
# Coordination Sequence:
#
# PCOD8114472 Si02
#       5
#     8   8   8   8   8
#     4  11  21  39  67  99 137 180 219 262 324 396
#     4  11  23  41  67 101 145 188 223 264 322 394
#     4  12  28  50  73  98 130 170 225 288 349 400
#     4  12  24  43  69  99 137 176 222 274 330 398
#     4  12  24  43  69  99 137 176 222 274 330 398
#
# _framework density 21.070231
#
# number of rings (size 3 to 8) (size 9 to 14) (size 15 to 20)
#    0.000    0.400    6.000    2.400    2.800    8.800 
#    0.000    0.000    0.000    0.000    0.000    0.000 
#    0.000    0.000    0.000    0.000    0.000    0.000 
#
# Total GULP energy -248050.376511 kJ/mol
# GULP energy per Si atom -12402.518826 kJ/mol
# Density = 2.102227 g / cm^3
# Si number density = 21.070231 Si / 1000 Ang^3
#
#
#
# Elastic Constant Matrix: (Units=GPa)
#
#
# Indices 1 2 3 4 5 6 
#
# 1 91.7350 53.3814 23.8685 0.0000 7.0795 0.0000
# 2 53.3814 124.6520 58.5272 0.0000 9.4498 0.0000
# 3 23.8685 58.5272 140.5301 0.0000 14.5187 0.0000
# 4 0.0000 0.0000 0.0000 6.5698 0.0000 3.8471
# 5 7.0795 9.4498 14.5187 0.0000 33.2820 0.0000
# 6 0.0000 0.0000 0.0000 3.8471 0.0000 39.2550
#
#
#
# Elastic Compliance Matrix: (Units=1/GPa)
#
#
# Indices 1 2 3 4 5 6 
#
# 1 0.014588 -0.006270 0.000283 0.000000 -0.001446 0.000000
# 2 -0.006270 0.012704 -0.004179 0.000000 -0.000450 0.000000
# 3 0.000283 -0.004179 0.009102 0.000000 -0.002844 0.000000
# 4 0.000000 0.000000 0.000000 0.161479 0.000000 -0.015826
# 5 -0.001446 -0.000450 -0.002844 0.000000 0.031722 0.000000
# 6 0.000000 0.000000 0.000000 -0.015826 0.000000 0.027025
#
#
# Mechanical properties :
#
#
# Convention : Reuss Voigt Hill
#
# Bulk Modulus (GPa) = 62.26342 69.83015 66.04679
# Shear Modulus (GPa) = 17.71117 30.56403 24.13760
#
# Velocity S-wave (km/s) = 2.90242 3.81278 3.38831
# Velocity P-wave (km/s) = 6.39114 7.25235 6.83532
#
# Compressibility (1/GPa) = 0.01606079
#
# Stress axis : x y z
#
# Youngs Moduli (GPa) = 68.55090 78.71496 109.86259
#
# Poissons Ratio (x) = 0.49358 -0.03111
# Poissons Ratio (y) = 0.42984 0.45916
# Poissons Ratio (z) = -0.01941 0.32898
#
# Static dielectric constant tensor:
#      x y z
#    x 4.123010 0.000000 0.007170 
#    y 0.000000 3.670520 0.000000 
#    z 0.007170 0.000000 3.932960 
# 
# 
# High freq. dielectric constant tensor:
#      x y z
#    x 1.842970 0.000000 -0.000140 
#    y 0.000000 1.807850 0.000000 
#    z -0.000140 0.000000 1.837160 
# 
# From -- ./inp_files/125016.got.cif
#   From: 2010.06.25/outbox.cif.g09.slc.cpg/sg12_63_cif.got.tgz:125016.got - 2010.06.28 00:19:55.
