data_PCOD8114214
_publ_section_title
;
Structure prediction by ZEFSAII (Michael W. Deem and Ramdas Pophale) SiO2 
 PCOD8114214
Probable space group: C 2/M
;
_chemical_formula_sum "Si O2"
_cell_formula_units_Z 40
_cell_length_a 23.208463
_cell_length_b 8.461113
_cell_length_c 18.677264
_cell_angle_alpha 90.000000
_cell_angle_beta 35.482353
_cell_angle_gamma 90.000000
_cell_volume 2128.891758
_symmetry_space_group_name_H-M "C 2/M"
_symmetry_group_IT_number 12
_symmetry_cell_setting 'monoclinic'
loop_
_space_group_symop_operation_xyz
x,y,z
-x,y,-z
-x,-y,-z
x,-y,z
1/2+x,1/2+y,z
1/2-x,1/2+y,-z
1/2-x,1/2-y,-z
1/2+x,1/2-y,z
loop_
_atom_site_type_symbol
_atom_site_label
_atom_site_fract_x
_atom_site_fract_y
_atom_site_fract_z
Si Si1 0.651944 0.312966 0.310729
Si Si2 0.137783 0.183319 0.898403
Si Si3 0.054333 0.684496 0.842823
Si Si4 0.639118 0.687807 0.612427
Si Si5 0.546769 0.686862 0.559364
O O1 0.670583 0.500000 0.291688
O O2 0.751970 0.224070 0.187090
O O3 0.567384 0.263060 0.339067
O O4 0.617500 0.252023 0.423859
O O5 0.125118 0.226913 0.827763
O O6 0.115160 0.000000 0.932993
O O7 0.060773 0.282591 0.024037
O O8 0.077069 0.500000 0.825615
O O9 0.078004 0.745268 0.740319
O O10 0.639217 0.500000 0.614504
O O11 0.750000 0.750000 0.500000
O O12 0.584676 0.754283 0.596459
O O13 0.552982 0.500000 0.552245
#
# Coordination Sequence:
#
# PCOD8114214 Si02
#       5
#     8   8   8   8   8
#     4   9  16  33  57  80 104 139 179 214 255 313
#     4  11  21  35  55  81 107 135 171 221 272 318
#     4  11  22  37  55  77 104 141 181 219 260 314
#     4  11  21  35  54  81 112 143 175 216 265 314
#     4   8  17  32  54  79 107 140 177 214 255 309
#
# _framework density 18.789118999999999
#
# number of rings (size 3 to 8) (size 9 to 14) (size 15 to 20)
#    0.000    2.000    0.000    7.800    0.000    1.600 
#    0.000    6.000    0.000    0.000    0.000    0.000 
#    0.000    0.000    0.000    0.000    0.000    0.000 
#
# Total GULP energy -248021.623418 kJ/mol
# GULP energy per Si atom -12401.081171 kJ/mol
# Density = 1.874635 g / cm^3
# Si number density = 18.789119 Si / 1000 Ang^3
#
#
#
# Elastic Constant Matrix: (Units=GPa)
#
#
# Indices 1 2 3 4 5 6 
#
# 1 138.5694 19.3817 73.2007 -0.0082 -2.6791 0.0048
# 2 19.3817 63.4001 12.1649 -0.0170 -0.5849 0.0111
# 3 73.2007 12.1649 96.5152 -0.0105 -6.2940 0.0079
# 4 -0.0082 -0.0170 -0.0105 30.1396 0.0114 -1.7921
# 5 -2.6791 -0.5849 -6.2940 0.0114 37.8352 -0.0054
# 6 0.0048 0.0111 0.0079 -1.7921 -0.0054 22.1017
#
#
#
# Elastic Compliance Matrix: (Units=1/GPa)
#
#
# Indices 1 2 3 4 5 6 
#
# 1 0.012305 -0.002018 -0.009122 -0.000001 -0.000677 0.000001
# 2 -0.002018 0.016495 -0.000548 0.000008 0.000021 -0.000007
# 3 -0.009122 -0.000548 0.017496 0.000002 0.002256 -0.000003
# 4 -0.000001 0.000008 0.000002 0.033340 -0.000009 0.002703
# 5 -0.000677 0.000021 0.002256 -0.000009 0.026758 0.000005
# 6 0.000001 -0.000007 -0.000003 0.002703 0.000005 0.045464
#
#
# Mechanical properties :
#
#
# Convention : Reuss Voigt Hill
#
# Bulk Modulus (GPa) = 43.62830 56.44215 50.03522
# Shear Modulus (GPa) = 27.34156 30.93116 29.13636
#
# Velocity S-wave (km/s) = 3.81882 4.06177 3.94217
# Velocity P-wave (km/s) = 6.53567 7.21820 6.88539
#
# Compressibility (1/GPa) = 0.02292090
#
# Stress axis : x y z
#
# Youngs Moduli (GPa) = 81.27092 60.62496 57.15684
#
# Poissons Ratio (x) = 0.12231 0.52139
# Poissons Ratio (y) = 0.16396 0.03129
# Poissons Ratio (z) = 0.74136 0.03319
#
# Static dielectric constant tensor:
#      x y z
#    x 3.770640 -0.000010 0.022720 
#    y -0.000010 3.365420 0.000020 
#    z 0.022720 0.000020 3.457340 
# 
# 
# High freq. dielectric constant tensor:
#      x y z
#    x 1.727910 0.000000 -0.010390 
#    y 0.000000 1.720250 0.000000 
#    z -0.010390 0.000000 1.730690 
# 
# From -- ./inp_files/280706.got.cif
#   From: 2010.06.25/outbox.cif.g09.slc.cpg/sg12_141_cif.got.tgz:280706.got - 2010.06.28 00:19:55.
