data_PCOD8114723
_publ_section_title
;
Structure prediction by ZEFSAII (Michael W. Deem and Ramdas Pophale) SiO2 
 PCOD8114723
Probable space group: C 2/M
;
_chemical_formula_sum "Si O2"
_cell_formula_units_Z 48
_cell_length_a 19.517250
_cell_length_b 24.390191
_cell_length_c 5.355152
_cell_angle_alpha 90.000000
_cell_angle_beta 62.623433
_cell_angle_gamma 90.000000
_cell_volume 2263.707545
_symmetry_space_group_name_H-M "C 2/M"
_symmetry_group_IT_number 12
_symmetry_cell_setting 'monoclinic'
loop_
_space_group_symop_operation_xyz
x,y,z
-x,y,-z
-x,-y,-z
x,-y,z
1/2+x,1/2+y,z
1/2-x,1/2+y,-z
1/2-x,1/2-y,-z
1/2+x,1/2-y,z
loop_
_atom_site_type_symbol
_atom_site_label
_atom_site_fract_x
_atom_site_fract_y
_atom_site_fract_z
Si Si1 0.210214 0.063891 0.258459
Si Si2 0.297325 0.714388 0.119147
Si Si3 0.783348 0.390564 0.630897
Si Si4 0.590030 0.649330 0.384433
Si Si5 0.546670 0.866288 0.665310
Si Si6 0.918948 0.751102 0.256793
O O1 0.249609 0.074959 0.458363
O O2 0.125864 0.091783 0.411191
O O3 0.197814 0.000000 0.240001
O O4 0.258533 0.087637 0.944980
O O5 0.236890 0.674517 0.362854
O O6 0.345042 0.759258 0.199912
O O7 0.250000 0.750000 0.000000
O O8 0.364638 0.671167 0.932044
O O9 0.874850 0.400309 0.457050
O O10 0.500000 0.640111 0.500000
O O11 0.609185 0.696920 0.544782
O O12 0.500000 0.885771 0.500000
O O13 0.566982 0.802079 0.597069
O O14 0.500000 0.876086 0.000000
O O15 0.000000 0.767160 0.000000
#
# Coordination Sequence:
#
# PCOD8114723 Si02
#       6
#     8   8   8   8   8   8
#     4  11  25  45  70  96 123 166 222 283 336 377
#     4  11  24  36  61  94 136 178 221 256 313 386
#     4  11  24  44  68  94 131 171 213 273 328 387
#     4  11  22  39  61  89 133 174 219 265 322 380
#     4  11  25  40  64  97 136 174 210 253 316 397
#     4  11  22  36  60  92 137 182 210 257 308 389
#
# _framework density 21.204151
#
# number of rings (size 3 to 8) (size 9 to 14) (size 15 to 20)
#    0.000    1.000    3.333    3.000   11.667    1.667 
#    0.000    0.000    0.000   13.500    0.000    0.000 
#    0.000    0.000    0.000    0.000    0.000    0.000 
#
# Total GULP energy -297439.807916 kJ/mol
# GULP energy per Si atom -12393.325330 kJ/mol
# Density = 2.115589 g / cm^3
# Si number density = 21.204151 Si / 1000 Ang^3
#
#
#
# Elastic Constant Matrix: (Units=GPa)
#
#
# Indices 1 2 3 4 5 6 
#
# 1 164.0903 15.7745 37.6510 0.0000 -4.3076 0.0000
# 2 15.7745 53.2567 9.6329 0.0000 -5.4741 0.0000
# 3 37.6510 9.6329 93.9531 0.0000 2.5191 0.0000
# 4 0.0000 0.0000 0.0000 19.9351 0.0000 6.1351
# 5 -4.3076 -5.4741 2.5191 0.0000 37.8716 0.0000
# 6 0.0000 0.0000 0.0000 6.1351 0.0000 25.0504
#
#
#
# Elastic Compliance Matrix: (Units=1/GPa)
#
#
# Indices 1 2 3 4 5 6 
#
# 1 0.006856 -0.001482 -0.002615 0.000000 0.000740 0.000000
# 2 -0.001482 0.019776 -0.001509 0.000000 0.002790 0.000000
# 3 -0.002615 -0.001509 0.011881 0.000000 -0.001306 0.000000
# 4 0.000000 0.000000 0.000000 0.054252 0.000000 -0.013287
# 5 0.000740 0.002790 -0.001306 0.000000 0.026979 0.000000
# 6 0.000000 0.000000 0.000000 -0.013287 0.000000 0.043174
#
#
# Mechanical properties :
#
#
# Convention : Reuss Voigt Hill
#
# Bulk Modulus (GPa) = 36.62787 48.60188 42.61487
# Shear Modulus (GPa) = 27.28809 33.12086 30.20447
#
# Velocity S-wave (km/s) = 3.59126 3.95650 3.77830
# Velocity P-wave (km/s) = 5.87432 6.62137 6.25900
#
# Compressibility (1/GPa) = 0.02730161
#
# Stress axis : x y z
#
# Youngs Moduli (GPa) = 145.85357 50.56754 84.16495
#
# Poissons Ratio (x) = 0.07493 0.22013
# Poissons Ratio (y) = 0.21611 0.12697
# Poissons Ratio (z) = 0.38148 0.07629
#
# Static dielectric constant tensor:
#      x y z
#    x 4.144100 0.000000 -0.356890 
#    y 0.000000 3.592320 0.000000 
#    z -0.356890 0.000000 4.238800 
# 
# 
# High freq. dielectric constant tensor:
#      x y z
#    x 1.851080 0.000000 -0.007410 
#    y 0.000000 1.800250 0.000000 
#    z -0.007410 0.000000 1.840530 
# 
# From -- ./inp_files/16679.got.cif
#   From: 2010.06.25/outbox.cif.g09.slc.cpg/sg12_9_cif.got.tgz:16679.got - 2010.06.28 00:19:55.
