data_PCOD8114046
_publ_section_title
;
Structure prediction by ZEFSAII (Michael W. Deem and Ramdas Pophale) SiO2 
 PCOD8114046
Probable space group: C 2/M
;
_chemical_formula_sum "Si O2"
_cell_formula_units_Z 64
_cell_length_a 26.448639
_cell_length_b 15.534331
_cell_length_c 11.417341
_cell_angle_alpha 90.000000
_cell_angle_beta 39.020285
_cell_angle_gamma 90.000000
_cell_volume 2953.401329
_symmetry_space_group_name_H-M "C 2/M"
_symmetry_group_IT_number 12
_symmetry_cell_setting 'monoclinic'
loop_
_space_group_symop_operation_xyz
x,y,z
-x,y,-z
-x,-y,-z
x,-y,z
1/2+x,1/2+y,z
1/2-x,1/2+y,-z
1/2-x,1/2-y,-z
1/2+x,1/2-y,z
loop_
_atom_site_type_symbol
_atom_site_label
_atom_site_fract_x
_atom_site_fract_y
_atom_site_fract_z
Si Si1 0.577022 0.851478 0.302420
Si Si2 0.241958 0.094272 0.043894
Si Si3 0.352944 0.267190 0.643943
Si Si4 0.085966 0.700259 0.034868
Si Si5 0.078360 0.761306 0.722781
Si Si6 0.173193 0.094503 0.675044
Si Si7 0.149971 0.400937 0.711082
Si Si8 0.788729 0.154858 0.146534
O O1 0.500000 0.900694 0.500000
O O2 0.589024 0.762440 0.354520
O O3 0.547871 0.836251 0.222352
O O4 0.661702 0.901293 0.147690
O O5 0.209471 0.161237 0.197588
O O6 0.220845 0.000000 0.129872
O O7 0.195363 0.106729 0.004671
O O8 0.402388 0.298647 0.441650
O O9 0.303475 0.184652 0.687867
O O10 0.017557 0.754269 0.089620
O O11 0.116041 0.621728 0.900244
O O12 0.158983 0.759835 0.938820
O O13 0.110986 0.829759 0.758501
O O14 0.115107 0.666276 0.679056
O O15 0.254123 0.110695 0.455905
O O16 0.194400 0.093087 0.774683
O O17 0.137330 0.000000 0.709263
O O18 0.126743 0.500000 0.720793
#
# Coordination Sequence:
#
# PCOD8114046 Si02
#       8
#     8   8   8   8   8   8   8   8
#     4  11  22  42  65  94 127 168 213 262 329 396
#     4  11  24  40  65 101 131 165 221 276 324 389
#     4  11  21  40  70  90 125 171 225 265 315 397
#     4  12  23  40  68  93 131 175 219 267 334 392
#     4  12  24  40  66  98 133 177 216 275 335 386
#     4  11  24  42  67  97 131 173 226 275 323 390
#     4  11  25  44  68  98 131 172 222 274 333 398
#     4  11  20  42  66  91 124 179 220 267 326 386
#
# _framework density 21.669930999999998
#
# number of rings (size 3 to 8) (size 9 to 14) (size 15 to 20)
#    0.000    0.750    6.250    2.625    0.000    2.250 
#    0.000    1.875    0.000    1.125    0.000    0.000 
#    0.000    0.000    0.000    0.000    0.000    0.000 
#
# Total GULP energy -396690.990755 kJ/mol
# GULP energy per Si atom -12396.593461 kJ/mol
# Density = 2.162061 g / cm^3
# Si number density = 21.669931 Si / 1000 Ang^3
#
#
#
# Elastic Constant Matrix: (Units=GPa)
#
#
# Indices 1 2 3 4 5 6 
#
# 1 108.6279 38.8250 31.0159 0.0000 8.3634 0.0000
# 2 38.8250 113.5183 35.4131 0.0000 -1.0433 0.0000
# 3 31.0159 35.4131 81.3959 0.0000 10.8560 0.0000
# 4 0.0000 0.0000 0.0000 19.3589 0.0000 2.3783
# 5 8.3634 -1.0433 10.8560 0.0000 35.6662 0.0000
# 6 0.0000 0.0000 0.0000 2.3783 0.0000 14.2776
#
#
#
# Elastic Compliance Matrix: (Units=1/GPa)
#
#
# Indices 1 2 3 4 5 6 
#
# 1 0.011198 -0.003002 -0.002709 0.000000 -0.001889 0.000000
# 2 -0.003002 0.011099 -0.003984 0.000000 0.002241 0.000000
# 3 -0.002709 -0.003984 0.015616 0.000000 -0.004234 0.000000
# 4 0.000000 0.000000 0.000000 0.052735 0.000000 -0.008784
# 5 -0.001889 0.002241 -0.004234 0.000000 0.029835 0.000000
# 6 0.000000 0.000000 0.000000 -0.008784 0.000000 0.071503
#
#
# Mechanical properties :
#
#
# Convention : Reuss Voigt Hill
#
# Bulk Modulus (GPa) = 53.98652 57.11668 55.55160
# Shear Modulus (GPa) = 22.98322 27.07974 25.03148
#
# Velocity S-wave (km/s) = 3.26023 3.53887 3.40240
# Velocity P-wave (km/s) = 6.25614 6.56604 6.41296
#
# Compressibility (1/GPa) = 0.01852314
#
# Stress axis : x y z
#
# Youngs Moduli (GPa) = 89.30496 90.09530 64.03729
#
# Poissons Ratio (x) = 0.27047 0.17346
# Poissons Ratio (y) = 0.26810 0.25512
# Poissons Ratio (z) = 0.24191 0.35894
#
# Static dielectric constant tensor:
#      x y z
#    x 4.030100 0.000000 0.154790 
#    y 0.000000 3.616080 0.000000 
#    z 0.154790 0.000000 3.933320 
# 
# 
# High freq. dielectric constant tensor:
#      x y z
#    x 1.857280 0.000000 0.011570 
#    y 0.000000 1.823420 0.000000 
#    z 0.011570 0.000000 1.858270 
# 
# From -- ./inp_files/183783.got.cif
#   From: 2010.06.25/outbox.cif.g09.slc.cpg/sg12_92_cif.got.tgz:183783.got - 2010.06.28 00:19:55.
