data_PCOD8114397
_publ_section_title
;
Structure prediction by ZEFSAII (Michael W. Deem and Ramdas Pophale) SiO2 
 PCOD8114397
Probable space group: C 2/M
;
_chemical_formula_sum "Si O2"
_cell_formula_units_Z 48
_cell_length_a 8.203867
_cell_length_b 23.778330
_cell_length_c 14.041504
_cell_angle_alpha 90.000000
_cell_angle_beta 114.473638
_cell_angle_gamma 90.000000
_cell_volume 2493.030005
_symmetry_space_group_name_H-M "C 2/M"
_symmetry_group_IT_number 12
_symmetry_cell_setting 'monoclinic'
loop_
_space_group_symop_operation_xyz
x,y,z
-x,y,-z
-x,-y,-z
x,-y,z
1/2+x,1/2+y,z
1/2-x,1/2+y,-z
1/2-x,1/2-y,-z
1/2+x,1/2-y,z
loop_
_atom_site_type_symbol
_atom_site_label
_atom_site_fract_x
_atom_site_fract_y
_atom_site_fract_z
Si Si1 0.293117 0.097853 0.424423
Si Si2 0.795302 0.680121 0.688715
Si Si3 0.289540 0.000000 0.091225
Si Si4 0.313510 0.500000 0.138480
Si Si5 0.000000 0.116420 0.500000
Si Si6 0.899434 0.288707 0.382797
Si Si7 0.443857 0.098466 0.883859
Si Si8 0.813231 0.000000 0.726258
O O1 0.500000 0.091487 0.500000
O O2 0.148253 0.081834 0.472666
O O3 0.262516 0.162100 0.383154
O O4 0.277934 0.055866 0.333268
O O5 0.620187 0.650239 0.604193
O O6 0.723305 0.742291 0.699581
O O7 0.883022 0.648975 0.800152
O O8 0.950587 0.684537 0.648336
O O9 0.403219 0.057920 0.121016
O O10 0.175843 0.000000 0.157981
O O11 0.158680 0.000000 0.968922
O O12 0.220949 0.557723 0.141943
O O13 0.479689 0.500000 0.249811
O O14 0.000000 0.262663 0.500000
O O15 0.500000 0.124790 0.000000
#
# Coordination Sequence:
#
# PCOD8114397 Si02
#       8
#     8   8   4   4   4   8   8   4
#     4  11  24  40  55  87 127 162 202 241 298 371
#     4  12  21  36  62  88 116 163 204 254 301 351
#     4   9  19  36  65  82 114 161 196 249 295 353
#     4   9  19  38  59  90 112 149 214 243 290 364
#     4  12  22  37  62  84 122 163 202 248 298 354
#     4  11  21  38  57  87 120 156 213 240 290 369
#     4   9  20  40  62  87 117 157 205 249 299 361
#     4  12  22  37  58  90 122 152 193 257 308 346
#
# _framework density 19.253679000000002
#
# number of rings (size 3 to 8) (size 9 to 14) (size 15 to 20)
#    0.000    1.333    4.167    5.000    0.000    0.333 
#    0.000    0.833    0.000    2.000    0.000    0.000 
#    0.000    0.000    0.000    0.000    0.000    0.000 
#
# Total GULP energy -297317.435041 kJ/mol
# GULP energy per Si atom -12388.226460 kJ/mol
# Density = 1.920986 g / cm^3
# Si number density = 19.253679 Si / 1000 Ang^3
#
#
#
# Elastic Constant Matrix: (Units=GPa)
#
#
# Indices 1 2 3 4 5 6 
#
# 1 99.9127 25.6290 40.5472 0.0000 -6.1130 0.0000
# 2 25.6290 91.1455 64.3586 0.0000 13.9323 0.0000
# 3 40.5472 64.3586 112.2219 0.0000 5.4232 0.0000
# 4 0.0000 0.0000 0.0000 85.6696 0.0000 -20.1922
# 5 -6.1130 13.9323 5.4232 0.0000 31.9901 0.0000
# 6 0.0000 0.0000 0.0000 -20.1922 0.0000 17.4148
#
#
#
# Elastic Compliance Matrix: (Units=1/GPa)
#
#
# Indices 1 2 3 4 5 6 
#
# 1 0.012094 -0.001227 -0.003835 0.000000 0.003496 0.000000
# 2 -0.001227 0.019909 -0.010631 0.000000 -0.007103 0.000000
# 3 -0.003835 -0.010631 0.016339 0.000000 0.001127 0.000000
# 4 0.000000 0.000000 0.000000 0.016062 0.000000 0.018624
# 5 0.003496 -0.007103 0.001127 0.000000 0.034830 0.000000
# 6 0.000000 0.000000 0.000000 0.018624 0.000000 0.079017
#
#
# Mechanical properties :
#
#
# Convention : Reuss Voigt Hill
#
# Bulk Modulus (GPa) = 58.97775 62.70551 60.84163
# Shear Modulus (GPa) = 23.22464 38.53125 30.87794
#
# Velocity S-wave (km/s) = 3.47687 4.47838 4.00902
# Velocity P-wave (km/s) = 6.84227 7.70584 7.28686
#
# Compressibility (1/GPa) = 0.01695555
#
# Stress axis : x y z
#
# Youngs Moduli (GPa) = 82.68820 50.22873 61.20401
#
# Poissons Ratio (x) = 0.06164 0.23470
# Poissons Ratio (y) = 0.10147 0.65066
# Poissons Ratio (z) = 0.31709 0.53398
#
# Static dielectric constant tensor:
#      x y z
#    x 3.586670 0.000000 0.008470 
#    y 0.000000 4.116720 0.000000 
#    z 0.008470 0.000000 3.546210 
# 
# 
# High freq. dielectric constant tensor:
#      x y z
#    x 1.762290 0.000000 0.000350 
#    y 0.000000 1.735970 0.000000 
#    z 0.000350 0.000000 1.737620 
# 
# From -- ./inp_files/122635.got.cif
#   From: 2010.06.25/outbox.cif.g09.slc.cpg/sg12_62_cif.got.tgz:122635.got - 2010.06.28 00:19:55.
