data_PCOD8114476
_publ_section_title
;
Structure prediction by ZEFSAII (Michael W. Deem and Ramdas Pophale) SiO2 
 PCOD8114476
Probable space group: C 2/M
;
_chemical_formula_sum "Si O2"
_cell_formula_units_Z 48
_cell_length_a 14.621278
_cell_length_b 15.292285
_cell_length_c 11.794287
_cell_angle_alpha 90.000000
_cell_angle_beta 112.137737
_cell_angle_gamma 90.000000
_cell_volume 2442.710473
_symmetry_space_group_name_H-M "C 2/M"
_symmetry_group_IT_number 12
_symmetry_cell_setting 'monoclinic'
loop_
_space_group_symop_operation_xyz
x,y,z
-x,y,-z
-x,-y,-z
x,-y,z
1/2+x,1/2+y,z
1/2-x,1/2+y,-z
1/2-x,1/2-y,-z
1/2+x,1/2-y,z
loop_
_atom_site_type_symbol
_atom_site_label
_atom_site_fract_x
_atom_site_fract_y
_atom_site_fract_z
Si Si1 0.616809 0.597273 0.556752
Si Si2 0.386451 0.303894 0.222371
Si Si3 0.748848 0.160106 0.752955
Si Si4 0.393768 0.901869 0.497896
Si Si5 0.602886 0.598849 0.999974
Si Si6 0.614901 0.734264 0.365972
O O1 0.500000 0.592081 0.500000
O O2 0.661338 0.500000 0.554231
O O3 0.649245 0.630342 0.695602
O O4 0.654027 0.665238 0.478790
O O5 0.324654 0.215443 0.203151
O O6 0.361660 0.344916 0.089827
O O7 0.501426 0.282389 0.285730
O O8 0.685676 0.099205 0.640151
O O9 0.821169 0.223862 0.716846
O O10 0.814083 0.099358 0.864398
O O11 0.500000 0.872807 0.500000
O O12 0.366003 0.832749 0.582060
O O13 0.397692 0.000000 0.550698
O O14 0.585804 0.500000 0.950240
O O15 0.500000 0.637006 0.000000
#
# Coordination Sequence:
#
# PCOD8114476 Si02
#       6
#     8   8   8   8   8   8
#     4   9  18  32  56  87 122 160 195 244 311 369
#     4  11  21  40  62  86 127 162 205 252 311 365
#     4  12  23  40  65  91 121 167 208 252 307 370
#     4  11  22  39  61  90 127 166 205 252 304 364
#     4  11  24  42  63  92 123 159 208 259 311 369
#     4  11  21  40  61  89 128 162 204 256 308 368
#
# _framework density 19.650302
#
# number of rings (size 3 to 8) (size 9 to 14) (size 15 to 20)
#    0.000    1.167    5.000    2.500    0.000    2.000 
#    0.000    0.833    0.000    0.000    0.000    2.333 
#    0.000    0.000    0.000    0.000    0.000    0.000 
#
# Total GULP energy -297667.444389 kJ/mol
# GULP energy per Si atom -12402.810183 kJ/mol
# Density = 1.960558 g / cm^3
# Si number density = 19.650302 Si / 1000 Ang^3
#
#
#
# Elastic Constant Matrix: (Units=GPa)
#
#
# Indices 1 2 3 4 5 6 
#
# 1 79.0293 10.8412 22.6002 0.0000 -0.4696 0.0000
# 2 10.8412 92.5164 13.0299 0.0000 -7.4155 0.0000
# 3 22.6002 13.0299 92.9271 0.0000 3.9685 0.0000
# 4 0.0000 0.0000 0.0000 23.3094 0.0000 11.2772
# 5 -0.4696 -7.4155 3.9685 0.0000 33.8872 0.0000
# 6 0.0000 0.0000 0.0000 11.2772 0.0000 -2.8113
#
#
#
# Elastic Compliance Matrix: (Units=1/GPa)
#
#
# Indices 1 2 3 4 5 6 
#
# 1 0.013724 -0.001133 -0.003192 0.000000 0.000316 0.000000
# 2 -0.001133 0.011354 -0.001429 0.000000 0.002636 0.000000
# 3 -0.003192 -0.001429 0.011812 0.000000 -0.001740 0.000000
# 4 0.000000 0.000000 0.000000 0.014589 0.000000 0.058521
# 5 0.000316 0.002636 -0.001740 0.000000 0.030295 0.000000
# 6 0.000000 0.000000 0.000000 0.058521 0.000000 -0.120960
#
#
# Mechanical properties :
#
#
# Convention : Reuss Voigt Hill
#
# Bulk Modulus (GPa) = 39.39932 39.71281 39.55606
# Shear Modulus (GPa) = -260.19214 25.41049 -117.39082
#
# Velocity S-wave (km/s) = -11.51949 3.59992 -7.73755
# Velocity P-wave (km/s) = 12.52349 6.12641 7.72350
#
# Compressibility (1/GPa) = 0.02538115
#
# Stress axis : x y z
#
# Youngs Moduli (GPa) = 72.86623 88.07265 84.65828
#
# Poissons Ratio (x) = 0.09981 0.27025
# Poissons Ratio (y) = 0.08257 0.12098
# Poissons Ratio (z) = 0.23261 0.12586
#
# Static dielectric constant tensor:
#      x y z
#    x 3.621900 0.000000 0.039940 
#    y 0.000000 3.543620 0.000000 
#    z 0.039940 0.000000 3.467580 
# 
# 
# High freq. dielectric constant tensor:
#      x y z
#    x 1.771590 0.000000 0.003970 
#    y 0.000000 1.763610 0.000000 
#    z 0.003970 0.000000 1.753550 
# 
# From -- ./inp_files/143153.got.cif
#   From: 2010.06.25/outbox.cif.g09.slc.cpg/sg12_72_cif.got.tgz:143153.got - 2010.06.28 00:19:55.
