data_PCOD8114959
_publ_section_title
;
Structure prediction by ZEFSAII (Michael W. Deem and Ramdas Pophale) SiO2 
 PCOD8114959
Probable space group: C 2/M
;
_chemical_formula_sum "Si O2"
_cell_formula_units_Z 48
_cell_length_a 19.446572
_cell_length_b 17.010795
_cell_length_c 17.513086
_cell_angle_alpha 90.000000
_cell_angle_beta 158.147078
_cell_angle_gamma 90.000000
_cell_volume 2156.434237
_symmetry_space_group_name_H-M "C 2/M"
_symmetry_group_IT_number 12
_symmetry_cell_setting 'monoclinic'
loop_
_space_group_symop_operation_xyz
x,y,z
-x,y,-z
-x,-y,-z
x,-y,z
1/2+x,1/2+y,z
1/2-x,1/2+y,-z
1/2-x,1/2-y,-z
1/2+x,1/2-y,z
loop_
_atom_site_type_symbol
_atom_site_label
_atom_site_fract_x
_atom_site_fract_y
_atom_site_fract_z
Si Si1 0.097028 0.911991 0.524548
Si Si2 0.301267 0.655831 0.129497
Si Si3 0.162668 0.910227 0.995906
Si Si4 0.949057 0.689273 0.361773
Si Si5 0.614909 0.170860 0.275992
Si Si6 0.719408 0.651253 0.395399
O O1 0.270153 0.857539 0.679399
O O2 0.000000 0.876485 0.500000
O O3 0.934897 0.914625 0.294042
O O4 0.171292 0.000000 0.614738
O O5 0.290844 0.647899 0.027467
O O6 0.406034 0.734870 0.264975
O O7 0.098540 0.648157 0.957067
O O8 0.945558 0.909446 0.792446
O O9 0.225403 0.000000 0.045893
O O10 0.278748 0.872221 0.185293
O O11 0.000000 0.714475 0.500000
O O12 0.123955 0.643670 0.506648
O O13 0.625869 0.263434 0.298431
O O14 0.696349 0.129019 0.435195
#
# Coordination Sequence:
#
# PCOD8114959 Si02
#       6
#     8   8   8   8   8   8
#     4  11  25  43  63 100 150 185 221 286 361 420
#     4  12  22  43  73 104 135 181 237 290 341 422
#     4  12  26  45  72 105 142 184 235 298 355 416
#     4  12  26  46  73 105 142 185 236 293 356 419
#     4  11  22  39  72  97 134 177 241 289 335 416
#     4  11  22  42  69 101 129 181 235 293 343 412
#
# _framework density 22.258967999999999
#
# number of rings (size 3 to 8) (size 9 to 14) (size 15 to 20)
#    0.000    0.500    6.667    2.500    0.000    3.667 
#    0.000    2.500    0.000    0.000    0.000    0.000 
#    0.000    0.000    0.000    0.000    0.000    0.000 
#
# Total GULP energy -297633.254699 kJ/mol
# GULP energy per Si atom -12401.385612 kJ/mol
# Density = 2.220831 g / cm^3
# Si number density = 22.258968 Si / 1000 Ang^3
#
#
#
# Elastic Constant Matrix: (Units=GPa)
#
#
# Indices 1 2 3 4 5 6 
#
# 1 109.5464 28.3024 31.9445 0.0222 16.0517 -0.0183
# 2 28.3024 88.3326 34.6630 0.0136 -8.2962 0.0201
# 3 31.9445 34.6630 113.1987 0.0038 20.6690 0.0077
# 4 0.0222 0.0136 0.0038 17.5042 0.0038 -2.6527
# 5 16.0517 -8.2962 20.6690 0.0038 44.9148 -0.0025
# 6 -0.0183 0.0201 0.0077 -2.6527 -0.0025 24.4834
#
#
#
# Elastic Compliance Matrix: (Units=1/GPa)
#
#
# Indices 1 2 3 4 5 6 
#
# 1 0.010962 -0.003349 -0.001353 -0.000009 -0.003913 0.000010
# 2 -0.003349 0.014812 -0.004704 -0.000010 0.006098 -0.000014
# 3 -0.001353 -0.004704 0.011711 0.000004 -0.005774 -0.000001
# 4 -0.000009 -0.000010 0.000004 0.058083 -0.000005 0.006293
# 5 -0.003913 0.006098 -0.005774 -0.000005 0.027446 -0.000004
# 6 0.000010 -0.000014 -0.000001 0.006293 -0.000004 0.041526
#
#
# Mechanical properties :
#
#
# Convention : Reuss Voigt Hill
#
# Bulk Modulus (GPa) = 53.55476 55.65529 54.60502
# Shear Modulus (GPa) = 26.37452 31.79166 29.08309
#
# Velocity S-wave (km/s) = 3.44596 3.78334 3.61858
# Velocity P-wave (km/s) = 6.32020 6.64399 6.48412
#
# Compressibility (1/GPa) = 0.01867248
#
# Stress axis : x y z
#
# Youngs Moduli (GPa) = 91.22590 67.51084 85.39139
#
# Poissons Ratio (x) = 0.22607 0.11558
# Poissons Ratio (y) = 0.30548 0.40169
# Poissons Ratio (z) = 0.12347 0.31758
#
# Static dielectric constant tensor:
#      x y z
#    x 3.869570 -0.000020 0.051500 
#    y -0.000020 3.680740 -0.000110 
#    z 0.051500 -0.000110 4.201160 
# 
# 
# High freq. dielectric constant tensor:
#      x y z
#    x 1.864600 0.000000 0.013570 
#    y 0.000000 1.858800 -0.000010 
#    z 0.013570 -0.000010 1.886640 
# 
# From -- ./inp_files/285415.got.cif
#   From: 2010.06.25/outbox.cif.g09.slc.cpg/sg12_143_cif.got.tgz:285415.got - 2010.06.28 00:19:55.
