data_PCOD8114456
_publ_section_title
;
Structure prediction by ZEFSAII (Michael W. Deem and Ramdas Pophale) SiO2 
 PCOD8114456
Probable space group: C 2/M
;
_chemical_formula_sum "Si O2"
_cell_formula_units_Z 56
_cell_length_a 9.839664
_cell_length_b 23.708446
_cell_length_c 12.408106
_cell_angle_alpha 90.000000
_cell_angle_beta 70.068755
_cell_angle_gamma 90.000000
_cell_volume 2721.222160
_symmetry_space_group_name_H-M "C 2/M"
_symmetry_group_IT_number 12
_symmetry_cell_setting 'monoclinic'
loop_
_space_group_symop_operation_xyz
x,y,z
-x,y,-z
-x,-y,-z
x,-y,z
1/2+x,1/2+y,z
1/2-x,1/2+y,-z
1/2-x,1/2-y,-z
1/2+x,1/2-y,z
loop_
_atom_site_type_symbol
_atom_site_label
_atom_site_fract_x
_atom_site_fract_y
_atom_site_fract_z
Si Si1 0.190215 0.244750 0.265796
Si Si2 0.290708 0.632783 0.236041
Si Si3 0.634765 0.564049 0.393198
Si Si4 0.373815 0.635452 0.819729
Si Si5 0.352971 0.101294 0.504210
Si Si6 0.170649 0.063027 0.972069
Si Si7 0.617401 0.222152 0.596991
O O1 0.215512 0.308732 0.220656
O O2 0.182433 0.199986 0.170271
O O3 0.328663 0.223381 0.295021
O O4 0.035719 0.244493 0.373000
O O5 0.460756 0.640084 0.192969
O O6 0.246937 0.610782 0.365170
O O7 0.249354 0.587666 0.155221
O O8 0.500000 0.585580 0.500000
O O9 0.611065 0.500000 0.358649
O O10 0.652754 0.604893 0.287179
O O11 0.772885 0.565488 0.434566
O O12 0.289319 0.601291 0.935275
O O13 0.500000 0.069041 0.500000
O O14 0.407020 0.159552 0.437684
O O15 0.229992 0.000000 0.976187
O O16 0.000000 0.061261 0.000000
O O17 0.750000 0.250000 0.500000
#
# Coordination Sequence:
#
# PCOD8114456 Si02
#       7
#     8   8   8   8   8   8   8
#     4  12  22  34  60  93 127 165 199 252 309 369
#     4  11  22  37  60  95 126 161 209 254 309 367
#     4  11  24  38  59  88 120 159 206 261 310 357
#     4  11  21  39  64  90 124 161 210 259 306 367
#     4  12  22  37  59  88 128 165 200 245 308 383
#     4   9  21  41  65  88 118 163 212 264 312 360
#     4  12  21  34  56  90 127 170 202 234 302 381
#
# _framework density 20.578990000000001
#
# number of rings (size 3 to 8) (size 9 to 14) (size 15 to 20)
#    0.000    0.857    7.143    0.857    0.000    2.000 
#    0.000    0.000    0.000    2.571    0.000    5.000 
#    0.000    0.000    0.000    0.000    0.000    0.000 
#
# Total GULP energy -347111.628670 kJ/mol
# GULP energy per Si atom -12396.843881 kJ/mol
# Density = 2.053215 g / cm^3
# Si number density = 20.578990 Si / 1000 Ang^3
#
#
#
# Elastic Constant Matrix: (Units=GPa)
#
#
# Indices 1 2 3 4 5 6 
#
# 1 90.9712 11.6976 12.1901 0.0000 5.5725 0.0000
# 2 11.6976 107.7840 53.3969 0.0000 5.8445 0.0000
# 3 12.1901 53.3969 86.0068 0.0000 17.5755 0.0000
# 4 0.0000 0.0000 0.0000 32.4144 0.0000 1.9835
# 5 5.5725 5.8445 17.5755 0.0000 15.9294 0.0000
# 6 0.0000 0.0000 0.0000 1.9835 0.0000 23.4963
#
#
#
# Elastic Compliance Matrix: (Units=1/GPa)
#
#
# Indices 1 2 3 4 5 6 
#
# 1 0.011354 -0.000844 -0.000435 0.000000 -0.003183 0.000000
# 2 -0.000844 0.013846 -0.009682 0.000000 0.005897 0.000000
# 3 -0.000435 -0.009682 0.021874 0.000000 -0.020431 0.000000
# 4 0.000000 0.000000 0.000000 0.031011 0.000000 -0.002618
# 5 -0.003183 0.005897 -0.020431 0.000000 0.084268 0.000000
# 6 0.000000 0.000000 0.000000 -0.002618 0.000000 0.042781
#
#
# Mechanical properties :
#
#
# Convention : Reuss Voigt Hill
#
# Bulk Modulus (GPa) = 39.75638 48.81458 44.28548
# Shear Modulus (GPa) = 21.23679 28.19985 24.71832
#
# Velocity S-wave (km/s) = 3.21591 3.70580 3.46951
# Velocity P-wave (km/s) = 5.75763 6.48712 6.13323
#
# Compressibility (1/GPa) = 0.02515320
#
# Stress axis : x y z
#
# Youngs Moduli (GPa) = 88.07266 72.22271 45.71545
#
# Poissons Ratio (x) = 0.06098 0.01987
# Poissons Ratio (y) = 0.07436 0.44260
# Poissons Ratio (z) = 0.03829 0.69924
#
# Static dielectric constant tensor:
#      x y z
#    x 3.298080 0.000000 0.011540 
#    y 0.000000 2.867370 0.000000 
#    z 0.011540 0.000000 3.649140 
# 
# 
# High freq. dielectric constant tensor:
#      x y z
#    x 1.800220 0.000000 0.014520 
#    y 0.000000 1.806640 0.000000 
#    z 0.014520 0.000000 1.783520 
# 
# From -- ./inp_files/124253.got.cif
#   From: 2010.06.25/outbox.cif.g09.slc.cpg/sg12_63_cif.got.tgz:124253.got - 2010.06.28 00:19:55.
