data_PCOD8114685
_publ_section_title
;
Structure prediction by ZEFSAII (Michael W. Deem and Ramdas Pophale) SiO2 
 PCOD8114685
Probable space group: C 2/M
;
_chemical_formula_sum "Si O2"
_cell_formula_units_Z 40
_cell_length_a 8.834973
_cell_length_b 28.261545
_cell_length_c 9.361779
_cell_angle_alpha 90.000000
_cell_angle_beta 66.130316
_cell_angle_gamma 90.000000
_cell_volume 2137.608246
_symmetry_space_group_name_H-M "C 2/M"
_symmetry_group_IT_number 12
_symmetry_cell_setting 'monoclinic'
loop_
_space_group_symop_operation_xyz
x,y,z
-x,y,-z
-x,-y,-z
x,-y,z
1/2+x,1/2+y,z
1/2-x,1/2+y,-z
1/2-x,1/2-y,-z
1/2+x,1/2-y,z
loop_
_atom_site_type_symbol
_atom_site_label
_atom_site_fract_x
_atom_site_fract_y
_atom_site_fract_z
Si Si1 0.539843 0.138051 0.648474
Si Si2 0.119856 0.898490 0.569202
Si Si3 0.525237 0.699242 0.325979
Si Si4 0.857612 0.448615 0.672130
Si Si5 0.399338 0.777241 0.180790
O O1 0.500000 0.152478 0.500000
O O2 0.731012 0.123147 0.581943
O O3 0.418868 0.094750 0.748826
O O4 0.508934 0.181294 0.765810
O O5 0.183062 0.935768 0.663142
O O6 0.000000 0.924361 0.500000
O O7 0.022114 0.855534 0.682789
O O8 0.500000 0.713401 0.500000
O O9 0.401583 0.730149 0.276262
O O10 0.713546 0.709164 0.208740
O O11 0.838679 0.500000 0.757053
O O12 0.000000 0.452595 0.500000
O O13 0.500000 0.767470 0.000000
#
# Coordination Sequence:
#
# PCOD8114685 Si02
#       5
#     8   8   8   8   8
#     4   9  18  33  55  74 104 143 182 207 261 322
#     4   9  16  30  51  77 104 134 181 211 259 313
#     4  11  22  36  55  75 106 148 181 212 260 322
#     4   8  16  29  51  80 107 133 173 223 268 307
#     4  12  24  36  51  80 111 140 182 225 264 304
#
# _framework density 18.712501
#
# number of rings (size 3 to 8) (size 9 to 14) (size 15 to 20)
#    0.000    2.600    4.000    1.800    5.600    0.400 
#    0.000    0.000    0.000    0.600    0.000    1.400 
#    0.000    0.000    0.000    0.000    0.000    0.000 
#
# Total GULP energy -247844.686526 kJ/mol
# GULP energy per Si atom -12392.234326 kJ/mol
# Density = 1.866991 g / cm^3
# Si number density = 18.712501 Si / 1000 Ang^3
#
#
#
# Elastic Constant Matrix: (Units=GPa)
#
#
# Indices 1 2 3 4 5 6 
#
# 1 107.8003 21.1786 3.5452 0.0000 1.1260 0.0000
# 2 21.1786 93.2312 6.2514 0.0000 9.9134 0.0000
# 3 3.5452 6.2514 45.9567 0.0000 -3.3502 0.0000
# 4 0.0000 0.0000 0.0000 2.8434 0.0000 1.6817
# 5 1.1260 9.9134 -3.3502 0.0000 19.8442 0.0000
# 6 0.0000 0.0000 0.0000 1.6817 0.0000 15.1741
#
#
#
# Elastic Compliance Matrix: (Units=1/GPa)
#
#
# Indices 1 2 3 4 5 6 
#
# 1 0.009724 -0.002234 -0.000410 0.000000 0.000495 0.000000
# 2 -0.002234 0.012021 -0.001915 0.000000 -0.006202 0.000000
# 3 -0.000410 -0.001915 0.022399 0.000000 0.004761 0.000000
# 4 0.000000 0.000000 0.000000 0.376356 0.000000 -0.041711
# 5 0.000495 -0.006202 0.004761 0.000000 0.054266 0.000000
# 6 0.000000 0.000000 0.000000 -0.041711 0.000000 0.070525
#
#
# Mechanical properties :
#
#
# Convention : Reuss Voigt Hill
#
# Bulk Modulus (GPa) = 28.55057 34.32651 31.43854
# Shear Modulus (GPa) = 8.83261 21.97323 15.40292
#
# Velocity S-wave (km/s) = 2.17495 3.43046 2.87215
# Velocity P-wave (km/s) = 4.64735 5.83735 5.27601
#
# Compressibility (1/GPa) = 0.03502557
#
# Stress axis : x y z
#
# Youngs Moduli (GPa) = 102.84240 83.18525 44.64517
#
# Poissons Ratio (x) = 0.18583 0.01831
# Poissons Ratio (y) = 0.22975 0.08550
# Poissons Ratio (z) = 0.04218 0.15930
#
# Static dielectric constant tensor:
#      x y z
#    x 3.696900 0.000000 0.114590 
#    y 0.000000 3.912960 0.000000 
#    z 0.114590 0.000000 2.848030 
# 
# 
# High freq. dielectric constant tensor:
#      x y z
#    x 1.746370 0.000000 0.009270 
#    y 0.000000 1.726070 0.000000 
#    z 0.009270 0.000000 1.658830 
# 
# From -- ./inp_files/41050.got.cif
#   From: 2010.06.25/outbox.cif.g09.slc.cpg/sg12_21_cif.got.tgz:41050.got - 2010.06.28 00:19:55.
