data_PCOD8114624
_publ_section_title
;
Structure prediction by ZEFSAII (Michael W. Deem and Ramdas Pophale) SiO2 
 PCOD8114624
Probable space group: C 2/M
;
_chemical_formula_sum "Si O2"
_cell_formula_units_Z 48
_cell_length_a 18.897938
_cell_length_b 8.879494
_cell_length_c 15.496948
_cell_angle_alpha 90.000000
_cell_angle_beta 90.254319
_cell_angle_gamma 90.000000
_cell_volume 2600.426214
_symmetry_space_group_name_H-M "C 2/M"
_symmetry_group_IT_number 12
_symmetry_cell_setting 'monoclinic'
loop_
_space_group_symop_operation_xyz
x,y,z
-x,y,-z
-x,-y,-z
x,-y,z
1/2+x,1/2+y,z
1/2-x,1/2+y,-z
1/2-x,1/2-y,-z
1/2+x,1/2-y,z
loop_
_atom_site_type_symbol
_atom_site_label
_atom_site_fract_x
_atom_site_fract_y
_atom_site_fract_z
Si Si1 0.705311 0.824142 0.073925
Si Si2 0.792470 0.678697 0.421628
Si Si3 0.791604 0.323115 0.730682
Si Si4 0.545952 0.820713 0.580156
Si Si5 0.452948 0.821117 0.734915
Si Si6 0.952464 0.320478 0.924136
O O1 0.732109 0.787575 0.171003
O O2 0.626450 0.760731 0.062302
O O3 0.706720 0.000000 0.058028
O O4 0.750000 0.750000 0.000000
O O5 0.789170 0.500000 0.430002
O O6 0.750000 0.750000 0.500000
O O7 0.759463 0.728753 0.330936
O O8 0.873543 0.737292 0.425619
O O9 0.784236 0.500000 0.709978
O O10 0.872456 0.268718 0.715468
O O11 0.500000 0.759534 0.500000
O O12 0.507979 0.755018 0.665685
O O13 0.545306 0.000000 0.581871
O O14 0.478607 0.766100 0.829722
O O15 0.452584 0.000000 0.732024
O O16 0.954325 0.500000 0.927979
O O17 0.000000 0.248739 0.000000
#
# Coordination Sequence:
#
# PCOD8114624 Si02
#       6
#     8   8   8   8   8   8
#     4   9  18  31  49  74 102 133 165 199 244 292
#     4  11  22  34  52  77 101 127 160 199 244 294
#     4   9  18  34  53  72  99 133 165 200 244 291
#     4   9  17  29  47  71  94 118 154 199 242 282
#     4   8  14  27  47  68  91 122 160 201 242 280
#     4   8  14  25  43  68  95 122 157 203 246 278
#
# _framework density 18.458513
#
# number of rings (size 3 to 8) (size 9 to 14) (size 15 to 20)
#    0.000    3.000    0.000    3.500    0.000    4.667 
#    0.000    3.333    0.000    9.500    0.000    0.000 
#    0.000    0.000    0.000    0.000    0.000    0.000 
#
# Total GULP energy -297459.021170 kJ/mol
# GULP energy per Si atom -12394.125882 kJ/mol
# Density = 1.841650 g / cm^3
# Si number density = 18.458513 Si / 1000 Ang^3
#
#
#
# Elastic Constant Matrix: (Units=GPa)
#
#
# Indices 1 2 3 4 5 6 
#
# 1 141.1095 25.8127 105.9836 0.0000 -2.8731 0.0000
# 2 25.8127 28.1136 29.8079 0.0000 -0.5962 0.0000
# 3 105.9836 29.8079 180.4748 0.0000 -5.3488 0.0000
# 4 0.0000 0.0000 0.0000 25.1750 0.0000 -1.5901
# 5 -2.8731 -0.5962 -5.3488 0.0000 44.3248 0.0000
# 6 0.0000 0.0000 0.0000 -1.5901 0.0000 21.7852
#
#
#
# Elastic Compliance Matrix: (Units=1/GPa)
#
#
# Indices 1 2 3 4 5 6 
#
# 1 0.013176 -0.004720 -0.006960 0.000000 -0.000049 0.000000
# 2 -0.004720 0.044815 -0.004638 0.000000 -0.000263 0.000000
# 3 -0.006960 -0.004638 0.010416 0.000000 0.000743 0.000000
# 4 0.000000 0.000000 0.000000 0.039906 0.000000 0.002913
# 5 -0.000049 -0.000263 0.000743 0.000000 0.022644 0.000000
# 6 0.000000 0.000000 0.000000 0.002913 0.000000 0.046115
#
#
# Mechanical properties :
#
#
# Convention : Reuss Voigt Hill
#
# Bulk Modulus (GPa) = 27.95423 74.76737 51.36080
# Shear Modulus (GPa) = 22.55992 30.79657 26.67825
#
# Velocity S-wave (km/s) = 3.49978 4.08906 3.80585
# Velocity P-wave (km/s) = 5.61325 7.93016 6.87008
#
# Compressibility (1/GPa) = 0.03577276
#
# Stress axis : x y z
#
# Youngs Moduli (GPa) = 75.89366 22.31379 96.00554
#
# Poissons Ratio (x) = 0.10532 0.66817
# Poissons Ratio (y) = 0.35821 0.44526
# Poissons Ratio (z) = 0.52820 0.10349
#
# Static dielectric constant tensor:
#      x y z
#    x -3.461460 0.000000 3.129070 
#    y 0.000000 2.856790 0.000000 
#    z 3.129070 0.000000 2.504640 
# 
# 
# High freq. dielectric constant tensor:
#      x y z
#    x 1.717260 0.000000 -0.000730 
#    y 0.000000 1.659760 0.000000 
#    z -0.000730 0.000000 1.736070 
# 
# From -- ./inp_files/221579.got.cif
#   From: 2010.06.25/outbox.cif.g09.slc.cpg/sg12_111_cif.got.tgz:221579.got - 2010.06.28 00:19:55.
