data_PCOD8114648
_publ_section_title
;
Structure prediction by ZEFSAII (Michael W. Deem and Ramdas Pophale) SiO2 
 PCOD8114648
Probable space group: C 2/M
;
_chemical_formula_sum "Si O2"
_cell_formula_units_Z 48
_cell_length_a 20.451997
_cell_length_b 8.875278
_cell_length_c 23.191247
_cell_angle_alpha 90.000000
_cell_angle_beta 140.627326
_cell_angle_gamma 90.000000
_cell_volume 2670.415744
_symmetry_space_group_name_H-M "C 2/M"
_symmetry_group_IT_number 12
_symmetry_cell_setting 'monoclinic'
loop_
_space_group_symop_operation_xyz
x,y,z
-x,y,-z
-x,-y,-z
x,-y,z
1/2+x,1/2+y,z
1/2-x,1/2+y,-z
1/2-x,1/2-y,-z
1/2+x,1/2-y,z
loop_
_atom_site_type_symbol
_atom_site_label
_atom_site_fract_x
_atom_site_fract_y
_atom_site_fract_z
Si Si1 0.649393 0.177889 0.957458
Si Si2 0.386470 0.322600 0.430404
Si Si3 0.886511 0.175405 0.945484
Si Si4 0.567381 0.177954 0.229709
Si Si5 0.290338 0.177170 0.775193
Si Si6 0.738909 0.821105 0.430307
O O1 0.551651 0.230099 0.851539
O O2 0.661337 0.000000 0.964695
O O3 0.750000 0.250000 0.000000
O O4 0.632680 0.229979 0.010717
O O5 0.500000 0.249136 0.500000
O O6 0.396389 0.500000 0.444502
O O7 0.320538 0.285168 0.328354
O O8 0.329763 0.262158 0.449608
O O9 0.801615 0.228623 0.841371
O O10 0.871330 0.000000 0.948465
O O11 0.000000 0.212992 0.000000
O O12 0.622069 0.237263 0.208935
O O13 0.629073 0.233868 0.328447
O O14 0.577350 0.000000 0.234320
O O15 0.301817 0.000000 0.796266
O O16 0.750000 0.750000 0.500000
O O17 0.742717 0.000000 0.438769
#
# Coordination Sequence:
#
# PCOD8114648 Si02
#       6
#     8   8   8   8   8   8
#     4  11  22  38  57  77 107 143 178 219 267 316
#     4   8  15  30  53  78 105 132 167 216 260 302
#     4  11  22  35  54  81 110 138 175 223 263 309
#     4   8  16  32  54  74  99 139 177 210 256 313
#     4   9  16  31  56  80 100 136 182 214 254 313
#     4   9  17  32  53  76 101 134 172 209 254 308
#
# _framework density 17.974729
#
# number of rings (size 3 to 8) (size 9 to 14) (size 15 to 20)
#    0.000    2.667    1.667    3.000    0.000    0.667 
#    3.000    5.000    0.000    1.000    0.000    0.000 
#    0.000    0.000    0.000    0.000    0.000    0.000 
#
# Total GULP energy -297480.258673 kJ/mol
# GULP energy per Si atom -12395.010778 kJ/mol
# Density = 1.793382 g / cm^3
# Si number density = 17.974729 Si / 1000 Ang^3
#
#
#
# Elastic Constant Matrix: (Units=GPa)
#
#
# Indices 1 2 3 4 5 6 
#
# 1 106.9939 33.2724 88.4355 0.0000 9.0548 0.0000
# 2 33.2724 38.5197 41.2102 0.0000 5.0228 0.0000
# 3 88.4355 41.2102 165.2652 0.0000 3.7704 0.0000
# 4 0.0000 0.0000 0.0000 24.8818 0.0000 -5.4160
# 5 9.0548 5.0228 3.7704 0.0000 36.2527 0.0000
# 6 0.0000 0.0000 0.0000 -5.4160 0.0000 27.3016
#
#
#
# Elastic Compliance Matrix: (Units=1/GPa)
#
#
# Indices 1 2 3 4 5 6 
#
# 1 0.018386 -0.006900 -0.008054 0.000000 -0.002799 0.000000
# 2 -0.006900 0.038583 -0.005860 0.000000 -0.003013 0.000000
# 3 -0.008054 -0.005860 0.011786 0.000000 0.001598 0.000000
# 4 0.000000 0.000000 0.000000 0.042004 0.000000 0.008333
# 5 -0.002799 -0.003013 0.001598 0.000000 0.028534 0.000000
# 6 0.000000 0.000000 0.000000 0.008333 0.000000 0.038281
#
#
# Mechanical properties :
#
#
# Convention : Reuss Voigt Hill
#
# Bulk Modulus (GPa) = 36.86450 70.73502 53.79976
# Shear Modulus (GPa) = 21.90644 27.54462 24.72553
#
# Velocity S-wave (km/s) = 3.49483 3.91884 3.71289
# Velocity P-wave (km/s) = 6.06949 7.74044 6.95532
#
# Compressibility (1/GPa) = 0.02712637
#
# Stress axis : x y z
#
# Youngs Moduli (GPa) = 54.38917 25.91835 84.84915
#
# Poissons Ratio (x) = 0.17883 0.68340
# Poissons Ratio (y) = 0.37527 0.49722
# Poissons Ratio (z) = 0.43806 0.15188
#
# Static dielectric constant tensor:
#      x y z
#    x 3.258200 0.000000 0.154220 
#    y 0.000000 2.990970 0.000000 
#    z 0.154220 0.000000 3.754800 
# 
# 
# High freq. dielectric constant tensor:
#      x y z
#    x 1.682420 0.000000 0.000150 
#    y 0.000000 1.664830 0.000000 
#    z 0.000150 0.000000 1.711640 
# 
# From -- ./inp_files/229280.got.cif
#   From: 2010.06.25/outbox.cif.g09.slc.cpg/sg12_115_cif.got.tgz:229280.got - 2010.06.28 00:19:55.
