data_PCOD8114595
_publ_section_title
;
Structure prediction by ZEFSAII (Michael W. Deem and Ramdas Pophale) SiO2 
 PCOD8114595
Probable space group: C 2/M
;
_chemical_formula_sum "Si O2"
_cell_formula_units_Z 48
_cell_length_a 9.467093
_cell_length_b 22.642048
_cell_length_c 12.138004
_cell_angle_alpha 90.000000
_cell_angle_beta 105.294158
_cell_angle_gamma 90.000000
_cell_volume 2509.688517
_symmetry_space_group_name_H-M "C 2/M"
_symmetry_group_IT_number 12
_symmetry_cell_setting 'monoclinic'
loop_
_space_group_symop_operation_xyz
x,y,z
-x,y,-z
-x,-y,-z
x,-y,z
1/2+x,1/2+y,z
1/2-x,1/2+y,-z
1/2-x,1/2-y,-z
1/2+x,1/2-y,z
loop_
_atom_site_type_symbol
_atom_site_label
_atom_site_fract_x
_atom_site_fract_y
_atom_site_fract_z
Si Si1 0.338290 0.931820 0.840264
Si Si2 0.134499 0.843599 0.733375
Si Si3 0.665325 0.660502 0.217752
Si Si4 0.671134 0.930888 0.906189
Si Si5 0.349600 0.772031 0.925000
Si Si6 0.148410 0.734595 0.579739
O O1 0.222956 0.904047 0.727054
O O2 0.504107 0.910518 0.851199
O O3 0.333037 0.000000 0.814523
O O4 0.290016 0.919769 0.957781
O O5 0.255080 0.820002 0.844039
O O6 0.113911 0.796766 0.632390
O O7 0.976569 0.862762 0.746782
O O8 0.726685 0.609485 0.151088
O O9 0.604074 0.716784 0.139986
O O10 0.788973 0.684187 0.327315
O O11 0.695436 0.000000 0.881243
O O12 0.500000 0.801532 0.000000
O O13 0.250000 0.750000 0.000000
O O14 0.250000 0.750000 0.500000
O O15 0.000000 0.707836 0.500000
#
# Coordination Sequence:
#
# PCOD8114595 Si02
#       6
#     8   8   8   8   8   8
#     4   9  20  37  57  85 119 158 193 226 277 339
#     4  11  23  35  58  85 111 150 192 235 285 343
#     4  11  23  36  56  86 112 148 194 235 286 342
#     4   9  20  37  58  84 120 159 192 227 275 341
#     4  11  22  33  48  80 120 149 177 224 281 346
#     4  11  24  43  60  83 114 148 191 245 301 345
#
# _framework density 19.125879999999999
#
# number of rings (size 3 to 8) (size 9 to 14) (size 15 to 20)
#    0.000    1.667    3.333    2.000    7.000    0.667 
#    0.000    1.667    0.000    2.000    0.000    0.000 
#    0.000    0.000    0.000    0.000    0.000    0.000 
#
# Total GULP energy -297393.977700 kJ/mol
# GULP energy per Si atom -12391.415738 kJ/mol
# Density = 1.908235 g / cm^3
# Si number density = 19.125880 Si / 1000 Ang^3
#
#
#
# Elastic Constant Matrix: (Units=GPa)
#
#
# Indices 1 2 3 4 5 6 
#
# 1 124.9583 37.4995 28.5688 0.0000 6.2329 0.0000
# 2 37.4995 72.7884 20.0160 0.0000 2.4592 0.0000
# 3 28.5688 20.0160 55.5753 0.0000 10.0109 0.0000
# 4 0.0000 0.0000 0.0000 28.3194 0.0000 -4.4469
# 5 6.2329 2.4592 10.0109 0.0000 35.5329 0.0000
# 6 0.0000 0.0000 0.0000 -4.4469 0.0000 31.2680
#
#
#
# Elastic Compliance Matrix: (Units=1/GPa)
#
#
# Indices 1 2 3 4 5 6 
#
# 1 0.010110 -0.004203 -0.003599 0.000000 -0.000469 0.000000
# 2 -0.004203 0.017005 -0.004092 0.000000 0.000713 0.000000
# 3 -0.003599 -0.004092 0.022284 0.000000 -0.005364 0.000000
# 4 0.000000 0.000000 0.000000 0.036118 0.000000 0.005137
# 5 -0.000469 0.000713 -0.005364 0.000000 0.029687 0.000000
# 6 0.000000 0.000000 0.000000 0.005137 0.000000 0.032712
#
#
# Mechanical properties :
#
#
# Convention : Reuss Voigt Hill
#
# Bulk Modulus (GPa) = 39.04723 47.27673 43.16198
# Shear Modulus (GPa) = 27.74051 30.17326 28.95688
#
# Velocity S-wave (km/s) = 3.81257 3.97623 3.89526
# Velocity P-wave (km/s) = 6.31198 6.77148 6.54576
#
# Compressibility (1/GPa) = 0.02561001
#
# Stress axis : x y z
#
# Youngs Moduli (GPa) = 98.90998 58.80591 44.87567
#
# Poissons Ratio (x) = 0.24717 0.16151
# Poissons Ratio (y) = 0.41573 0.18365
# Poissons Ratio (z) = 0.35598 0.24066
#
# Static dielectric constant tensor:
#      x y z
#    x 3.629510 0.000000 0.110990 
#    y 0.000000 3.497530 0.000000 
#    z 0.110990 0.000000 3.405840 
# 
# 
# High freq. dielectric constant tensor:
#      x y z
#    x 1.759240 0.000000 0.005840 
#    y 0.000000 1.742880 0.000000 
#    z 0.005840 0.000000 1.717450 
# 
# From -- ./inp_files/122021.got.cif
#   From: 2010.06.25/outbox.cif.g09.slc.cpg/sg12_62_cif.got.tgz:122021.got - 2010.06.28 00:19:55.
