data_PCOD8114930
_publ_section_title
;
Structure prediction by ZEFSAII (Michael W. Deem and Ramdas Pophale) SiO2 
 PCOD8114930
Probable space group: C 2/M
;
_chemical_formula_sum "Si O2"
_cell_formula_units_Z 40
_cell_length_a 27.003726
_cell_length_b 8.564949
_cell_length_c 21.823380
_cell_angle_alpha 90.000000
_cell_angle_beta 158.679851
_cell_angle_gamma 90.000000
_cell_volume 1835.139586
_symmetry_space_group_name_H-M "C 2/M"
_symmetry_group_IT_number 12
_symmetry_cell_setting 'monoclinic'
loop_
_space_group_symop_operation_xyz
x,y,z
-x,y,-z
-x,-y,-z
x,-y,z
1/2+x,1/2+y,z
1/2-x,1/2+y,-z
1/2-x,1/2-y,-z
1/2+x,1/2-y,z
loop_
_atom_site_type_symbol
_atom_site_label
_atom_site_fract_x
_atom_site_fract_y
_atom_site_fract_z
Si Si1 0.284033 0.815069 0.247966
Si Si2 0.888850 0.183405 0.686921
Si Si3 0.098428 0.314414 0.835173
Si Si4 0.502307 0.818210 0.933594
Si Si5 0.487210 0.816267 0.580550
O O1 0.343002 0.768801 0.383611
O O2 0.389504 0.754235 0.318858
O O3 0.253103 0.000000 0.207742
O O4 0.152278 0.714536 0.081191
O O5 0.750000 0.250000 0.500000
O O6 0.024168 0.249369 0.809721
O O7 0.895782 0.229570 0.766717
O O8 0.886080 0.000000 0.676479
O O9 0.105998 0.500000 0.848087
O O10 0.004254 0.256448 0.669571
O O11 0.250000 0.250000 0.000000
O O12 0.466502 0.000000 0.891187
O O13 0.500000 0.750004 0.000000
O O14 0.499249 0.000000 0.592411
#
# Coordination Sequence:
#
# PCOD8114930 Si02
#       5
#     8   8   8   8   8
#     4   9  17  35  61  90 122 161 210 259 312 380
#     4  12  27  47  69  96 132 177 225 279 337 400
#     4  11  22  39  64  97 134 177 222 271 330 394
#     4  11  25  43  63  92 129 166 211 270 326 389
#     4   8  17  33  58  90 124 160 204 258 313 377
#
# _framework density 21.796707000000001
#
# number of rings (size 3 to 8) (size 9 to 14) (size 15 to 20)
#    0.000    1.800    0.000    5.400    2.800    3.200 
#    0.000    4.000    0.000    0.000    0.000    0.000 
#    0.000    0.000    0.000    0.000    0.000    0.000 
#
# Total GULP energy -247946.364498 kJ/mol
# GULP energy per Si atom -12397.318225 kJ/mol
# Density = 2.174710 g / cm^3
# Si number density = 21.796707 Si / 1000 Ang^3
#
#
#
# Elastic Constant Matrix: (Units=GPa)
#
#
# Indices 1 2 3 4 5 6 
#
# 1 104.3295 37.3588 43.3647 0.0000 -21.9205 0.0000
# 2 37.3588 97.1152 39.1902 0.0000 -8.2601 0.0000
# 3 43.3647 39.1902 125.5192 0.0000 -16.5311 0.0000
# 4 0.0000 0.0000 0.0000 36.6778 0.0000 3.5689
# 5 -21.9205 -8.2601 -16.5311 0.0000 41.0448 0.0000
# 6 0.0000 0.0000 0.0000 3.5689 0.0000 28.2401
#
#
#
# Elastic Compliance Matrix: (Units=1/GPa)
#
#
# Indices 1 2 3 4 5 6 
#
# 1 0.013056 -0.003475 -0.002745 0.000000 0.005168 0.000000
# 2 -0.003475 0.012741 -0.002834 0.000000 -0.000434 0.000000
# 3 -0.002745 -0.002834 0.010066 0.000000 0.002018 0.000000
# 4 0.000000 0.000000 0.000000 0.027604 0.000000 -0.003488
# 5 0.005168 -0.000434 0.002018 0.000000 0.027849 0.000000
# 6 0.000000 0.000000 0.000000 -0.003488 0.000000 0.035852
#
#
# Mechanical properties :
#
#
# Convention : Reuss Voigt Hill
#
# Bulk Modulus (GPa) = 56.32658 62.97681 59.65169
# Shear Modulus (GPa) = 33.06989 34.99588 34.03289
#
# Velocity S-wave (km/s) = 3.89935 4.01129 3.95571
# Velocity P-wave (km/s) = 6.79493 7.09996 6.94912
#
# Compressibility (1/GPa) = 0.01775361
#
# Stress axis : x y z
#
# Youngs Moduli (GPa) = 76.59172 78.48742 99.34432
#
# Poissons Ratio (x) = 0.27276 0.27270
# Poissons Ratio (y) = 0.26618 0.28159
# Poissons Ratio (z) = 0.21025 0.22247
#
# Static dielectric constant tensor:
#      x y z
#    x 4.413440 0.000000 -0.510280 
#    y 0.000000 3.621050 0.000000 
#    z -0.510280 0.000000 4.221540 
# 
# 
# High freq. dielectric constant tensor:
#      x y z
#    x 1.862530 0.000000 -0.014600 
#    y 0.000000 1.832530 0.000000 
#    z -0.014600 0.000000 1.870720 
# 
# From -- ./inp_files/353128.got.cif
#   From: 2010.06.25/outbox.cif.g09.slc.cpg/sg12_177_cif.got.tgz:353128.got - 2010.06.28 00:19:55.
