data_PCOD8114966
_publ_section_title
;
Structure prediction by ZEFSAII (Michael W. Deem and Ramdas Pophale) SiO2 
 PCOD8114966
Probable space group: C 2/M
;
_chemical_formula_sum "Si O2"
_cell_formula_units_Z 52
_cell_length_a 9.101559
_cell_length_b 18.133331
_cell_length_c 18.886556
_cell_angle_alpha 90.000000
_cell_angle_beta 125.004927
_cell_angle_gamma 90.000000
_cell_volume 2553.198118
_symmetry_space_group_name_H-M "C 2/M"
_symmetry_group_IT_number 12
_symmetry_cell_setting 'monoclinic'
loop_
_space_group_symop_operation_xyz
x,y,z
-x,y,-z
-x,-y,-z
x,-y,z
1/2+x,1/2+y,z
1/2-x,1/2+y,-z
1/2-x,1/2-y,-z
1/2+x,1/2-y,z
loop_
_atom_site_type_symbol
_atom_site_label
_atom_site_fract_x
_atom_site_fract_y
_atom_site_fract_z
Si Si1 0.500000 0.810196 0.500000
Si Si2 0.401663 0.086370 0.592157
Si Si3 0.813862 0.082736 0.741118
Si Si4 0.248791 0.303401 0.349187
Si Si5 0.965734 0.915972 0.066454
Si Si6 0.571515 0.702409 0.749809
Si Si7 0.208225 0.304381 0.051997
O O1 0.621843 0.864460 0.485258
O O2 0.627931 0.757848 0.580365
O O3 0.604924 0.097697 0.674069
O O4 0.260069 0.119161 0.610201
O O5 0.357426 0.000000 0.566138
O O6 0.857839 0.094679 0.836385
O O7 0.934161 0.136246 0.727207
O O8 0.864507 0.000000 0.731662
O O9 0.316358 0.318650 0.288814
O O10 0.044186 0.275659 0.293343
O O11 0.794706 0.882785 0.058166
O O12 0.915293 0.000000 0.038934
O O13 0.000000 0.876429 0.000000
O O14 0.710798 0.721902 0.850757
O O15 0.250000 0.250000 0.000000
O O16 0.000000 0.317040 0.000000
#
# Coordination Sequence:
#
# PCOD8114966 Si02
#       7
#     4   8   8   8   8   8   8
#     4  12  23  44  69  90 124 164 210 254 313 378
#     4  11  24  42  66  95 126 162 208 258 311 371
#     4   9  19  38  61  87 121 162 204 251 311 371
#     4  12  24  40  65  93 123 165 211 253 309 376
#     4   9  19  36  59  85 117 160 204 249 303 365
#     4  11  22  40  62  87 124 165 204 256 313 369
#     4  11  23  37  58  89 122 160 205 258 301 361
#
# _framework density 20.366613000000001
#
# number of rings (size 3 to 8) (size 9 to 14) (size 15 to 20)
#    0.000    1.385    3.077    2.077    0.000    5.846 
#    0.000    0.385    0.000    0.000    0.000    0.000 
#    0.000    0.000    0.000    0.000    0.000    0.000 
#
# Total GULP energy -322379.033950 kJ/mol
# GULP energy per Si atom -12399.193613 kJ/mol
# Density = 2.032026 g / cm^3
# Si number density = 20.366613 Si / 1000 Ang^3
#
#
#
# Elastic Constant Matrix: (Units=GPa)
#
#
# Indices 1 2 3 4 5 6 
#
# 1 98.5131 30.9387 26.8964 0.0000 -27.3504 0.0000
# 2 30.9387 97.6139 29.3171 0.0000 -13.3504 0.0000
# 3 26.8964 29.3171 90.3677 0.0000 -17.3133 0.0000
# 4 0.0000 0.0000 0.0000 20.1338 0.0000 -7.6503
# 5 -27.3504 -13.3504 -17.3133 0.0000 35.9534 0.0000
# 6 0.0000 0.0000 0.0000 -7.6503 0.0000 27.6735
#
#
#
# Elastic Compliance Matrix: (Units=1/GPa)
#
#
# Indices 1 2 3 4 5 6 
#
# 1 0.013874 -0.002726 -0.001561 0.000000 0.008790 0.000000
# 2 -0.002726 0.012127 -0.002928 0.000000 0.001019 0.000000
# 3 -0.001561 -0.002928 0.013269 0.000000 0.004115 0.000000
# 4 0.000000 0.000000 0.000000 0.055497 0.000000 0.015342
# 5 0.008790 0.001019 0.004115 0.000000 0.036861 0.000000
# 6 0.000000 0.000000 0.000000 0.015342 0.000000 0.040377
#
#
# Mechanical properties :
#
#
# Convention : Reuss Voigt Hill
#
# Bulk Modulus (GPa) = 40.25727 51.19992 45.72860
# Shear Modulus (GPa) = 25.67872 30.04163 27.86017
#
# Velocity S-wave (km/s) = 3.55466 3.84480 3.70257
# Velocity P-wave (km/s) = 6.05448 6.70102 6.38594
#
# Compressibility (1/GPa) = 0.02484023
#
# Stress axis : x y z
#
# Youngs Moduli (GPa) = 72.07902 82.45907 75.36600
#
# Poissons Ratio (x) = 0.22481 0.11763
# Poissons Ratio (y) = 0.19651 0.22064
# Poissons Ratio (z) = 0.11250 0.24140
#
# Static dielectric constant tensor:
#      x y z
#    x 3.637910 0.000000 -0.102810 
#    y 0.000000 3.818700 0.000000 
#    z -0.102810 0.000000 3.961400 
# 
# 
# High freq. dielectric constant tensor:
#      x y z
#    x 1.789670 0.000000 -0.010270 
#    y 0.000000 1.801340 0.000000 
#    z -0.010270 0.000000 1.807370 
# 
# From -- ./inp_files/301177.got.cif
#   From: 2010.06.25/outbox.cif.g09.slc.cpg/sg12_151_cif.got.tgz:301177.got - 2010.06.28 00:19:55.
