data_PCOD8114062
_publ_section_title
;
Structure prediction by ZEFSAII (Michael W. Deem and Ramdas Pophale) SiO2 
 PCOD8114062
Probable space group: C 2/M
;
_chemical_formula_sum "Si O2"
_cell_formula_units_Z 28
_cell_length_a 16.357737
_cell_length_b 13.274920
_cell_length_c 6.935660
_cell_angle_alpha 90.000000
_cell_angle_beta 122.111521
_cell_angle_gamma 90.000000
_cell_volume 1275.657411
_symmetry_space_group_name_H-M "C 2/M"
_symmetry_group_IT_number 12
_symmetry_cell_setting 'monoclinic'
loop_
_space_group_symop_operation_xyz
x,y,z
-x,y,-z
-x,-y,-z
x,-y,z
1/2+x,1/2+y,z
1/2-x,1/2+y,-z
1/2-x,1/2-y,-z
1/2+x,1/2-y,z
loop_
_atom_site_type_symbol
_atom_site_label
_atom_site_fract_x
_atom_site_fract_y
_atom_site_fract_z
Si Si1 0.717478 0.500000 0.717517
Si Si2 0.500000 0.340045 0.000000
Si Si3 0.151907 0.209604 0.459765
Si Si4 0.443390 0.500000 0.230471
Si Si5 0.000000 0.664272 0.500000
Si Si6 0.561180 0.000000 0.884178
O O1 0.675036 0.595371 0.548554
O O2 0.670932 0.500000 0.872152
O O3 0.830482 0.500000 0.897595
O O4 0.588459 0.275423 0.186819
O O5 0.468111 0.401266 0.145803
O O6 0.250000 0.250000 0.500000
O O7 0.094348 0.269356 0.557075
O O8 0.500000 0.500000 0.500000
O O9 0.962674 0.598103 0.273661
O O10 0.500000 0.000000 0.000000
#
# Coordination Sequence:
#
# PCOD8114062 Si02
#       6
#     4   4   8   4   4   4
#     4  12  25  45  74 106 144 186 248 307 369 430
#     4  11  24  42  68  99 150 182 232 313 362 425
#     4  12  27  45  75 110 147 194 256 302 375 449
#     4  11  20  44  68  99 134 183 233 299 370 428
#     4  11  28  51  74 110 148 201 250 303 374 450
#     4  11  27  52  76 103 155 198 243 306 371 446
#
# _framework density 21.949468
#
# number of rings (size 3 to 8) (size 9 to 14) (size 15 to 20)
#    0.000    0.571    2.857    4.286   10.000    2.286 
#    0.000    0.000    0.000    0.000    0.000    0.000 
#    0.000    0.000    0.000    0.000    0.000    0.000 
#
# Total GULP energy -173445.781970 kJ/mol
# GULP energy per Si atom -12388.984426 kJ/mol
# Density = 2.189951 g / cm^3
# Si number density = 21.949468 Si / 1000 Ang^3
#
#
#
# Elastic Constant Matrix: (Units=GPa)
#
#
# Indices 1 2 3 4 5 6 
#
# 1 225.0548 71.9581 79.8485 0.0000 1.4314 0.0000
# 2 71.9581 132.4789 57.5026 0.0000 -0.9874 0.0000
# 3 79.8485 57.5026 168.2957 0.0000 5.8601 0.0000
# 4 0.0000 0.0000 0.0000 45.6683 0.0000 -4.1137
# 5 1.4314 -0.9874 5.8601 0.0000 48.3723 0.0000
# 6 0.0000 0.0000 0.0000 -4.1137 0.0000 37.2090
#
#
#
# Elastic Compliance Matrix: (Units=1/GPa)
#
#
# Indices 1 2 3 4 5 6 
#
# 1 0.005900 -0.002336 -0.002002 0.000000 0.000020 0.000000
# 2 -0.002336 0.009802 -0.002260 0.000000 0.000543 0.000000
# 3 -0.002002 -0.002260 0.007696 0.000000 -0.000919 0.000000
# 4 0.000000 0.000000 0.000000 0.022117 0.000000 0.002445
# 5 0.000020 0.000543 -0.000919 0.000000 0.020795 0.000000
# 6 0.000000 0.000000 0.000000 0.002445 0.000000 0.027146
#
#
# Mechanical properties :
#
#
# Convention : Reuss Voigt Hill
#
# Bulk Modulus (GPa) = 98.01002 104.93865 101.47434
# Shear Modulus (GPa) = 45.43294 47.35127 46.39210
#
# Velocity S-wave (km/s) = 4.55454 4.64970 4.60236
# Velocity P-wave (km/s) = 8.50928 8.76009 8.63560
#
# Compressibility (1/GPa) = 0.01020304
#
# Stress axis : x y z
#
# Youngs Moduli (GPa) = 169.48038 102.02018 129.93836
#
# Poissons Ratio (x) = 0.23829 0.26015
# Poissons Ratio (y) = 0.39586 0.29364
# Poissons Ratio (z) = 0.33932 0.23055
#
# Static dielectric constant tensor:
#      x y z
#    x 4.676530 0.000000 -0.338650 
#    y 0.000000 4.309440 0.000000 
#    z -0.338650 0.000000 4.012290 
# 
# 
# High freq. dielectric constant tensor:
#      x y z
#    x 1.889910 0.000000 -0.002050 
#    y 0.000000 1.871040 0.000000 
#    z -0.002050 0.000000 1.874270 
# 
# From -- ./inp_files/14653.got.cif
#   From: 2010.06.25/outbox.cif.g09.slc.cpg/sg12_8_cif.got.tgz:14653.got - 2010.06.28 00:19:55.
