data_PCOD8114219
_publ_section_title
;
Structure prediction by ZEFSAII (Michael W. Deem and Ramdas Pophale) SiO2 
 PCOD8114219
Probable space group: C 2/M
;
_chemical_formula_sum "Si O2"
_cell_formula_units_Z 56
_cell_length_a 28.740367
_cell_length_b 8.632097
_cell_length_c 14.430787
_cell_angle_alpha 90.000000
_cell_angle_beta 119.126783
_cell_angle_gamma 90.000000
_cell_volume 3127.402763
_symmetry_space_group_name_H-M "C 2/M"
_symmetry_group_IT_number 12
_symmetry_cell_setting 'monoclinic'
loop_
_space_group_symop_operation_xyz
x,y,z
-x,y,-z
-x,-y,-z
x,-y,z
1/2+x,1/2+y,z
1/2-x,1/2+y,-z
1/2-x,1/2-y,-z
1/2+x,1/2-y,z
loop_
_atom_site_type_symbol
_atom_site_label
_atom_site_fract_x
_atom_site_fract_y
_atom_site_fract_z
Si Si1 0.399274 0.183272 0.567918
Si Si2 0.890231 0.675327 0.204279
Si Si3 0.334092 0.174118 0.339059
Si Si4 0.504514 0.682549 0.610111
Si Si5 0.305074 0.317002 0.594895
Si Si6 0.719629 0.682476 0.226309
Si Si7 0.698020 0.683708 0.001793
O O1 0.378420 0.248705 0.448315
O O2 0.457279 0.259499 0.631668
O O3 0.357605 0.240073 0.603897
O O4 0.406446 0.000000 0.582180
O O5 0.905192 0.500000 0.190389
O O6 0.848673 0.677154 0.246986
O O7 0.858826 0.759372 0.091644
O O8 0.942485 0.764775 0.286420
O O9 0.277858 0.260845 0.295757
O O10 0.328108 0.000000 0.371669
O O11 0.500000 0.751067 0.500000
O O12 0.504021 0.500000 0.604453
O O13 0.304693 0.500000 0.576883
O O14 0.250000 0.250000 0.500000
O O15 0.312508 0.277491 0.711599
O O16 0.727335 0.500000 0.222307
O O17 0.695026 0.743030 0.105953
O O18 0.701381 0.500000 0.996569
O O19 0.750000 0.750000 0.000000
#
# Coordination Sequence:
#
# PCOD8114219 Si02
#       7
#     8   8   8   8   8   8   8
#     4  11  21  36  56  80 112 151 186 224 277 335
#     4  11  21  36  56  80 112 151 186 224 277 335
#     4   9  16  29  51  78 110 146 182 213 262 334
#     4  11  23  37  55  84 115 144 185 233 274 324
#     4  11  21  35  55  81 111 148 188 231 277 330
#     4   9  18  34  53  76 111 151 184 218 274 335
#     4  11  21  35  55  81 111 148 188 231 277 330
#
# _framework density 17.906231999999999
#
# number of rings (size 3 to 8) (size 9 to 14) (size 15 to 20)
#    0.000    1.571    4.286    2.143    0.000    0.571 
#    0.000    4.286    0.000    0.857    0.000    6.000 
#    0.000    0.000    0.000    0.000    0.000    0.000 
#
# Total GULP energy -346975.690467 kJ/mol
# GULP energy per Si atom -12391.988945 kJ/mol
# Density = 1.786548 g / cm^3
# Si number density = 17.906232 Si / 1000 Ang^3
#
#
#
# Elastic Constant Matrix: (Units=GPa)
#
#
# Indices 1 2 3 4 5 6 
#
# 1 100.8963 34.1926 50.2327 0.0000 12.9551 0.0000
# 2 34.1926 76.7113 36.3187 0.0000 3.0799 0.0000
# 3 50.2327 36.3187 126.7832 0.0000 3.3827 0.0000
# 4 0.0000 0.0000 0.0000 24.6105 0.0000 4.0571
# 5 12.9551 3.0799 3.3827 0.0000 29.5003 0.0000
# 6 0.0000 0.0000 0.0000 4.0571 0.0000 29.9337
#
#
#
# Elastic Compliance Matrix: (Units=1/GPa)
#
#
# Indices 1 2 3 4 5 6 
#
# 1 0.014091 -0.004040 -0.004285 0.000000 -0.005275 0.000000
# 2 -0.004040 0.016274 -0.003073 0.000000 0.000428 0.000000
# 3 -0.004285 -0.003073 0.010439 0.000000 0.001006 0.000000
# 4 0.000000 0.000000 0.000000 0.041562 0.000000 -0.005633
# 5 -0.005275 0.000428 0.001006 0.000000 0.036054 0.000000
# 6 0.000000 0.000000 0.000000 -0.005633 0.000000 0.034171
#
#
# Mechanical properties :
#
#
# Convention : Reuss Voigt Hill
#
# Bulk Modulus (GPa) = 55.52992 60.65319 58.09155
# Shear Modulus (GPa) = 27.56508 29.05203 28.30855
#
# Velocity S-wave (km/s) = 3.92779 4.03234 3.98041
# Velocity P-wave (km/s) = 7.18672 7.45828 7.32375
#
# Compressibility (1/GPa) = 0.01800831
#
# Stress axis : x y z
#
# Youngs Moduli (GPa) = 70.96751 61.44639 95.79906
#
# Poissons Ratio (x) = 0.24827 0.41048
# Poissons Ratio (y) = 0.28673 0.29435
# Poissons Ratio (z) = 0.30408 0.18880
#
# Static dielectric constant tensor:
#      x y z
#    x 3.283750 0.000000 -0.048290 
#    y 0.000000 3.222260 0.000000 
#    z -0.048290 0.000000 3.495580 
# 
# 
# High freq. dielectric constant tensor:
#      x y z
#    x 1.684250 0.000000 0.003250 
#    y 0.000000 1.683370 0.000000 
#    z 0.003250 0.000000 1.690390 
# 
# From -- ./inp_files/244296.got.cif
#   From: 2010.06.25/outbox.cif.g09.slc.cpg/sg12_123_cif.got.tgz:244296.got - 2010.06.28 00:19:55.
