data_PCOD8114634
_publ_section_title
;
Structure prediction by ZEFSAII (Michael W. Deem and Ramdas Pophale) SiO2 
 PCOD8114634
Probable space group: C 2/M
;
_chemical_formula_sum "Si O2"
_cell_formula_units_Z 56
_cell_length_a 16.829043
_cell_length_b 14.492259
_cell_length_c 15.663710
_cell_angle_alpha 90.000000
_cell_angle_beta 49.410650
_cell_angle_gamma 90.000000
_cell_volume 2901.057298
_symmetry_space_group_name_H-M "C 2/M"
_symmetry_group_IT_number 12
_symmetry_cell_setting 'monoclinic'
loop_
_space_group_symop_operation_xyz
x,y,z
-x,y,-z
-x,-y,-z
x,-y,z
1/2+x,1/2+y,z
1/2-x,1/2+y,-z
1/2-x,1/2-y,-z
1/2+x,1/2-y,z
loop_
_atom_site_type_symbol
_atom_site_label
_atom_site_fract_x
_atom_site_fract_y
_atom_site_fract_z
Si Si1 0.792058 0.728345 0.729262
Si Si2 0.668117 0.105223 0.866620
Si Si3 0.297291 0.180154 0.533283
Si Si4 0.996389 0.709681 0.690430
Si Si5 0.092291 0.106088 0.875977
Si Si6 0.916470 0.101557 0.311589
Si Si7 0.977332 0.605862 0.877264
O O1 0.768266 0.831461 0.778926
O O2 0.811741 0.728940 0.614558
O O3 0.896036 0.693737 0.702560
O O4 0.696875 0.662610 0.822561
O O5 0.580562 0.130823 0.858247
O O6 0.704432 0.000000 0.830687
O O7 0.623908 0.121711 0.992623
O O8 0.250000 0.250000 0.500000
O O9 0.410414 0.149110 0.417972
O O10 0.211343 0.098949 0.598121
O O11 0.031030 0.817853 0.668574
O O12 0.971049 0.673761 0.802089
O O13 0.050436 0.118387 0.809233
O O14 0.117363 0.000000 0.880079
O O15 0.000000 0.145330 0.000000
O O16 0.954219 0.000000 0.316886
O O17 0.981334 0.500000 0.843468
#
# Coordination Sequence:
#
# PCOD8114634 Si02
#       7
#     8   8   8   8   8   8   8
#     4  11  22  34  58  84 116 147 179 233 293 336
#     4   9  19  36  57  80 109 148 196 234 271 329
#     4   9  19  38  58  78 105 148 194 232 264 330
#     4  11  22  35  55  85 120 144 182 229 295 336
#     4   9  19  36  56  78 104 144 192 230 265 325
#     4   9  19  36  57  80 108 146 189 225 266 330
#     4   9  19  36  57  80 108 148 194 236 273 328
#
# _framework density 19.303307
#
# number of rings (size 3 to 8) (size 9 to 14) (size 15 to 20)
#    0.000    2.429    0.000    3.857    4.000    2.286 
#    0.000    4.286    0.000    8.571    0.000    0.000 
#    0.000    0.000    0.000    0.000    0.000    0.000 
#
# Total GULP energy -347128.162763 kJ/mol
# GULP energy per Si atom -12397.434384 kJ/mol
# Density = 1.925937 g / cm^3
# Si number density = 19.303307 Si / 1000 Ang^3
#
#
#
# Elastic Constant Matrix: (Units=GPa)
#
#
# Indices 1 2 3 4 5 6 
#
# 1 88.4815 28.8295 56.9246 0.0000 -0.5349 0.0000
# 2 28.8295 60.2273 19.6515 0.0000 6.5732 0.0000
# 3 56.9246 19.6515 90.1495 0.0000 12.5263 0.0000
# 4 0.0000 0.0000 0.0000 15.8135 0.0000 1.0686
# 5 -0.5349 6.5732 12.5263 0.0000 25.8337 0.0000
# 6 0.0000 0.0000 0.0000 1.0686 0.0000 18.4145
#
#
#
# Elastic Compliance Matrix: (Units=1/GPa)
#
#
# Indices 1 2 3 4 5 6 
#
# 1 0.022794 -0.007319 -0.014070 0.000000 0.009157 0.000000
# 2 -0.007319 0.020424 0.000979 0.000000 -0.005823 0.000000
# 3 -0.014070 0.000979 0.021272 0.000000 -0.010855 0.000000
# 4 0.000000 0.000000 0.000000 0.063486 0.000000 -0.003684
# 5 0.009157 -0.005823 -0.010855 0.000000 0.045644 0.000000
# 6 0.000000 0.000000 0.000000 -0.003684 0.000000 0.054519
#
#
# Mechanical properties :
#
#
# Convention : Reuss Voigt Hill
#
# Bulk Modulus (GPa) = 42.25040 49.96328 46.10684
# Shear Modulus (GPa) = 18.06043 20.90918 19.48480
#
# Velocity S-wave (km/s) = 3.06210 3.29476 3.18056
# Velocity P-wave (km/s) = 5.86831 6.35715 6.11762
#
# Compressibility (1/GPa) = 0.02366841
#
# Stress axis : x y z
#
# Youngs Moduli (GPa) = 43.87150 48.96311 47.01030
#
# Poissons Ratio (x) = 0.35838 0.66143
# Poissons Ratio (y) = 0.32111 -0.04602
# Poissons Ratio (z) = 0.61727 -0.04793
#
# Static dielectric constant tensor:
#      x y z
#    x 3.205940 0.000000 -0.129250 
#    y 0.000000 3.552130 0.000000 
#    z -0.129250 0.000000 3.775130 
# 
# 
# High freq. dielectric constant tensor:
#      x y z
#    x 1.727620 0.000000 0.006910 
#    y 0.000000 1.746000 0.000000 
#    z 0.006910 0.000000 1.761540 
# 
# From -- ./inp_files/277822.got.cif
#   From: 2010.06.25/outbox.cif.g09.slc.cpg/sg12_139_cif.got.tgz:277822.got - 2010.06.28 00:19:55.
