data_PCOD8114938
_publ_section_title
;
Structure prediction by ZEFSAII (Michael W. Deem and Ramdas Pophale) SiO2 
 PCOD8114938
Probable space group: C 2/M
;
_chemical_formula_sum "Si O2"
_cell_formula_units_Z 40
_cell_length_a 19.593451
_cell_length_b 16.755959
_cell_length_c 13.083728
_cell_angle_alpha 90.000000
_cell_angle_beta 155.056542
_cell_angle_gamma 90.000000
_cell_volume 1811.505721
_symmetry_space_group_name_H-M "C 2/M"
_symmetry_group_IT_number 12
_symmetry_cell_setting 'monoclinic'
loop_
_space_group_symop_operation_xyz
x,y,z
-x,y,-z
-x,-y,-z
x,-y,z
1/2+x,1/2+y,z
1/2-x,1/2+y,-z
1/2-x,1/2-y,-z
1/2+x,1/2-y,z
loop_
_atom_site_type_symbol
_atom_site_label
_atom_site_fract_x
_atom_site_fract_y
_atom_site_fract_z
Si Si1 0.518698 0.912610 0.416674
Si Si2 0.677402 0.185959 0.204382
Si Si3 0.014427 0.095197 0.301850
Si Si4 0.362606 0.367592 0.881483
Si Si5 0.243065 0.330255 0.055864
O O1 0.500000 0.865990 0.500000
O O2 0.707233 0.921267 0.649607
O O3 0.439224 0.000000 0.319794
O O4 0.428050 0.868724 0.203953
O O5 0.812734 0.140058 0.455200
O O6 0.678967 0.280753 0.222212
O O7 0.729334 0.175546 0.157900
O O8 0.500000 0.153159 0.000000
O O9 0.898925 0.115068 0.241441
O O10 0.041796 0.000000 0.330407
O O11 0.917939 0.131737 0.074293
O O12 0.500000 0.408294 0.000000
O O13 0.250000 0.250000 0.000000
#
# Coordination Sequence:
#
# PCOD8114938 Si02
#       5
#     8   8   8   8   8
#     4  11  22  39  65  98 133 169 223 285 340 398
#     4  11  27  46  71 101 139 183 232 281 340 411
#     4  12  26  46  72 105 140 181 232 287 347 412
#     4  11  25  44  71 100 140 181 231 281 344 408
#     4  12  23  44  72  98 134 185 231 279 339 412
#
# _framework density 22.081078000000002
#
# number of rings (size 3 to 8) (size 9 to 14) (size 15 to 20)
#    0.000    0.600    4.000    3.000    2.800    6.000 
#    0.000    0.000    0.000    0.000    0.000    0.000 
#    0.000    0.000    0.000    0.000    0.000    0.000 
#
# Total GULP energy -247885.102915 kJ/mol
# GULP energy per Si atom -12394.255146 kJ/mol
# Density = 2.203082 g / cm^3
# Si number density = 22.081078 Si / 1000 Ang^3
#
#
#
# Elastic Constant Matrix: (Units=GPa)
#
#
# Indices 1 2 3 4 5 6 
#
# 1 77.1577 5.8945 18.5158 0.0000 24.5730 0.0000
# 2 5.8945 100.2433 37.7449 0.0000 -2.5693 0.0000
# 3 18.5158 37.7449 145.1821 0.0000 15.7301 0.0000
# 4 0.0000 0.0000 0.0000 24.9745 0.0000 7.1942
# 5 24.5730 -2.5693 15.7301 0.0000 39.9076 0.0000
# 6 0.0000 0.0000 0.0000 7.1942 0.0000 11.1963
#
#
#
# Elastic Compliance Matrix: (Units=1/GPa)
#
#
# Indices 1 2 3 4 5 6 
#
# 1 0.016344 -0.000918 -0.000782 0.000000 -0.009815 0.000000
# 2 -0.000918 0.011254 -0.003080 0.000000 0.002504 0.000000
# 3 -0.000782 -0.003080 0.008104 0.000000 -0.002911 0.000000
# 4 0.000000 0.000000 0.000000 0.049136 0.000000 -0.031572
# 5 -0.009815 0.002504 -0.002911 0.000000 0.032410 0.000000
# 6 0.000000 0.000000 0.000000 -0.031572 0.000000 0.109602
#
#
# Mechanical properties :
#
#
# Convention : Reuss Voigt Hill
#
# Bulk Modulus (GPa) = 38.25448 49.65483 43.95466
# Shear Modulus (GPa) = 20.39790 32.57753 26.48771
#
# Velocity S-wave (km/s) = 3.04266 3.84521 3.46723
# Velocity P-wave (km/s) = 5.45031 6.50004 5.99818
#
# Compressibility (1/GPa) = 0.02614073
#
# Stress axis : x y z
#
# Youngs Moduli (GPa) = 61.18433 88.86058 123.39908
#
# Poissons Ratio (x) = 0.08157 0.09655
# Poissons Ratio (y) = 0.05617 0.38006
# Poissons Ratio (z) = 0.04787 0.27369
#
# Static dielectric constant tensor:
#      x y z
#    x 4.091630 0.000000 0.137290 
#    y 0.000000 3.923240 0.000000 
#    z 0.137290 0.000000 4.471600 
# 
# 
# High freq. dielectric constant tensor:
#      x y z
#    x 1.869860 0.000000 0.011870 
#    y 0.000000 1.864440 0.000000 
#    z 0.011870 0.000000 1.883560 
# 
# From -- ./inp_files/47038.got.cif
#   From: 2010.06.25/outbox.cif.g09.slc.cpg/sg12_24_cif.got.tgz:47038.got - 2010.06.28 00:19:55.
