data_PCOD8114053
_publ_section_title
;
Structure prediction by ZEFSAII (Michael W. Deem and Ramdas Pophale) SiO2 
 PCOD8114053
Probable space group: C 2/M
;
_chemical_formula_sum "Si O2"
_cell_formula_units_Z 48
_cell_length_a 19.685714
_cell_length_b 10.306222
_cell_length_c 11.651891
_cell_angle_alpha 90.000000
_cell_angle_beta 112.031445
_cell_angle_gamma 90.000000
_cell_volume 2191.374294
_symmetry_space_group_name_H-M "C 2/M"
_symmetry_group_IT_number 12
_symmetry_cell_setting 'monoclinic'
loop_
_space_group_symop_operation_xyz
x,y,z
-x,y,-z
-x,-y,-z
x,-y,z
1/2+x,1/2+y,z
1/2-x,1/2+y,-z
1/2-x,1/2-y,-z
1/2+x,1/2-y,z
loop_
_atom_site_type_symbol
_atom_site_label
_atom_site_fract_x
_atom_site_fract_y
_atom_site_fract_z
Si Si1 0.662334 0.845358 0.621278
Si Si2 0.531020 0.000000 0.860178
Si Si3 0.544727 0.252011 0.725176
Si Si4 0.389788 0.650168 0.591613
Si Si5 0.322507 0.730062 0.781812
Si Si6 0.625843 0.000000 0.131608
Si Si7 0.068559 0.144933 0.978180
O O1 0.605350 0.775548 0.668731
O O2 0.660254 0.758038 0.504539
O O3 0.742168 0.830305 0.725519
O O4 0.645632 0.000000 0.589701
O O5 0.524765 0.880098 0.772734
O O6 0.457699 0.000000 0.885017
O O7 0.608613 0.000000 0.981837
O O8 0.474423 0.316346 0.619727
O O9 0.571336 0.348018 0.842453
O O10 0.373510 0.500000 0.544178
O O11 0.372907 0.666019 0.715467
O O12 0.325510 0.885280 0.783493
O O13 0.355146 0.698720 0.927216
O O14 0.062679 0.000000 0.016077
O O15 0.000000 0.219338 0.000000
#
# Coordination Sequence:
#
# PCOD8114053 Si02
#       7
#     8   4   8   8   8   4   8
#     4  12  30  48  68  99 143 190 230 282 350 413
#     4  11  20  42  70 107 134 168 231 278 339 413
#     4  12  24  44  72 103 139 176 228 284 342 414
#     4  12  27  48  75 100 134 184 240 290 337 406
#     4  12  25  45  71 103 141 178 231 289 346 414
#     4  11  22  40  75 106 134 177 229 288 341 407
#     4  11  21  40  72 105 135 176 224 285 347 405
#
# _framework density 21.904064000000002
#
# number of rings (size 3 to 8) (size 9 to 14) (size 15 to 20)
#    0.000    0.333    5.833    3.000    3.500    3.333 
#    0.000    0.000    0.000    0.000    0.000    0.000 
#    0.000    0.000    0.000    0.000    0.000    0.000 
#
# Total GULP energy -297431.650504 kJ/mol
# GULP energy per Si atom -12392.985438 kJ/mol
# Density = 2.185421 g / cm^3
# Si number density = 21.904064 Si / 1000 Ang^3
#
#
#
# Elastic Constant Matrix: (Units=GPa)
#
#
# Indices 1 2 3 4 5 6 
#
# 1 75.9605 24.1074 8.6003 0.0000 15.0636 0.0000
# 2 24.1074 132.0645 18.6075 0.0000 5.7532 0.0000
# 3 8.6003 18.6075 65.9146 0.0000 19.4508 0.0000
# 4 0.0000 0.0000 0.0000 38.8815 0.0000 6.5661
# 5 15.0636 5.7532 19.4508 0.0000 32.7158 0.0000
# 6 0.0000 0.0000 0.0000 6.5661 0.0000 28.1054
#
#
#
# Elastic Compliance Matrix: (Units=1/GPa)
#
#
# Indices 1 2 3 4 5 6 
#
# 1 0.015300 -0.002601 0.000827 0.000000 -0.007079 0.000000
# 2 -0.002601 0.008328 -0.002344 0.000000 0.001127 0.000000
# 3 0.000827 -0.002344 0.019060 0.000000 -0.011300 0.000000
# 4 0.000000 0.000000 0.000000 0.026776 0.000000 -0.006255
# 5 -0.007079 0.001127 -0.011300 0.000000 0.040346 0.000000
# 6 0.000000 0.000000 0.000000 -0.006255 0.000000 0.037042
#
#
# Mechanical properties :
#
#
# Convention : Reuss Voigt Hill
#
# Bulk Modulus (GPa) = 29.02632 41.84112 35.43372
# Shear Modulus (GPa) = 30.01709 34.78218 32.39963
#
# Velocity S-wave (km/s) = 3.70589 3.98921 3.85016
# Velocity P-wave (km/s) = 5.62066 6.35310 5.99807
#
# Compressibility (1/GPa) = 0.03445150
#
# Stress axis : x y z
#
# Youngs Moduli (GPa) = 65.35747 120.07590 52.46710
#
# Poissons Ratio (x) = 0.31233 -0.04339
# Poissons Ratio (y) = 0.17000 0.12299
# Poissons Ratio (z) = -0.05405 0.28147
#
# Static dielectric constant tensor:
#      x y z
#    x 3.735650 0.000000 -0.011170 
#    y 0.000000 4.412810 0.000000 
#    z -0.011170 0.000000 4.085740 
# 
# 
# High freq. dielectric constant tensor:
#      x y z
#    x 1.838410 0.000000 0.005430 
#    y 0.000000 1.882200 0.000000 
#    z 0.005430 0.000000 1.866140 
# 
# From -- ./inp_files/154339.got.cif
#   From: 2010.06.25/outbox.cif.g09.slc.cpg/sg12_78_cif.got.tgz:154339.got - 2010.06.28 00:19:55.
