data_PCOD8114937
_publ_section_title
;
Structure prediction by ZEFSAII (Michael W. Deem and Ramdas Pophale) SiO2 
 PCOD8114937
Probable space group: C 2/M
;
_chemical_formula_sum "Si O2"
_cell_formula_units_Z 64
_cell_length_a 23.342496
_cell_length_b 17.437840
_cell_length_c 21.992526
_cell_angle_alpha 90.000000
_cell_angle_beta 160.411056
_cell_angle_gamma 90.000000
_cell_volume 3001.300676
_symmetry_space_group_name_H-M "C 2/M"
_symmetry_group_IT_number 12
_symmetry_cell_setting 'monoclinic'
loop_
_space_group_symop_operation_xyz
x,y,z
-x,y,-z
-x,-y,-z
x,-y,z
1/2+x,1/2+y,z
1/2-x,1/2+y,-z
1/2-x,1/2-y,-z
1/2+x,1/2-y,z
loop_
_atom_site_type_symbol
_atom_site_label
_atom_site_fract_x
_atom_site_fract_y
_atom_site_fract_z
Si Si1 0.810153 0.664279 0.950392
Si Si2 0.703357 0.913955 0.703352
Si Si3 0.190116 0.335795 0.330390
Si Si4 0.700020 0.587991 0.438888
Si Si5 0.000214 0.088244 0.571683
Si Si6 0.696621 0.168730 0.817486
Si Si7 0.196526 0.668770 0.575675
Si Si8 0.700175 0.412003 0.961268
O O1 0.671380 0.625893 0.768217
O O2 0.803478 0.755820 0.939460
O O3 0.781471 0.641455 0.991362
O O4 0.000129 0.637897 0.120118
O O5 0.500000 0.918097 0.500000
O O6 0.770021 0.869447 0.829512
O O7 0.769963 0.869348 0.710496
O O8 0.779484 0.000000 0.779436
O O9 0.218585 0.358565 0.428530
O O10 0.328956 0.374302 0.425912
O O11 0.196807 0.244265 0.332781
O O12 0.740050 0.500000 0.494793
O O13 0.785129 0.607496 0.459793
O O14 0.499927 0.604218 0.235810
O O15 0.000000 0.099854 0.500000
O O16 0.000511 0.000000 0.591917
O O17 0.500068 0.192337 0.612289
O O18 0.714723 0.107480 0.889430
O O19 0.740132 0.500000 0.985329
#
# Coordination Sequence:
#
# PCOD8114937 Si02
#       8
#     8   8   8   8   8   8   8   8
#     4  12  25  43  70 100 135 176 226 276 335 401
#     4   9  20  38  63  95 133 179 225 270 331 396
#     4  12  25  43  70 100 135 176 226 276 335 401
#     4  11  23  41  64  94 135 176 223 284 344 399
#     4  11  26  48  72 100 136 175 221 277 338 400
#     4  11  22  39  65  96 135 178 226 280 333 399
#     4  11  22  39  65  96 135 178 226 280 333 399
#     4  11  23  41  64  94 135 176 223 284 344 399
#
# _framework density 21.324086999999999
#
# number of rings (size 3 to 8) (size 9 to 14) (size 15 to 20)
#    0.000    1.000    2.500    3.750    1.750    5.000 
#    0.000    3.125    0.000    4.500    0.000    0.000 
#    0.000    0.000    0.000    0.000    0.000    0.000 
#
# Total GULP energy -397008.370518 kJ/mol
# GULP energy per Si atom -12406.511579 kJ/mol
# Density = 2.127555 g / cm^3
# Si number density = 21.324087 Si / 1000 Ang^3
#
#
#
# Elastic Constant Matrix: (Units=GPa)
#
#
# Indices 1 2 3 4 5 6 
#
# 1 121.2807 76.1359 49.5034 0.0684 -18.3370 -0.1568
# 2 76.1359 134.3575 44.9300 -0.2534 -19.5703 0.5538
# 3 49.5034 44.9300 101.5231 0.0939 5.8637 -0.1723
# 4 0.0684 -0.2534 0.0939 66.9682 0.0767 -96.8292
# 5 -18.3370 -19.5703 5.8637 0.0767 36.3837 -0.1531
# 6 -0.1568 0.5538 -0.1723 -96.8292 -0.1531 223.7441
#
#
#
# Elastic Compliance Matrix: (Units=1/GPa)
#
#
# Indices 1 2 3 4 5 6 
#
# 1 0.014738 -0.006021 -0.004809 -0.000002 0.004965 0.000024
# 2 -0.006021 0.012376 -0.002777 0.000007 0.004070 -0.000031
# 3 -0.004809 -0.002777 0.013778 -0.000009 -0.006137 0.000006
# 4 -0.000002 0.000007 -0.000009 0.039898 -0.000007 0.017267
# 5 0.004965 0.004070 -0.006137 -0.000007 0.033165 0.000008
# 6 0.000024 -0.000031 0.000006 0.017267 0.000008 0.011942
#
#
# Mechanical properties :
#
#
# Convention : Reuss Voigt Hill
#
# Bulk Modulus (GPa) = 73.09642 77.58888 75.34265
# Shear Modulus (GPa) = 31.71186 77.85867 54.78526
#
# Velocity S-wave (km/s) = 3.86053 6.04908 5.07420
# Velocity P-wave (km/s) = 7.36375 9.23326 8.35098
#
# Compressibility (1/GPa) = 0.01368056
#
# Stress axis : x y z
#
# Youngs Moduli (GPa) = 67.85035 80.80193 72.57928
#
# Poissons Ratio (x) = 0.48648 0.34902
# Poissons Ratio (y) = 0.40850 0.20152
# Poissons Ratio (z) = 0.32628 0.22435
#
# Static dielectric constant tensor:
#      x y z
#    x 3.891610 -0.000090 -0.041390 
#    y -0.000090 3.958790 -0.000090 
#    z -0.041390 -0.000090 3.825570 
# 
# 
# High freq. dielectric constant tensor:
#      x y z
#    x 1.842420 -0.000010 -0.002780 
#    y -0.000010 1.847870 -0.000010 
#    z -0.002780 -0.000010 1.838020 
# 
# From -- ./inp_files/326123.got.cif
#   From: 2010.06.25/outbox.cif.g09.slc.cpg/sg12_164_cif.got.tgz:326123.got - 2010.06.28 00:19:55.
