data_PCOD8114105
_publ_section_title
;
Structure prediction by ZEFSAII (Michael W. Deem and Ramdas Pophale) SiO2 
 PCOD8114105
Probable space group: C 2/M
;
_chemical_formula_sum "Si O2"
_cell_formula_units_Z 56
_cell_length_a 18.965153
_cell_length_b 9.032059
_cell_length_c 28.225211
_cell_angle_alpha 90.000000
_cell_angle_beta 39.499796
_cell_angle_gamma 90.000000
_cell_volume 3075.310445
_symmetry_space_group_name_H-M "C 2/M"
_symmetry_group_IT_number 12
_symmetry_cell_setting 'monoclinic'
loop_
_space_group_symop_operation_xyz
x,y,z
-x,y,-z
-x,-y,-z
x,-y,z
1/2+x,1/2+y,z
1/2-x,1/2+y,-z
1/2-x,1/2-y,-z
1/2+x,1/2-y,z
loop_
_atom_site_type_symbol
_atom_site_label
_atom_site_fract_x
_atom_site_fract_y
_atom_site_fract_z
Si Si1 0.394635 0.829326 0.956808
Si Si2 0.973934 0.675135 0.736350
Si Si3 0.129885 0.671025 0.806561
Si Si4 0.698362 0.826975 0.096332
Si Si5 0.874022 0.831080 0.702193
Si Si6 0.109135 0.171911 0.415806
Si Si7 0.334914 0.324394 0.308944
O O1 0.525655 0.794519 0.895008
O O2 0.362480 0.779162 0.920417
O O3 0.368247 0.000000 0.978434
O O4 0.321774 0.742812 0.033447
O O5 0.991313 0.500000 0.731022
O O6 0.875459 0.731569 0.821909
O O7 0.942356 0.719772 0.699468
O O8 0.087622 0.756059 0.690648
O O9 0.125386 0.500000 0.791302
O O10 0.242695 0.701341 0.776627
O O11 0.121722 0.772459 0.764611
O O12 0.713819 0.000000 0.092383
O O13 0.909802 0.798733 0.629901
O O14 0.900976 0.000000 0.702429
O O15 0.210492 0.268321 0.382882
O O16 0.000000 0.223319 0.500000
O O17 0.136599 0.000000 0.410705
O O18 0.338396 0.500000 0.310107
#
# Coordination Sequence:
#
# PCOD8114105 Si02
#       7
#     8   8   8   8   8   8   8
#     4   9  16  29  49  72  98 132 177 223 268 313
#     4  11  21  36  53  73 108 147 180 215 265 319
#     4   9  17  34  54  74 104 141 179 221 267 319
#     4   9  18  30  46  70 100 135 176 222 266 311
#     4   9  19  34  55  81 107 134 173 218 259 310
#     4   9  19  39  64  85 109 141 171 205 257 316
#     4  11  21  32  54  84 109 136 177 222 258 303
#
# _framework density 18.209543
#
# number of rings (size 3 to 8) (size 9 to 14) (size 15 to 20)
#    0.000    2.429    1.429    2.571    0.000    4.286 
#    0.000    1.429    0.000    4.286    0.000    0.000 
#    0.000    0.000    0.000    0.000    0.000    0.000 
#
# Total GULP energy -347205.517653 kJ/mol
# GULP energy per Si atom -12400.197059 kJ/mol
# Density = 1.816810 g / cm^3
# Si number density = 18.209543 Si / 1000 Ang^3
#
#
#
# Elastic Constant Matrix: (Units=GPa)
#
#
# Indices 1 2 3 4 5 6 
#
# 1 97.2349 52.2678 48.6329 0.0000 -12.6132 -0.0001
# 2 52.2678 85.0721 47.1951 0.0001 -11.9167 -0.0002
# 3 48.6329 47.1951 124.1946 0.0000 -17.5941 0.0000
# 4 0.0000 0.0001 0.0000 26.9136 0.0000 -2.5763
# 5 -12.6132 -11.9167 -17.5941 0.0000 19.8302 0.0001
# 6 -0.0001 -0.0002 0.0000 -2.5763 0.0001 28.9612
#
#
#
# Elastic Compliance Matrix: (Units=1/GPa)
#
#
# Indices 1 2 3 4 5 6 
#
# 1 0.016495 -0.008067 -0.002967 0.000000 0.003012 0.000000
# 2 -0.008067 0.019198 -0.003693 0.000000 0.003129 0.000000
# 3 -0.002967 -0.003693 0.011478 0.000000 0.006077 0.000000
# 4 0.000000 0.000000 0.000000 0.037475 0.000000 0.003334
# 5 0.003012 0.003129 0.006077 0.000000 0.059616 0.000000
# 6 0.000000 0.000000 0.000000 0.003334 0.000000 0.034825
#
#
# Mechanical properties :
#
#
# Convention : Reuss Voigt Hill
#
# Bulk Modulus (GPa) = 56.44267 66.96593 61.70430
# Shear Modulus (GPa) = 23.31562 25.70139 24.50850
#
# Velocity S-wave (km/s) = 3.58216 3.76097 3.67265
# Velocity P-wave (km/s) = 6.94065 7.46424 7.20720
#
# Compressibility (1/GPa) = 0.01771709
#
# Stress axis : x y z
#
# Youngs Moduli (GPa) = 60.62330 52.08855 87.12122
#
# Poissons Ratio (x) = 0.42018 0.25851
# Poissons Ratio (y) = 0.48902 0.32177
# Poissons Ratio (z) = 0.17989 0.19238
#
# Static dielectric constant tensor:
#      x y z
#    x 3.145420 0.000000 -0.199320 
#    y 0.000000 3.237540 0.000000 
#    z -0.199320 0.000000 3.484460 
# 
# 
# High freq. dielectric constant tensor:
#      x y z
#    x 1.683780 0.000000 -0.016630 
#    y 0.000000 1.699620 0.000000 
#    z -0.016630 0.000000 1.703490 
# 
# From -- ./inp_files/342030.got.cif
#   From: 2010.06.25/outbox.cif.g09.slc.cpg/sg12_172_cif.got.tgz:342030.got - 2010.06.28 00:19:55.
