data_PCOD8114828
_publ_section_title
;
Structure prediction by ZEFSAII (Michael W. Deem and Ramdas Pophale) SiO2 
 PCOD8114828
Probable space group: C 2/M
;
_chemical_formula_sum "Si O2"
_cell_formula_units_Z 56
_cell_length_a 21.095055
_cell_length_b 8.684805
_cell_length_c 21.183500
_cell_angle_alpha 90.000000
_cell_angle_beta 44.688407
_cell_angle_gamma 90.000000
_cell_volume 2729.283991
_symmetry_space_group_name_H-M "C 2/M"
_symmetry_group_IT_number 12
_symmetry_cell_setting 'monoclinic'
loop_
_space_group_symop_operation_xyz
x,y,z
-x,y,-z
-x,-y,-z
x,-y,z
1/2+x,1/2+y,z
1/2-x,1/2+y,-z
1/2-x,1/2-y,-z
1/2+x,1/2-y,z
loop_
_atom_site_type_symbol
_atom_site_label
_atom_site_fract_x
_atom_site_fract_y
_atom_site_fract_z
Si Si1 0.865767 0.818992 0.568556
Si Si2 0.526193 0.181678 0.051669
Si Si3 0.209905 0.176390 0.965781
Si Si4 0.038689 0.179957 0.779606
Si Si5 0.957623 0.181785 0.626040
Si Si6 0.901753 0.326140 0.792317
Si Si7 0.208544 0.682842 0.593464
O O1 0.877260 0.774007 0.633939
O O2 0.771802 0.759916 0.606601
O O3 0.948963 0.756174 0.468760
O O4 0.872363 0.000000 0.557914
O O5 0.457433 0.255976 0.151473
O O6 0.516272 0.000000 0.063925
O O7 0.500000 0.239451 0.000000
O O8 0.628704 0.228550 0.993241
O O9 0.294425 0.187170 0.858189
O O10 0.179023 0.000000 0.998980
O O11 0.250000 0.250000 0.000000
O O12 0.109917 0.255336 0.680718
O O13 0.938980 0.219463 0.823175
O O14 0.056058 0.000000 0.768738
O O15 0.947822 0.277522 0.695584
O O16 0.957929 0.000000 0.640920
O O17 0.929530 0.500000 0.790053
O O18 0.205380 0.500000 0.589280
O O19 0.250000 0.750000 0.500000
#
# Coordination Sequence:
#
# PCOD8114828 Si02
#       7
#     8   8   8   8   8   8   8
#     4   8  17  34  56  81 114 155 197 245 296 354
#     4  11  25  45  68  95 129 168 212 267 330 391
#     4  11  23  40  65  92 124 162 204 255 311 375
#     4  12  25  41  63  89 121 165 212 260 315 378
#     4   9  17  34  59  85 113 151 200 245 294 361
#     4  11  23  38  59  90 123 153 196 253 310 368
#     4  11  22  38  60  89 126 165 208 255 309 371
#
# _framework density 20.518201999999999
#
# number of rings (size 3 to 8) (size 9 to 14) (size 15 to 20)
#    0.000    1.571    1.429    4.714    0.000    5.143 
#    0.000    7.857    0.000    0.000    0.000    0.000 
#    0.000    0.000    0.000    0.000    0.000    0.000 
#
# Total GULP energy -347144.220701 kJ/mol
# GULP energy per Si atom -12398.007882 kJ/mol
# Density = 2.047150 g / cm^3
# Si number density = 20.518202 Si / 1000 Ang^3
#
#
#
# Elastic Constant Matrix: (Units=GPa)
#
#
# Indices 1 2 3 4 5 6 
#
# 1 111.5610 32.4184 35.4549 -0.0002 6.8085 0.0003
# 2 32.4184 90.0131 38.9625 -0.0008 4.9907 0.0014
# 3 35.4549 38.9625 101.8524 0.0000 12.6070 0.0000
# 4 -0.0002 -0.0008 0.0000 34.9307 0.0000 2.9659
# 5 6.8085 4.9907 12.6070 0.0000 34.8411 0.0000
# 6 0.0003 0.0014 0.0000 2.9659 0.0000 27.6617
#
#
#
# Elastic Compliance Matrix: (Units=1/GPa)
#
#
# Indices 1 2 3 4 5 6 
#
# 1 0.010603 -0.002660 -0.002579 0.000000 -0.000758 0.000000
# 2 -0.002660 0.013982 -0.004438 0.000000 0.000123 -0.000001
# 3 -0.002579 -0.004438 0.012848 0.000000 -0.003509 0.000000
# 4 0.000000 0.000000 0.000000 0.028891 0.000000 -0.003098
# 5 -0.000758 0.000123 -0.003509 0.000000 0.030102 0.000000
# 6 0.000000 -0.000001 0.000000 -0.003098 0.000000 0.036483
#
#
# Mechanical properties :
#
#
# Convention : Reuss Voigt Hill
#
# Bulk Modulus (GPa) = 55.31653 57.45537 56.38595
# Shear Modulus (GPa) = 31.58779 32.59275 32.09027
#
# Velocity S-wave (km/s) = 3.92790 3.98990 3.95902
# Velocity P-wave (km/s) = 6.89851 7.02059 6.95982
#
# Compressibility (1/GPa) = 0.01807778
#
# Stress axis : x y z
#
# Youngs Moduli (GPa) = 94.31563 71.52258 77.83305
#
# Poissons Ratio (x) = 0.19025 0.20077
# Poissons Ratio (y) = 0.25088 0.34540
# Poissons Ratio (z) = 0.24328 0.31740
#
# Static dielectric constant tensor:
#      x y z
#    x 4.525310 0.000000 -0.154700 
#    y 0.000000 3.575820 0.000000 
#    z -0.154700 0.000000 3.858180 
# 
# 
# High freq. dielectric constant tensor:
#      x y z
#    x 1.805690 0.000000 0.000790 
#    y 0.000000 1.793760 0.000000 
#    z 0.000790 0.000000 1.809040 
# 
# From -- ./inp_files/319651.got.cif
#   From: 2010.06.25/outbox.cif.g09.slc.cpg/sg12_160_cif.got.tgz:319651.got - 2010.06.28 00:19:55.
