data_PCOD8114796
_publ_section_title
;
Structure prediction by ZEFSAII (Michael W. Deem and Ramdas Pophale) SiO2 
 PCOD8114796
Probable space group: C 2/M
;
_chemical_formula_sum "Si O2"
_cell_formula_units_Z 32
_cell_length_a 11.995468
_cell_length_b 23.494294
_cell_length_c 5.019929
_cell_angle_alpha 90.000000
_cell_angle_beta 79.066981
_cell_angle_gamma 90.000000
_cell_volume 1389.063588
_symmetry_space_group_name_H-M "C 2/M"
_symmetry_group_IT_number 12
_symmetry_cell_setting 'monoclinic'
loop_
_space_group_symop_operation_xyz
x,y,z
-x,y,-z
-x,-y,-z
x,-y,z
1/2+x,1/2+y,z
1/2-x,1/2+y,-z
1/2-x,1/2-y,-z
1/2+x,1/2-y,z
loop_
_atom_site_type_symbol
_atom_site_label
_atom_site_fract_x
_atom_site_fract_y
_atom_site_fract_z
Si Si1 0.176066 0.500000 0.502701
Si Si2 0.267810 0.710851 0.737158
Si Si3 0.000000 0.090360 0.000000
Si Si4 0.500000 0.341452 0.500000
Si Si5 0.820931 0.000000 0.931913
Si Si6 0.074462 0.619768 0.706487
O O1 0.212975 0.500000 0.176715
O O2 0.106125 0.556909 0.591335
O O3 0.286312 0.500000 0.640200
O O4 0.250000 0.750000 0.500000
O O5 0.398911 0.693245 0.681925
O O6 0.183457 0.657007 0.745346
O O7 0.250000 0.750000 0.000000
O O8 0.948304 0.124060 0.274419
O O9 0.894114 0.055795 0.940232
O O10 0.000000 0.648469 0.500000
O O11 0.000000 0.612823 0.000000
#
# Coordination Sequence:
#
# PCOD8114796 Si02
#       6
#     4   8   4   4   4   8
#     4  12  24  44  70 105 148 194 238 293 366 441
#     4  12  28  47  75 103 142 191 244 310 366 428
#     4  11  22  40  66 104 138 190 228 303 352 428
#     4  12  26  47  72 100 140 179 250 292 374 430
#     4  11  22  37  68 101 150 181 240 281 358 426
#     4  12  26  46  74 106 149 192 246 300 366 436
#
# _framework density 23.037102000000001
#
# number of rings (size 3 to 8) (size 9 to 14) (size 15 to 20)
#    0.000    0.250    0.000    9.750    5.250    2.000 
#    0.000    0.000    0.000    0.000    0.000    0.000 
#    0.000    0.000    0.000    0.000    0.000    0.000 
#
# Total GULP energy -198396.689002 kJ/mol
# GULP energy per Si atom -12399.793063 kJ/mol
# Density = 2.298467 g / cm^3
# Si number density = 23.037102 Si / 1000 Ang^3
#
#
#
# Elastic Constant Matrix: (Units=GPa)
#
#
# Indices 1 2 3 4 5 6 
#
# 1 127.0467 42.0880 25.6189 0.0000 -6.3950 0.0000
# 2 42.0880 116.6436 38.3996 0.0000 -12.6828 0.0000
# 3 25.6189 38.3996 138.2498 0.0000 -4.3192 0.0000
# 4 0.0000 0.0000 0.0000 3.6205 0.0000 29.1359
# 5 -6.3950 -12.6828 -4.3192 0.0000 53.7890 0.0000
# 6 0.0000 0.0000 0.0000 29.1359 0.0000 -0.4524
#
#
#
# Elastic Compliance Matrix: (Units=1/GPa)
#
#
# Indices 1 2 3 4 5 6 
#
# 1 0.009034 -0.002947 -0.000846 0.000000 0.000311 0.000000
# 2 -0.002947 0.010622 -0.002343 0.000000 0.001966 0.000000
# 3 -0.000846 -0.002343 0.008040 0.000000 -0.000007 0.000000
# 4 0.000000 0.000000 0.000000 0.000532 0.000000 0.034256
# 5 0.000311 0.001966 -0.000007 0.000000 0.019091 0.000000
# 6 0.000000 0.000000 0.000000 0.034256 0.000000 -0.004257
#
#
# Mechanical properties :
#
#
# Convention : Reuss Voigt Hill
#
# Bulk Modulus (GPa) = 64.83213 66.01703 65.42458
# Shear Modulus (GPa) = 82.67911 29.78032 56.22972
#
# Velocity S-wave (km/s) = 5.99729 3.59933 4.94584
# Velocity P-wave (km/s) = 8.72698 6.78178 7.81514
#
# Compressibility (1/GPa) = 0.01542445
#
# Stress axis : x y z
#
# Youngs Moduli (GPa) = 110.69645 94.14807 124.37132
#
# Poissons Ratio (x) = 0.27749 0.10518
# Poissons Ratio (y) = 0.32626 0.29135
# Poissons Ratio (z) = 0.09361 0.22055
#
# Static dielectric constant tensor:
#      x y z
#    x 4.188620 0.000000 -0.014330 
#    y 0.000000 4.330900 0.000000 
#    z -0.014330 0.000000 4.426520 
# 
# 
# High freq. dielectric constant tensor:
#      x y z
#    x 1.924630 0.000000 0.006050 
#    y 0.000000 1.916520 0.000000 
#    z 0.006050 0.000000 1.935430 
# 
# From -- ./inp_files/6891.got.cif
#   From: 2010.06.25/outbox.cif.g09.slc.cpg/sg12_4_cif.got.tgz:6891.got - 2010.06.28 00:19:55.
