data_PCOD8114800
_publ_section_title
;
Structure prediction by ZEFSAII (Michael W. Deem and Ramdas Pophale) SiO2 
 PCOD8114800
Probable space group: C 2/M
;
_chemical_formula_sum "Si O2"
_cell_formula_units_Z 64
_cell_length_a 14.622258
_cell_length_b 8.684156
_cell_length_c 29.249763
_cell_angle_alpha 90.000000
_cell_angle_beta 117.402626
_cell_angle_gamma 90.000000
_cell_volume 3297.438914
_symmetry_space_group_name_H-M "C 2/M"
_symmetry_group_IT_number 12
_symmetry_cell_setting 'monoclinic'
loop_
_space_group_symop_operation_xyz
x,y,z
-x,y,-z
-x,-y,-z
x,-y,z
1/2+x,1/2+y,z
1/2-x,1/2+y,-z
1/2-x,1/2-y,-z
1/2+x,1/2-y,z
loop_
_atom_site_type_symbol
_atom_site_label
_atom_site_fract_x
_atom_site_fract_y
_atom_site_fract_z
Si Si1 0.048487 0.680791 0.880768
Si Si2 0.246069 0.180458 0.898333
Si Si3 0.200747 0.317406 0.716118
Si Si4 0.407060 0.817836 0.007947
Si Si5 0.723472 0.682034 0.363155
Si Si6 0.446149 0.817029 0.442604
Si Si7 0.521098 0.182158 0.362481
Si Si8 0.163712 0.181530 0.168953
O O1 0.024750 0.500000 0.874611
O O2 0.141664 0.722166 0.868202
O O3 0.950318 0.775057 0.840394
O O4 0.084683 0.744714 0.938686
O O5 0.300674 0.229247 0.958662
O O6 0.320175 0.224217 0.873760
O O7 0.222500 0.000000 0.891726
O O8 0.202432 0.500000 0.714551
O O9 0.263907 0.257964 0.686191
O O10 0.255669 0.257744 0.774607
O O11 0.081740 0.261169 0.688144
O O12 0.418285 0.000000 0.011468
O O13 0.500000 0.745276 0.000000
O O14 0.712592 0.500000 0.361983
O O15 0.826616 0.735880 0.413810
O O16 0.622633 0.750518 0.363115
O O17 0.500000 0.745540 0.500000
O O18 0.508774 0.760705 0.412142
O O19 0.449739 0.000000 0.444654
O O20 0.529724 0.000000 0.362482
O O21 0.174180 0.000000 0.163032
#
# Coordination Sequence:
#
# PCOD8114800 Si02
#       8
#     8   8   8   8   8   8   8   8
#     4  11  22  38  58  81 109 139 173 212 260 314
#     4  11  22  38  58  81 109 139 173 212 260 314
#     4   8  18  36  54  71  99 137 173 211 255 310
#     4   9  17  34  58  79 104 138 170 209 256 309
#     4   9  17  32  53  75 100 134 174 213 254 301
#     4   8  15  29  49  73 104 141 174 203 247 308
#     4   9  17  32  53  75 100 134 174 213 254 301
#     4  11  22  38  57  79 106 137 176 220 267 314
#
# _framework density 19.409003999999999
#
# number of rings (size 3 to 8) (size 9 to 14) (size 15 to 20)
#    0.000    2.500    1.250    3.000    0.000    1.500 
#    0.000   10.000    0.000    0.750    0.000    0.000 
#    0.000    0.000    0.000    0.000    0.000    0.000 
#
# Total GULP energy -396678.754812 kJ/mol
# GULP energy per Si atom -12396.211088 kJ/mol
# Density = 1.936483 g / cm^3
# Si number density = 19.409004 Si / 1000 Ang^3
#
#
#
# Elastic Constant Matrix: (Units=GPa)
#
#
# Indices 1 2 3 4 5 6 
#
# 1 130.6757 22.4468 37.0975 0.0000 17.2295 0.0000
# 2 22.4468 32.8927 31.1906 0.0000 3.1128 0.0000
# 3 37.0975 31.1906 118.8209 0.0000 16.2628 0.0000
# 4 0.0000 0.0000 0.0000 15.8280 0.0000 1.4030
# 5 17.2295 3.1128 16.2628 0.0000 22.3466 0.0000
# 6 0.0000 0.0000 0.0000 1.4030 0.0000 35.5046
#
#
#
# Elastic Compliance Matrix: (Units=1/GPa)
#
#
# Indices 1 2 3 4 5 6 
#
# 1 0.009573 -0.005209 -0.000789 0.000000 -0.006081 0.000000
# 2 -0.005209 0.043421 -0.010544 0.000000 0.005641 0.000000
# 3 -0.000789 -0.010544 0.012379 0.000000 -0.006932 0.000000
# 4 0.000000 0.000000 0.000000 0.063401 0.000000 -0.002505
# 5 -0.006081 0.005641 -0.006932 0.000000 0.053697 0.000000
# 6 0.000000 0.000000 0.000000 -0.002505 0.000000 0.028264
#
#
# Mechanical properties :
#
#
# Convention : Reuss Voigt Hill
#
# Bulk Modulus (GPa) = 30.97039 51.53989 41.25514
# Shear Modulus (GPa) = 19.63999 27.51281 23.57640
#
# Velocity S-wave (km/s) = 3.18449 3.76909 3.48906
# Velocity P-wave (km/s) = 5.43255 6.74935 6.12643
#
# Compressibility (1/GPa) = 0.03228891
#
# Stress axis : x y z
#
# Youngs Moduli (GPa) = 104.45885 23.03028 80.78274
#
# Poissons Ratio (x) = 0.11997 0.06375
# Poissons Ratio (y) = 0.54414 0.85176
# Poissons Ratio (z) = 0.08243 0.24283
#
# Static dielectric constant tensor:
#      x y z
#    x 3.640000 0.000000 0.053270 
#    y 0.000000 3.062470 0.000000 
#    z 0.053270 0.000000 3.899030 
# 
# 
# High freq. dielectric constant tensor:
#      x y z
#    x 1.764790 0.000000 0.006890 
#    y 0.000000 1.718280 0.000000 
#    z 0.006890 0.000000 1.755080 
# 
# From -- ./inp_files/375089.got.cif
#   From: 2010.06.25/outbox.cif.g09.slc.cpg/sg12_188_cif.got.tgz:375089.got - 2010.06.28 00:19:55.
