data_PCOD8114449
_publ_section_title
;
Structure prediction by ZEFSAII (Michael W. Deem and Ramdas Pophale) SiO2 
 PCOD8114449
Probable space group: C 2/M
;
_chemical_formula_sum "Si O2"
_cell_formula_units_Z 64
_cell_length_a 23.800192
_cell_length_b 30.004584
_cell_length_c 9.074237
_cell_angle_alpha 90.000000
_cell_angle_beta 151.192975
_cell_angle_gamma 90.000000
_cell_volume 3122.482900
_symmetry_space_group_name_H-M "C 2/M"
_symmetry_group_IT_number 12
_symmetry_cell_setting 'monoclinic'
loop_
_space_group_symop_operation_xyz
x,y,z
-x,y,-z
-x,-y,-z
x,-y,z
1/2+x,1/2+y,z
1/2-x,1/2+y,-z
1/2-x,1/2-y,-z
1/2+x,1/2-y,z
loop_
_atom_site_type_symbol
_atom_site_label
_atom_site_fract_x
_atom_site_fract_y
_atom_site_fract_z
Si Si1 0.244052 0.585877 0.664825
Si Si2 0.734047 0.662510 0.092067
Si Si3 0.163248 0.622903 0.178839
Si Si4 0.988835 0.548791 0.799371
Si Si5 0.508299 0.809190 0.345228
Si Si6 0.378043 0.633194 0.466726
Si Si7 0.981838 0.050538 0.128413
Si Si8 0.466423 0.707954 0.257389
O O1 0.309821 0.618789 0.925343
O O2 0.182748 0.615500 0.396584
O O3 0.145777 0.561483 0.538126
O O4 0.342077 0.552016 0.832376
O O5 0.870373 0.670298 0.426437
O O6 0.699314 0.652916 0.844070
O O7 0.673540 0.703382 0.043985
O O8 0.290045 0.624989 0.398188
O O9 0.094862 0.668344 0.985024
O O10 0.081112 0.582063 0.933133
O O11 0.014930 0.500000 0.792702
O O12 0.000000 0.548215 0.000000
O O13 0.500000 0.816985 0.500000
O O14 0.504276 0.757002 0.297069
O O15 0.446191 0.585830 0.604448
O O16 0.474333 0.672170 0.718791
O O17 0.024408 0.000000 0.260981
O O18 0.000000 0.063049 0.000000
O O19 0.500000 0.693927 0.500000
#
# Coordination Sequence:
#
# PCOD8114449 Si02
#       8
#     8   8   8   8   8   8   8   8
#     4  11  21  39  62  88 123 159 199 250 305 362
#     4  11  22  39  65  86 124 160 197 252 307 355
#     4  11  22  36  62  89 123 157 202 252 303 360
#     4   9  19  35  57  85 114 153 200 243 290 355
#     4  11  22  38  63  92 121 159 209 250 302 364
#     4  11  22  40  62  91 120 155 204 254 302 356
#     4  11  23  40  65  93 121 162 207 249 303 366
#     4   9  22  37  62  90 118 159 209 250 298 365
#
# _framework density 20.496507999999999
#
# number of rings (size 3 to 8) (size 9 to 14) (size 15 to 20)
#    0.000    1.500    5.000    0.375    1.750    2.500 
#    0.000    2.500    5.500    1.125    0.000    0.000 
#    0.000    0.000    0.000    0.000    0.000    0.000 
#
# Total GULP energy -396464.793582 kJ/mol
# GULP energy per Si atom -12389.524799 kJ/mol
# Density = 2.044986 g / cm^3
# Si number density = 20.496508 Si / 1000 Ang^3
#
#
#
# Elastic Constant Matrix: (Units=GPa)
#
#
# Indices 1 2 3 4 5 6 
#
# 1 71.8535 34.6717 14.4102 0.0000 28.1555 0.0000
# 2 34.6717 123.0712 18.1948 0.0000 10.7061 0.0000
# 3 14.4102 18.1948 53.7933 0.0000 21.2787 0.0000
# 4 0.0000 0.0000 0.0000 29.6800 0.0000 3.1969
# 5 28.1555 10.7061 21.2787 0.0000 32.2479 0.0000
# 6 0.0000 0.0000 0.0000 3.1969 0.0000 23.6745
#
#
#
# Elastic Compliance Matrix: (Units=1/GPa)
#
#
# Indices 1 2 3 4 5 6 
#
# 1 0.024507 -0.005577 0.004131 0.000000 -0.022271 0.000000
# 2 -0.005577 0.009860 -0.003346 0.000000 0.003804 0.000000
# 3 0.004131 -0.003346 0.026526 0.000000 -0.019999 0.000000
# 4 0.000000 0.000000 0.000000 0.034190 0.000000 -0.004617
# 5 -0.022271 0.003804 -0.019999 0.000000 0.062388 0.000000
# 6 0.000000 0.000000 0.000000 -0.004617 0.000000 0.042863
#
#
# Mechanical properties :
#
#
# Convention : Reuss Voigt Hill
#
# Bulk Modulus (GPa) = 19.48980 42.58571 31.03775
# Shear Modulus (GPa) = 22.02446 29.21656 25.62051
#
# Velocity S-wave (km/s) = 3.28158 3.77960 3.53936
# Velocity P-wave (km/s) = 4.88752 6.31421 5.64611
#
# Compressibility (1/GPa) = 0.05130889
#
# Stress axis : x y z
#
# Youngs Moduli (GPa) = 40.80507 101.41596 37.69957
#
# Poissons Ratio (x) = 0.56564 -0.15574
# Poissons Ratio (y) = 0.22759 0.12613
# Poissons Ratio (z) = -0.16857 0.33930
#
# Static dielectric constant tensor:
#      x y z
#    x 3.642040 0.000000 0.406810 
#    y 0.000000 3.732430 0.000000 
#    z 0.406810 0.000000 3.741210 
# 
# 
# High freq. dielectric constant tensor:
#      x y z
#    x 1.789020 0.000000 0.033790 
#    y 0.000000 1.803200 0.000000 
#    z 0.033790 0.000000 1.793930 
# 
# From -- ./inp_files/100248.got.cif
#   From: 2010.06.25/outbox.cif.g09.slc.cpg/sg12_51_cif.got.tgz:100248.got - 2010.06.28 00:19:55.
