data_PCOD8114468
_publ_section_title
;
Structure prediction by ZEFSAII (Michael W. Deem and Ramdas Pophale) SiO2 
 PCOD8114468
Probable space group: C 2/M
;
_chemical_formula_sum "Si O2"
_cell_formula_units_Z 60
_cell_length_a 21.141937
_cell_length_b 22.397242
_cell_length_c 12.267313
_cell_angle_alpha 90.000000
_cell_angle_beta 151.331028
_cell_angle_gamma 90.000000
_cell_volume 2786.777615
_symmetry_space_group_name_H-M "C 2/M"
_symmetry_group_IT_number 12
_symmetry_cell_setting 'monoclinic'
loop_
_space_group_symop_operation_xyz
x,y,z
-x,y,-z
-x,-y,-z
x,-y,z
1/2+x,1/2+y,z
1/2-x,1/2+y,-z
1/2-x,1/2-y,-z
1/2+x,1/2-y,z
loop_
_atom_site_type_symbol
_atom_site_label
_atom_site_fract_x
_atom_site_fract_y
_atom_site_fract_z
Si Si1 0.500000 0.757336 0.000000
Si Si2 0.042255 0.668978 0.264610
Si Si3 0.745814 0.568725 0.414119
Si Si4 0.109006 0.063563 0.756583
Si Si5 0.622858 0.787336 0.614567
Si Si6 0.410109 0.393867 0.618691
Si Si7 0.871376 0.842102 0.925805
Si Si8 0.732306 0.341902 0.804572
O O1 0.575654 0.797626 0.203135
O O2 0.620280 0.717453 0.135371
O O3 0.117103 0.605390 0.378741
O O4 0.084982 0.710494 0.430051
O O5 0.887207 0.660336 0.032476
O O6 0.773796 0.500000 0.423798
O O7 0.679426 0.568647 0.433430
O O8 0.648149 0.598805 0.177716
O O9 0.203129 0.118659 0.868430
O O10 0.000000 0.061919 0.500000
O O11 0.034903 0.069027 0.760377
O O12 0.186861 0.000000 0.875448
O O13 0.500000 0.810683 0.500000
O O14 0.747518 0.832158 0.820417
O O15 0.662180 0.721583 0.714702
O O16 0.318832 0.370439 0.384474
O O17 0.486734 0.341889 0.800056
#
# Coordination Sequence:
#
# PCOD8114468 Si02
#       8
#     4   8   8   8   8   8   8   8
#     4  12  20  44  64 102 132 168 222 268 340 394
#     4  11  26  42  68  95 136 180 217 274 335 408
#     4  11  25  43  64  96 135 177 225 273 330 398
#     4   9  20  37  58  87 123 165 213 264 324 384
#     4  11  25  42  65  97 134 174 219 276 333 401
#     4  11  21  39  66  96 127 170 220 274 332 384
#     4  11  24  40  69  99 130 174 216 281 330 398
#     4  11  23  40  63  96 129 172 217 277 327 398
#
# _framework density 21.530242999999999
#
# number of rings (size 3 to 8) (size 9 to 14) (size 15 to 20)
#    0.000    1.200    2.667    3.200    1.867    4.267 
#    0.000    2.333    0.000    1.600    0.000    0.000 
#    0.000    0.000    0.000    0.000    0.000    0.000 
#
# Total GULP energy -371862.059460 kJ/mol
# GULP energy per Si atom -12395.401982 kJ/mol
# Density = 2.148124 g / cm^3
# Si number density = 21.530243 Si / 1000 Ang^3
#
#
#
# Elastic Constant Matrix: (Units=GPa)
#
#
# Indices 1 2 3 4 5 6 
#
# 1 103.3785 38.3534 17.4003 0.0000 14.1002 0.0000
# 2 38.3534 123.1551 26.7165 0.0000 3.5726 0.0000
# 3 17.4003 26.7165 95.8963 0.0000 14.1598 0.0000
# 4 0.0000 0.0000 0.0000 74.1825 0.0000 -15.5002
# 5 14.1002 3.5726 14.1598 0.0000 34.1223 0.0000
# 6 0.0000 0.0000 0.0000 -15.5002 0.0000 35.9732
#
#
#
# Elastic Compliance Matrix: (Units=1/GPa)
#
#
# Indices 1 2 3 4 5 6 
#
# 1 0.011589 -0.003369 -0.000542 0.000000 -0.004211 0.000000
# 2 -0.003369 0.009622 -0.002265 0.000000 0.001325 0.000000
# 3 -0.000542 -0.002265 0.011813 0.000000 -0.004441 0.000000
# 4 0.000000 0.000000 0.000000 0.014814 0.000000 0.006383
# 5 -0.004211 0.001325 -0.004441 0.000000 0.032751 0.000000
# 6 0.000000 0.000000 0.000000 0.006383 0.000000 0.030549
#
#
# Mechanical properties :
#
#
# Convention : Reuss Voigt Hill
#
# Bulk Modulus (GPa) = 48.37718 54.15224 51.26471
# Shear Modulus (GPa) = 38.34928 44.85290 41.60109
#
# Velocity S-wave (km/s) = 4.22498 4.56922 4.40047
# Velocity P-wave (km/s) = 6.80579 7.28308 7.04848
#
# Compressibility (1/GPa) = 0.02067090
#
# Stress axis : x y z
#
# Youngs Moduli (GPa) = 86.29013 103.92839 84.65208
#
# Poissons Ratio (x) = 0.35016 0.04591
# Poissons Ratio (y) = 0.29073 0.19173
# Poissons Ratio (z) = 0.04680 0.23539
#
# Static dielectric constant tensor:
#      x y z
#    x 4.290720 0.000000 -0.118430 
#    y 0.000000 4.183010 0.000000 
#    z -0.118430 0.000000 3.865760 
# 
# 
# High freq. dielectric constant tensor:
#      x y z
#    x 1.857770 0.000000 -0.000300 
#    y 0.000000 1.833460 0.000000 
#    z -0.000300 0.000000 1.839800 
# 
# From -- ./inp_files/170394.got.cif
#   From: 2010.06.25/outbox.cif.g09.slc.cpg/sg12_86_cif.got.tgz:170394.got - 2010.06.28 00:19:55.
