data_PCOD8114525
_publ_section_title
;
Structure prediction by ZEFSAII (Michael W. Deem and Ramdas Pophale) SiO2 
 PCOD8114525
Probable space group: C 2/M
;
_chemical_formula_sum "Si O2"
_cell_formula_units_Z 40
_cell_length_a 18.277600
_cell_length_b 9.594478
_cell_length_c 25.087090
_cell_angle_alpha 90.000000
_cell_angle_beta 27.650399
_cell_angle_gamma 90.000000
_cell_volume 2041.640829
_symmetry_space_group_name_H-M "C 2/M"
_symmetry_group_IT_number 12
_symmetry_cell_setting 'monoclinic'
loop_
_space_group_symop_operation_xyz
x,y,z
-x,y,-z
-x,-y,-z
x,-y,z
1/2+x,1/2+y,z
1/2-x,1/2+y,-z
1/2-x,1/2-y,-z
1/2+x,1/2-y,z
loop_
_atom_site_type_symbol
_atom_site_label
_atom_site_fract_x
_atom_site_fract_y
_atom_site_fract_z
Si Si1 0.512006 0.000000 0.928272
Si Si2 0.865389 0.000000 0.697161
Si Si3 0.275062 0.225227 0.045941
Si Si4 0.412784 0.500000 0.999051
Si Si5 0.279135 0.500000 0.267513
Si Si6 0.225169 0.500000 0.426195
Si Si7 0.432074 0.500000 0.771945
Si Si8 0.973765 0.722503 0.578856
O O1 0.687394 0.000000 0.790324
O O2 0.500000 0.000000 0.000000
O O3 0.431224 0.863982 0.955844
O O4 0.840269 0.000000 0.776090
O O5 0.964949 0.867130 0.614922
O O6 0.119739 0.141369 0.164681
O O7 0.250000 0.250000 0.000000
O O8 0.298295 0.367329 0.064705
O O9 0.544597 0.500000 0.868053
O O10 0.500000 0.500000 0.000000
O O11 0.285815 0.500000 0.326632
O O12 0.186478 0.636702 0.307263
O O13 0.381916 0.500000 0.360479
O O14 0.122330 0.636439 0.505517
O O15 0.000000 0.750831 0.500000
#
# Coordination Sequence:
#
# PCOD8114525 Si02
#       8
#     4   4   8   4   4   4   4   8
#     4  11  21  41  65  89 130 171 202 242 327 381
#     4  12  22  36  62  89 122 156 202 261 314 367
#     4  11  23  41  60  89 127 167 210 246 297 379
#     4  12  24  34  63  97 126 151 211 257 298 362
#     4   9  18  37  63  84 114 157 194 251 313 358
#     4   9  19  42  61  81 115 162 206 250 308 373
#     4  11  25  39  61  81 125 174 201 243 330 373
#     4   9  20  37  62  89 114 148 209 259 306 368
#
# _framework density 19.592085000000001
#
# number of rings (size 3 to 8) (size 9 to 14) (size 15 to 20)
#    0.000    1.600    2.000    5.700    2.800    2.400 
#    0.000    1.000    0.000    0.000    0.000    0.000 
#    0.000    0.000    0.000    0.000    0.000    0.000 
#
# Total GULP energy -248002.979227 kJ/mol
# GULP energy per Si atom -12400.148961 kJ/mol
# Density = 1.954749 g / cm^3
# Si number density = 19.592085 Si / 1000 Ang^3
#
#
#
# Elastic Constant Matrix: (Units=GPa)
#
#
# Indices 1 2 3 4 5 6 
#
# 1 99.5527 48.9771 14.5824 0.0045 -6.0949 0.0039
# 2 48.9771 162.5719 44.3410 0.0102 -2.1310 0.0110
# 3 14.5824 44.3410 99.5538 0.0486 -16.6979 0.0442
# 4 0.0045 0.0102 0.0486 125.5097 0.0077 69.3008
# 5 -6.0949 -2.1310 -16.6979 0.0077 32.2159 0.0059
# 6 0.0039 0.0110 0.0442 69.3008 0.0059 76.0881
#
#
#
# Elastic Compliance Matrix: (Units=1/GPa)
#
#
# Indices 1 2 3 4 5 6 
#
# 1 0.011927 -0.003627 0.000226 0.000000 0.002134 0.000000
# 2 -0.003627 0.008152 -0.003422 0.000001 -0.001920 0.000001
# 3 0.000226 -0.003422 0.012600 -0.000002 0.006347 -0.000006
# 4 0.000000 0.000001 -0.000002 0.016028 -0.000002 -0.014598
# 5 0.002134 -0.001920 0.006347 -0.000002 0.034607 -0.000004
# 6 0.000000 0.000001 -0.000006 -0.014598 -0.000004 0.026439
#
#
# Mechanical properties :
#
#
# Convention : Reuss Voigt Hill
#
# Bulk Modulus (GPa) = 52.53641 64.16439 58.35040
# Shear Modulus (GPa) = 38.53801 63.68126 51.10964
#
# Velocity S-wave (km/s) = 4.43992 5.70737 5.11307
# Velocity P-wave (km/s) = 7.29090 8.73232 8.04396
#
# Compressibility (1/GPa) = 0.01903442
#
# Stress axis : x y z
#
# Youngs Moduli (GPa) = 83.84529 122.67171 79.36315
#
# Poissons Ratio (x) = 0.44491 -0.01796
# Poissons Ratio (y) = 0.30409 0.27155
# Poissons Ratio (z) = -0.01897 0.41974
#
# Static dielectric constant tensor:
#      x y z
#    x 3.492500 0.000000 -0.136440 
#    y 0.000000 3.991940 0.000000 
#    z -0.136440 0.000000 3.515920 
# 
# 
# High freq. dielectric constant tensor:
#      x y z
#    x 1.757800 0.000000 -0.007300 
#    y 0.000000 1.773110 0.000000 
#    z -0.007300 0.000000 1.759720 
# 
# From -- ./inp_files/362626.got.cif
#   From: 2010.06.25/outbox.cif.g09.slc.cpg/sg12_182_cif.got.tgz:362626.got - 2010.06.28 00:19:55.
