data_PCOD8114469
_publ_section_title
;
Structure prediction by ZEFSAII (Michael W. Deem and Ramdas Pophale) SiO2 
 PCOD8114469
Probable space group: C 2/M
;
_chemical_formula_sum "Si O2"
_cell_formula_units_Z 48
_cell_length_a 14.584081
_cell_length_b 20.793315
_cell_length_c 12.349189
_cell_angle_alpha 90.000000
_cell_angle_beta 143.425679
_cell_angle_gamma 90.000000
_cell_volume 2231.460064
_symmetry_space_group_name_H-M "C 2/M"
_symmetry_group_IT_number 12
_symmetry_cell_setting 'monoclinic'
loop_
_space_group_symop_operation_xyz
x,y,z
-x,y,-z
-x,-y,-z
x,-y,z
1/2+x,1/2+y,z
1/2-x,1/2+y,-z
1/2-x,1/2-y,-z
1/2+x,1/2-y,z
loop_
_atom_site_type_symbol
_atom_site_label
_atom_site_fract_x
_atom_site_fract_y
_atom_site_fract_z
Si Si1 0.522965 0.500000 0.692642
Si Si2 0.671831 0.072574 0.531686
Si Si3 0.740839 0.000000 0.270701
Si Si4 0.830294 0.637955 0.828076
Si Si5 0.630338 0.368852 0.853334
Si Si6 0.809047 0.572842 0.204806
Si Si7 0.685035 0.317035 0.476486
O O1 0.364457 0.500000 0.481176
O O2 0.673621 0.500000 0.761659
O O3 0.531441 0.434513 0.767260
O O4 0.489532 0.079396 0.358640
O O5 0.736004 0.085084 0.713394
O O6 0.738619 0.124615 0.514777
O O7 0.718942 0.000000 0.539017
O O8 0.639912 0.935449 0.184174
O O9 0.743961 0.639756 0.860414
O O10 0.723534 0.675011 0.640406
O O11 0.000000 0.669868 0.000000
O O12 0.499409 0.314021 0.720527
O O13 0.728419 0.370957 0.057124
O O14 0.759107 0.500000 0.122540
O O15 0.750000 0.250000 0.500000
#
# Coordination Sequence:
#
# PCOD8114469 Si02
#       7
#     4   8   4   8   8   8   8
#     4   9  16  30  58  95 129 154 200 253 318 383
#     4   9  21  41  67  95 130 173 216 274 328 387
#     4   9  17  32  60  95 128 161 193 255 329 381
#     4  11  23  41  65  97 130 163 212 263 330 401
#     4  11  21  39  66  97 130 169 205 271 331 387
#     4   9  18  39  68 103 130 160 220 275 332 390
#     4  12  27  45  61  92 133 175 226 267 322 389
#
# _framework density 21.510580000000001
#
# number of rings (size 3 to 8) (size 9 to 14) (size 15 to 20)
#    0.000    1.833    2.500    2.750    2.333    0.667 
#    9.000    3.333    0.000    0.000    0.000    0.000 
#    0.000    0.000    0.000    0.000    0.000    0.000 
#
# Total GULP energy -297483.878362 kJ/mol
# GULP energy per Si atom -12395.161598 kJ/mol
# Density = 2.146162 g / cm^3
# Si number density = 21.510580 Si / 1000 Ang^3
#
#
#
# Elastic Constant Matrix: (Units=GPa)
#
#
# Indices 1 2 3 4 5 6 
#
# 1 75.4875 34.2853 44.9460 0.0000 -2.2277 0.0000
# 2 34.2853 82.5188 33.9529 0.0000 0.4488 0.0000
# 3 44.9460 33.9529 152.0581 0.0000 -8.6574 0.0000
# 4 0.0000 0.0000 0.0000 15.3639 0.0000 3.9519
# 5 -2.2277 0.4488 -8.6574 0.0000 32.5968 0.0000
# 6 0.0000 0.0000 0.0000 3.9519 0.0000 -30.5507
#
#
#
# Elastic Compliance Matrix: (Units=1/GPa)
#
#
# Indices 1 2 3 4 5 6 
#
# 1 0.018400 -0.005962 -0.004093 0.000000 0.000252 0.000000
# 2 -0.005962 0.015308 -0.001717 0.000000 -0.001074 0.000000
# 3 -0.004093 -0.001717 0.008280 0.000000 0.001943 0.000000
# 4 0.000000 0.000000 0.000000 0.062992 0.000000 0.008148
# 5 0.000252 -0.001074 0.001943 0.000000 0.031226 0.000000
# 6 0.000000 0.000000 0.000000 0.008148 0.000000 -0.031678
#
#
# Mechanical properties :
#
#
# Convention : Reuss Voigt Hill
#
# Bulk Modulus (GPa) = 54.21893 59.60365 56.91129
# Shear Modulus (GPa) = 37.25264 16.60736 26.93000
#
# Velocity S-wave (km/s) = 4.16604 2.78160 3.54212
# Velocity P-wave (km/s) = 6.95713 6.17135 6.57599
#
# Compressibility (1/GPa) = 0.01844374
#
# Stress axis : x y z
#
# Youngs Moduli (GPa) = 54.34915 65.32587 120.76906
#
# Poissons Ratio (x) = 0.38947 0.49431
# Poissons Ratio (y) = 0.32403 0.20736
# Poissons Ratio (z) = 0.22245 0.11216
#
# Static dielectric constant tensor:
#      x y z
#    x 3.810650 0.000000 -0.034930 
#    y 0.000000 3.810840 0.000000 
#    z -0.034930 0.000000 4.097750 
# 
# 
# High freq. dielectric constant tensor:
#      x y z
#    x 1.845550 0.000000 0.000290 
#    y 0.000000 1.807090 0.000000 
#    z 0.000290 0.000000 1.858140 
# 
# From -- ./inp_files/148051.got.cif
#   From: 2010.06.25/outbox.cif.g09.slc.cpg/sg12_75_cif.got.tgz:148051.got - 2010.06.28 00:19:55.
