data_PCOD8114902
_publ_section_title
;
Structure prediction by ZEFSAII (Michael W. Deem and Ramdas Pophale) SiO2 
 PCOD8114902
Probable space group: C 2/M
;
_chemical_formula_sum "Si O2"
_cell_formula_units_Z 56
_cell_length_a 19.956452
_cell_length_b 8.811641
_cell_length_c 21.708555
_cell_angle_alpha 90.000000
_cell_angle_beta 130.548893
_cell_angle_gamma 90.000000
_cell_volume 2900.679598
_symmetry_space_group_name_H-M "C 2/M"
_symmetry_group_IT_number 12
_symmetry_cell_setting 'monoclinic'
loop_
_space_group_symop_operation_xyz
x,y,z
-x,y,-z
-x,-y,-z
x,-y,z
1/2+x,1/2+y,z
1/2-x,1/2+y,-z
1/2-x,1/2-y,-z
1/2+x,1/2-y,z
loop_
_atom_site_type_symbol
_atom_site_label
_atom_site_fract_x
_atom_site_fract_y
_atom_site_fract_z
Si Si1 0.052135 0.675776 0.348263
Si Si2 0.094246 0.177608 0.926240
Si Si3 0.104695 0.823462 0.158031
Si Si4 0.130518 0.678199 0.818005
Si Si5 0.317294 0.824120 0.681580
Si Si6 0.809573 0.321079 0.904235
Si Si7 0.318917 0.325023 0.496105
O O1 0.069263 0.500000 0.368111
O O2 0.109553 0.731760 0.324011
O O3 0.084627 0.755567 0.431311
O O4 0.950179 0.714518 0.276125
O O5 0.119659 0.225404 0.873146
O O6 0.992668 0.217357 0.877204
O O7 0.113647 0.000000 0.947379
O O8 0.154875 0.274023 0.007947
O O9 0.174178 0.775385 0.251980
O O10 0.120723 0.729265 0.105647
O O11 0.115704 0.000000 0.149542
O O12 0.134559 0.500000 0.836270
O O13 0.218136 0.734132 0.835936
O O14 0.217903 0.798891 0.595335
O O15 0.333454 0.000000 0.707939
O O16 0.794363 0.500000 0.892783
O O17 0.322946 0.500000 0.514289
O O18 0.250000 0.250000 0.500000
#
# Coordination Sequence:
#
# PCOD8114902 Si02
#       7
#     8   8   8   8   8   8   8
#     4   9  18  32  53  81 112 146 183 226 277 330
#     4  11  23  40  61  86 113 143 188 237 282 333
#     4  11  23  38  59  85 113 147 187 234 281 332
#     4  11  22  39  61  84 115 150 188 233 281 334
#     4   9  17  32  52  80 113 146 184 224 275 330
#     4  12  26  41  58  81 112 151 190 231 284 338
#     4   9  17  28  47  77 113 147 181 226 275 324
#
# _framework density 19.305820000000001
#
# number of rings (size 3 to 8) (size 9 to 14) (size 15 to 20)
#    0.000    1.714    1.429    4.714    0.000    7.429 
#    0.000    0.000    0.000    0.857    0.000    6.000 
#    0.000    0.000    0.000    0.000    0.000    0.000 
#
# Total GULP energy -347223.755406 kJ/mol
# GULP energy per Si atom -12400.848407 kJ/mol
# Density = 1.926188 g / cm^3
# Si number density = 19.305820 Si / 1000 Ang^3
#
#
#
# Elastic Constant Matrix: (Units=GPa)
#
#
# Indices 1 2 3 4 5 6 
#
# 1 46.3853 15.9610 14.7832 0.0000 4.8892 0.0000
# 2 15.9610 73.3769 42.0674 0.0000 7.3406 0.0000
# 3 14.7832 42.0674 95.9413 0.0000 24.9403 0.0000
# 4 0.0000 0.0000 0.0000 37.8692 0.0000 -1.2841
# 5 4.8892 7.3406 24.9403 0.0000 13.8571 0.0000
# 6 0.0000 0.0000 0.0000 -1.2841 0.0000 26.6124
#
#
#
# Elastic Compliance Matrix: (Units=1/GPa)
#
#
# Indices 1 2 3 4 5 6 
#
# 1 0.023763 -0.004464 -0.000262 0.000000 -0.005548 0.000000
# 2 -0.004464 0.019643 -0.010579 0.000000 0.010210 0.000000
# 3 -0.000262 -0.010579 0.025597 0.000000 -0.040374 0.000000
# 4 0.000000 0.000000 0.000000 0.026450 0.000000 0.001276
# 5 -0.005548 0.010210 -0.040374 0.000000 0.141380 0.000000
# 6 0.000000 0.000000 0.000000 0.001276 0.000000 0.037638
#
#
# Mechanical properties :
#
#
# Convention : Reuss Voigt Hill
#
# Bulk Modulus (GPa) = 26.04620 40.14740 33.09680
# Shear Modulus (GPa) = 15.72930 25.19389 20.46159
#
# Velocity S-wave (km/s) = 2.85747 3.61638 3.25909
# Velocity P-wave (km/s) = 4.94039 6.18694 5.59847
#
# Compressibility (1/GPa) = 0.03839332
#
# Stress axis : x y z
#
# Youngs Moduli (GPa) = 42.08260 50.90907 39.06643
#
# Poissons Ratio (x) = 0.22724 0.01024
# Poissons Ratio (y) = 0.18784 0.41329
# Poissons Ratio (z) = 0.01103 0.53857
#
# Static dielectric constant tensor:
#      x y z
#    x 3.283210 0.000000 0.237020 
#    y 0.000000 3.621140 0.000000 
#    z 0.237020 0.000000 3.917660 
# 
# 
# High freq. dielectric constant tensor:
#      x y z
#    x 1.714460 0.000000 0.014330 
#    y 0.000000 1.759660 0.000000 
#    z 0.014330 0.000000 1.766260 
# 
# From -- ./inp_files/320199.got.cif
#   From: 2010.06.25/outbox.cif.g09.slc.cpg/sg12_161_cif.got.tgz:320199.got - 2010.06.28 00:19:55.
