data_PCOD8114191
_publ_section_title
;
Structure prediction by ZEFSAII (Michael W. Deem and Ramdas Pophale) SiO2 
 PCOD8114191
Probable space group: C 2/M
;
_chemical_formula_sum "Si O2"
_cell_formula_units_Z 56
_cell_length_a 32.567976
_cell_length_b 8.666012
_cell_length_c 12.527647
_cell_angle_alpha 90.000000
_cell_angle_beta 55.577704
_cell_angle_gamma 90.000000
_cell_volume 2916.604149
_symmetry_space_group_name_H-M "C 2/M"
_symmetry_group_IT_number 12
_symmetry_cell_setting 'monoclinic'
loop_
_space_group_symop_operation_xyz
x,y,z
-x,y,-z
-x,-y,-z
x,-y,z
1/2+x,1/2+y,z
1/2-x,1/2+y,-z
1/2-x,1/2-y,-z
1/2+x,1/2-y,z
loop_
_atom_site_type_symbol
_atom_site_label
_atom_site_fract_x
_atom_site_fract_y
_atom_site_fract_z
Si Si1 0.723562 0.180950 0.438354
Si Si2 0.852894 0.681768 0.745262
Si Si3 0.138121 0.818379 0.051582
Si Si4 0.253187 0.317164 0.168935
Si Si5 0.438532 0.182206 0.998083
Si Si6 0.043983 0.818777 0.806214
Si Si7 0.385602 0.819922 0.462812
O O1 0.750000 0.250000 0.500000
O O2 0.750526 0.247795 0.293436
O O3 0.665503 0.225413 0.521235
O O4 0.729836 0.000000 0.433306
O O5 0.855138 0.500000 0.763180
O O6 0.879757 0.769747 0.803681
O O7 0.795508 0.741815 0.823382
O O8 0.881936 0.723181 0.593508
O O9 0.107945 0.729236 0.005634
O O10 0.131688 0.000000 0.043305
O O11 0.195472 0.762064 0.958868
O O12 0.249563 0.500000 0.179145
O O13 0.487157 0.265133 0.879953
O O14 0.446471 0.000000 0.983339
O O15 0.428971 0.234597 0.134105
O O16 0.070737 0.777465 0.655979
O O17 0.045797 0.000000 0.823899
O O18 0.397321 0.000000 0.432251
#
# Coordination Sequence:
#
# PCOD8114191 Si02
#       7
#     8   8   8   8   8   8   8
#     4   9  18  32  49  75 109 145 186 227 269 321
#     4   9  18  36  57  79 111 153 193 227 269 329
#     4  11  21  34  55  84 116 146 186 236 281 321
#     4   8  17  33  52  75 110 151 186 225 274 322
#     4  11  23  40  60  83 112 145 184 225 275 338
#     4  11  22  39  62  86 112 140 179 230 286 334
#     4   9  19  36  57  79 110 150 188 224 275 335
#
# _framework density 19.200412
#
# number of rings (size 3 to 8) (size 9 to 14) (size 15 to 20)
#    0.000    2.286    0.000    6.000    2.000    1.143 
#    0.000    4.286    0.000    4.286    0.000    0.000 
#    0.000    0.000    0.000    0.000    0.000    0.000 
#
# Total GULP energy -347164.966991 kJ/mol
# GULP energy per Si atom -12398.748821 kJ/mol
# Density = 1.915671 g / cm^3
# Si number density = 19.200412 Si / 1000 Ang^3
#
#
#
# Elastic Constant Matrix: (Units=GPa)
#
#
# Indices 1 2 3 4 5 6 
#
# 1 64.1857 16.4856 35.8561 0.0000 12.6087 0.0000
# 2 16.4856 53.2330 30.0380 0.0000 -2.4893 0.0000
# 3 35.8561 30.0380 103.9834 0.0000 0.2760 0.0000
# 4 0.0000 0.0000 0.0000 28.3796 0.0000 4.2307
# 5 12.6087 -2.4893 0.2760 0.0000 23.7276 0.0000
# 6 0.0000 0.0000 0.0000 4.2307 0.0000 31.6402
#
#
#
# Elastic Compliance Matrix: (Units=1/GPa)
#
#
# Indices 1 2 3 4 5 6 
#
# 1 0.022749 -0.003844 -0.006701 0.000000 -0.012414 0.000000
# 2 -0.003844 0.023234 -0.005398 0.000000 0.004543 0.000000
# 3 -0.006701 -0.005398 0.013479 0.000000 0.002838 0.000000
# 4 0.000000 0.000000 0.000000 0.035953 0.000000 -0.004807
# 5 -0.012414 0.004543 0.002838 0.000000 0.049185 0.000000
# 6 0.000000 0.000000 0.000000 -0.004807 0.000000 0.032248
#
#
# Mechanical properties :
#
#
# Convention : Reuss Voigt Hill
#
# Bulk Modulus (GPa) = 36.26367 42.90684 39.58525
# Shear Modulus (GPa) = 22.94323 26.01764 24.48044
#
# Velocity S-wave (km/s) = 3.46053 3.68510 3.57458
# Velocity P-wave (km/s) = 5.90720 6.36412 6.13991
#
# Compressibility (1/GPa) = 0.02757581
#
# Stress axis : x y z
#
# Youngs Moduli (GPa) = 43.95756 43.03954 74.18705
#
# Poissons Ratio (x) = 0.16546 0.49713
# Poissons Ratio (y) = 0.16899 0.40048
# Poissons Ratio (z) = 0.29456 0.23234
#
# Static dielectric constant tensor:
#      x y z
#    x 3.392240 0.000000 -0.028050 
#    y 0.000000 3.332390 0.000000 
#    z -0.028050 0.000000 3.557850 
# 
# 
# High freq. dielectric constant tensor:
#      x y z
#    x 1.737400 0.000000 0.009290 
#    y 0.000000 1.735270 0.000000 
#    z 0.009290 0.000000 1.753710 
# 
# From -- ./inp_files/187244.got.cif
#   From: 2010.06.25/outbox.cif.g09.slc.cpg/sg12_94_cif.got.tgz:187244.got - 2010.06.28 00:19:55.
