data_PCOD8114993
_publ_section_title
;
Structure prediction by ZEFSAII (Michael W. Deem and Ramdas Pophale) SiO2 
 PCOD8114993
Probable space group: C 2/M
;
_chemical_formula_sum "Si O2"
_cell_formula_units_Z 56
_cell_length_a 19.582418
_cell_length_b 17.516050
_cell_length_c 19.542613
_cell_angle_alpha 90.000000
_cell_angle_beta 157.254056
_cell_angle_gamma 90.000000
_cell_volume 2591.780894
_symmetry_space_group_name_H-M "C 2/M"
_symmetry_group_IT_number 12
_symmetry_cell_setting 'monoclinic'
loop_
_space_group_symop_operation_xyz
x,y,z
-x,y,-z
-x,-y,-z
x,-y,z
1/2+x,1/2+y,z
1/2-x,1/2+y,-z
1/2-x,1/2-y,-z
1/2+x,1/2-y,z
loop_
_atom_site_type_symbol
_atom_site_label
_atom_site_fract_x
_atom_site_fract_y
_atom_site_fract_z
Si Si1 0.499541 0.853304 0.076510
Si Si2 0.077042 0.839097 0.378862
Si Si3 0.867267 0.087037 0.436253
Si Si4 0.512493 0.679085 0.932658
Si Si5 0.849411 0.412872 0.197830
Si Si6 0.313475 0.824935 0.470579
Si Si7 0.257858 0.085404 0.965318
O O1 0.700900 0.856854 0.286562
O O2 0.429056 0.767242 0.017874
O O3 0.500000 0.884683 0.000000
O O4 0.378366 0.907648 0.009710
O O5 0.053715 0.905288 0.414730
O O6 0.228411 0.854321 0.462974
O O7 0.108086 0.759339 0.445637
O O8 0.889347 0.847385 0.166891
O O9 0.000000 0.116471 0.500000
O O10 0.813030 0.000000 0.370787
O O11 0.326666 0.668441 0.720840
O O12 0.500000 0.654165 0.000000
O O13 0.664743 0.628042 0.041610
O O14 0.832653 0.500000 0.206452
O O15 0.018078 0.377093 0.392466
O O16 0.882130 0.404683 0.146626
O O17 0.174248 0.000000 0.888976
#
# Coordination Sequence:
#
# PCOD8114993 Si02
#       7
#     8   8   8   8   8   8   8
#     4  11  23  40  62  93 130 176 226 267 319 391
#     4  11  22  40  66  96 134 175 224 272 322 387
#     4  11  23  38  59  93 138 180 217 260 318 387
#     4  11  25  48  71  97 131 174 221 282 344 400
#     4  11  26  45  69 101 131 170 223 280 345 410
#     4  11  24  43  70 100 129 173 225 278 338 393
#     4  11  23  39  64  96 137 181 219 271 330 390
#
# _framework density 21.606763999999998
#
# number of rings (size 3 to 8) (size 9 to 14) (size 15 to 20)
#    0.000    1.000    2.857    3.429    2.000    8.286 
#    0.000    0.714    0.000    0.000    0.000    0.000 
#    0.000    0.000    0.000    0.000    0.000    0.000 
#
# Total GULP energy -347173.107922 kJ/mol
# GULP energy per Si atom -12399.039569 kJ/mol
# Density = 2.155759 g / cm^3
# Si number density = 21.606764 Si / 1000 Ang^3
#
#
#
# Elastic Constant Matrix: (Units=GPa)
#
#
# Indices 1 2 3 4 5 6 
#
# 1 99.2089 47.7425 38.4555 -0.0027 -6.9013 0.0134
# 2 47.7425 86.5632 53.2965 0.0363 6.2603 0.0289
# 3 38.4555 53.2965 133.2138 0.0076 3.2409 0.0181
# 4 -0.0027 0.0363 0.0076 33.8560 0.0024 0.2287
# 5 -6.9013 6.2603 3.2409 0.0024 37.3029 0.0108
# 6 0.0134 0.0289 0.0181 0.2287 0.0108 14.1672
#
#
#
# Elastic Compliance Matrix: (Units=1/GPa)
#
#
# Indices 1 2 3 4 5 6 
#
# 1 0.014455 -0.007477 -0.001280 0.000009 0.004040 0.000000
# 2 -0.007477 0.019352 -0.005483 -0.000020 -0.004155 -0.000022
# 3 -0.001280 -0.005483 0.010075 0.000004 -0.000192 0.000000
# 4 0.000009 -0.000020 0.000004 0.029540 0.000003 -0.000477
# 5 0.004040 -0.004155 -0.000192 0.000003 0.028269 -0.000017
# 6 0.000000 -0.000022 0.000000 -0.000477 -0.000017 0.070593
#
#
# Mechanical properties :
#
#
# Convention : Reuss Voigt Hill
#
# Bulk Modulus (GPa) = 64.92381 66.44163 65.68272
# Shear Modulus (GPa) = 24.28398 29.03131 26.65765
#
# Velocity S-wave (km/s) = 3.35611 3.66952 3.51631
# Velocity P-wave (km/s) = 6.71797 6.98362 6.85208
#
# Compressibility (1/GPa) = 0.01540267
#
# Stress axis : x y z
#
# Youngs Moduli (GPa) = 69.18106 51.67366 99.26007
#
# Poissons Ratio (x) = 0.38634 0.12703
# Poissons Ratio (y) = 0.51723 0.54425
# Poissons Ratio (z) = 0.08854 0.28333
#
# Static dielectric constant tensor:
#      x y z
#    x 4.094720 -0.000060 -0.322610 
#    y -0.000060 3.697620 -0.000050 
#    z -0.322610 -0.000050 4.065610 
# 
# 
# High freq. dielectric constant tensor:
#      x y z
#    x 1.850260 -0.000010 -0.005350 
#    y -0.000010 1.841420 -0.000010 
#    z -0.005350 -0.000010 1.856150 
# 
# From -- ./inp_files/322713.got.cif
#   From: 2010.06.25/outbox.cif.g09.slc.cpg/sg12_162_cif.got.tgz:322713.got - 2010.06.28 00:19:55.
