data_PCOD8114946
_publ_section_title
;
Structure prediction by ZEFSAII (Michael W. Deem and Ramdas Pophale) SiO2 
 PCOD8114946
Probable space group: C 2/M
;
_chemical_formula_sum "Si O2"
_cell_formula_units_Z 56
_cell_length_a 14.412685
_cell_length_b 14.710384
_cell_length_c 22.581209
_cell_angle_alpha 90.000000
_cell_angle_beta 32.856333
_cell_angle_gamma 90.000000
_cell_volume 2597.427101
_symmetry_space_group_name_H-M "C 2/M"
_symmetry_group_IT_number 12
_symmetry_cell_setting 'monoclinic'
loop_
_space_group_symop_operation_xyz
x,y,z
-x,y,-z
-x,-y,-z
x,-y,z
1/2+x,1/2+y,z
1/2-x,1/2+y,-z
1/2-x,1/2-y,-z
1/2+x,1/2-y,z
loop_
_atom_site_type_symbol
_atom_site_label
_atom_site_fract_x
_atom_site_fract_y
_atom_site_fract_z
Si Si1 0.533895 0.152290 0.916353
Si Si2 0.242199 0.604696 0.024199
Si Si3 0.122758 0.845519 0.834003
Si Si4 0.366125 0.602770 0.681915
Si Si5 0.625191 0.099688 0.215024
Si Si6 0.821882 0.267288 0.621709
Si Si7 0.099911 0.762203 0.626665
O O1 0.359215 0.157968 0.972276
O O2 0.607256 0.253297 0.879777
O O3 0.675403 0.089171 0.809669
O O4 0.500000 0.114338 0.000000
O O5 0.197540 0.500000 0.040719
O O6 0.177189 0.639394 0.122991
O O7 0.442793 0.619181 0.906508
O O8 0.203338 0.915307 0.837794
O O9 0.255949 0.832261 0.708906
O O10 0.434631 0.500000 0.631128
O O11 0.354756 0.664182 0.628303
O O12 0.486000 0.651933 0.666865
O O13 0.507688 0.169424 0.313970
O O14 0.537268 0.000000 0.255925
O O15 0.675320 0.274083 0.651322
O O16 0.000000 0.304998 0.500000
O O17 0.250000 0.750000 0.500000
#
# Coordination Sequence:
#
# PCOD8114946 Si02
#       7
#     8   8   8   8   8   8   8
#     4  11  23  40  63  88 133 177 215 265 337 398
#     4  11  24  39  62  99 132 168 224 276 325 401
#     4  11  22  39  66  97 127 174 219 269 334 406
#     4  11  25  45  69 102 136 178 232 283 338 406
#     4  11  22  41  68  98 132 171 218 278 338 399
#     4  11  23  45  70  95 133 175 226 284 339 401
#     4  12  24  45  70  98 136 175 226 282 343 404
#
# _framework density 21.559797
#
# number of rings (size 3 to 8) (size 9 to 14) (size 15 to 20)
#    0.000    0.857    4.286    4.286    2.000    4.857 
#    0.000    0.714    0.000    3.000    0.000    0.000 
#    0.000    0.000    0.000    0.000    0.000    0.000 
#
# Total GULP energy -347163.173364 kJ/mol
# GULP energy per Si atom -12398.684763 kJ/mol
# Density = 2.151073 g / cm^3
# Si number density = 21.559797 Si / 1000 Ang^3
#
#
#
# Elastic Constant Matrix: (Units=GPa)
#
#
# Indices 1 2 3 4 5 6 
#
# 1 167.5473 21.3720 40.5250 0.0003 -1.4624 -0.0001
# 2 21.3720 76.2825 20.7826 -0.0007 2.6530 0.0003
# 3 40.5250 20.7826 134.9310 0.0007 4.6388 0.0015
# 4 0.0003 -0.0007 0.0007 20.4202 0.0002 0.4199
# 5 -1.4624 2.6530 4.6388 0.0002 39.3057 -0.0001
# 6 -0.0001 0.0003 0.0015 0.4199 -0.0001 13.0942
#
#
#
# Elastic Compliance Matrix: (Units=1/GPa)
#
#
# Indices 1 2 3 4 5 6 
#
# 1 0.006580 -0.001377 -0.001783 0.000000 0.000548 0.000000
# 2 -0.001377 0.013989 -0.001714 0.000001 -0.000793 0.000000
# 3 -0.001783 -0.001714 0.008242 0.000000 -0.000923 -0.000001
# 4 0.000000 0.000001 0.000000 0.049003 0.000000 -0.001571
# 5 0.000548 -0.000793 -0.000923 0.000000 0.025624 0.000000
# 6 0.000000 0.000000 -0.000001 -0.001571 0.000000 0.076420
#
#
# Mechanical properties :
#
#
# Convention : Reuss Voigt Hill
#
# Bulk Modulus (GPa) = 52.45375 60.45777 56.45576
# Shear Modulus (GPa) = 25.51513 34.30279 29.90896
#
# Velocity S-wave (km/s) = 3.44388 3.99313 3.72863
# Velocity P-wave (km/s) = 6.34003 7.02587 6.69174
#
# Compressibility (1/GPa) = 0.01906441
#
# Stress axis : x y z
#
# Youngs Moduli (GPa) = 151.97233 71.48241 121.32327
#
# Poissons Ratio (x) = 0.09842 0.21633
# Poissons Ratio (y) = 0.20924 0.20794
# Poissons Ratio (z) = 0.27097 0.12252
#
# Static dielectric constant tensor:
#      x y z
#    x 4.296470 0.000010 -0.092660 
#    y 0.000010 3.732160 0.000000 
#    z -0.092660 0.000000 3.929830 
# 
# 
# High freq. dielectric constant tensor:
#      x y z
#    x 1.861540 0.000000 -0.005020 
#    y 0.000000 1.832280 0.000000 
#    z -0.005020 0.000000 1.848620 
# 
# From -- ./inp_files/340288.got.cif
#   From: 2010.06.25/outbox.cif.g09.slc.cpg/sg12_171_cif.got.tgz:340288.got - 2010.06.28 00:19:55.
