data_PCOD8114840
_publ_section_title
;
Structure prediction by ZEFSAII (Michael W. Deem and Ramdas Pophale) SiO2 
 PCOD8114840
Probable space group: C 2/M
;
_chemical_formula_sum "Si O2"
_cell_formula_units_Z 40
_cell_length_a 25.143838
_cell_length_b 15.636584
_cell_length_c 13.685781
_cell_angle_alpha 90.000000
_cell_angle_beta 159.252660
_cell_angle_gamma 90.000000
_cell_volume 1906.118881
_symmetry_space_group_name_H-M "C 2/M"
_symmetry_group_IT_number 12
_symmetry_cell_setting 'monoclinic'
loop_
_space_group_symop_operation_xyz
x,y,z
-x,y,-z
-x,-y,-z
x,-y,z
1/2+x,1/2+y,z
1/2-x,1/2+y,-z
1/2-x,1/2-y,-z
1/2+x,1/2-y,z
loop_
_atom_site_type_symbol
_atom_site_label
_atom_site_fract_x
_atom_site_fract_y
_atom_site_fract_z
Si Si1 0.096179 0.598051 0.475088
Si Si2 0.865914 0.905481 0.695775
Si Si3 0.421115 0.756519 0.268659
Si Si4 0.072950 0.825769 0.925300
Si Si5 0.060519 0.338829 0.206882
O O1 0.107560 0.500000 0.529550
O O2 0.036677 0.600676 0.261085
O O3 0.979129 0.647321 0.344746
O O4 0.258099 0.644249 0.762143
O O5 0.740605 0.833424 0.500057
O O6 0.947153 0.898213 0.729481
O O7 0.794453 0.000000 0.585027
O O8 0.000000 0.889124 0.000000
O O9 0.500000 0.718777 0.500000
O O10 0.453870 0.697217 0.232714
O O11 0.250000 0.750000 0.000000
O O12 0.024682 0.749381 0.916408
O O13 0.000000 0.377782 0.000000
#
# Coordination Sequence:
#
# PCOD8114840 Si02
#       5
#     8   8   8   8   8
#     4  11  24  43  69  99 128 171 220 265 321 392
#     4  11  22  38  61  93 134 175 216 258 310 382
#     4  11  24  45  68  99 125 167 215 278 333 388
#     4  11  23  39  67  95 127 170 224 263 310 391
#     4  11  25  38  63  97 138 176 213 262 320 377
#
# _framework density 20.985050000000001
#
# number of rings (size 3 to 8) (size 9 to 14) (size 15 to 20)
#    0.000    1.000    4.000    2.400    5.600    2.000 
#    0.000    0.000    0.000    4.200    0.000    0.000 
#    0.000    0.000    0.000    0.000    0.000    0.000 
#
# Total GULP energy -247783.562987 kJ/mol
# GULP energy per Si atom -12389.178149 kJ/mol
# Density = 2.093729 g / cm^3
# Si number density = 20.985050 Si / 1000 Ang^3
#
#
#
# Elastic Constant Matrix: (Units=GPa)
#
#
# Indices 1 2 3 4 5 6 
#
# 1 149.3447 41.7043 65.1691 0.0000 -2.3687 0.0000
# 2 41.7043 111.1461 62.5144 0.0000 9.9443 0.0000
# 3 65.1691 62.5144 130.3909 0.0000 12.6559 0.0000
# 4 0.0000 0.0000 0.0000 17.3608 0.0000 11.4101
# 5 -2.3687 9.9443 12.6559 0.0000 56.3858 0.0000
# 6 0.0000 0.0000 0.0000 11.4101 0.0000 22.1001
#
#
#
# Elastic Compliance Matrix: (Units=1/GPa)
#
#
# Indices 1 2 3 4 5 6 
#
# 1 0.008781 -0.001202 -0.003955 0.000000 0.001468 0.000000
# 2 -0.001202 0.012525 -0.005301 0.000000 -0.001070 0.000000
# 3 -0.003955 -0.005301 0.012382 0.000000 -0.002011 0.000000
# 4 0.000000 0.000000 0.000000 0.087185 0.000000 -0.045013
# 5 0.001468 -0.001070 -0.002011 0.000000 0.018437 0.000000
# 6 0.000000 0.000000 0.000000 -0.045013 0.000000 0.068489
#
#
# Mechanical properties :
#
#
# Convention : Reuss Voigt Hill
#
# Bulk Modulus (GPa) = 78.28572 81.07305 79.67938
# Shear Modulus (GPa) = 21.46194 33.93559 27.69876
#
# Velocity S-wave (km/s) = 3.20148 4.02572 3.63702
# Velocity P-wave (km/s) = 7.14510 7.76699 7.46252
#
# Compressibility (1/GPa) = 0.01277372
#
# Stress axis : x y z
#
# Youngs Moduli (GPa) = 113.88796 79.83975 80.75971
#
# Poissons Ratio (x) = 0.09593 0.31940
# Poissons Ratio (y) = 0.13684 0.42808
# Poissons Ratio (z) = 0.45042 0.42320
#
# Static dielectric constant tensor:
#      x y z
#    x 4.939170 0.000000 0.506690 
#    y 0.000000 3.770880 0.000000 
#    z 0.506690 0.000000 4.002900 
# 
# 
# High freq. dielectric constant tensor:
#      x y z
#    x 1.837960 0.000000 0.006990 
#    y 0.000000 1.801990 0.000000 
#    z 0.006990 0.000000 1.824490 
# 
# From -- ./inp_files/195302.got.cif
#   From: 2010.06.25/outbox.cif.g09.slc.cpg/sg12_98_cif.got.tgz:195302.got - 2010.06.28 00:19:55.
