data_PCOD8114194
_publ_section_title
;
Structure prediction by ZEFSAII (Michael W. Deem and Ramdas Pophale) SiO2 
 PCOD8114194
Probable space group: C 2/M
;
_chemical_formula_sum "Si O2"
_cell_formula_units_Z 48
_cell_length_a 9.672707
_cell_length_b 24.132158
_cell_length_c 15.183520
_cell_angle_alpha 90.000000
_cell_angle_beta 39.116635
_cell_angle_gamma 90.000000
_cell_volume 2236.031614
_symmetry_space_group_name_H-M "C 2/M"
_symmetry_group_IT_number 12
_symmetry_cell_setting 'monoclinic'
loop_
_space_group_symop_operation_xyz
x,y,z
-x,y,-z
-x,-y,-z
x,-y,z
1/2+x,1/2+y,z
1/2-x,1/2+y,-z
1/2-x,1/2-y,-z
1/2+x,1/2-y,z
loop_
_atom_site_type_symbol
_atom_site_label
_atom_site_fract_x
_atom_site_fract_y
_atom_site_fract_z
Si Si1 0.033284 0.626772 0.582209
Si Si2 0.247404 0.563461 0.136356
Si Si3 0.930232 0.739901 0.704841
Si Si4 0.517960 0.224256 0.124664
Si Si5 0.461328 0.100634 0.116591
Si Si6 0.000252 0.861543 0.601588
O O1 0.856408 0.600820 0.735812
O O2 0.015040 0.693824 0.594452
O O3 0.000000 0.605586 0.500000
O O4 0.277150 0.606163 0.485786
O O5 0.239928 0.500000 0.171098
O O6 0.110077 0.568438 0.113666
O O7 0.500000 0.582719 0.000000
O O8 0.664328 0.740016 0.837064
O O9 0.037826 0.721571 0.744151
O O10 0.004138 0.801977 0.646794
O O11 0.538157 0.163711 0.074626
O O12 0.750000 0.250000 0.000000
O O13 0.203373 0.099508 0.269479
O O14 0.500000 0.074518 0.000000
O O15 0.000000 0.848500 0.500000
#
# Coordination Sequence:
#
# PCOD8114194 Si02
#       6
#     8   8   8   8   8   8
#     4  12  24  40  68  98 132 180 216 269 338 400
#     4  11  27  50  72  97 130 172 226 285 340 394
#     4  11  21  35  56  93 136 176 218 261 321 397
#     4  11  21  34  55  95 133 177 221 266 316 395
#     4  11  24  43  68  95 133 171 220 280 330 391
#     4  11  21  41  61  99 137 174 219 271 318 398
#
# _framework density 21.4666
#
# number of rings (size 3 to 8) (size 9 to 14) (size 15 to 20)
#    0.000    0.833    3.333    5.500    4.667    0.667 
#    0.000    1.667    0.000    0.000    0.000    0.000 
#    0.000    0.000    0.000    0.000    0.000    0.000 
#
# Total GULP energy -297590.860990 kJ/mol
# GULP energy per Si atom -12399.619208 kJ/mol
# Density = 2.141774 g / cm^3
# Si number density = 21.466600 Si / 1000 Ang^3
#
#
#
# Elastic Constant Matrix: (Units=GPa)
#
#
# Indices 1 2 3 4 5 6 
#
# 1 118.9312 24.8190 50.8587 0.0000 3.3773 0.0000
# 2 24.8190 35.8316 26.5287 0.0000 -7.5336 0.0000
# 3 50.8587 26.5287 138.7979 0.0000 -15.9976 0.0000
# 4 0.0000 0.0000 0.0000 16.3042 0.0000 -7.8842
# 5 3.3773 -7.5336 -15.9976 0.0000 60.1022 0.0000
# 6 0.0000 0.0000 0.0000 -7.8842 0.0000 19.2608
#
#
#
# Elastic Compliance Matrix: (Units=1/GPa)
#
#
# Indices 1 2 3 4 5 6 
#
# 1 0.011036 -0.005735 -0.003200 0.000000 -0.002191 0.000000
# 2 -0.005735 0.035857 -0.004329 0.000000 0.003664 0.000000
# 3 -0.003200 -0.004329 0.009453 0.000000 0.002153 0.000000
# 4 0.000000 0.000000 0.000000 0.076471 0.000000 0.031303
# 5 -0.002191 0.003664 0.002153 0.000000 0.017794 0.000000
# 6 0.000000 0.000000 0.000000 0.031303 0.000000 0.064732
#
#
# Mechanical properties :
#
#
# Convention : Reuss Voigt Hill
#
# Bulk Modulus (GPa) = 33.53929 55.33039 44.43484
# Shear Modulus (GPa) = 19.85614 31.89038 25.87326
#
# Velocity S-wave (km/s) = 3.04464 3.85851 3.47548
# Velocity P-wave (km/s) = 5.29317 6.75883 6.07040
#
# Compressibility (1/GPa) = 0.02981578
#
# Stress axis : x y z
#
# Youngs Moduli (GPa) = 90.61453 27.88871 105.78684
#
# Poissons Ratio (x) = 0.15995 0.33852
# Poissons Ratio (y) = 0.51971 0.45800
# Poissons Ratio (z) = 0.28997 0.12074
#
# Static dielectric constant tensor:
#      x y z
#    x 6.110210 0.000000 0.998900 
#    y 0.000000 3.458770 0.000000 
#    z 0.998900 0.000000 4.553940 
# 
# 
# High freq. dielectric constant tensor:
#      x y z
#    x 1.863300 0.000000 -0.006360 
#    y 0.000000 1.802420 0.000000 
#    z -0.006360 0.000000 1.857570 
# 
# From -- ./inp_files/200106.got.cif
#   From: 2010.06.25/outbox.cif.g09.slc.cpg/sg12_101_cif.got.tgz:200106.got - 2010.06.28 00:19:55.
