data_PCOD8114719
_publ_section_title
;
Structure prediction by ZEFSAII (Michael W. Deem and Ramdas Pophale) SiO2 
 PCOD8114719
Probable space group: C 2/M
;
_chemical_formula_sum "Si O2"
_cell_formula_units_Z 64
_cell_length_a 27.646090
_cell_length_b 14.655833
_cell_length_c 19.242526
_cell_angle_alpha 90.000000
_cell_angle_beta 24.384372
_cell_angle_gamma 90.000000
_cell_volume 3218.881026
_symmetry_space_group_name_H-M "C 2/M"
_symmetry_group_IT_number 12
_symmetry_cell_setting 'monoclinic'
loop_
_space_group_symop_operation_xyz
x,y,z
-x,y,-z
-x,-y,-z
x,-y,z
1/2+x,1/2+y,z
1/2-x,1/2+y,-z
1/2-x,1/2-y,-z
1/2+x,1/2-y,z
loop_
_atom_site_type_symbol
_atom_site_label
_atom_site_fract_x
_atom_site_fract_y
_atom_site_fract_z
Si Si1 0.354728 0.761801 0.810048
Si Si2 0.999764 0.781069 0.918373
Si Si3 0.376128 0.393009 0.352943
Si Si4 0.253942 0.597314 0.720328
Si Si5 0.755349 0.718683 0.789845
Si Si6 0.959716 0.396084 0.473158
Si Si7 0.499943 0.600035 0.673402
Si Si8 0.869925 0.604626 0.256516
O O1 0.295568 0.788309 0.815619
O O2 0.447735 0.844897 0.699398
O O3 0.425039 0.667120 0.722686
O O4 0.250000 0.750000 0.000000
O O5 0.099645 0.841999 0.751188
O O6 0.024961 0.675008 0.864528
O O7 0.000000 0.799532 0.000000
O O8 0.876764 0.814482 0.047690
O O9 0.388409 0.500000 0.324657
O O10 0.473570 0.362247 0.283310
O O11 0.244047 0.369419 0.549149
O O12 0.223723 0.500000 0.795911
O O13 0.262717 0.674378 0.765621
O O14 0.374938 0.585926 0.523252
O O15 0.155634 0.620629 0.791692
O O16 0.836932 0.658879 0.631475
O O17 0.943457 0.500000 0.467866
O O18 0.000000 0.394961 0.500000
O O19 0.437318 0.500000 0.758182
O O20 0.909149 0.500000 0.219479
#
# Coordination Sequence:
#
# PCOD8114719 Si02
#       8
#     8   8   8   8   8   8   8   8
#     4  11  22  36  59  88 117 149 193 246 288 351
#     4  12  23  35  58  88 119 157 196 248 301 339
#     4   9  20  39  61  84 113 153 199 241 288 354
#     4   9  17  33  58  85 113 148 191 235 288 354
#     4  11  22  37  55  87 119 152 198 241 290 347
#     4   9  20  40  62  81 112 159 200 234 282 348
#     4   9  18  35  60  85 113 149 186 232 294 356
#     4   9  19  38  61  84 114 158 202 238 288 358
#
# _framework density 19.882686
#
# number of rings (size 3 to 8) (size 9 to 14) (size 15 to 20)
#    0.000    2.125    2.500    2.625    0.000    2.500 
#    0.000    3.750    0.000    5.250    0.000    0.000 
#    0.000    0.000    0.000    0.000    0.000    0.000 
#
# Total GULP energy -396545.793455 kJ/mol
# GULP energy per Si atom -12392.056045 kJ/mol
# Density = 1.983743 g / cm^3
# Si number density = 19.882686 Si / 1000 Ang^3
#
#
#
# Elastic Constant Matrix: (Units=GPa)
#
#
# Indices 1 2 3 4 5 6 
#
# 1 47.6405 13.8140 26.8881 0.0000 -0.0151 0.0000
# 2 13.8140 92.6380 45.7996 0.0000 -0.0190 0.0000
# 3 26.8881 45.7996 94.1082 0.0000 -1.5884 0.0000
# 4 0.0000 0.0000 0.0000 16.3060 0.0000 1.4687
# 5 -0.0151 -0.0190 -1.5884 0.0000 31.4161 0.0000
# 6 0.0000 0.0000 0.0000 1.4687 0.0000 23.1262
#
#
#
# Elastic Compliance Matrix: (Units=1/GPa)
#
#
# Indices 1 2 3 4 5 6 
#
# 1 0.025035 -0.000256 -0.007034 0.000000 -0.000344 0.000000
# 2 -0.000256 0.014221 -0.006854 0.000000 -0.000338 0.000000
# 3 -0.007034 -0.006854 0.015985 0.000000 0.000801 0.000000
# 4 0.000000 0.000000 0.000000 0.061680 0.000000 -0.003917
# 5 -0.000344 -0.000338 0.000801 0.000000 0.031871 0.000000
# 6 0.000000 0.000000 0.000000 -0.003917 0.000000 0.043490
#
#
# Mechanical properties :
#
#
# Convention : Reuss Voigt Hill
#
# Bulk Modulus (GPa) = 37.10061 45.26559 41.18310
# Shear Modulus (GPa) = 21.78148 24.02865 22.90506
#
# Velocity S-wave (km/s) = 3.31342 3.48015 3.39781
# Velocity P-wave (km/s) = 5.77396 6.24214 6.01261
#
# Compressibility (1/GPa) = 0.02695373
#
# Stress axis : x y z
#
# Youngs Moduli (GPa) = 39.94474 70.31774 62.55928
#
# Poissons Ratio (x) = 0.01797 0.44005
# Poissons Ratio (y) = 0.01021 0.42876
# Poissons Ratio (z) = 0.28098 0.48194
#
# Static dielectric constant tensor:
#      x y z
#    x -0.390980 0.000000 0.786280 
#    y 0.000000 3.682810 0.000000 
#    z 0.786280 0.000000 3.569100 
# 
# 
# High freq. dielectric constant tensor:
#      x y z
#    x 1.741050 0.000000 -0.003490 
#    y 0.000000 1.779890 0.000000 
#    z -0.003490 0.000000 1.783630 
# 
# From -- ./inp_files/330376.got.cif
#   From: 2010.06.25/outbox.cif.g09.slc.cpg/sg12_166_cif.got.tgz:330376.got - 2010.06.28 00:19:55.
