data_PCOD8114408
_publ_section_title
;
Structure prediction by ZEFSAII (Michael W. Deem and Ramdas Pophale) SiO2 
 PCOD8114408
Probable space group: C 2/M
;
_chemical_formula_sum "Si O2"
_cell_formula_units_Z 48
_cell_length_a 9.510186
_cell_length_b 14.302041
_cell_length_c 18.011073
_cell_angle_alpha 90.000000
_cell_angle_beta 104.459809
_cell_angle_gamma 90.000000
_cell_volume 2372.175845
_symmetry_space_group_name_H-M "C 2/M"
_symmetry_group_IT_number 12
_symmetry_cell_setting 'monoclinic'
loop_
_space_group_symop_operation_xyz
x,y,z
-x,y,-z
-x,-y,-z
x,-y,z
1/2+x,1/2+y,z
1/2-x,1/2+y,-z
1/2-x,1/2-y,-z
1/2+x,1/2-y,z
loop_
_atom_site_type_symbol
_atom_site_label
_atom_site_fract_x
_atom_site_fract_y
_atom_site_fract_z
Si Si1 0.039729 0.304435 0.087244
Si Si2 0.387169 0.500000 0.282874
Si Si3 0.461350 0.303032 0.327300
Si Si4 0.399319 0.000000 0.236692
Si Si5 0.852879 0.500000 0.622492
Si Si6 0.640931 0.000000 0.142298
Si Si7 0.230349 0.698994 0.420201
Si Si8 0.197371 0.306729 0.820539
O O1 0.116920 0.406102 0.091070
O O2 0.142228 0.227427 0.138749
O O3 0.895103 0.308414 0.116618
O O4 0.000000 0.269976 0.000000
O O5 0.489865 0.410714 0.309124
O O6 0.254444 0.500000 0.322499
O O7 0.308060 0.500000 0.192317
O O8 0.381412 0.297674 0.396158
O O9 0.613157 0.249910 0.352489
O O10 0.365811 0.261894 0.249149
O O11 0.479634 0.000000 0.327467
O O12 0.527416 0.000000 0.194054
O O13 0.296316 0.089874 0.214072
O O14 0.822106 0.592948 0.570096
O O15 0.250000 0.750000 0.500000
#
# Coordination Sequence:
#
# PCOD8114408 Si02
#       8
#     8   4   8   4   4   4   8   8
#     4  11  22  37  58  88 119 149 188 240 292 338
#     4   9  18  34  60  87 110 143 199 245 272 324
#     4  11  21  39  62  86 114 152 195 236 282 340
#     4   9  18  35  59  82 109 155 195 227 278 345
#     4   9  18  37  60  80 114 156 191 226 280 348
#     4   9  17  34  59  84 108 151 199 232 271 343
#     4  11  23  39  60  88 118 151 188 237 292 340
#     4  11  21  38  61  84 112 154 198 233 280 341
#
# _framework density 20.234589
#
# number of rings (size 3 to 8) (size 9 to 14) (size 15 to 20)
#    0.000    1.667    3.333    2.250    0.000    0.667 
#    0.000   10.417    0.000    0.000    0.000    0.000 
#    0.000    0.000    0.000    0.000    0.000    0.000 
#
# Total GULP energy -297647.591884 kJ/mol
# GULP energy per Si atom -12401.982995 kJ/mol
# Density = 2.018853 g / cm^3
# Si number density = 20.234589 Si / 1000 Ang^3
#
#
#
# Elastic Constant Matrix: (Units=GPa)
#
#
# Indices 1 2 3 4 5 6 
#
# 1 25.9665 8.2051 -9.4811 0.0000 7.2059 0.0000
# 2 8.2051 153.0008 25.1580 0.0000 10.7760 0.0000
# 3 -9.4811 25.1580 89.7380 0.0000 2.8440 0.0000
# 4 0.0000 0.0000 0.0000 29.6562 0.0000 5.9345
# 5 7.2059 10.7760 2.8440 0.0000 29.5869 0.0000
# 6 0.0000 0.0000 0.0000 5.9345 0.0000 23.0209
#
#
#
# Elastic Compliance Matrix: (Units=1/GPa)
#
#
# Indices 1 2 3 4 5 6 
#
# 1 0.044309 -0.002587 0.005736 0.000000 -0.010401 0.000000
# 2 -0.002587 0.007165 -0.002226 0.000000 -0.001766 0.000000
# 3 0.005736 -0.002226 0.012430 0.000000 -0.001781 0.000000
# 4 0.000000 0.000000 0.000000 0.035554 0.000000 -0.009165
# 5 -0.010401 -0.001766 -0.001781 0.000000 0.037146 0.000000
# 6 0.000000 0.000000 0.000000 -0.009165 0.000000 0.045801
#
#
# Mechanical properties :
#
#
# Convention : Reuss Voigt Hill
#
# Bulk Modulus (GPa) = 15.20884 35.16325 25.18604
# Shear Modulus (GPa) = 24.69424 32.77435 28.73429
#
# Velocity S-wave (km/s) = 3.49721 4.02894 3.77245
# Velocity P-wave (km/s) = 4.88261 6.24969 5.60796
#
# Compressibility (1/GPa) = 0.06575123
#
# Stress axis : x y z
#
# Youngs Moduli (GPa) = 22.56856 139.56681 80.44968
#
# Poissons Ratio (x) = 0.36105 -0.46148
# Poissons Ratio (y) = 0.05838 0.17909
# Poissons Ratio (z) = -0.12946 0.31069
#
# Static dielectric constant tensor:
#      x y z
#    x 3.460890 0.000000 0.143100 
#    y 0.000000 4.076390 0.000000 
#    z 0.143100 0.000000 3.545240 
# 
# 
# High freq. dielectric constant tensor:
#      x y z
#    x 1.764740 0.000000 0.009010 
#    y 0.000000 1.805110 0.000000 
#    z 0.009010 0.000000 1.785280 
# 
# From -- ./inp_files/255844.got.cif
#   From: 2010.06.25/outbox.cif.g09.slc.cpg/sg12_128_cif.got.tgz:255844.got - 2010.06.28 00:19:55.
