data_PCOD8114332
_publ_section_title
;
Structure prediction by ZEFSAII (Michael W. Deem and Ramdas Pophale) SiO2 
 PCOD8114332
Probable space group: C 2/M
;
_chemical_formula_sum "Si O2"
_cell_formula_units_Z 48
_cell_length_a 19.415839
_cell_length_b 7.655317
_cell_length_c 28.025706
_cell_angle_alpha 90.000000
_cell_angle_beta 142.642549
_cell_angle_gamma 90.000000
_cell_volume 2527.616941
_symmetry_space_group_name_H-M "C 2/M"
_symmetry_group_IT_number 12
_symmetry_cell_setting 'monoclinic'
loop_
_space_group_symop_operation_xyz
x,y,z
-x,y,-z
-x,-y,-z
x,-y,z
1/2+x,1/2+y,z
1/2-x,1/2+y,-z
1/2-x,1/2-y,-z
1/2+x,1/2-y,z
loop_
_atom_site_type_symbol
_atom_site_label
_atom_site_fract_x
_atom_site_fract_y
_atom_site_fract_z
Si Si1 0.340745 0.696626 0.161941
Si Si2 0.819458 0.699820 0.770082
Si Si3 0.904576 0.795772 0.718332
Si Si4 0.430298 0.500000 0.888128
Si Si5 0.598940 0.697666 0.695660
Si Si6 0.326192 0.500000 0.934109
Si Si7 0.361587 0.705602 0.590226
O O1 0.304182 0.500000 0.127729
O O2 0.461353 0.743978 0.204623
O O3 0.350431 0.714186 0.223853
O O4 0.245359 0.828834 0.090949
O O5 0.831036 0.500000 0.795901
O O6 0.839865 0.696705 0.724815
O O7 0.908776 0.825157 0.845616
O O8 0.692595 0.777389 0.711098
O O9 0.854479 0.723019 0.640498
O O10 0.880844 0.000000 0.710684
O O11 0.354082 0.500000 0.893419
O O12 0.562408 0.500000 0.972754
O O13 0.581175 0.500000 0.669951
O O14 0.473397 0.787816 0.625404
O O15 0.381263 0.500000 0.605062
O O16 0.250000 0.750000 0.500000
#
# Coordination Sequence:
#
# PCOD8114332 Si02
#       7
#     8   8   8   4   8   4   8
#     4   9  18  35  57  80 106 146 192 233 273 335
#     4  11  21  37  59  81 110 152 193 227 282 338
#     4   9  19  36  59  80 113 149 189 237 275 325
#     4  11  24  38  54  88 118 138 182 252 279 330
#     4   8  16  33  55  77 105 146 186 226 271 327
#     4  11  22  36  60  84 111 145 186 234 297 331
#     4   9  18  35  55  83 117 143 179 234 281 325
#
# _framework density 18.990220000000001
#
# number of rings (size 3 to 8) (size 9 to 14) (size 15 to 20)
#    0.000    2.500    2.500    2.000    1.167    1.333 
#    6.000    3.333    0.000    5.000    0.000    0.000 
#    0.000    0.000    0.000    0.000    0.000    0.000 
#
# Total GULP energy -297432.238325 kJ/mol
# GULP energy per Si atom -12393.009930 kJ/mol
# Density = 1.894700 g / cm^3
# Si number density = 18.990220 Si / 1000 Ang^3
#
#
#
# Elastic Constant Matrix: (Units=GPa)
#
#
# Indices 1 2 3 4 5 6 
#
# 1 147.2245 28.7206 60.1683 0.0000 13.8828 0.0003
# 2 28.7206 76.0000 44.3968 0.0000 7.3975 0.0010
# 3 60.1683 44.3968 120.9178 0.0000 14.2455 0.0003
# 4 0.0000 0.0000 0.0000 27.0701 0.0000 3.1329
# 5 13.8828 7.3975 14.2455 0.0000 23.1182 0.0001
# 6 0.0003 0.0010 0.0003 3.1329 0.0001 22.3473
#
#
#
# Elastic Compliance Matrix: (Units=1/GPa)
#
#
# Indices 1 2 3 4 5 6 
#
# 1 0.008731 -0.000872 -0.003709 0.000000 -0.002679 0.000000
# 2 -0.000872 0.016900 -0.005602 0.000000 -0.001432 -0.000001
# 3 -0.003709 -0.005602 0.012615 0.000000 -0.003753 0.000000
# 4 0.000000 0.000000 0.000000 0.037550 0.000000 -0.005264
# 5 -0.002679 -0.001432 -0.003753 0.000000 0.047635 0.000000
# 6 0.000000 -0.000001 0.000000 -0.005264 0.000000 0.045486
#
#
# Mechanical properties :
#
#
# Convention : Reuss Voigt Hill
#
# Bulk Modulus (GPa) = 55.93213 67.85709 61.89461
# Shear Modulus (GPa) = 25.60921 28.56424 27.08672
#
# Velocity S-wave (km/s) = 3.67624 3.88255 3.78080
# Velocity P-wave (km/s) = 6.89469 7.47724 7.19187
#
# Compressibility (1/GPa) = 0.01787881
#
# Stress axis : x y z
#
# Youngs Moduli (GPa) = 114.53818 59.17334 79.27329
#
# Poissons Ratio (x) = 0.05161 0.29399
# Poissons Ratio (y) = 0.09990 0.44411
# Poissons Ratio (z) = 0.42477 0.33150
#
# Static dielectric constant tensor:
#      x y z
#    x 3.834010 0.000000 1.015160 
#    y 0.000000 3.515550 -0.000010 
#    z 1.015160 -0.000010 7.743930 
# 
# 
# High freq. dielectric constant tensor:
#      x y z
#    x 1.743530 0.000000 0.020250 
#    y 0.000000 1.732590 0.000000 
#    z 0.020250 0.000000 1.708820 
# 
# From -- ./inp_files/380271.got.cif
#   From: 2010.06.25/outbox.cif.g09.slc.cpg/sg12_191_cif.got.tgz:380271.got - 2010.06.28 00:19:55.
