data_PCOD8114780
_publ_section_title
;
Structure prediction by ZEFSAII (Michael W. Deem and Ramdas Pophale) SiO2 
 PCOD8114780
Probable space group: C 2/M
;
_chemical_formula_sum "Si O2"
_cell_formula_units_Z 48
_cell_length_a 21.812951
_cell_length_b 8.785765
_cell_length_c 12.067432
_cell_angle_alpha 90.000000
_cell_angle_beta 78.349623
_cell_angle_gamma 90.000000
_cell_volume 2264.999510
_symmetry_space_group_name_H-M "C 2/M"
_symmetry_group_IT_number 12
_symmetry_cell_setting 'monoclinic'
loop_
_space_group_symop_operation_xyz
x,y,z
-x,y,-z
-x,-y,-z
x,-y,z
1/2+x,1/2+y,z
1/2-x,1/2+y,-z
1/2-x,1/2-y,-z
1/2+x,1/2-y,z
loop_
_atom_site_type_symbol
_atom_site_label
_atom_site_fract_x
_atom_site_fract_y
_atom_site_fract_z
Si Si1 0.067293 0.820525 0.427229
Si Si2 0.744129 0.171229 0.120545
Si Si3 0.819183 0.324331 0.476858
Si Si4 0.569920 0.322649 0.984801
Si Si5 0.153961 0.326378 0.783741
Si Si6 0.102812 0.669633 0.196672
O O1 0.129129 0.748641 0.460802
O O2 0.066610 0.774098 0.298137
O O3 0.000000 0.764278 0.500000
O O4 0.073293 0.000000 0.437679
O O5 0.778971 0.271623 0.198700
O O6 0.675716 0.163429 0.197413
O O7 0.772190 0.000000 0.099991
O O8 0.750000 0.250000 0.000000
O O9 0.810305 0.500000 0.513816
O O10 0.750000 0.250000 0.500000
O O11 0.850173 0.307012 0.345563
O O12 0.575113 0.500000 0.006300
O O13 0.601055 0.235475 0.074353
O O14 0.500000 0.265344 0.000000
O O15 0.601974 0.280226 0.857611
O O16 0.143119 0.500000 0.824400
O O17 0.073642 0.500000 0.211105
#
# Coordination Sequence:
#
# PCOD8114780 Si02
#       6
#     8   8   8   8   8   8
#     4  11  26  46  69  98 133 176 225 277 333 395
#     4  11  22  37  61  94 128 165 207 258 318 384
#     4  11  25  45  70 100 134 176 225 277 333 396
#     4  11  25  42  63  93 128 169 214 263 323 386
#     4  11  24  41  64  96 130 168 213 264 322 385
#     4  11  24  42  67  96 129 168 213 266 324 386
#
# _framework density 21.192056000000001
#
# number of rings (size 3 to 8) (size 9 to 14) (size 15 to 20)
#    0.000    1.000    1.667    4.000    2.333   10.000 
#    0.000    0.000    0.000    0.000    0.000    0.000 
#    0.000    0.000    0.000    0.000    0.000    0.000 
#
# Total GULP energy -297615.295137 kJ/mol
# GULP energy per Si atom -12400.637297 kJ/mol
# Density = 2.114382 g / cm^3
# Si number density = 21.192056 Si / 1000 Ang^3
#
#
#
# Elastic Constant Matrix: (Units=GPa)
#
#
# Indices 1 2 3 4 5 6 
#
# 1 108.6920 29.9509 16.5909 0.0000 -13.2404 0.0000
# 2 29.9509 78.3464 31.2011 0.0000 1.9494 0.0000
# 3 16.5909 31.2011 82.6100 0.0000 -12.5649 0.0000
# 4 0.0000 0.0000 0.0000 32.1749 0.0000 -7.8048
# 5 -13.2404 1.9494 -12.5649 0.0000 32.0277 0.0000
# 6 0.0000 0.0000 0.0000 -7.8048 0.0000 26.5305
#
#
#
# Elastic Compliance Matrix: (Units=1/GPa)
#
#
# Indices 1 2 3 4 5 6 
#
# 1 0.010976 -0.004397 0.000199 0.000000 0.004883 0.000000
# 2 -0.004397 0.017129 -0.006403 0.000000 -0.005372 0.000000
# 3 0.000199 -0.006403 0.015479 0.000000 0.006545 0.000000
# 4 0.000000 0.000000 0.000000 0.033468 0.000000 0.009846
# 5 0.004883 -0.005372 0.006545 0.000000 0.036136 0.000000
# 6 0.000000 0.000000 0.000000 0.009846 0.000000 0.040589
#
#
# Mechanical properties :
#
#
# Convention : Reuss Voigt Hill
#
# Bulk Modulus (GPa) = 44.67998 47.23713 45.95856
# Shear Modulus (GPa) = 27.40616 30.94033 29.17325
#
# Velocity S-wave (km/s) = 3.60005 3.82514 3.71430
# Velocity P-wave (km/s) = 6.19755 6.46895 6.33470
#
# Compressibility (1/GPa) = 0.02238139
#
# Stress axis : x y z
#
# Youngs Moduli (GPa) = 91.10441 58.38219 64.60353
#
# Poissons Ratio (x) = 0.25670 -0.01286
# Poissons Ratio (y) = 0.40058 0.41368
# Poissons Ratio (z) = -0.01813 0.37384
#
# Static dielectric constant tensor:
#      x y z
#    x 4.031770 0.000000 0.031790 
#    y 0.000000 4.028270 0.000000 
#    z 0.031790 0.000000 3.836590 
# 
# 
# High freq. dielectric constant tensor:
#      x y z
#    x 1.836920 0.000000 -0.004880 
#    y 0.000000 1.844520 0.000000 
#    z -0.004880 0.000000 1.840700 
# 
# From -- ./inp_files/172163.got.cif
#   From: 2010.06.25/outbox.cif.g09.slc.cpg/sg12_87_cif.got.tgz:172163.got - 2010.06.28 00:19:55.
