data_PCOD8114096
_publ_section_title
;
Structure prediction by ZEFSAII (Michael W. Deem and Ramdas Pophale) SiO2 
 PCOD8114096
Probable space group: C 2/M
;
_chemical_formula_sum "Si O2"
_cell_formula_units_Z 48
_cell_length_a 22.870864
_cell_length_b 8.741659
_cell_length_c 16.125673
_cell_angle_alpha 90.000000
_cell_angle_beta 122.374418
_cell_angle_gamma 90.000000
_cell_volume 2722.879562
_symmetry_space_group_name_H-M "C 2/M"
_symmetry_group_IT_number 12
_symmetry_cell_setting 'monoclinic'
loop_
_space_group_symop_operation_xyz
x,y,z
-x,y,-z
-x,-y,-z
x,-y,z
1/2+x,1/2+y,z
1/2-x,1/2+y,-z
1/2-x,1/2-y,-z
1/2+x,1/2-y,z
loop_
_atom_site_type_symbol
_atom_site_label
_atom_site_fract_x
_atom_site_fract_y
_atom_site_fract_z
Si Si1 0.374740 0.821868 0.278218
Si Si2 0.975368 0.819775 0.857715
Si Si3 0.578714 0.330935 0.530451
Si Si4 0.890042 0.181469 0.946388
Si Si5 0.486015 0.319027 0.681318
Si Si6 0.747282 0.179703 0.088571
O O1 0.377887 0.784936 0.379383
O O2 0.445328 0.774874 0.287049
O O3 0.313486 0.727611 0.191227
O O4 0.360787 0.000000 0.255560
O O5 0.914998 0.763253 0.873776
O O6 0.959800 0.766540 0.752079
O O7 0.977098 0.000000 0.866399
O O8 0.051341 0.763350 0.943870
O O9 0.500000 0.336613 0.500000
O O10 0.611970 0.500000 0.563930
O O11 0.575371 0.279204 0.431057
O O12 0.820001 0.267753 0.913102
O O13 0.877174 0.000000 0.941020
O O14 0.503542 0.500000 0.691156
O O15 0.746694 0.000000 0.077653
O O16 0.750000 0.250000 0.000000
#
# Coordination Sequence:
#
# PCOD8114096 Si02
#       6
#     8   8   8   8   8   8
#     4  11  21  32  48  72 101 132 164 203 249 291
#     4   8  15  29  52  76  99 129 162 198 238 286
#     4   8  15  28  46  69  98 131 165 202 245 291
#     4   9  17  32  52  75 101 130 164 197 236 287
#     4   9  16  29  50  75 102 133 167 201 243 293
#     4  12  24  37  52  72  99 130 163 199 241 290
#
# _framework density 17.628397
#
# number of rings (size 3 to 8) (size 9 to 14) (size 15 to 20)
#    0.000    2.500    0.000    6.000    0.000    4.333 
#    0.000    2.500    0.000    1.000    0.000    0.000 
#    0.000    0.000    0.000    0.000    0.000    0.000 
#
# Total GULP energy -297472.762465 kJ/mol
# GULP energy per Si atom -12394.698436 kJ/mol
# Density = 1.758827 g / cm^3
# Si number density = 17.628397 Si / 1000 Ang^3
#
#
#
# Elastic Constant Matrix: (Units=GPa)
#
#
# Indices 1 2 3 4 5 6 
#
# 1 84.7376 31.8568 56.1786 0.0000 -14.7815 0.0000
# 2 31.8568 81.1053 32.6672 0.0000 -2.1056 0.0000
# 3 56.1786 32.6672 124.8082 0.0000 -26.5204 0.0000
# 4 0.0000 0.0000 0.0000 24.6314 0.0000 2.6170
# 5 -14.7815 -2.1056 -26.5204 0.0000 32.7660 0.0000
# 6 0.0000 0.0000 0.0000 2.6170 0.0000 22.7131
#
#
#
# Elastic Compliance Matrix: (Units=1/GPa)
#
#
# Indices 1 2 3 4 5 6 
#
# 1 0.018247 -0.004495 -0.006460 0.000000 0.002714 0.000000
# 2 -0.004495 0.015055 -0.002588 0.000000 -0.003155 0.000000
# 3 -0.006460 -0.002588 0.013216 0.000000 0.007616 0.000000
# 4 0.000000 0.000000 0.000000 0.041102 0.000000 -0.004736
# 5 0.002714 -0.003155 0.007616 0.000000 0.037705 0.000000
# 6 0.000000 0.000000 0.000000 -0.004736 0.000000 0.044573
#
#
# Mechanical properties :
#
#
# Convention : Reuss Voigt Hill
#
# Bulk Modulus (GPa) = 51.45881 59.11736 55.28808
# Shear Modulus (GPa) = 24.57456 27.35200 25.96328
#
# Velocity S-wave (km/s) = 3.73772 3.94329 3.84188
# Velocity P-wave (km/s) = 6.91966 7.37162 7.14921
#
# Compressibility (1/GPa) = 0.01943302
#
# Stress axis : x y z
#
# Youngs Moduli (GPa) = 54.80239 66.42095 75.66659
#
# Poissons Ratio (x) = 0.29854 0.48883
# Poissons Ratio (y) = 0.24632 0.19581
# Poissons Ratio (z) = 0.35404 0.17188
#
# Static dielectric constant tensor:
#      x y z
#    x 3.300140 0.000000 -0.434650 
#    y 0.000000 3.106630 0.000000 
#    z -0.434650 0.000000 3.796450 
# 
# 
# High freq. dielectric constant tensor:
#      x y z
#    x 1.656190 0.000000 -0.020750 
#    y 0.000000 1.664730 0.000000 
#    z -0.020750 0.000000 1.690670 
# 
# From -- ./inp_files/287954.got.cif
#   From: 2010.06.25/outbox.cif.g09.slc.cpg/sg12_144_cif.got.tgz:287954.got - 2010.06.28 00:19:55.
