data_PCOD8114076
_publ_section_title
;
Structure prediction by ZEFSAII (Michael W. Deem and Ramdas Pophale) SiO2 
 PCOD8114076
Probable space group: C 2/M
;
_chemical_formula_sum "Si O2"
_cell_formula_units_Z 48
_cell_length_a 27.899727
_cell_length_b 8.901225
_cell_length_c 11.357409
_cell_angle_alpha 90.000000
_cell_angle_beta 77.919227
_cell_angle_gamma 90.000000
_cell_volume 2758.054247
_symmetry_space_group_name_H-M "C 2/M"
_symmetry_group_IT_number 12
_symmetry_cell_setting 'monoclinic'
loop_
_space_group_symop_operation_xyz
x,y,z
-x,y,-z
-x,-y,-z
x,-y,z
1/2+x,1/2+y,z
1/2-x,1/2+y,-z
1/2-x,1/2-y,-z
1/2+x,1/2-y,z
loop_
_atom_site_type_symbol
_atom_site_label
_atom_site_fract_x
_atom_site_fract_y
_atom_site_fract_z
Si Si1 0.590152 0.175828 0.290813
Si Si2 0.109808 0.176366 0.526652
Si Si3 0.818073 0.324880 0.900301
Si Si4 0.771609 0.323463 0.162535
Si Si5 0.795529 0.321969 0.410606
Si Si6 0.015376 0.666056 0.627359
O O1 0.606318 0.274747 0.393258
O O2 0.626025 0.213416 0.163536
O O3 0.534419 0.215930 0.278335
O O4 0.592986 0.000000 0.325655
O O5 0.154352 0.262020 0.562808
O O6 0.059988 0.218675 0.623368
O O7 0.118613 0.000000 0.530190
O O8 0.807494 0.500000 0.895769
O O9 0.782037 0.246681 0.825997
O O10 0.807795 0.268402 0.038814
O O11 0.764515 0.500000 0.163124
O O12 0.794044 0.271956 0.274838
O O13 0.792954 0.500000 0.426969
O O14 0.750000 0.250000 0.500000
O O15 0.032494 0.500000 0.659838
O O16 0.000000 0.661322 0.500000
#
# Coordination Sequence:
#
# PCOD8114076 Si02
#       6
#     8   8   8   8   8   8
#     4   9  17  30  50  73  96 123 155 193 237 282
#     4  11  21  31  46  70  99 128 158 192 232 278
#     4   9  17  31  51  72  94 120 152 191 233 278
#     4   9  19  33  48  69  95 123 155 191 231 275
#     4  11  22  35  50  69  96 127 159 193 230 276
#     4   8  15  29  47  68  94 123 155 192 236 279
#
# _framework density 17.403573999999999
#
# number of rings (size 3 to 8) (size 9 to 14) (size 15 to 20)
#    0.000    2.500    0.000    4.000    0.000    7.667 
#    0.000    0.000    0.000    1.000    0.000    7.000 
#    0.000    0.000    0.000    0.000    0.000    0.000 
#
# Total GULP energy -297507.947036 kJ/mol
# GULP energy per Si atom -12396.164460 kJ/mol
# Density = 1.736396 g / cm^3
# Si number density = 17.403574 Si / 1000 Ang^3
#
#
#
# Elastic Constant Matrix: (Units=GPa)
#
#
# Indices 1 2 3 4 5 6 
#
# 1 124.8182 34.2835 58.8611 0.0000 -20.7648 0.0000
# 2 34.2835 55.9727 34.0441 0.0000 0.4012 0.0000
# 3 58.8611 34.0441 80.8010 0.0000 -13.2827 0.0000
# 4 0.0000 0.0000 0.0000 18.7291 0.0000 -2.1902
# 5 -20.7648 0.4012 -13.2827 0.0000 31.5506 0.0000
# 6 0.0000 0.0000 0.0000 -2.1902 0.0000 29.1394
#
#
#
# Elastic Compliance Matrix: (Units=1/GPa)
#
#
# Indices 1 2 3 4 5 6 
#
# 1 0.013452 -0.003911 -0.007185 0.000000 0.005878 0.000000
# 2 -0.003911 0.025887 -0.009170 0.000000 -0.006764 0.000000
# 3 -0.007185 -0.009170 0.022256 0.000000 0.004757 0.000000
# 4 0.000000 0.000000 0.000000 0.053866 0.000000 0.004049
# 5 0.005878 -0.006764 0.004757 0.000000 0.037653 0.000000
# 6 0.000000 0.000000 0.000000 0.004049 0.000000 0.034622
#
#
# Mechanical properties :
#
#
# Convention : Reuss Voigt Hill
#
# Bulk Modulus (GPa) = 47.47729 57.32991 52.40360
# Shear Modulus (GPa) = 21.25032 24.84403 23.04717
#
# Velocity S-wave (km/s) = 3.49812 3.78236 3.64301
# Velocity P-wave (km/s) = 6.60721 7.21720 6.91893
#
# Compressibility (1/GPa) = 0.02106270
#
# Stress axis : x y z
#
# Youngs Moduli (GPa) = 74.33674 38.62882 44.93195
#
# Poissons Ratio (x) = 0.15110 0.32285
# Poissons Ratio (y) = 0.29077 0.41201
# Poissons Ratio (z) = 0.53413 0.35422
#
# Static dielectric constant tensor:
#      x y z
#    x 3.664320 0.000000 -0.426680 
#    y 0.000000 3.209840 0.000000 
#    z -0.426680 0.000000 3.425770 
# 
# 
# High freq. dielectric constant tensor:
#      x y z
#    x 1.674800 0.000000 -0.024710 
#    y 0.000000 1.669460 0.000000 
#    z -0.024710 0.000000 1.649310 
# 
# From -- ./inp_files/179177.got.cif
#   From: 2010.06.25/outbox.cif.g09.slc.cpg/sg12_90_cif.got.tgz:179177.got - 2010.06.28 00:19:55.
