data_PCOD8114437
_publ_section_title
;
Structure prediction by ZEFSAII (Michael W. Deem and Ramdas Pophale) SiO2 
 PCOD8114437
Probable space group: C 2/M
;
_chemical_formula_sum "Si O2"
_cell_formula_units_Z 64
_cell_length_a 28.489684
_cell_length_b 14.979406
_cell_length_c 20.618145
_cell_angle_alpha 90.000000
_cell_angle_beta 20.933263
_cell_angle_gamma 90.000000
_cell_volume 3143.698390
_symmetry_space_group_name_H-M "C 2/M"
_symmetry_group_IT_number 12
_symmetry_cell_setting 'monoclinic'
loop_
_space_group_symop_operation_xyz
x,y,z
-x,y,-z
-x,-y,-z
x,-y,z
1/2+x,1/2+y,z
1/2-x,1/2+y,-z
1/2-x,1/2-y,-z
1/2+x,1/2-y,z
loop_
_atom_site_type_symbol
_atom_site_label
_atom_site_fract_x
_atom_site_fract_y
_atom_site_fract_z
Si Si1 0.769973 0.099034 0.538702
Si Si2 0.342606 0.234820 0.529884
Si Si3 0.759722 0.602716 0.922508
Si Si4 0.437375 0.747401 0.649370
Si Si5 0.026697 0.852257 0.138863
Si Si6 0.866039 0.898316 0.136934
Si Si7 0.535598 0.842335 0.755677
Si Si8 0.236660 0.400756 0.934645
O O1 0.777842 0.174721 0.584329
O O2 0.634142 0.106364 0.675362
O O3 0.884173 0.105933 0.336870
O O4 0.775664 0.000000 0.563259
O O5 0.458977 0.266669 0.426683
O O6 0.241326 0.173701 0.701297
O O7 0.397308 0.176393 0.400213
O O8 0.791022 0.500000 0.869378
O O9 0.865019 0.658419 0.747084
O O10 0.612267 0.628266 0.092376
O O11 0.777049 0.630918 0.974062
O O12 0.500000 0.751085 0.500000
O O13 0.335780 0.666638 0.773718
O O14 0.008291 0.747621 0.151612
O O15 0.103354 0.893285 0.979019
O O16 0.818859 0.000000 0.213252
O O17 0.000000 0.874809 0.000000
O O18 0.406253 0.901617 0.913743
O O19 0.296275 0.500000 0.853063
#
# Coordination Sequence:
#
# PCOD8114437 Si02
#       8
#     8   8   8   8   8   8   8   8
#     4  11  23  40  65  98 127 161 214 266 315 371
#     4  11  24  40  64  95 131 170 208 256 319 376
#     4  11  22  39  65  94 125 164 208 259 316 376
#     4  12  25  42  63  91 129 171 209 262 312 378
#     4  11  21  38  65  92 126 164 206 257 318 376
#     4  11  23  39  61  94 132 166 204 252 314 385
#     4  11  21  40  66  91 126 162 210 265 315 376
#     4  11  23  41  66  91 120 166 216 261 312 369
#
# _framework density 20.358187000000001
#
# number of rings (size 3 to 8) (size 9 to 14) (size 15 to 20)
#    0.000    0.875    2.500    7.125    0.000    4.500 
#    0.000    0.000    0.000    1.125    0.000    0.000 
#    0.000    0.000    0.000    0.000    0.000    0.000 
#
# Total GULP energy -396842.956064 kJ/mol
# GULP energy per Si atom -12401.342377 kJ/mol
# Density = 2.031185 g / cm^3
# Si number density = 20.358187 Si / 1000 Ang^3
#
#
#
# Elastic Constant Matrix: (Units=GPa)
#
#
# Indices 1 2 3 4 5 6 
#
# 1 92.0472 31.1395 45.9030 -0.0001 -23.0431 0.0001
# 2 31.1395 127.8436 56.9996 0.0004 6.4595 0.0001
# 3 45.9030 56.9996 107.9255 -0.0015 -5.9555 0.0005
# 4 -0.0001 0.0004 -0.0015 -7.7442 0.0008 -4.0056
# 5 -23.0431 6.4595 -5.9555 0.0008 36.7793 -0.0002
# 6 0.0001 0.0001 0.0005 -4.0056 -0.0002 26.8937
#
#
#
# Elastic Compliance Matrix: (Units=1/GPa)
#
#
# Indices 1 2 3 4 5 6 
#
# 1 0.016837 -0.002175 -0.005458 0.000002 0.010047 0.000000
# 2 -0.002175 0.010784 -0.004995 0.000001 -0.004066 0.000000
# 3 -0.005458 -0.004995 0.014212 -0.000003 -0.000241 -0.000001
# 4 0.000002 0.000001 -0.000003 -0.119893 0.000003 -0.017857
# 5 0.010047 -0.004066 -0.000241 0.000003 0.034159 0.000001
# 6 0.000000 0.000000 -0.000001 -0.017857 0.000001 0.034524
#
#
# Mechanical properties :
#
#
# Convention : Reuss Voigt Hill
#
# Bulk Modulus (GPa) = 60.32454 66.21117 63.26785
# Shear Modulus (GPa) = 233.61035 24.10406 128.85720
#
# Velocity S-wave (km/s) = 10.72377 3.44466 7.96445
# Velocity P-wave (km/s) = 13.52879 6.95806 10.75739
#
# Compressibility (1/GPa) = 0.01657700
#
# Stress axis : x y z
#
# Youngs Moduli (GPa) = 59.39389 92.72783 70.36525
#
# Poissons Ratio (x) = 0.20171 0.38404
# Poissons Ratio (y) = 0.12920 0.35146
# Poissons Ratio (z) = 0.32416 0.46315
#
# Static dielectric constant tensor:
#      x y z
#    x 3.758990 0.000000 -0.150070 
#    y 0.000000 3.767210 0.000000 
#    z -0.150070 0.000000 3.652090 
# 
# 
# High freq. dielectric constant tensor:
#      x y z
#    x 1.800960 0.000000 -0.017800 
#    y 0.000000 1.806470 0.000000 
#    z -0.017800 0.000000 1.789160 
# 
# From -- ./inp_files/156645.got.cif
#   From: 2010.06.25/outbox.cif.g09.slc.cpg/sg12_79_cif.got.tgz:156645.got - 2010.06.28 00:19:55.
