data_PCOD8114154
_publ_section_title
;
Structure prediction by ZEFSAII (Michael W. Deem and Ramdas Pophale) SiO2 
 PCOD8114154
Probable space group: C 2/M
;
_chemical_formula_sum "Si O2"
_cell_formula_units_Z 64
_cell_length_a 24.251385
_cell_length_b 8.753936
_cell_length_c 28.712437
_cell_angle_alpha 90.000000
_cell_angle_beta 145.893045
_cell_angle_gamma 90.000000
_cell_volume 3417.992646
_symmetry_space_group_name_H-M "C 2/M"
_symmetry_group_IT_number 12
_symmetry_cell_setting 'monoclinic'
loop_
_space_group_symop_operation_xyz
x,y,z
-x,y,-z
-x,-y,-z
x,-y,z
1/2+x,1/2+y,z
1/2-x,1/2+y,-z
1/2-x,1/2-y,-z
1/2+x,1/2-y,z
loop_
_atom_site_type_symbol
_atom_site_label
_atom_site_fract_x
_atom_site_fract_y
_atom_site_fract_z
Si Si1 0.249109 0.178118 0.119876
Si Si2 0.503316 0.324198 0.616503
Si Si3 0.023493 0.823837 0.200650
Si Si4 0.213058 0.677621 0.291657
Si Si5 0.833489 0.679314 0.025967
Si Si6 0.771426 0.177011 0.230376
Si Si7 0.906175 0.676966 0.465614
Si Si8 0.045066 0.825504 0.747337
O O1 0.223539 0.228441 0.154651
O O2 0.361000 0.216327 0.184594
O O3 0.231329 0.000000 0.102146
O O4 0.176028 0.263057 0.033527
O O5 0.484963 0.500000 0.589898
O O6 0.615160 0.275439 0.683473
O O7 0.430475 0.217843 0.536103
O O8 0.482186 0.294468 0.656542
O O9 0.129962 0.778908 0.257011
O O10 0.023518 0.794686 0.256247
O O11 0.941304 0.721764 0.118936
O O12 0.002124 0.000000 0.174151
O O13 0.192348 0.500000 0.286275
O O14 0.212797 0.714340 0.236419
O O15 0.317045 0.719510 0.386481
O O16 0.819647 0.500000 0.017889
O O17 0.750000 0.750000 0.000000
O O18 0.765629 0.000000 0.212807
O O19 0.877164 0.500000 0.441378
O O20 0.000000 0.718422 0.500000
O O21 0.084602 0.000000 0.774167
#
# Coordination Sequence:
#
# PCOD8114154 Si02
#       8
#     8   8   8   8   8   8   8   8
#     4  11  21  33  57  89 118 149 189 242 291 339
#     4   9  17  33  57  84 111 147 192 236 286 345
#     4  11  23  40  61  86 120 156 191 239 295 349
#     4  11  23  40  61  84 116 158 198 237 289 354
#     4  12  23  38  60  88 119 153 197 242 286 340
#     4   9  19  36  57  82 115 153 191 236 291 347
#     4  11  22  35  55  86 119 149 190 245 294 340
#     4   9  19  36  57  82 116 154 189 234 290 348
#
# _framework density 18.724440999999999
#
# number of rings (size 3 to 8) (size 9 to 14) (size 15 to 20)
#    0.000    1.625    2.500    4.125    0.000    4.000 
#    0.000    1.250    0.000    3.750    0.000    0.000 
#    0.000    0.000    0.000    0.000    0.000    0.000 
#
# Total GULP energy -396915.241060 kJ/mol
# GULP energy per Si atom -12403.601283 kJ/mol
# Density = 1.868182 g / cm^3
# Si number density = 18.724441 Si / 1000 Ang^3
#
#
#
# Elastic Constant Matrix: (Units=GPa)
#
#
# Indices 1 2 3 4 5 6 
#
# 1 114.4951 39.4148 43.9709 -0.0002 -13.1251 -0.0004
# 2 39.4148 96.5483 33.6830 -0.0007 -12.2379 -0.0032
# 3 43.9709 33.6830 79.9938 0.0000 -16.8594 -0.0001
# 4 -0.0002 -0.0007 0.0000 32.3884 0.0000 -1.4868
# 5 -13.1251 -12.2379 -16.8594 0.0000 30.1493 -0.0001
# 6 -0.0004 -0.0032 -0.0001 -1.4868 -0.0001 28.7522
#
#
#
# Elastic Compliance Matrix: (Units=1/GPa)
#
#
# Indices 1 2 3 4 5 6 
#
# 1 0.011796 -0.002922 -0.005012 0.000000 0.001147 0.000000
# 2 -0.002922 0.013013 -0.003433 0.000000 0.002091 0.000001
# 3 -0.005012 -0.003433 0.018079 0.000000 0.006534 0.000000
# 4 0.000000 0.000000 0.000000 0.030949 0.000000 0.001600
# 5 0.001147 0.002091 0.006534 0.000000 0.038170 0.000000
# 6 0.000000 0.000001 0.000000 0.001600 0.000000 0.034863
#
#
# Mechanical properties :
#
#
# Convention : Reuss Voigt Hill
#
# Bulk Modulus (GPa) = 49.61714 58.35275 53.98495
# Shear Modulus (GPa) = 28.35752 29.85589 29.10671
#
# Velocity S-wave (km/s) = 3.89584 3.99744 3.94696
# Velocity P-wave (km/s) = 6.84053 7.24828 7.04736
#
# Compressibility (1/GPa) = 0.02015432
#
# Stress axis : x y z
#
# Youngs Moduli (GPa) = 84.77366 76.84734 55.31406
#
# Poissons Ratio (x) = 0.22452 0.27724
# Poissons Ratio (y) = 0.24768 0.18988
# Poissons Ratio (z) = 0.42490 0.26379
#
# Static dielectric constant tensor:
#      x y z
#    x 3.581080 0.000000 -0.255260 
#    y 0.000000 3.422780 0.000000 
#    z -0.255260 0.000000 3.362300 
# 
# 
# High freq. dielectric constant tensor:
#      x y z
#    x 1.724570 0.000000 -0.025860 
#    y 0.000000 1.733140 0.000000 
#    z -0.025860 0.000000 1.712930 
# 
# From -- ./inp_files/382417.got.cif
#   From: 2010.06.25/outbox.cif.g09.slc.cpg/sg12_192_cif.got.tgz:382417.got - 2010.06.28 00:19:55.
