data_PCOD8114421
_publ_section_title
;
Structure prediction by ZEFSAII (Michael W. Deem and Ramdas Pophale) SiO2 
 PCOD8114421
Probable space group: C 2/M
;
_chemical_formula_sum "Si O2"
_cell_formula_units_Z 56
_cell_length_a 9.108230
_cell_length_b 23.867570
_cell_length_c 16.209390
_cell_angle_alpha 90.000000
_cell_angle_beta 123.948406
_cell_angle_gamma 90.000000
_cell_volume 2923.119746
_symmetry_space_group_name_H-M "C 2/M"
_symmetry_group_IT_number 12
_symmetry_cell_setting 'monoclinic'
loop_
_space_group_symop_operation_xyz
x,y,z
-x,y,-z
-x,-y,-z
x,-y,z
1/2+x,1/2+y,z
1/2-x,1/2+y,-z
1/2-x,1/2-y,-z
1/2+x,1/2-y,z
loop_
_atom_site_type_symbol
_atom_site_label
_atom_site_fract_x
_atom_site_fract_y
_atom_site_fract_z
Si Si1 0.495728 0.707973 0.091154
Si Si2 0.730638 0.195487 0.688589
Si Si3 0.307634 0.618060 0.281221
Si Si4 0.330941 0.180081 0.909780
Si Si5 0.808768 0.000000 0.333899
Si Si6 0.853056 0.306472 0.638378
Si Si7 0.717422 0.377200 0.442906
Si Si8 0.722642 0.500000 0.493808
O O1 0.615718 0.678161 0.198521
O O2 0.575823 0.770396 0.112844
O O3 0.292765 0.706590 0.058145
O O4 0.500000 0.680624 0.000000
O O5 0.765560 0.248333 0.639582
O O6 0.557727 0.207424 0.688140
O O7 0.702194 0.142605 0.619088
O O8 0.290331 0.640475 0.183454
O O9 0.253471 0.553225 0.262839
O O10 0.167407 0.649232 0.294904
O O11 0.505036 0.626028 0.376613
O O12 0.500000 0.146000 0.000000
O O13 0.710301 0.000000 0.390957
O O14 0.014057 0.000000 0.419235
O O15 0.769370 0.333457 0.530385
O O16 0.790765 0.441015 0.476358
#
# Coordination Sequence:
#
# PCOD8114421 Si02
#       8
#     8   8   8   8   4   8   8   4
#     4  11  22  38  59  83 120 153 193 237 290 349
#     4  12  24  39  56  89 121 158 197 236 297 346
#     4  11  21  38  63  86 116 153 196 244 291 347
#     4  11  22  37  60  89 115 152 193 241 291 349
#     4   9  18  36  60  88 111 150 199 241 291 336
#     4  12  24  37  57  83 126 158 190 237 286 359
#     4  11  22  40  58  87 118 160 197 238 288 345
#     4   9  18  36  62  83 112 156 204 238 281 340
#
# _framework density 19.157613000000001
#
# number of rings (size 3 to 8) (size 9 to 14) (size 15 to 20)
#    0.000    1.000    4.286    4.714    2.000    1.143 
#    0.000    2.500    0.000    0.000    0.000    1.000 
#    0.000    0.000    0.000    0.000    0.000    0.000 
#
# Total GULP energy -347032.771933 kJ/mol
# GULP energy per Si atom -12394.027569 kJ/mol
# Density = 1.911401 g / cm^3
# Si number density = 19.157613 Si / 1000 Ang^3
#
#
#
# Elastic Constant Matrix: (Units=GPa)
#
#
# Indices 1 2 3 4 5 6 
#
# 1 110.6280 43.9331 20.1784 0.0000 -0.8230 0.0000
# 2 43.9331 91.1431 38.0477 0.0000 -11.6786 0.0000
# 3 20.1784 38.0477 108.4409 0.0000 -7.5936 0.0000
# 4 0.0000 0.0000 0.0000 18.9725 0.0000 -4.6069
# 5 -0.8230 -11.6786 -7.5936 0.0000 30.2152 0.0000
# 6 0.0000 0.0000 0.0000 -4.6069 0.0000 21.0385
#
#
#
# Elastic Compliance Matrix: (Units=1/GPa)
#
#
# Indices 1 2 3 4 5 6 
#
# 1 0.011288 -0.005569 -0.000280 0.000000 -0.001916 0.000000
# 2 -0.005569 0.016071 -0.004253 0.000000 0.004991 0.000000
# 3 -0.000280 -0.004253 0.010841 0.000000 0.001073 0.000000
# 4 0.000000 0.000000 0.000000 0.055668 0.000000 0.012190
# 5 -0.001916 0.004991 0.001073 0.000000 0.035243 0.000000
# 6 0.000000 0.000000 0.000000 0.012190 0.000000 0.050201
#
#
# Mechanical properties :
#
#
# Convention : Reuss Voigt Hill
#
# Bulk Modulus (GPa) = 55.57195 57.17004 56.37100
# Shear Modulus (GPa) = 24.32902 27.91543 26.12222
#
# Velocity S-wave (km/s) = 3.56749 3.82140 3.69662
# Velocity P-wave (km/s) = 6.78528 7.02691 6.90715
#
# Compressibility (1/GPa) = 0.01799469
#
# Stress axis : x y z
#
# Youngs Moduli (GPa) = 88.58990 62.22271 92.24126
#
# Poissons Ratio (x) = 0.34655 0.02587
# Poissons Ratio (y) = 0.49340 0.39230
# Poissons Ratio (z) = 0.02485 0.26463
#
# Static dielectric constant tensor:
#      x y z
#    x 3.552800 0.000000 -0.027740 
#    y 0.000000 3.573210 0.000000 
#    z -0.027740 0.000000 3.838770 
# 
# 
# High freq. dielectric constant tensor:
#      x y z
#    x 1.749270 0.000000 -0.006510 
#    y 0.000000 1.720220 0.000000 
#    z -0.006510 0.000000 1.748240 
# 
# From -- ./inp_files/199962.got.cif
#   From: 2010.06.25/outbox.cif.g09.slc.cpg/sg12_100_cif.got.tgz:199962.got - 2010.06.28 00:19:55.
