data_PCOD8114208
_publ_section_title
;
Structure prediction by ZEFSAII (Michael W. Deem and Ramdas Pophale) SiO2 
 PCOD8114208
Probable space group: C 2/M
;
_chemical_formula_sum "Si O2"
_cell_formula_units_Z 56
_cell_length_a 10.404892
_cell_length_b 26.509372
_cell_length_c 21.033783
_cell_angle_alpha 90.000000
_cell_angle_beta 146.578015
_cell_angle_gamma 90.000000
_cell_volume 3195.576043
_symmetry_space_group_name_H-M "C 2/M"
_symmetry_group_IT_number 12
_symmetry_cell_setting 'monoclinic'
loop_
_space_group_symop_operation_xyz
x,y,z
-x,y,-z
-x,-y,-z
x,-y,z
1/2+x,1/2+y,z
1/2-x,1/2+y,-z
1/2-x,1/2-y,-z
1/2+x,1/2-y,z
loop_
_atom_site_type_symbol
_atom_site_label
_atom_site_fract_x
_atom_site_fract_y
_atom_site_fract_z
Si Si1 0.153700 0.687347 0.249491
Si Si2 0.212245 0.148853 0.125053
Si Si3 0.998156 0.255535 0.928562
Si Si4 0.612900 0.130204 0.669666
Si Si5 0.736040 0.217556 0.629771
Si Si6 0.235798 0.056182 0.368323
Si Si7 0.109349 0.861530 0.407501
O O1 0.163864 0.709630 0.182477
O O2 0.133384 0.731816 0.293990
O O3 0.378223 0.651005 0.352942
O O4 0.919668 0.655015 0.160027
O O5 0.112860 0.200930 0.110517
O O6 0.318964 0.120065 0.229400
O O7 0.000000 0.120274 0.000000
O O8 0.000000 0.280654 0.000000
O O9 0.250000 0.250000 0.000000
O O10 0.698070 0.183470 0.676568
O O11 0.752763 0.085085 0.693551
O O12 0.331956 0.129975 0.545225
O O13 0.500000 0.236488 0.500000
O O14 0.866945 0.186010 0.629875
O O15 0.500000 0.054227 0.500000
O O16 0.078235 0.087308 0.353488
O O17 0.130361 0.000000 0.317008
#
# Coordination Sequence:
#
# PCOD8114208 Si02
#       7
#     8   8   8   8   8   8   8
#     4  12  21  31  48  69 108 143 174 217 260 301
#     4  11  22  33  46  68  99 143 184 215 251 306
#     4  11  21  35  48  67 100 145 196 227 245 292
#     4   9  18  33  50  73 105 127 172 218 251 320
#     4   9  19  29  44  69 102 140 170 202 251 307
#     4   8  15  33  59  81 101 128 167 220 274 319
#     4   9  20  31  47  81 103 131 170 215 267 312
#
# _framework density 17.524227
#
# number of rings (size 3 to 8) (size 9 to 14) (size 15 to 20)
#    0.000    2.143    4.286    2.571    2.000    1.143 
#    0.000    0.000    0.000    1.286    0.000    5.000 
#    0.000    0.000    0.000    0.000    0.000    0.000 
#
# Total GULP energy -346948.538294 kJ/mol
# GULP energy per Si atom -12391.019225 kJ/mol
# Density = 1.748434 g / cm^3
# Si number density = 17.524227 Si / 1000 Ang^3
#
#
#
# Elastic Constant Matrix: (Units=GPa)
#
#
# Indices 1 2 3 4 5 6 
#
# 1 78.9108 25.1168 42.2266 -0.0039 3.5100 0.0015
# 2 25.1168 71.8579 27.5823 -0.0028 1.7203 0.0011
# 3 42.2266 27.5823 104.0183 0.0123 -11.3930 0.0088
# 4 -0.0039 -0.0028 0.0123 7.7409 0.0005 0.2297
# 5 3.5100 1.7203 -11.3930 0.0005 39.0914 0.0028
# 6 0.0015 0.0011 0.0088 0.2297 0.0028 5.6306
#
#
#
# Elastic Compliance Matrix: (Units=1/GPa)
#
#
# Indices 1 2 3 4 5 6 
#
# 1 0.017416 -0.003513 -0.006500 0.000018 -0.003304 0.000007
# 2 -0.003513 0.016346 -0.003050 0.000009 -0.001293 0.000003
# 3 -0.006500 -0.003050 0.013573 -0.000026 0.004674 -0.000020
# 4 0.000018 0.000009 -0.000026 0.129340 -0.000011 -0.005277
# 5 -0.003304 -0.001293 0.004674 -0.000011 0.027297 -0.000019
# 6 0.000007 0.000003 -0.000020 -0.005277 -0.000019 0.177817
#
#
# Mechanical properties :
#
#
# Convention : Reuss Voigt Hill
#
# Bulk Modulus (GPa) = 47.15120 49.40425 48.27773
# Shear Modulus (GPa) = 12.04861 21.15001 16.59931
#
# Velocity S-wave (km/s) = 2.62494 3.47782 3.08103
# Velocity P-wave (km/s) = 6.01264 6.66184 6.34555
#
# Compressibility (1/GPa) = 0.02120837
#
# Stress axis : x y z
#
# Youngs Moduli (GPa) = 57.41762 61.17717 73.67479
#
# Poissons Ratio (x) = 0.21494 0.47892
# Poissons Ratio (y) = 0.20173 0.22469
# Poissons Ratio (z) = 0.37324 0.18658
#
# Static dielectric constant tensor:
#      x y z
#    x 3.270870 0.000000 -0.104660 
#    y 0.000000 3.128720 0.000000 
#    z -0.104660 0.000000 3.479010 
# 
# 
# High freq. dielectric constant tensor:
#      x y z
#    x 1.674810 0.000000 -0.004180 
#    y 0.000000 1.623330 0.000000 
#    z -0.004180 0.000000 1.678290 
# 
# From -- ./inp_files/260174.got.cif
#   From: 2010.06.25/outbox.cif.g09.slc.cpg/sg12_131_cif.got.tgz:260174.got - 2010.06.28 00:19:55.
