data_PCOD8114957
_publ_section_title
;
Structure prediction by ZEFSAII (Michael W. Deem and Ramdas Pophale) SiO2 
 PCOD8114957
Probable space group: C 2/M
;
_chemical_formula_sum "Si O2"
_cell_formula_units_Z 64
_cell_length_a 19.289863
_cell_length_b 14.956421
_cell_length_c 11.528681
_cell_angle_alpha 90.000000
_cell_angle_beta 76.906099
_cell_angle_gamma 90.000000
_cell_volume 3239.630233
_symmetry_space_group_name_H-M "C 2/M"
_symmetry_group_IT_number 12
_symmetry_cell_setting 'monoclinic'
loop_
_space_group_symop_operation_xyz
x,y,z
-x,y,-z
-x,-y,-z
x,-y,z
1/2+x,1/2+y,z
1/2-x,1/2+y,-z
1/2-x,1/2-y,-z
1/2+x,1/2-y,z
loop_
_atom_site_type_symbol
_atom_site_label
_atom_site_fract_x
_atom_site_fract_y
_atom_site_fract_z
Si Si1 0.728551 0.897159 0.753880
Si Si2 0.164613 0.397916 0.241683
Si Si3 0.892096 0.897462 0.735090
Si Si4 0.426071 0.766436 0.576232
Si Si5 0.681468 0.812214 0.999847
Si Si6 0.322534 0.756792 0.405139
Si Si7 0.825345 0.899801 0.237584
Si Si8 0.918315 0.845629 0.989531
O O1 0.811100 0.870198 0.736163
O O2 0.692788 0.877109 0.888892
O O3 0.685833 0.841948 0.674267
O O4 0.720312 0.000000 0.723009
O O5 0.146656 0.500000 0.277454
O O6 0.105628 0.336345 0.321525
O O7 0.243630 0.371527 0.251469
O O8 0.162831 0.381376 0.106544
O O9 0.936697 0.829479 0.637374
O O10 0.908129 0.000000 0.693024
O O11 0.909845 0.888721 0.865066
O O12 0.500000 0.801705 0.500000
O O13 0.380910 0.768024 0.478435
O O14 0.610768 0.754650 0.003598
O O15 0.750000 0.750000 0.000000
O O16 0.250000 0.750000 0.500000
O O17 0.351144 0.670821 0.322790
O O18 0.869758 0.898145 0.101158
O O19 0.831334 0.000000 0.286056
O O20 0.000000 0.848393 0.000000
#
# Coordination Sequence:
#
# PCOD8114957 Si02
#       8
#     8   8   8   8   8   8   8   8
#     4  11  22  39  69 101 125 162 217 275 321 372
#     4  11  22  41  69  96 120 164 222 271 320 380
#     4  11  23  42  66  97 132 169 212 262 324 393
#     4  12  27  44  65  91 132 177 220 267 326 383
#     4  12  19  39  71  94 127 166 212 263 325 384
#     4  12  23  42  65  93 126 171 222 269 311 373
#     4  11  23  40  66  97 127 165 212 265 319 382
#     4  12  25  40  67  99 135 171 206 261 333 394
#
# _framework density 19.755341000000001
#
# number of rings (size 3 to 8) (size 9 to 14) (size 15 to 20)
#    0.000    0.500    7.500    0.750    1.750    5.000 
#    0.000    0.000    0.000    0.750    0.000    0.000 
#    0.000    0.000    0.000    0.000    0.000    0.000 
#
# Total GULP energy -396722.522125 kJ/mol
# GULP energy per Si atom -12397.578816 kJ/mol
# Density = 1.971038 g / cm^3
# Si number density = 19.755341 Si / 1000 Ang^3
#
#
#
# Elastic Constant Matrix: (Units=GPa)
#
#
# Indices 1 2 3 4 5 6 
#
# 1 85.2600 30.4876 35.5977 0.0000 0.2529 0.0000
# 2 30.4876 80.6131 35.1268 0.0000 0.0178 0.0000
# 3 35.5977 35.1268 127.7379 0.0000 4.0583 0.0000
# 4 0.0000 0.0000 0.0000 110.3897 0.0000 69.5834
# 5 0.2529 0.0178 4.0583 0.0000 28.6283 0.0000
# 6 0.0000 0.0000 0.0000 69.5834 0.0000 61.0325
#
#
#
# Elastic Compliance Matrix: (Units=1/GPa)
#
#
# Indices 1 2 3 4 5 6 
#
# 1 0.014432 -0.004206 -0.002874 0.000000 0.000283 0.000000
# 2 -0.004206 0.015328 -0.003058 0.000000 0.000461 0.000000
# 3 -0.002874 -0.003058 0.009512 0.000000 -0.001321 0.000000
# 4 0.000000 0.000000 0.000000 0.032198 0.000000 -0.036709
# 5 0.000283 0.000461 -0.001321 0.000000 0.035115 0.000000
# 6 0.000000 0.000000 0.000000 -0.036709 0.000000 0.058237
#
#
# Mechanical properties :
#
#
# Convention : Reuss Voigt Hill
#
# Bulk Modulus (GPa) = 52.64049 55.11502 53.87775
# Shear Modulus (GPa) = 26.11918 52.83670 39.47794
#
# Velocity S-wave (km/s) = 3.64006 5.17722 4.47513
# Velocity P-wave (km/s) = 6.66114 7.98107 7.35079
#
# Compressibility (1/GPa) = 0.01899678
#
# Stress axis : x y z
#
# Youngs Moduli (GPa) = 69.29068 65.24117 105.12674
#
# Poissons Ratio (x) = 0.27439 0.30217
# Poissons Ratio (y) = 0.29142 0.32144
# Poissons Ratio (z) = 0.19916 0.19948
#
# Static dielectric constant tensor:
#      x y z
#    x 3.440950 0.000000 -0.059090 
#    y 0.000000 3.582450 0.000000 
#    z -0.059090 0.000000 3.761030 
# 
# 
# High freq. dielectric constant tensor:
#      x y z
#    x 1.752230 0.000000 -0.000290 
#    y 0.000000 1.775660 0.000000 
#    z -0.000290 0.000000 1.787140 
# 
# From -- ./inp_files/156619.got.cif
#   From: 2010.06.25/outbox.cif.g09.slc.cpg/sg12_79_cif.got.tgz:156619.got - 2010.06.28 00:19:55.
