data_PCOD8114574
_publ_section_title
;
Structure prediction by ZEFSAII (Michael W. Deem and Ramdas Pophale) SiO2 
 PCOD8114574
Probable space group: C 2/M
;
_chemical_formula_sum "Si O2"
_cell_formula_units_Z 52
_cell_length_a 18.302451
_cell_length_b 19.443086
_cell_length_c 9.095622
_cell_angle_alpha 90.000000
_cell_angle_beta 129.628418
_cell_angle_gamma 90.000000
_cell_volume 2492.921898
_symmetry_space_group_name_H-M "C 2/M"
_symmetry_group_IT_number 12
_symmetry_cell_setting 'monoclinic'
loop_
_space_group_symop_operation_xyz
x,y,z
-x,y,-z
-x,-y,-z
x,-y,z
1/2+x,1/2+y,z
1/2-x,1/2+y,-z
1/2-x,1/2-y,-z
1/2+x,1/2-y,z
loop_
_atom_site_type_symbol
_atom_site_label
_atom_site_fract_x
_atom_site_fract_y
_atom_site_fract_z
Si Si1 0.111569 0.390474 0.115416
Si Si2 0.158315 0.142361 0.020220
Si Si3 0.595885 0.267473 0.694876
Si Si4 0.771346 0.257400 0.698478
Si Si5 0.111633 0.000000 0.108642
Si Si6 0.150861 0.378255 0.848921
Si Si7 0.791890 0.500000 0.561977
Si Si8 0.392650 0.000000 0.402362
O O1 0.143777 0.311653 0.169355
O O2 0.186118 0.433055 0.311196
O O3 0.120811 0.415887 0.959487
O O4 0.000000 0.400620 0.000000
O O5 0.086175 0.186526 0.830530
O O6 0.188858 0.182740 0.205966
O O7 0.126154 0.066568 0.025404
O O8 0.240749 0.144254 0.002775
O O9 0.500000 0.291192 0.500000
O O10 0.682370 0.277504 0.689011
O O11 0.586710 0.188034 0.732864
O O12 0.750000 0.250000 0.500000
O O13 0.186580 0.000000 0.345714
O O14 0.000000 0.000000 0.000000
O O15 0.152922 0.430978 0.716821
O O16 0.876199 0.500000 0.553210
O O17 0.500000 0.000000 0.500000
#
# Coordination Sequence:
#
# PCOD8114574 Si02
#       8
#     8   8   8   8   4   8   4   4
#     4  12  25  41  67 104 144 179 227 287 353 414
#     4  11  22  49  67  92 134 181 231 284 352 409
#     4  11  24  42  69 100 138 179 244 286 342 424
#     4  11  24  40  69 101 139 186 228 290 355 405
#     4  12  28  49  76  99 137 184 236 295 361 422
#     4  11  21  44  66  95 137 185 219 279 345 409
#     4  12  26  45  64 106 139 175 228 286 347 429
#     4  12  23  38  70  95 132 182 223 265 337 406
#
# _framework density 20.859057
#
# number of rings (size 3 to 8) (size 9 to 14) (size 15 to 20)
#    0.000    0.615    4.615    3.923    4.308    3.077 
#    0.000    0.385    0.000    0.000    0.000    0.000 
#    0.000    0.000    0.000    0.000    0.000    0.000 
#
# Total GULP energy -322096.535966 kJ/mol
# GULP energy per Si atom -12388.328306 kJ/mol
# Density = 2.081158 g / cm^3
# Si number density = 20.859057 Si / 1000 Ang^3
#
#
#
# Elastic Constant Matrix: (Units=GPa)
#
#
# Indices 1 2 3 4 5 6 
#
# 1 95.5304 32.1696 56.6478 0.0000 -11.6879 0.0000
# 2 32.1696 138.7263 47.5615 0.0000 -9.2404 0.0000
# 3 56.6478 47.5615 128.0328 0.0000 -7.6420 0.0000
# 4 0.0000 0.0000 0.0000 -72.3490 0.0000 -37.3597
# 5 -11.6879 -9.2404 -7.6420 0.0000 46.6450 0.0000
# 6 0.0000 0.0000 0.0000 -37.3597 0.0000 16.0200
#
#
#
# Elastic Compliance Matrix: (Units=1/GPa)
#
#
# Indices 1 2 3 4 5 6 
#
# 1 0.014675 -0.001218 -0.005893 0.000000 0.002470 0.000000
# 2 -0.001218 0.008423 -0.002533 0.000000 0.000948 0.000000
# 3 -0.005893 -0.002533 0.011352 0.000000 -0.000119 0.000000
# 4 0.000000 0.000000 0.000000 -0.006271 0.000000 -0.014623
# 5 0.002470 0.000948 -0.000119 0.000000 0.022226 0.000000
# 6 0.000000 0.000000 0.000000 -0.014623 0.000000 0.028319
#
#
# Mechanical properties :
#
#
# Convention : Reuss Voigt Hill
#
# Bulk Modulus (GPa) = 65.96040 70.56082 68.26061
# Shear Modulus (GPa) = 48.51294 13.12391 30.81843
#
# Velocity S-wave (km/s) = 4.82783 2.51105 3.84794
# Velocity P-wave (km/s) = 7.92262 6.50446 7.24831
#
# Compressibility (1/GPa) = 0.01516061
#
# Stress axis : x y z
#
# Youngs Moduli (GPa) = 68.14478 118.72842 88.09218
#
# Poissons Ratio (x) = 0.14462 0.51911
# Poissons Ratio (y) = 0.08301 0.22316
# Poissons Ratio (z) = 0.40157 0.30077
#
# Static dielectric constant tensor:
#      x y z
#    x 3.743240 0.000000 -0.247380 
#    y 0.000000 3.529670 0.000000 
#    z -0.247380 0.000000 3.506030 
# 
# 
# High freq. dielectric constant tensor:
#      x y z
#    x 1.815500 0.000000 -0.010120 
#    y 0.000000 1.827650 0.000000 
#    z -0.010120 0.000000 1.826190 
# 
# From -- ./inp_files/78121.got.cif
#   From: 2010.06.25/outbox.cif.g09.slc.cpg/sg12_40_cif.got.tgz:78121.got - 2010.06.28 00:19:55.
