data_PCOD8114146
_publ_section_title
;
Structure prediction by ZEFSAII (Michael W. Deem and Ramdas Pophale) SiO2 
 PCOD8114146
Probable space group: C 2/M
;
_chemical_formula_sum "Si O2"
_cell_formula_units_Z 48
_cell_length_a 15.938818
_cell_length_b 17.190045
_cell_length_c 18.289301
_cell_angle_alpha 90.000000
_cell_angle_beta 30.290723
_cell_angle_gamma 90.000000
_cell_volume 2527.521301
_symmetry_space_group_name_H-M "C 2/M"
_symmetry_group_IT_number 12
_symmetry_cell_setting 'monoclinic'
loop_
_space_group_symop_operation_xyz
x,y,z
-x,y,-z
-x,-y,-z
x,-y,z
1/2+x,1/2+y,z
1/2-x,1/2+y,-z
1/2-x,1/2-y,-z
1/2+x,1/2-y,z
loop_
_atom_site_type_symbol
_atom_site_label
_atom_site_fract_x
_atom_site_fract_y
_atom_site_fract_z
Si Si1 0.087480 0.588548 0.799810
Si Si2 0.183170 0.694126 0.383164
Si Si3 0.587491 0.407251 0.699922
Si Si4 0.242073 0.326643 0.959363
Si Si5 0.734073 0.683917 0.226436
Si Si6 0.637572 0.343370 0.505472
O O1 0.041270 0.500000 0.844307
O O2 0.131838 0.621767 0.846358
O O3 0.242521 0.599063 0.628757
O O4 0.924305 0.629835 0.890576
O O5 0.298697 0.621197 0.317889
O O6 0.257215 0.737207 0.256025
O O7 0.183788 0.753946 0.451646
O O8 0.000000 0.663008 0.500000
O O9 0.599956 0.500000 0.682363
O O10 0.397365 0.383174 0.857548
O O11 0.657035 0.363870 0.575783
O O12 0.234549 0.298434 0.881373
O O13 0.250000 0.250000 0.000000
O O14 0.553062 0.645402 0.376427
#
# Coordination Sequence:
#
# PCOD8114146 Si02
#       6
#     8   8   8   8   8   8
#     4  11  21  33  53  83 114 140 172 218 274 329
#     4   9  18  35  59  82 105 139 187 226 260 318
#     4  11  22  36  56  83 114 143 177 227 278 318
#     4  11  23  38  56  76 106 147 186 223 266 323
#     4   9  20  36  56  80 105 141 182 222 265 315
#     4   9  19  36  56  82 112 145 180 216 264 323
#
# _framework density 18.990938
#
# number of rings (size 3 to 8) (size 9 to 14) (size 15 to 20)
#    0.000    2.000    0.000    5.500    0.000    8.333 
#    0.000    0.000    0.000    3.000    0.000    0.000 
#    0.000    0.000    0.000    0.000    0.000    0.000 
#
# Total GULP energy -297567.440417 kJ/mol
# GULP energy per Si atom -12398.643351 kJ/mol
# Density = 1.894771 g / cm^3
# Si number density = 18.990938 Si / 1000 Ang^3
#
#
#
# Elastic Constant Matrix: (Units=GPa)
#
#
# Indices 1 2 3 4 5 6 
#
# 1 104.2908 57.6054 44.0351 0.0028 -9.1314 -0.0004
# 2 57.6054 98.8126 34.9989 -0.0010 -8.4919 0.0031
# 3 44.0351 34.9989 87.1801 0.0124 -1.9602 -0.0015
# 4 0.0028 -0.0010 0.0124 23.5272 0.0015 -7.4513
# 5 -9.1314 -8.4919 -1.9602 0.0015 27.1383 -0.0027
# 6 -0.0004 0.0031 -0.0015 -7.4513 -0.0027 13.9790
#
#
#
# Elastic Compliance Matrix: (Units=1/GPa)
#
#
# Indices 1 2 3 4 5 6 
#
# 1 0.016008 -0.007292 -0.005097 0.000001 0.002736 0.000003
# 2 -0.007292 0.015432 -0.002463 0.000002 0.002198 -0.000002
# 3 -0.005097 -0.002463 0.015002 -0.000008 -0.001402 -0.000003
# 4 0.000001 0.000002 -0.000008 0.051137 0.000000 0.027258
# 5 0.002736 0.002198 -0.001402 0.000000 0.038355 0.000007
# 6 0.000003 -0.000002 -0.000003 0.027258 0.000007 0.086065
#
#
# Mechanical properties :
#
#
# Convention : Reuss Voigt Hill
#
# Bulk Modulus (GPa) = 59.73924 62.61806 61.17865
# Shear Modulus (GPa) = 19.43390 23.17184 21.30287
#
# Velocity S-wave (km/s) = 3.20242 3.49686 3.35287
# Velocity P-wave (km/s) = 6.72302 7.02483 6.87558
#
# Compressibility (1/GPa) = 0.01673942
#
# Stress axis : x y z
#
# Youngs Moduli (GPa) = 62.46933 64.79920 66.65721
#
# Poissons Ratio (x) = 0.47250 0.33974
# Poissons Ratio (y) = 0.45551 0.16417
# Poissons Ratio (z) = 0.31839 0.15959
#
# Static dielectric constant tensor:
#      x y z
#    x 3.593530 0.000010 -0.071730 
#    y 0.000010 3.197950 0.000030 
#    z -0.071730 0.000030 3.684700 
# 
# 
# High freq. dielectric constant tensor:
#      x y z
#    x 1.738960 0.000000 -0.011270 
#    y 0.000000 1.714100 0.000000 
#    z -0.011270 0.000000 1.746900 
# 
# From -- ./inp_files/104941.got.cif
#   From: 2010.06.25/outbox.cif.g09.slc.cpg/sg12_53_cif.got.tgz:104941.got - 2010.06.28 00:19:55.
