data_PCOD8114904
_publ_section_title
;
Structure prediction by ZEFSAII (Michael W. Deem and Ramdas Pophale) SiO2 
 PCOD8114904
Probable space group: C 2/M
;
_chemical_formula_sum "Si O2"
_cell_formula_units_Z 48
_cell_length_a 14.697678
_cell_length_b 8.690149
_cell_length_c 18.594469
_cell_angle_alpha 90.000000
_cell_angle_beta 86.678511
_cell_angle_gamma 90.000000
_cell_volume 2370.989180
_symmetry_space_group_name_H-M "C 2/M"
_symmetry_group_IT_number 12
_symmetry_cell_setting 'monoclinic'
loop_
_space_group_symop_operation_xyz
x,y,z
-x,y,-z
-x,-y,-z
x,-y,z
1/2+x,1/2+y,z
1/2-x,1/2+y,-z
1/2-x,1/2-y,-z
1/2+x,1/2-y,z
loop_
_atom_site_type_symbol
_atom_site_label
_atom_site_fract_x
_atom_site_fract_y
_atom_site_fract_z
Si Si1 0.672186 0.819009 0.333118
Si Si2 0.899476 0.318102 0.511982
Si Si3 0.648425 0.819702 0.641507
Si Si4 0.989545 0.180028 0.734532
Si Si5 0.508380 0.818287 0.886463
Si Si6 0.149581 0.680191 0.000453
O O1 0.646754 0.754023 0.413618
O O2 0.777417 0.775011 0.316172
O O3 0.614244 0.731080 0.275289
O O4 0.657304 0.000000 0.324979
O O5 0.907312 0.500000 0.518396
O O6 0.843063 0.273151 0.443126
O O7 0.000000 0.245643 0.500000
O O8 0.549366 0.774164 0.674638
O O9 0.663503 0.000000 0.652177
O O10 0.017918 0.222629 0.813580
O O11 0.002517 0.000000 0.721674
O O12 0.414291 0.768416 0.929954
O O13 0.507744 0.000000 0.870569
O O14 0.596470 0.772715 0.930104
O O15 0.162420 0.500000 0.002133
O O16 0.250000 0.750000 0.000000
#
# Coordination Sequence:
#
# PCOD8114904 Si02
#       6
#     8   8   8   8   8   8
#     4  11  22  39  61  85 116 153 196 247 300 355
#     4   9  17  34  60  85 110 148 194 243 302 355
#     4  11  22  39  61  85 116 153 196 247 300 355
#     4  12  25  40  58  86 120 158 201 242 290 348
#     4   9  20  40  61  85 119 158 190 229 286 344
#     4   9  19  37  64  92 118 149 189 231 281 340
#
# _framework density 20.244714999999999
#
# number of rings (size 3 to 8) (size 9 to 14) (size 15 to 20)
#    0.000    1.833    1.667    4.000    0.000    2.667 
#    0.000    8.333    0.000    0.000    0.000    0.000 
#    0.000    0.000    0.000    0.000    0.000    0.000 
#
# Total GULP energy -297611.523056 kJ/mol
# GULP energy per Si atom -12400.480127 kJ/mol
# Density = 2.019864 g / cm^3
# Si number density = 20.244715 Si / 1000 Ang^3
#
#
#
# Elastic Constant Matrix: (Units=GPa)
#
#
# Indices 1 2 3 4 5 6 
#
# 1 113.6991 25.9688 19.5708 0.0000 19.1978 0.0000
# 2 25.9688 59.4712 41.3184 0.0000 6.6960 0.0000
# 3 19.5708 41.3184 88.4772 0.0000 15.2142 0.0000
# 4 0.0000 0.0000 0.0000 25.2575 0.0000 1.3093
# 5 19.1978 6.6960 15.2142 0.0000 24.9603 0.0000
# 6 0.0000 0.0000 0.0000 1.3093 0.0000 37.3374
#
#
#
# Elastic Compliance Matrix: (Units=1/GPa)
#
#
# Indices 1 2 3 4 5 6 
#
# 1 0.011006 -0.004691 0.001112 0.000000 -0.007885 0.000000
# 2 -0.004691 0.026894 -0.012178 0.000000 0.003816 0.000000
# 3 0.001112 -0.012178 0.018241 0.000000 -0.008706 0.000000
# 4 0.000000 0.000000 0.000000 0.039664 0.000000 -0.001391
# 5 -0.007885 0.003816 -0.008706 0.000000 0.050411 0.000000
# 6 0.000000 0.000000 0.000000 -0.001391 0.000000 0.026832
#
#
# Mechanical properties :
#
#
# Convention : Reuss Voigt Hill
#
# Bulk Modulus (GPa) = 40.60530 48.37372 44.48951
# Shear Modulus (GPa) = 23.49932 29.16367 26.33149
#
# Velocity S-wave (km/s) = 3.41069 3.79958 3.61038
# Velocity P-wave (km/s) = 5.96751 6.57233 6.27721
#
# Compressibility (1/GPa) = 0.02462732
#
# Stress axis : x y z
#
# Youngs Moduli (GPa) = 90.85580 37.18240 54.82248
#
# Poissons Ratio (x) = 0.17441 -0.06095
# Poissons Ratio (y) = 0.42618 0.66764
# Poissons Ratio (z) = -0.10101 0.45281
#
# Static dielectric constant tensor:
#      x y z
#    x 4.912830 0.000000 0.018780 
#    y 0.000000 3.349150 0.000000 
#    z 0.018780 0.000000 3.670210 
# 
# 
# High freq. dielectric constant tensor:
#      x y z
#    x 1.800510 0.000000 0.008870 
#    y 0.000000 1.772320 0.000000 
#    z 0.008870 0.000000 1.786770 
# 
# From -- ./inp_files/267687.got.cif
#   From: 2010.06.25/outbox.cif.g09.slc.cpg/sg12_134_cif.got.tgz:267687.got - 2010.06.28 00:19:55.
