data_PCOD8114506
_publ_section_title
;
Structure prediction by ZEFSAII (Michael W. Deem and Ramdas Pophale) SiO2 
 PCOD8114506
Probable space group: C 2/M
;
_chemical_formula_sum "Si O2"
_cell_formula_units_Z 40
_cell_length_a 11.100881
_cell_length_b 15.272838
_cell_length_c 11.065732
_cell_angle_alpha 90.000000
_cell_angle_beta 76.637845
_cell_angle_gamma 90.000000
_cell_volume 1825.317311
_symmetry_space_group_name_H-M "C 2/M"
_symmetry_group_IT_number 12
_symmetry_cell_setting 'monoclinic'
loop_
_space_group_symop_operation_xyz
x,y,z
-x,y,-z
-x,-y,-z
x,-y,z
1/2+x,1/2+y,z
1/2-x,1/2+y,-z
1/2-x,1/2-y,-z
1/2+x,1/2-y,z
loop_
_atom_site_type_symbol
_atom_site_label
_atom_site_fract_x
_atom_site_fract_y
_atom_site_fract_z
Si Si1 0.856352 0.598118 0.012420
Si Si2 0.543849 0.599327 0.861005
Si Si3 0.650990 0.500000 0.451247
Si Si4 0.176095 0.144132 0.255822
Si Si5 0.302020 0.161705 0.766071
Si Si6 0.132073 0.500000 0.403387
O O1 0.802289 0.500000 0.006185
O O2 0.826914 0.656501 0.903228
O O3 0.797989 0.641220 0.144923
O O4 0.000000 0.594567 0.000000
O O5 0.591116 0.500000 0.868527
O O6 0.435578 0.600728 0.790054
O O7 0.654716 0.656308 0.780877
O O8 0.500000 0.638372 0.000000
O O9 0.500000 0.500000 0.500000
O O10 0.693369 0.587864 0.372679
O O11 0.738059 0.500000 0.550659
O O12 0.150159 0.245190 0.295602
O O13 0.372836 0.085801 0.678710
O O14 0.000000 0.500000 0.500000
#
# Coordination Sequence:
#
# PCOD8114506 Si02
#       6
#     8   8   4   8   8   4
#     4  11  23  41  69 105 145 178 215 279 369 433
#     4  11  21  40  69 104 143 180 223 273 350 431
#     4  12  28  53  72  97 136 190 256 300 342 406
#     4  12  26  42  75 106 138 181 233 292 354 420
#     4  12  26  44  70 107 143 179 231 291 355 423
#     4  12  30  49  72  95 136 198 242 294 350 414
#
# _framework density 21.913999
#
# number of rings (size 3 to 8) (size 9 to 14) (size 15 to 20)
#    0.000    0.400    6.000    1.800    5.600    1.600 
#    0.000    0.000    0.000    0.000    0.000    0.000 
#    0.000    0.000    0.000    0.000    0.000    0.000 
#
# Total GULP energy -248067.248149 kJ/mol
# GULP energy per Si atom -12403.362407 kJ/mol
# Density = 2.186412 g / cm^3
# Si number density = 21.913999 Si / 1000 Ang^3
#
#
#
# Elastic Constant Matrix: (Units=GPa)
#
#
# Indices 1 2 3 4 5 6 
#
# 1 88.0401 7.0454 17.5662 0.0000 -10.9439 0.0000
# 2 7.0454 157.5993 45.7369 0.0000 -8.3091 0.0000
# 3 17.5662 45.7369 100.0030 0.0000 -11.8631 0.0000
# 4 0.0000 0.0000 0.0000 6.7496 0.0000 2.3474
# 5 -10.9439 -8.3091 -11.8631 0.0000 36.2290 0.0000
# 6 0.0000 0.0000 0.0000 2.3474 0.0000 -2.5011
#
#
#
# Elastic Compliance Matrix: (Units=1/GPa)
#
#
# Indices 1 2 3 4 5 6 
#
# 1 0.012095 0.000153 -0.001828 0.000000 0.003090 0.000000
# 2 0.000153 0.007331 -0.003303 0.000000 0.000646 0.000000
# 3 -0.001828 -0.003303 0.012148 0.000000 0.002668 0.000000
# 4 0.000000 0.000000 0.000000 0.111697 0.000000 0.104834
# 5 0.003090 0.000646 0.002668 0.000000 0.029557 0.000000
# 6 0.000000 0.000000 0.000000 0.104834 0.000000 -0.301430
#
#
# Mechanical properties :
#
#
# Convention : Reuss Voigt Hill
#
# Bulk Modulus (GPa) = 46.25868 54.03772 50.14820
# Shear Modulus (GPa) = -44.86745 26.44843 -9.20951
#
# Velocity S-wave (km/s) = -4.52977 3.47784 -2.05224
# Velocity P-wave (km/s) = 2.49065 6.39060 4.16151
#
# Compressibility (1/GPa) = 0.02161757
#
# Stress axis : x y z
#
# Youngs Moduli (GPa) = 82.67839 136.40668 82.31836
#
# Poissons Ratio (x) = -0.02082 0.15046
# Poissons Ratio (y) = -0.01262 0.27190
# Poissons Ratio (z) = 0.15112 0.45056
#
# Static dielectric constant tensor:
#      x y z
#    x 4.005080 0.000000 -0.066370 
#    y 0.000000 4.034200 0.000000 
#    z -0.066370 0.000000 4.034200 
# 
# 
# High freq. dielectric constant tensor:
#      x y z
#    x 1.868980 0.000000 -0.004760 
#    y 0.000000 1.866730 0.000000 
#    z -0.004760 0.000000 1.852020 
# 
# From -- ./inp_files/129636.got.cif
#   From: 2010.06.25/outbox.cif.g09.slc.cpg/sg12_65_cif.got.tgz:129636.got - 2010.06.28 00:19:55.
