data_PCOD8114413
_publ_section_title
;
Structure prediction by ZEFSAII (Michael W. Deem and Ramdas Pophale) SiO2 
 PCOD8114413
Probable space group: C 2/M
;
_chemical_formula_sum "Si O2"
_cell_formula_units_Z 56
_cell_length_a 9.663783
_cell_length_b 16.181024
_cell_length_c 28.461112
_cell_angle_alpha 90.000000
_cell_angle_beta 36.728536
_cell_angle_gamma 90.000000
_cell_volume 2661.484468
_symmetry_space_group_name_H-M "C 2/M"
_symmetry_group_IT_number 12
_symmetry_cell_setting 'monoclinic'
loop_
_space_group_symop_operation_xyz
x,y,z
-x,y,-z
-x,-y,-z
x,-y,z
1/2+x,1/2+y,z
1/2-x,1/2+y,-z
1/2-x,1/2-y,-z
1/2+x,1/2-y,z
loop_
_atom_site_type_symbol
_atom_site_label
_atom_site_fract_x
_atom_site_fract_y
_atom_site_fract_z
Si Si1 0.162020 0.595737 0.654335
Si Si2 0.966871 0.159607 0.909424
Si Si3 0.507873 0.740609 0.445609
Si Si4 0.593640 0.157045 0.080138
Si Si5 0.010733 0.656809 0.204543
Si Si6 0.758682 0.319667 0.703287
Si Si7 0.158512 0.092049 0.153068
O O1 0.185807 0.500000 0.631664
O O2 0.401875 0.645356 0.580411
O O3 0.103997 0.596367 0.725754
O O4 0.968951 0.644881 0.676976
O O5 0.232870 0.176391 0.847793
O O6 0.854478 0.246520 0.924594
O O7 0.935042 0.098103 0.874580
O O8 0.826945 0.121294 0.992214
O O9 0.500000 0.776416 0.500000
O O10 0.250000 0.750000 0.500000
O O11 0.667339 0.798303 0.369753
O O12 0.532578 0.114224 0.147001
O O13 0.380668 0.148515 0.102051
O O14 0.852538 0.738836 0.241587
O O15 0.555179 0.386674 0.754279
O O16 0.239685 0.000000 0.141595
#
# Coordination Sequence:
#
# PCOD8114413 Si02
#       7
#     8   8   8   8   8   8   8
#     4  11  24  42  70 102 133 175 215 258 319 395
#     4  11  21  38  61  89 123 178 227 269 322 394
#     4  11  24  45  71 105 130 169 211 262 316 391
#     4  11  22  37  60  89 129 171 225 278 328 371
#     4  11  21  38  65  94 127 168 225 276 315 378
#     4  11  22  40  69  95 127 168 218 256 315 386
#     4  12  25  41  62  93 130 169 218 273 331 384
#
# _framework density 21.040887999999999
#
# number of rings (size 3 to 8) (size 9 to 14) (size 15 to 20)
#    0.000    0.857    5.714    1.286    2.000    4.286 
#    0.000    0.000    0.000    5.571    0.000    0.000 
#    0.000    0.000    0.000    0.000    0.000    0.000 
#
# Total GULP energy -347093.712274 kJ/mol
# GULP energy per Si atom -12396.204010 kJ/mol
# Density = 2.099300 g / cm^3
# Si number density = 21.040888 Si / 1000 Ang^3
#
#
#
# Elastic Constant Matrix: (Units=GPa)
#
#
# Indices 1 2 3 4 5 6 
#
# 1 101.6553 37.7382 51.7693 0.0031 3.0010 0.0032
# 2 37.7382 85.9757 36.5346 -0.0043 0.8920 -0.0033
# 3 51.7693 36.5346 154.1638 0.0347 14.3268 -0.0156
# 4 0.0031 -0.0043 0.0347 13.1573 -0.0049 2.0968
# 5 3.0010 0.8920 14.3268 -0.0049 48.3715 -0.0029
# 6 0.0032 -0.0033 -0.0156 2.0968 -0.0029 20.1285
#
#
#
# Elastic Compliance Matrix: (Units=1/GPa)
#
#
# Indices 1 2 3 4 5 6 
#
# 1 0.013182 -0.004333 -0.003425 0.000006 0.000277 -0.000006
# 2 -0.004333 0.014381 -0.002008 0.000011 0.000599 0.000000
# 3 -0.003425 -0.002008 0.008319 -0.000024 -0.002214 0.000009
# 4 0.000006 0.000011 -0.000024 0.077286 0.000014 -0.008051
# 5 0.000277 0.000599 -0.002214 0.000014 0.021301 0.000000
# 6 -0.000006 0.000000 0.000009 -0.008051 0.000000 0.050520
#
#
# Mechanical properties :
#
#
# Convention : Reuss Voigt Hill
#
# Bulk Modulus (GPa) = 61.17397 65.98656 63.58027
# Shear Modulus (GPa) = 23.81273 30.71498 27.26386
#
# Velocity S-wave (km/s) = 3.36778 3.82485 3.60357
# Velocity P-wave (km/s) = 6.65278 7.13688 6.89908
#
# Compressibility (1/GPa) = 0.01634682
#
# Stress axis : x y z
#
# Youngs Moduli (GPa) = 75.86002 69.53829 120.21205
#
# Poissons Ratio (x) = 0.30134 0.41178
# Poissons Ratio (y) = 0.32874 0.24143
# Poissons Ratio (z) = 0.25985 0.13966
#
# Static dielectric constant tensor:
#      x y z
#    x 3.673510 -0.000010 0.069500 
#    y -0.000010 3.504290 -0.000060 
#    z 0.069500 -0.000060 4.205960 
# 
# 
# High freq. dielectric constant tensor:
#      x y z
#    x 1.825080 0.000000 0.001140 
#    y 0.000000 1.788690 0.000000 
#    z 0.001140 0.000000 1.843460 
# 
# From -- ./inp_files/257172.got.cif
#   From: 2010.06.25/outbox.cif.g09.slc.cpg/sg12_129_cif.got.tgz:257172.got - 2010.06.28 00:19:55.
