data_PCOD8114204
_publ_section_title
;
Structure prediction by ZEFSAII (Michael W. Deem and Ramdas Pophale) SiO2 
 PCOD8114204
Probable space group: C 2/M
;
_chemical_formula_sum "Si O2"
_cell_formula_units_Z 56
_cell_length_a 8.191103
_cell_length_b 18.466231
_cell_length_c 17.826677
_cell_angle_alpha 90.000000
_cell_angle_beta 80.273906
_cell_angle_gamma 90.000000
_cell_volume 2657.684825
_symmetry_space_group_name_H-M "C 2/M"
_symmetry_group_IT_number 12
_symmetry_cell_setting 'monoclinic'
loop_
_space_group_symop_operation_xyz
x,y,z
-x,y,-z
-x,-y,-z
x,-y,z
1/2+x,1/2+y,z
1/2-x,1/2+y,-z
1/2-x,1/2-y,-z
1/2+x,1/2-y,z
loop_
_atom_site_type_symbol
_atom_site_label
_atom_site_fract_x
_atom_site_fract_y
_atom_site_fract_z
Si Si1 0.172273 0.190465 0.452285
Si Si2 0.513814 0.309749 0.231161
Si Si3 0.665778 0.798151 0.320428
Si Si4 0.697802 0.078901 0.779117
Si Si5 0.388264 0.301758 0.076402
Si Si6 0.514433 0.147069 0.078515
Si Si7 0.926656 0.418796 0.377312
O O1 0.250000 0.250000 0.500000
O O2 0.153694 0.226153 0.371989
O O3 0.281554 0.117832 0.437447
O O4 0.000000 0.164134 0.500000
O O5 0.580329 0.228208 0.247728
O O6 0.351890 0.324000 0.293169
O O7 0.653053 0.366401 0.240734
O O8 0.472738 0.322687 0.147931
O O9 0.583227 0.865105 0.370238
O O10 0.556780 0.099179 0.849578
O O11 0.610734 0.074984 0.706623
O O12 0.768598 0.000000 0.795551
O O13 0.389462 0.214715 0.074361
O O14 0.201172 0.329517 0.084270
O O15 0.500000 0.334147 0.000000
O O16 0.500000 0.104109 0.000000
O O17 0.963028 0.500000 0.406440
#
# Coordination Sequence:
#
# PCOD8114204 Si02
#       7
#     8   8   8   8   8   8   8
#     4  12  23  42  69  97 127 166 216 264 312 394
#     4  12  21  37  65  91 125 165 224 261 323 386
#     4  12  22  40  67  97 122 170 216 261 319 392
#     4  11  24  41  60  88 127 169 216 270 327 388
#     4  11  21  34  59  95 125 157 210 278 321 371
#     4  11  21  37  59  88 126 168 212 265 327 383
#     4  11  24  43  65  98 135 168 212 272 330 381
#
# _framework density 21.070972000000001
#
# number of rings (size 3 to 8) (size 9 to 14) (size 15 to 20)
#    0.000    0.571    4.286    6.857    0.000    1.143 
#    0.000    2.143    0.000    1.714    0.000    0.000 
#    0.000    0.000    0.000    0.000    0.000    0.000 
#
# Total GULP energy -347121.080953 kJ/mol
# GULP energy per Si atom -12397.181463 kJ/mol
# Density = 2.102301 g / cm^3
# Si number density = 21.070972 Si / 1000 Ang^3
#
#
#
# Elastic Constant Matrix: (Units=GPa)
#
#
# Indices 1 2 3 4 5 6 
#
# 1 94.2299 29.9369 26.2668 0.0000 -27.4907 0.0000
# 2 29.9369 113.6272 25.6268 0.0000 -23.9928 0.0000
# 3 26.2668 25.6268 93.7795 0.0000 -19.8038 0.0000
# 4 0.0000 0.0000 0.0000 -33.1621 0.0000 6.4471
# 5 -27.4907 -23.9928 -19.8038 0.0000 47.5686 0.0000
# 6 0.0000 0.0000 0.0000 6.4471 0.0000 19.5209
#
#
#
# Elastic Compliance Matrix: (Units=1/GPa)
#
#
# Indices 1 2 3 4 5 6 
#
# 1 0.013520 -0.001831 -0.002008 0.000000 0.006054 0.000000
# 2 -0.001831 0.010383 -0.001581 0.000000 0.003521 0.000000
# 3 -0.002008 -0.001581 0.012328 0.000000 0.003175 0.000000
# 4 0.000000 0.000000 0.000000 -0.028336 0.000000 0.009358
# 5 0.006054 0.003521 0.003175 0.000000 0.027618 0.000000
# 6 0.000000 0.000000 0.000000 0.009358 0.000000 0.048136
#
#
# Mechanical properties :
#
#
# Convention : Reuss Voigt Hill
#
# Bulk Modulus (GPa) = 39.38360 51.69973 45.54166
# Shear Modulus (GPa) = 48.56537 21.43923 35.00230
#
# Velocity S-wave (km/s) = 4.80609 3.19325 4.08016
# Velocity P-wave (km/s) = 7.03772 6.17941 6.62248
#
# Compressibility (1/GPa) = 0.02539128
#
# Stress axis : x y z
#
# Youngs Moduli (GPa) = 73.96481 96.31057 81.11500
#
# Poissons Ratio (x) = 0.17633 0.16288
# Poissons Ratio (y) = 0.13542 0.12825
# Poissons Ratio (z) = 0.14853 0.15227
#
# Static dielectric constant tensor:
#      x y z
#    x 3.854740 0.000000 -0.016190 
#    y 0.000000 3.886440 0.000000 
#    z -0.016190 0.000000 4.338850 
# 
# 
# High freq. dielectric constant tensor:
#      x y z
#    x 1.831220 0.000000 -0.004330 
#    y 0.000000 1.791300 0.000000 
#    z -0.004330 0.000000 1.852120 
# 
# From -- ./inp_files/257006.got.cif
#   From: 2010.06.25/outbox.cif.g09.slc.cpg/sg12_129_cif.got.tgz:257006.got - 2010.06.28 00:19:55.
