data_PCOD8114123
_publ_section_title
;
Structure prediction by ZEFSAII (Michael W. Deem and Ramdas Pophale) SiO2 
 PCOD8114123
Probable space group: C 2/M
;
_chemical_formula_sum "Si O2"
_cell_formula_units_Z 64
_cell_length_a 28.189887
_cell_length_b 8.869993
_cell_length_c 15.424786
_cell_angle_alpha 90.000000
_cell_angle_beta 90.125987
_cell_angle_gamma 90.000000
_cell_volume 3856.867414
_symmetry_space_group_name_H-M "C 2/M"
_symmetry_group_IT_number 12
_symmetry_cell_setting 'monoclinic'
loop_
_space_group_symop_operation_xyz
x,y,z
-x,y,-z
-x,-y,-z
x,-y,z
1/2+x,1/2+y,z
1/2-x,1/2+y,-z
1/2-x,1/2-y,-z
1/2+x,1/2-y,z
loop_
_atom_site_type_symbol
_atom_site_label
_atom_site_fract_x
_atom_site_fract_y
_atom_site_fract_z
Si Si1 0.300048 0.673525 0.011168
Si Si2 0.698673 0.175914 0.820106
Si Si3 0.355378 0.822841 0.351651
Si Si4 0.946443 0.825911 0.601123
Si Si5 0.301246 0.321278 0.509214
Si Si6 0.308925 0.326508 0.820531
Si Si7 0.643804 0.823733 0.334893
Si Si8 0.446491 0.673909 0.398665
O O1 0.291724 0.500000 0.031030
O O2 0.325416 0.746515 0.095275
O O3 0.250000 0.750000 0.000000
O O4 0.327500 0.695437 0.919839
O O5 0.670878 0.231271 0.735237
O O6 0.753790 0.220719 0.810752
O O7 0.692694 0.000000 0.833941
O O8 0.334277 0.730873 0.431326
O O9 0.410885 0.780179 0.344497
O O10 0.348648 0.000000 0.367684
O O11 0.911260 0.720003 0.654841
O O12 0.940357 0.791075 0.499933
O O13 0.000017 0.788468 0.630913
O O14 0.934292 0.000000 0.619780
O O15 0.296707 0.500000 0.508907
O O16 0.250000 0.250000 0.500000
O O17 0.323765 0.270247 0.599502
O O18 0.315313 0.500000 0.791442
O O19 0.340443 0.217355 0.762041
O O20 0.650572 0.000000 0.352222
O O21 0.434665 0.500000 0.379699
#
# Coordination Sequence:
#
# PCOD8114123 Si02
#       8
#     8   8   8   8   8   8   8   8
#     4   9  17  30  50  72  95 126 164 204 245 286
#     4   9  19  33  49  71 101 133 164 200 243 289
#     4  11  21  33  50  75 103 132 165 202 246 294
#     4   9  18  34  53  71  95 128 166 208 252 293
#     4  12  24  37  50  66  96 135 171 205 240 284
#     4   9  18  33  50  69  98 135 168 202 242 286
#     4  12  23  33  49  75 100 129 167 203 246 297
#     4   9  18  33  53  73  94 128 168 206 251 294
#
# _framework density 16.593776999999999
#
# number of rings (size 3 to 8) (size 9 to 14) (size 15 to 20)
#    0.000    2.000    1.250    5.250    0.000    5.000 
#    0.000    1.250    0.000    0.000    0.000    0.875 
#    0.000    7.000    0.000    0.000    0.000    0.000 
#
# Total GULP energy -396777.877161 kJ/mol
# GULP energy per Si atom -12399.308661 kJ/mol
# Density = 1.655601 g / cm^3
# Si number density = 16.593777 Si / 1000 Ang^3
#
#
#
# Elastic Constant Matrix: (Units=GPa)
#
#
# Indices 1 2 3 4 5 6 
#
# 1 80.9256 32.4447 29.2040 0.0000 -5.2144 0.0000
# 2 32.4447 84.6748 35.8590 0.0000 -8.3948 0.0000
# 3 29.2040 35.8590 79.9645 0.0000 -13.9344 0.0000
# 4 0.0000 0.0000 0.0000 28.3353 0.0000 -0.0895
# 5 -5.2144 -8.3948 -13.9344 0.0000 11.5921 0.0000
# 6 0.0000 0.0000 0.0000 -0.0895 0.0000 28.1900
#
#
#
# Elastic Compliance Matrix: (Units=1/GPa)
#
#
# Indices 1 2 3 4 5 6 
#
# 1 0.015438 -0.004380 -0.003816 0.000000 -0.000814 0.000000
# 2 -0.004380 0.015929 -0.004904 0.000000 0.003670 0.000000
# 3 -0.003816 -0.004904 0.019203 0.000000 0.017815 0.000000
# 4 0.000000 0.000000 0.000000 0.035292 0.000000 0.000112
# 5 -0.000814 0.003670 0.017815 0.000000 0.109972 0.000000
# 6 0.000000 0.000000 0.000000 0.000112 0.000000 0.035474
#
#
# Mechanical properties :
#
#
# Convention : Reuss Voigt Hill
#
# Bulk Modulus (GPa) = 41.03449 48.95339 44.99394
# Shear Modulus (GPa) = 18.82319 23.49394 21.15856
#
# Velocity S-wave (km/s) = 3.37167 3.76683 3.57471
# Velocity P-wave (km/s) = 6.31981 6.96303 6.64920
#
# Compressibility (1/GPa) = 0.02436975
#
# Stress axis : x y z
#
# Youngs Moduli (GPa) = 64.77685 62.77941 52.07637
#
# Poissons Ratio (x) = 0.27497 0.19871
# Poissons Ratio (y) = 0.28372 0.25537
# Poissons Ratio (z) = 0.24717 0.30786
#
# Static dielectric constant tensor:
#      x y z
#    x 3.135880 0.000000 0.039040 
#    y 0.000000 3.187280 0.000000 
#    z 0.039040 0.000000 3.352560 
# 
# 
# High freq. dielectric constant tensor:
#      x y z
#    x 1.618020 0.000000 -0.001410 
#    y 0.000000 1.646250 0.000000 
#    z -0.001410 0.000000 1.629100 
# 
# From -- ./inp_files/244053.got.cif
#   From: 2010.06.25/outbox.cif.g09.slc.cpg/sg12_123_cif.got.tgz:244053.got - 2010.06.28 00:19:55.
