data_PCOD8114575
_publ_section_title
;
Structure prediction by ZEFSAII (Michael W. Deem and Ramdas Pophale) SiO2 
 PCOD8114575
Probable space group: C 2/M
;
_chemical_formula_sum "Si O2"
_cell_formula_units_Z 44
_cell_length_a 11.378043
_cell_length_b 22.391786
_cell_length_c 8.333971
_cell_angle_alpha 90.000000
_cell_angle_beta 109.009994
_cell_angle_gamma 90.000000
_cell_volume 2007.484795
_symmetry_space_group_name_H-M "C 2/M"
_symmetry_group_IT_number 12
_symmetry_cell_setting 'monoclinic'
loop_
_space_group_symop_operation_xyz
x,y,z
-x,y,-z
-x,-y,-z
x,-y,z
1/2+x,1/2+y,z
1/2-x,1/2+y,-z
1/2-x,1/2-y,-z
1/2+x,1/2-y,z
loop_
_atom_site_type_symbol
_atom_site_label
_atom_site_fract_x
_atom_site_fract_y
_atom_site_fract_z
Si Si1 0.416357 0.232311 0.803858
Si Si2 0.124882 0.067155 0.467166
Si Si3 0.000000 0.300001 0.500000
Si Si4 0.254785 0.653432 0.710474
Si Si5 0.641474 0.900726 0.229380
Si Si6 0.375498 0.933571 0.135472
O O1 0.492985 0.237441 0.666847
O O2 0.311536 0.282484 0.772793
O O3 0.341841 0.170280 0.780919
O O4 0.500000 0.237770 0.000000
O O5 0.142605 0.115141 0.336324
O O6 0.242836 0.068810 0.635197
O O7 0.000000 0.086740 0.500000
O O8 0.111533 0.000000 0.392173
O O9 0.126772 0.339035 0.552787
O O10 0.225192 0.615447 0.855515
O O11 0.511027 0.913507 0.263133
O O12 0.628840 0.934254 0.056347
O O13 0.344261 0.000000 0.187417
#
# Coordination Sequence:
#
# PCOD8114575 Si02
#       6
#     8   8   4   8   8   8
#     4  12  26  45  69 105 144 182 235 293 352 426
#     4  11  25  43  64  96 138 184 232 281 347 425
#     4  12  24  46  69 104 139 178 238 292 352 412
#     4  12  25  43  69 100 140 186 232 289 352 423
#     4  11  21  44  69 102 135 178 232 291 358 409
#     4  11  22  41  72 104 136 178 235 298 351 409
#
# _framework density 21.917975999999999
#
# number of rings (size 3 to 8) (size 9 to 14) (size 15 to 20)
#    0.000    0.545    5.455    3.273    1.273    4.364 
#    0.000    2.727    0.000    4.364    0.000    0.000 
#    0.000    0.000    0.000    0.000    0.000    0.000 
#
# Total GULP energy -272731.116063 kJ/mol
# GULP energy per Si atom -12396.868912 kJ/mol
# Density = 2.186809 g / cm^3
# Si number density = 21.917976 Si / 1000 Ang^3
#
#
#
# Elastic Constant Matrix: (Units=GPa)
#
#
# Indices 1 2 3 4 5 6 
#
# 1 103.4413 42.6957 12.6461 0.0000 -21.3312 0.0000
# 2 42.6957 155.6404 8.3218 0.0000 -11.1085 0.0000
# 3 12.6461 8.3218 70.2282 0.0000 -15.9443 0.0000
# 4 0.0000 0.0000 0.0000 22.8338 0.0000 -2.7030
# 5 -21.3312 -11.1085 -15.9443 0.0000 20.7891 0.0000
# 6 0.0000 0.0000 0.0000 -2.7030 0.0000 45.6055
#
#
#
# Elastic Compliance Matrix: (Units=1/GPa)
#
#
# Indices 1 2 3 4 5 6 
#
# 1 0.013373 -0.002795 0.000847 0.000000 0.012878 0.000000
# 2 -0.002795 0.007264 -0.000154 0.000000 0.000896 0.000000
# 3 0.000847 -0.000154 0.017295 0.000000 0.014051 0.000000
# 4 0.000000 0.000000 0.000000 0.044104 0.000000 0.002614
# 5 0.012878 0.000896 0.014051 0.000000 0.072571 0.000000
# 6 0.000000 0.000000 0.000000 0.002614 0.000000 0.022082
#
#
# Mechanical properties :
#
#
# Convention : Reuss Voigt Hill
#
# Bulk Modulus (GPa) = 29.64910 50.73748 40.19329
# Shear Modulus (GPa) = 26.02327 35.55542 30.78934
#
# Velocity S-wave (km/s) = 3.44946 4.03203 3.75207
# Velocity P-wave (km/s) = 5.42418 6.69891 6.09496
#
# Compressibility (1/GPa) = 0.03372783
#
# Stress axis : x y z
#
# Youngs Moduli (GPa) = 74.77810 137.66772 57.81966
#
# Poissons Ratio (x) = 0.38473 -0.04896
# Poissons Ratio (y) = 0.20898 0.00891
# Poissons Ratio (z) = -0.06332 0.02122
#
# Static dielectric constant tensor:
#      x y z
#    x 4.008850 0.000000 -0.147560 
#    y 0.000000 3.974030 0.000000 
#    z -0.147560 0.000000 3.914990 
# 
# 
# High freq. dielectric constant tensor:
#      x y z
#    x 1.858770 0.000000 -0.007750 
#    y 0.000000 1.872530 0.000000 
#    z -0.007750 0.000000 1.854590 
# 
# From -- ./inp_files/49493.got.cif
#   From: 2010.06.25/outbox.cif.g09.slc.cpg/sg12_25_cif.got.tgz:49493.got - 2010.06.28 00:19:55.
