data_PCOD8114794
_publ_section_title
;
Structure prediction by ZEFSAII (Michael W. Deem and Ramdas Pophale) SiO2 
 PCOD8114794
Probable space group: C 2/M
;
_chemical_formula_sum "Si O2"
_cell_formula_units_Z 40
_cell_length_a 8.954020
_cell_length_b 18.620782
_cell_length_c 12.004123
_cell_angle_alpha 90.000000
_cell_angle_beta 96.199600
_cell_angle_gamma 90.000000
_cell_volume 1989.752596
_symmetry_space_group_name_H-M "C 2/M"
_symmetry_group_IT_number 12
_symmetry_cell_setting 'monoclinic'
loop_
_space_group_symop_operation_xyz
x,y,z
-x,y,-z
-x,-y,-z
x,-y,z
1/2+x,1/2+y,z
1/2-x,1/2+y,-z
1/2-x,1/2-y,-z
1/2+x,1/2-y,z
loop_
_atom_site_type_symbol
_atom_site_label
_atom_site_fract_x
_atom_site_fract_y
_atom_site_fract_z
Si Si1 0.827932 0.420656 0.517201
Si Si2 0.747316 0.163846 0.698670
Si Si3 0.165268 0.682932 0.045059
Si Si4 0.106822 0.311677 0.292689
Si Si5 0.346666 0.416893 0.922695
O O1 0.764201 0.500000 0.541030
O O2 0.740267 0.390216 0.403562
O O3 0.810958 0.369148 0.621843
O O4 0.000000 0.426525 0.500000
O O5 0.840162 0.233015 0.665495
O O6 0.574479 0.181812 0.717992
O O7 0.836166 0.129043 0.809124
O O8 0.178815 0.675016 0.178066
O O9 0.250000 0.750000 0.000000
O O10 0.215592 0.607681 0.995507
O O11 0.000000 0.701347 0.000000
O O12 0.324914 0.500000 0.891312
O O13 0.500000 0.400943 0.000000
#
# Coordination Sequence:
#
# PCOD8114794 Si02
#       5
#     8   8   8   8   8
#     4   9  20  39  62  89 122 159 202 253 308 361
#     4  11  22  40  63  92 121 159 206 254 305 365
#     4  12  22  39  61  92 125 161 203 254 305 362
#     4  11  22  37  65  92 119 161 205 252 302 364
#     4  11  25  41  61  88 124 166 204 251 315 372
#
# _framework density 20.103002
#
# number of rings (size 3 to 8) (size 9 to 14) (size 15 to 20)
#    0.000    1.200    4.000    1.800    2.800    2.000 
#    0.000    0.000    0.000    1.200    0.000    0.000 
#    0.000    0.000    0.000    0.000    0.000    0.000 
#
# Total GULP energy -247973.809813 kJ/mol
# GULP energy per Si atom -12398.690491 kJ/mol
# Density = 2.005725 g / cm^3
# Si number density = 20.103002 Si / 1000 Ang^3
#
#
#
# Elastic Constant Matrix: (Units=GPa)
#
#
# Indices 1 2 3 4 5 6 
#
# 1 81.4103 51.0423 41.5497 0.0000 8.1419 0.0000
# 2 51.0423 176.2443 84.5457 0.0000 10.2485 0.0000
# 3 41.5497 84.5457 159.6293 0.0000 11.5632 0.0000
# 4 0.0000 0.0000 0.0000 41.2368 0.0000 -4.0592
# 5 8.1419 10.2485 11.5632 0.0000 29.8895 0.0000
# 6 0.0000 0.0000 0.0000 -4.0592 0.0000 15.9382
#
#
#
# Elastic Compliance Matrix: (Units=1/GPa)
#
#
# Indices 1 2 3 4 5 6 
#
# 1 0.015732 -0.003403 -0.002126 0.000000 -0.002296 0.000000
# 2 -0.003403 0.008376 -0.003508 0.000000 -0.000588 0.000000
# 3 -0.002126 -0.003508 0.008793 0.000000 -0.001620 0.000000
# 4 0.000000 0.000000 0.000000 0.024874 0.000000 0.006335
# 5 -0.002296 -0.000588 -0.001620 0.000000 0.034910 0.000000
# 6 0.000000 0.000000 0.000000 0.006335 0.000000 0.064356
#
#
# Mechanical properties :
#
#
# Convention : Reuss Voigt Hill
#
# Bulk Modulus (GPa) = 67.44332 85.72879 76.58606
# Shear Modulus (GPa) = 27.76886 33.42266 30.59576
#
# Velocity S-wave (km/s) = 3.72066 4.08189 3.90545
# Velocity P-wave (km/s) = 7.21661 8.05935 7.64959
#
# Compressibility (1/GPa) = 0.01482726
#
# Stress axis : x y z
#
# Youngs Moduli (GPa) = 63.56630 119.38183 113.72138
#
# Poissons Ratio (x) = 0.40620 0.24181
# Poissons Ratio (y) = 0.21629 0.39897
# Poissons Ratio (z) = 0.13516 0.41882
#
# Static dielectric constant tensor:
#      x y z
#    x 3.603780 0.000000 0.069110 
#    y 0.000000 4.021750 0.000000 
#    z 0.069110 0.000000 3.871580 
# 
# 
# High freq. dielectric constant tensor:
#      x y z
#    x 1.770440 0.000000 0.012320 
#    y 0.000000 1.795550 0.000000 
#    z 0.012320 0.000000 1.800490 
# 
# From -- ./inp_files/118907.got.cif
#   From: 2010.06.25/outbox.cif.g09.slc.cpg/sg12_60_cif.got.tgz:118907.got - 2010.06.28 00:19:55.
