data_PCOD8114024
_publ_section_title
;
Structure prediction by ZEFSAII (Michael W. Deem and Ramdas Pophale) SiO2 
 PCOD8114024
Probable space group: C 2/M
;
_chemical_formula_sum "Si O2"
_cell_formula_units_Z 64
_cell_length_a 19.184443
_cell_length_b 31.886050
_cell_length_c 11.913890
_cell_angle_alpha 90.000000
_cell_angle_beta 153.725265
_cell_angle_gamma 90.000000
_cell_volume 3226.185380
_symmetry_space_group_name_H-M "C 2/M"
_symmetry_group_IT_number 12
_symmetry_cell_setting 'monoclinic'
loop_
_space_group_symop_operation_xyz
x,y,z
-x,y,-z
-x,-y,-z
x,-y,z
1/2+x,1/2+y,z
1/2-x,1/2+y,-z
1/2-x,1/2-y,-z
1/2+x,1/2-y,z
loop_
_atom_site_type_symbol
_atom_site_label
_atom_site_fract_x
_atom_site_fract_y
_atom_site_fract_z
Si Si1 0.731230 0.851545 0.825197
Si Si2 0.936633 0.547085 0.083675
Si Si3 0.817626 0.256011 0.222712
Si Si4 0.245331 0.047103 0.594238
Si Si5 0.549280 0.383978 0.191494
Si Si6 0.328332 0.758622 0.769764
Si Si7 0.477961 0.125754 0.286105
Si Si8 0.318435 0.182778 0.560671
O O1 0.704368 0.802836 0.763158
O O2 0.680666 0.859098 0.880934
O O3 0.622324 0.877484 0.582002
O O4 0.910518 0.863702 0.064031
O O5 0.917469 0.500000 0.104262
O O6 0.101336 0.551661 0.259496
O O7 0.935707 0.579533 0.183475
O O8 0.793391 0.557096 0.791858
O O9 0.712431 0.229546 0.159800
O O10 0.000000 0.242444 0.500000
O O11 0.750000 0.250000 0.000000
O O12 0.115234 0.079374 0.364742
O O13 0.176623 0.000000 0.486242
O O14 0.672334 0.348107 0.337259
O O15 0.500000 0.403433 0.000000
O O16 0.331002 0.803071 0.707955
O O17 0.200751 0.725384 0.539364
O O18 0.500000 0.737751 0.000000
O O19 0.524752 0.158121 0.253971
#
# Coordination Sequence:
#
# PCOD8114024 Si02
#       8
#     8   8   8   8   8   8   8   8
#     4  11  23  39  63  86 128 165 209 253 323 373
#     4   9  18  37  64  91 122 161 201 252 315 383
#     4  12  26  46  66  89 131 178 214 268 329 386
#     4   9  19  36  61  94 125 154 199 255 313 372
#     4  12  21  38  61  90 119 164 201 257 307 372
#     4  11  25  39  61  92 121 163 215 269 311 378
#     4  11  20  41  62  89 118 168 204 253 313 376
#     4  11  22  38  63  87 124 156 212 258 319 358
#
# _framework density 19.837669999999999
#
# number of rings (size 3 to 8) (size 9 to 14) (size 15 to 20)
#    0.000    1.250    5.000    1.875    7.000    1.250 
#    0.000    3.125    0.000    1.500    0.000    0.000 
#    0.000    0.000    0.000    0.000    0.000    0.000 
#
# Total GULP energy -396730.618073 kJ/mol
# GULP energy per Si atom -12397.831815 kJ/mol
# Density = 1.979252 g / cm^3
# Si number density = 19.837670 Si / 1000 Ang^3
#
#
#
# Elastic Constant Matrix: (Units=GPa)
#
#
# Indices 1 2 3 4 5 6 
#
# 1 150.7020 46.4927 49.2907 0.0000 1.1879 0.0000
# 2 46.4927 89.6935 29.6368 0.0000 -12.2295 0.0000
# 3 49.2907 29.6368 75.0164 0.0000 -6.8510 0.0000
# 4 0.0000 0.0000 0.0000 25.8137 0.0000 -10.0476
# 5 1.1879 -12.2295 -6.8510 0.0000 34.6404 0.0000
# 6 0.0000 0.0000 0.0000 -10.0476 0.0000 30.3632
#
#
#
# Elastic Compliance Matrix: (Units=1/GPa)
#
#
# Indices 1 2 3 4 5 6 
#
# 1 0.009390 -0.003567 -0.004995 0.000000 -0.002569 0.000000
# 2 -0.003567 0.014632 -0.003008 0.000000 0.004693 0.000000
# 3 -0.004995 -0.003008 0.018046 0.000000 0.002678 0.000000
# 4 0.000000 0.000000 0.000000 0.044467 0.000000 0.014715
# 5 -0.002569 0.004693 0.002678 0.000000 0.031143 0.000000
# 6 0.000000 0.000000 0.000000 0.014715 0.000000 0.037804
#
#
# Mechanical properties :
#
#
# Convention : Reuss Voigt Hill
#
# Bulk Modulus (GPa) = 52.83598 62.91693 57.87646
# Shear Modulus (GPa) = 27.03707 30.82959 28.93333
#
# Velocity S-wave (km/s) = 3.69577 3.94648 3.82318
# Velocity P-wave (km/s) = 6.70102 7.24920 6.98049
#
# Compressibility (1/GPa) = 0.01892650
#
# Stress axis : x y z
#
# Youngs Moduli (GPa) = 106.49388 68.34341 55.41476
#
# Poissons Ratio (x) = 0.24379 0.27682
# Poissons Ratio (y) = 0.37988 0.16670
# Poissons Ratio (z) = 0.53197 0.20559
#
# Static dielectric constant tensor:
#      x y z
#    x 3.915420 0.000000 -0.074780 
#    y 0.000000 3.699470 0.000000 
#    z -0.074780 0.000000 3.637110 
# 
# 
# High freq. dielectric constant tensor:
#      x y z
#    x 1.778610 0.000000 -0.003400 
#    y 0.000000 1.760310 0.000000 
#    z -0.003400 0.000000 1.764560 
# 
# From -- ./inp_files/161218.got.cif
#   From: 2010.06.25/outbox.cif.g09.slc.cpg/sg12_81_cif.got.tgz:161218.got - 2010.06.28 00:19:55.
