data_PCOD8114446
_publ_section_title
;
Structure prediction by ZEFSAII (Michael W. Deem and Ramdas Pophale) SiO2 
 PCOD8114446
Probable space group: C 2/M
;
_chemical_formula_sum "Si O2"
_cell_formula_units_Z 56
_cell_length_a 9.902705
_cell_length_b 24.821313
_cell_length_c 20.698219
_cell_angle_alpha 90.000000
_cell_angle_beta 36.007170
_cell_angle_gamma 90.000000
_cell_volume 2990.921737
_symmetry_space_group_name_H-M "C 2/M"
_symmetry_group_IT_number 12
_symmetry_cell_setting 'monoclinic'
loop_
_space_group_symop_operation_xyz
x,y,z
-x,y,-z
-x,-y,-z
x,-y,z
1/2+x,1/2+y,z
1/2-x,1/2+y,-z
1/2-x,1/2-y,-z
1/2+x,1/2-y,z
loop_
_atom_site_type_symbol
_atom_site_label
_atom_site_fract_x
_atom_site_fract_y
_atom_site_fract_z
Si Si1 0.617861 0.161050 0.745799
Si Si2 0.862719 0.439189 0.870299
Si Si3 0.900093 0.842388 0.241735
Si Si4 0.464797 0.438827 0.122231
Si Si5 0.098751 0.186964 0.617827
Si Si6 0.584595 0.810514 0.619796
Si Si7 0.739853 0.749604 0.079295
O O1 0.573191 0.102115 0.793201
O O2 0.657017 0.154717 0.653954
O O3 0.398052 0.199298 0.840581
O O4 0.837007 0.184559 0.696632
O O5 0.957959 0.500000 0.831338
O O6 0.725713 0.425731 0.857744
O O7 0.709590 0.430916 0.993249
O O8 0.855025 0.848502 0.335972
O O9 0.685281 0.813758 0.290708
O O10 0.943074 0.900333 0.192633
O O11 0.125189 0.805488 0.147981
O O12 0.438037 0.500000 0.157637
O O13 0.270430 0.165577 0.496133
O O14 0.155787 0.249392 0.609399
O O15 0.750000 0.750000 0.000000
O O16 0.000000 0.753688 0.000000
#
# Coordination Sequence:
#
# PCOD8114446 Si02
#       7
#     8   8   8   8   8   8   8
#     4  12  21  37  59  84 116 152 192 237 289 336
#     4   9  19  36  60  86 112 152 200 234 273 342
#     4  12  21  38  58  85 117 152 188 238 294 338
#     4   9  19  36  60  86 112 152 199 233 273 346
#     4  11  23  37  57  86 117 150 196 240 287 347
#     4  11  21  39  59  81 115 156 199 235 279 347
#     4  12  24  34  51  84 122 148 177 226 292 349
#
# _framework density 18.723324999999999
#
# number of rings (size 3 to 8) (size 9 to 14) (size 15 to 20)
#    0.000    1.143    4.286    4.286    2.000    2.286 
#    0.000    0.714    0.000    7.286    0.000    0.000 
#    0.000    0.000    0.000    0.000    0.000    0.000 
#
# Total GULP energy -347262.513569 kJ/mol
# GULP energy per Si atom -12402.232627 kJ/mol
# Density = 1.868071 g / cm^3
# Si number density = 18.723325 Si / 1000 Ang^3
#
#
#
# Elastic Constant Matrix: (Units=GPa)
#
#
# Indices 1 2 3 4 5 6 
#
# 1 81.7125 20.2811 26.9504 -0.0012 14.9660 0.0006
# 2 20.2811 103.0970 49.5162 -0.0005 11.0075 -0.0002
# 3 26.9504 49.5162 87.2380 0.0052 21.2053 -0.0003
# 4 -0.0012 -0.0005 0.0052 26.9777 -0.0015 7.0592
# 5 14.9660 11.0075 21.2053 -0.0015 42.3939 -0.0006
# 6 0.0006 -0.0002 -0.0003 7.0592 -0.0006 25.1090
#
#
#
# Elastic Compliance Matrix: (Units=1/GPa)
#
#
# Indices 1 2 3 4 5 6 
#
# 1 0.014060 -0.000978 -0.003009 0.000001 -0.003204 -0.000001
# 2 -0.000978 0.013408 -0.007452 0.000002 0.000591 0.000000
# 3 -0.003009 -0.007452 0.018094 -0.000004 -0.006053 0.000001
# 4 0.000001 0.000002 -0.000004 0.040011 0.000003 -0.011249
# 5 -0.003204 0.000591 -0.006053 0.000003 0.027594 0.000000
# 6 -0.000001 0.000000 0.000001 -0.011249 0.000000 0.042989
#
#
# Mechanical properties :
#
#
# Convention : Reuss Voigt Hill
#
# Bulk Modulus (GPa) = 44.08688 51.72700 47.90694
# Shear Modulus (GPa) = 26.79593 30.58278 28.68936
#
# Velocity S-wave (km/s) = 3.78716 4.04593 3.91868
# Velocity P-wave (km/s) = 6.53614 7.03655 6.79095
#
# Compressibility (1/GPa) = 0.02268248
#
# Stress axis : x y z
#
# Youngs Moduli (GPa) = 71.12221 74.58252 55.26814
#
# Poissons Ratio (x) = 0.07297 0.16633
# Poissons Ratio (y) = 0.06959 0.41185
# Poissons Ratio (z) = 0.21404 0.55578
#
# Static dielectric constant tensor:
#      x y z
#    x 3.324840 0.000000 0.135670 
#    y 0.000000 3.297080 0.000000 
#    z 0.135670 0.000000 3.645040 
# 
# 
# High freq. dielectric constant tensor:
#      x y z
#    x 1.723140 0.000000 0.009090 
#    y 0.000000 1.704430 0.000000 
#    z 0.009090 0.000000 1.734740 
# 
# From -- ./inp_files/124338.got.cif
#   From: 2010.06.25/outbox.cif.g09.slc.cpg/sg12_63_cif.got.tgz:124338.got - 2010.06.28 00:19:55.
