data_PCOD8114430
_publ_section_title
;
Structure prediction by ZEFSAII (Michael W. Deem and Ramdas Pophale) SiO2 
 PCOD8114430
Probable space group: C 2/M
;
_chemical_formula_sum "Si O2"
_cell_formula_units_Z 48
_cell_length_a 10.087035
_cell_length_b 17.150192
_cell_length_c 14.953184
_cell_angle_alpha 90.000000
_cell_angle_beta 118.943119
_cell_angle_gamma 90.000000
_cell_volume 2263.727576
_symmetry_space_group_name_H-M "C 2/M"
_symmetry_group_IT_number 12
_symmetry_cell_setting 'monoclinic'
loop_
_space_group_symop_operation_xyz
x,y,z
-x,y,-z
-x,-y,-z
x,-y,z
1/2+x,1/2+y,z
1/2-x,1/2+y,-z
1/2-x,1/2-y,-z
1/2+x,1/2-y,z
loop_
_atom_site_type_symbol
_atom_site_label
_atom_site_fract_x
_atom_site_fract_y
_atom_site_fract_z
Si Si1 0.288025 0.832472 0.563583
Si Si2 0.836546 0.660115 0.931012
Si Si3 0.331638 0.655324 0.948449
Si Si4 0.648123 0.656604 0.710149
Si Si5 0.672900 0.412012 0.363140
Si Si6 0.367081 0.166120 0.277868
O O1 0.250000 0.750000 0.500000
O O2 0.185371 0.840670 0.617852
O O3 0.242297 0.902264 0.483865
O O4 0.459625 0.855453 0.645040
O O5 0.847062 0.753156 0.936730
O O6 0.784515 0.626614 0.817568
O O7 0.725805 0.631376 0.972827
O O8 0.000000 0.622751 0.000000
O O9 0.211103 0.624377 0.834037
O O10 0.500000 0.617338 0.000000
O O11 0.504491 0.604434 0.686667
O O12 0.616689 0.742798 0.735144
O O13 0.699287 0.500000 0.338135
O O14 0.757521 0.351925 0.325307
#
# Coordination Sequence:
#
# PCOD8114430 Si02
#       6
#     8   8   8   8   8   8
#     4  12  23  38  62  92 123 166 216 260 305 375
#     4   9  17  30  53  88 121 152 203 262 309 360
#     4   9  17  30  53  87 124 157 196 257 316 363
#     4  11  21  38  64  91 125 167 212 260 315 374
#     4  12  27  42  62  94 132 168 208 264 318 371
#     4  11  21  38  64  92 125 168 212 257 313 377
#
# _framework density 21.203966000000001
#
# number of rings (size 3 to 8) (size 9 to 14) (size 15 to 20)
#    0.000    1.333    3.333    3.000    0.000    8.000 
#    0.000    0.000    0.000    5.000    0.000    0.000 
#    0.000    0.000    0.000    0.000    0.000    0.000 
#
# Total GULP energy -297393.019955 kJ/mol
# GULP energy per Si atom -12391.375831 kJ/mol
# Density = 2.115570 g / cm^3
# Si number density = 21.203966 Si / 1000 Ang^3
#
#
#
# Elastic Constant Matrix: (Units=GPa)
#
#
# Indices 1 2 3 4 5 6 
#
# 1 107.8686 10.5711 36.4818 0.0000 18.6204 0.0000
# 2 10.5711 43.6504 12.4121 0.0000 6.8676 0.0000
# 3 36.4818 12.4121 146.0884 0.0000 17.3553 0.0000
# 4 0.0000 0.0000 0.0000 7.4164 0.0000 2.3763
# 5 18.6204 6.8676 17.3553 0.0000 49.2557 0.0000
# 6 0.0000 0.0000 0.0000 2.3763 0.0000 13.7815
#
#
#
# Elastic Compliance Matrix: (Units=1/GPa)
#
#
# Indices 1 2 3 4 5 6 
#
# 1 0.010681 -0.001486 -0.002177 0.000000 -0.003064 0.000000
# 2 -0.001486 0.024028 -0.001398 0.000000 -0.002296 0.000000
# 3 -0.002177 -0.001398 0.007709 0.000000 -0.001698 0.000000
# 4 0.000000 0.000000 0.000000 0.142722 0.000000 -0.024610
# 5 -0.003064 -0.002296 -0.001698 0.000000 0.022379 0.000000
# 6 0.000000 0.000000 0.000000 -0.024610 0.000000 0.076805
#
#
# Mechanical properties :
#
#
# Convention : Reuss Voigt Hill
#
# Bulk Modulus (GPa) = 30.96226 46.28194 38.62210
# Shear Modulus (GPa) = 16.38210 29.96686 23.17448
#
# Velocity S-wave (km/s) = 2.78258 3.76342 3.30954
# Velocity P-wave (km/s) = 4.99574 6.38427 5.73220
#
# Compressibility (1/GPa) = 0.03229738
#
# Stress axis : x y z
#
# Youngs Moduli (GPa) = 93.62133 41.61848 129.71171
#
# Poissons Ratio (x) = 0.06183 0.28241
# Poissons Ratio (y) = 0.13909 0.18130
# Poissons Ratio (z) = 0.20383 0.05817
#
# Static dielectric constant tensor:
#      x y z
#    x 3.892790 0.000000 0.240270 
#    y 0.000000 3.283430 0.000000 
#    z 0.240270 0.000000 4.595770 
# 
# 
# High freq. dielectric constant tensor:
#      x y z
#    x 1.842590 0.000000 0.008990 
#    y 0.000000 1.764140 0.000000 
#    z 0.008990 0.000000 1.859500 
# 
# From -- ./inp_files/197167.got.cif
#   From: 2010.06.25/outbox.cif.g09.slc.cpg/sg12_99_cif.got.tgz:197167.got - 2010.06.28 00:19:55.
