data_PCOD8114730
_publ_section_title
;
Structure prediction by ZEFSAII (Michael W. Deem and Ramdas Pophale) SiO2 
 PCOD8114730
Probable space group: C 2/M
;
_chemical_formula_sum "Si O2"
_cell_formula_units_Z 44
_cell_length_a 10.564760
_cell_length_b 23.814753
_cell_length_c 11.540150
_cell_angle_alpha 90.000000
_cell_angle_beta 137.205247
_cell_angle_gamma 90.000000
_cell_volume 1972.541561
_symmetry_space_group_name_H-M "C 2/M"
_symmetry_group_IT_number 12
_symmetry_cell_setting 'monoclinic'
loop_
_space_group_symop_operation_xyz
x,y,z
-x,y,-z
-x,-y,-z
x,-y,z
1/2+x,1/2+y,z
1/2-x,1/2+y,-z
1/2-x,1/2-y,-z
1/2+x,1/2-y,z
loop_
_atom_site_type_symbol
_atom_site_label
_atom_site_fract_x
_atom_site_fract_y
_atom_site_fract_z
Si Si1 0.311209 0.500000 0.743365
Si Si2 0.500000 0.697633 0.500000
Si Si3 0.508243 0.321569 0.754868
Si Si4 0.309509 0.880757 0.324658
Si Si5 0.910871 0.282422 0.816985
Si Si6 0.144499 0.619934 0.914510
Si Si7 0.770725 0.000000 0.990118
O O1 0.202953 0.444020 0.631548
O O2 0.516169 0.500000 0.819770
O O3 0.309742 0.500000 0.880579
O O4 0.554411 0.663893 0.419488
O O5 0.312170 0.731064 0.334415
O O6 0.368263 0.347869 0.751809
O O7 0.507039 0.254759 0.780453
O O8 0.712996 0.345790 0.909718
O O9 0.500000 0.853605 0.500000
O O10 0.299213 0.876589 0.180691
O O11 0.948611 0.348733 0.810642
O O12 0.000000 0.265544 0.000000
O O13 0.151902 0.554023 0.954064
#
# Coordination Sequence:
#
# PCOD8114730 Si02
#       7
#     4   4   8   8   8   8   4
#     4   9  17  34  58  96 132 166 206 280 323 382
#     4  12  28  46  64  95 138 175 224 264 324 386
#     4  12  25  42  68  95 134 175 217 270 324 394
#     4  11  22  36  64 100 134 169 218 268 334 386
#     4  12  26  45  69  95 133 174 219 271 328 391
#     4  11  22  43  69  95 130 173 217 274 326 388
#     4   9  18  36  65  95 124 167 223 260 331 387
#
# _framework density 22.306246999999999
#
# number of rings (size 3 to 8) (size 9 to 14) (size 15 to 20)
#    0.000    0.909    3.636    4.091    3.818    0.000 
#    0.000    0.455    0.000    2.727    0.000    0.000 
#    0.000    0.000    0.000    0.000    0.000    0.000 
#
# Total GULP energy -272644.973879 kJ/mol
# GULP energy per Si atom -12392.953358 kJ/mol
# Density = 2.225548 g / cm^3
# Si number density = 22.306247 Si / 1000 Ang^3
#
#
#
# Elastic Constant Matrix: (Units=GPa)
#
#
# Indices 1 2 3 4 5 6 
#
# 1 76.5472 28.1357 35.7660 0.0000 0.9414 0.0000
# 2 28.1357 107.1445 24.5354 0.0000 10.4575 0.0000
# 3 35.7660 24.5354 130.9772 0.0000 -0.5850 0.0000
# 4 0.0000 0.0000 0.0000 18.2768 0.0000 -0.6951
# 5 0.9414 10.4575 -0.5850 0.0000 43.2312 0.0000
# 6 0.0000 0.0000 0.0000 -0.6951 0.0000 18.4035
#
#
#
# Elastic Compliance Matrix: (Units=1/GPa)
#
#
# Indices 1 2 3 4 5 6 
#
# 1 0.016059 -0.003400 -0.003746 0.000000 0.000422 0.000000
# 2 -0.003400 0.010723 -0.001092 0.000000 -0.002535 0.000000
# 3 -0.003746 -0.001092 0.008864 0.000000 0.000466 0.000000
# 4 0.000000 0.000000 0.000000 0.054793 0.000000 0.002069
# 5 0.000422 -0.002535 0.000466 0.000000 0.023742 0.000000
# 6 0.000000 0.000000 0.000000 0.002069 0.000000 0.054416
#
#
# Mechanical properties :
#
#
# Convention : Reuss Voigt Hill
#
# Bulk Modulus (GPa) = 52.16386 54.61591 53.38988
# Shear Modulus (GPa) = 26.11463 31.06443 28.58953
#
# Velocity S-wave (km/s) = 3.42531 3.73585 3.58394
# Velocity P-wave (km/s) = 6.25138 6.56860 6.41195
#
# Compressibility (1/GPa) = 0.01917036
#
# Stress axis : x y z
#
# Youngs Moduli (GPa) = 62.27071 93.25357 112.80953
#
# Poissons Ratio (x) = 0.31709 0.42263
# Poissons Ratio (y) = 0.21174 0.12314
# Poissons Ratio (z) = 0.23329 0.10179
#
# Static dielectric constant tensor:
#      x y z
#    x 3.907700 0.000000 0.115530 
#    y 0.000000 4.249510 0.000000 
#    z 0.115530 0.000000 3.979470 
# 
# 
# High freq. dielectric constant tensor:
#      x y z
#    x 1.870460 0.000000 0.008720 
#    y 0.000000 1.866880 0.000000 
#    z 0.008720 0.000000 1.879380 
# 
# From -- ./inp_files/79234.got.cif
#   From: 2010.06.25/outbox.cif.g09.slc.cpg/sg12_40_cif.got.tgz:79234.got - 2010.06.28 00:19:55.
