data_PCOD8114291
_publ_section_title
;
Structure prediction by ZEFSAII (Michael W. Deem and Ramdas Pophale) SiO2 
 PCOD8114291
Probable space group: C 2/M
;
_chemical_formula_sum "Si O2"
_cell_formula_units_Z 48
_cell_length_a 25.264513
_cell_length_b 8.636473
_cell_length_c 11.662113
_cell_angle_alpha 90.000000
_cell_angle_beta 89.381485
_cell_angle_gamma 90.000000
_cell_volume 2544.481457
_symmetry_space_group_name_H-M "C 2/M"
_symmetry_group_IT_number 12
_symmetry_cell_setting 'monoclinic'
loop_
_space_group_symop_operation_xyz
x,y,z
-x,y,-z
-x,-y,-z
x,-y,z
1/2+x,1/2+y,z
1/2-x,1/2+y,-z
1/2-x,1/2-y,-z
1/2+x,1/2-y,z
loop_
_atom_site_type_symbol
_atom_site_label
_atom_site_fract_x
_atom_site_fract_y
_atom_site_fract_z
Si Si1 0.553159 0.316608 0.643499
Si Si2 0.564460 0.683198 0.385165
Si Si3 0.308287 0.181445 0.996194
Si Si4 0.338294 0.316228 0.764518
Si Si5 0.256880 0.318165 0.374699
Si Si6 0.648832 0.819886 0.757427
O O1 0.560049 0.500000 0.658745
O O2 0.492258 0.265032 0.664465
O O3 0.571052 0.261716 0.516100
O O4 0.588107 0.225910 0.735602
O O5 0.566872 0.500000 0.384111
O O6 0.611869 0.752515 0.307378
O O7 0.342621 0.256923 0.894103
O O8 0.303695 0.000000 0.975330
O O9 0.250000 0.250000 0.000000
O O10 0.338425 0.222737 0.112179
O O11 0.338173 0.500000 0.763024
O O12 0.283947 0.258166 0.711672
O O13 0.247712 0.500000 0.379206
O O14 0.250000 0.250000 0.500000
O O15 0.315508 0.280964 0.329177
O O16 0.658995 0.000000 0.733085
#
# Coordination Sequence:
#
# PCOD8114291 Si02
#       6
#     8   8   8   8   8   8
#     4   9  17  35  61  85 112 149 190 230 282 344
#     4   8  17  34  58  86 114 147 186 231 283 342
#     4  11  23  39  58  79 110 153 197 238 287 343
#     4  11  21  36  58  85 116 148 190 239 287 341
#     4  12  24  37  56  83 116 149 185 230 287 344
#     4  11  23  38  56  82 114 147 190 239 287 338
#
# _framework density 18.864356000000001
#
# number of rings (size 3 to 8) (size 9 to 14) (size 15 to 20)
#    0.000    1.667    1.667    5.000    0.000    3.333 
#    0.000    5.000    0.000    5.000    0.000    0.000 
#    0.000    0.000    0.000    0.000    0.000    0.000 
#
# Total GULP energy -297671.806173 kJ/mol
# GULP energy per Si atom -12402.991924 kJ/mol
# Density = 1.882142 g / cm^3
# Si number density = 18.864356 Si / 1000 Ang^3
#
#
#
# Elastic Constant Matrix: (Units=GPa)
#
#
# Indices 1 2 3 4 5 6 
#
# 1 97.0405 18.2183 39.7951 0.0000 13.4912 0.0000
# 2 18.2183 71.1600 37.7977 0.0000 5.5567 0.0000
# 3 39.7951 37.7977 106.5428 0.0000 13.5986 0.0000
# 4 0.0000 0.0000 0.0000 33.5872 0.0000 2.2082
# 5 13.4912 5.5567 13.5986 0.0000 35.3805 0.0000
# 6 0.0000 0.0000 0.0000 2.2082 0.0000 26.4780
#
#
#
# Elastic Compliance Matrix: (Units=1/GPa)
#
#
# Indices 1 2 3 4 5 6 
#
# 1 0.012530 -0.000850 -0.003981 0.000000 -0.003114 0.000000
# 2 -0.000850 0.017378 -0.005827 0.000000 -0.000166 0.000000
# 3 -0.003981 -0.005827 0.013281 0.000000 -0.002671 0.000000
# 4 0.000000 0.000000 0.000000 0.029937 0.000000 -0.002497
# 5 -0.003114 -0.000166 -0.002671 0.000000 0.030505 0.000000
# 6 0.000000 0.000000 0.000000 -0.002497 0.000000 0.037975
#
#
# Mechanical properties :
#
#
# Convention : Reuss Voigt Hill
#
# Bulk Modulus (GPa) = 45.71675 51.81841 48.76758
# Shear Modulus (GPa) = 29.37490 31.01796 30.19643
#
# Velocity S-wave (km/s) = 3.95037 4.05935 4.00523
# Velocity P-wave (km/s) = 6.71523 7.03560 6.87728
#
# Compressibility (1/GPa) = 0.02187382
#
# Stress axis : x y z
#
# Youngs Moduli (GPa) = 79.80750 57.54312 75.29612
#
# Poissons Ratio (x) = 0.04892 0.29976
# Poissons Ratio (y) = 0.06785 0.43871
# Poissons Ratio (z) = 0.31772 0.33528
#
# Static dielectric constant tensor:
#      x y z
#    x 3.711750 0.000000 -0.139080 
#    y 0.000000 3.344740 0.000000 
#    z -0.139080 0.000000 3.258370 
# 
# 
# High freq. dielectric constant tensor:
#      x y z
#    x 1.735230 0.000000 0.002890 
#    y 0.000000 1.726020 0.000000 
#    z 0.002890 0.000000 1.735110 
# 
# From -- ./inp_files/172314.got.cif
#   From: 2010.06.25/outbox.cif.g09.slc.cpg/sg12_87_cif.got.tgz:172314.got - 2010.06.28 00:19:55.
