data_PCOD8114227
_publ_section_title
;
Structure prediction by ZEFSAII (Michael W. Deem and Ramdas Pophale) SiO2 
 PCOD8114227
Probable space group: C 2/M
;
_chemical_formula_sum "Si O2"
_cell_formula_units_Z 40
_cell_length_a 32.348546
_cell_length_b 14.944093
_cell_length_c 9.790722
_cell_angle_alpha 90.000000
_cell_angle_beta 25.645860
_cell_angle_gamma 90.000000
_cell_volume 2048.489620
_symmetry_space_group_name_H-M "C 2/M"
_symmetry_group_IT_number 12
_symmetry_cell_setting 'monoclinic'
loop_
_space_group_symop_operation_xyz
x,y,z
-x,y,-z
-x,-y,-z
x,-y,z
1/2+x,1/2+y,z
1/2-x,1/2+y,-z
1/2-x,1/2-y,-z
1/2+x,1/2-y,z
loop_
_atom_site_type_symbol
_atom_site_label
_atom_site_fract_x
_atom_site_fract_y
_atom_site_fract_z
Si Si1 0.370533 0.600483 0.316239
Si Si2 0.947828 0.105453 0.368925
Si Si3 0.156404 0.745392 0.186235
Si Si4 0.190709 0.690448 0.781634
Si Si5 0.503365 0.898992 0.651803
O O1 0.404127 0.500000 0.234949
O O2 0.389566 0.641194 0.409209
O O3 0.260265 0.606876 0.605162
O O4 0.441724 0.636337 0.985163
O O5 0.906177 0.164000 0.616243
O O6 0.934985 0.000000 0.441589
O O7 0.095849 0.658872 0.418466
O O8 0.250000 0.750000 0.000000
O O9 0.177293 0.743034 0.963006
O O10 0.250000 0.750000 0.500000
O O11 0.093036 0.651116 0.009246
O O12 0.500000 0.905279 0.500000
O O13 0.510458 0.000000 0.692442
#
# Coordination Sequence:
#
# PCOD8114227 Si02
#       5
#     8   8   8   8   8
#     4   9  17  32  56  80 104 140 189 234 278 334
#     4   9  18  33  54  83 111 140 184 240 287 331
#     4  11  21  36  57  83 112 147 193 239 285 338
#     4  11  21  35  56  84 115 151 190 231 286 345
#     4   9  20  37  58  83 114 152 194 236 281 343
#
# _framework density 19.526582000000001
#
# number of rings (size 3 to 8) (size 9 to 14) (size 15 to 20)
#    0.000    2.200    2.000    3.000    0.000    1.600 
#    0.000    2.000    0.000    9.000    0.000    0.000 
#    0.000    0.000    0.000    0.000    0.000    0.000 
#
# Total GULP energy -247807.565499 kJ/mol
# GULP energy per Si atom -12390.378275 kJ/mol
# Density = 1.948214 g / cm^3
# Si number density = 19.526582 Si / 1000 Ang^3
#
#
#
# Elastic Constant Matrix: (Units=GPa)
#
#
# Indices 1 2 3 4 5 6 
#
# 1 57.6096 32.7725 49.3607 0.0000 -10.7722 0.0000
# 2 32.7725 118.7800 68.1707 0.0000 2.1396 0.0000
# 3 49.3607 68.1707 142.2726 0.0000 -7.1435 0.0000
# 4 0.0000 0.0000 0.0000 37.7080 0.0000 -2.0959
# 5 -10.7722 2.1396 -7.1435 0.0000 37.3408 0.0000
# 6 0.0000 0.0000 0.0000 -2.0959 0.0000 24.5086
#
#
#
# Elastic Compliance Matrix: (Units=1/GPa)
#
#
# Indices 1 2 3 4 5 6 
#
# 1 0.026764 -0.003254 -0.007400 0.000000 0.006492 0.000000
# 2 -0.003254 0.012122 -0.004807 0.000000 -0.002553 0.000000
# 3 -0.007400 -0.004807 0.011921 0.000000 0.000421 0.000000
# 4 0.000000 0.000000 0.000000 0.026646 0.000000 0.002279
# 5 0.006492 -0.002553 0.000421 0.000000 0.028880 0.000000
# 6 0.000000 0.000000 0.000000 0.002279 0.000000 0.040997
#
#
# Mechanical properties :
#
#
# Convention : Reuss Voigt Hill
#
# Bulk Modulus (GPa) = 50.29452 68.80777 59.55114
# Shear Modulus (GPa) = 27.04434 31.13536 29.08985
#
# Velocity S-wave (km/s) = 3.72560 3.99747 3.86392
# Velocity P-wave (km/s) = 6.65730 7.52468 7.10424
#
# Compressibility (1/GPa) = 0.01988288
#
# Stress axis : x y z
#
# Youngs Moduli (GPa) = 37.36353 82.49555 83.88571
#
# Poissons Ratio (x) = 0.26845 0.62079
# Poissons Ratio (y) = 0.12158 0.40328
# Poissons Ratio (z) = 0.27651 0.39659
#
# Static dielectric constant tensor:
#      x y z
#    x 3.262900 0.000000 -0.160070 
#    y 0.000000 3.592950 0.000000 
#    z -0.160070 0.000000 3.937160 
# 
# 
# High freq. dielectric constant tensor:
#      x y z
#    x 1.725080 0.000000 -0.017160 
#    y 0.000000 1.754620 0.000000 
#    z -0.017160 0.000000 1.781370 
# 
# From -- ./inp_files/73340.got.cif
#   From: 2010.06.25/outbox.cif.g09.slc.cpg/sg12_37_cif.got.tgz:73340.got - 2010.06.28 00:19:55.
