data_PCOD8114064
_publ_section_title
;
Structure prediction by ZEFSAII (Michael W. Deem and Ramdas Pophale) SiO2 
 PCOD8114064
Probable space group: C 2/M
;
_chemical_formula_sum "Si O2"
_cell_formula_units_Z 56
_cell_length_a 13.378697
_cell_length_b 28.864777
_cell_length_c 9.945928
_cell_angle_alpha 90.000000
_cell_angle_beta 104.750245
_cell_angle_gamma 90.000000
_cell_volume 3714.274119
_symmetry_space_group_name_H-M "C 2/M"
_symmetry_group_IT_number 12
_symmetry_cell_setting 'monoclinic'
loop_
_space_group_symop_operation_xyz
x,y,z
-x,y,-z
-x,-y,-z
x,-y,z
1/2+x,1/2+y,z
1/2-x,1/2+y,-z
1/2-x,1/2-y,-z
1/2+x,1/2-y,z
loop_
_atom_site_type_symbol
_atom_site_label
_atom_site_fract_x
_atom_site_fract_y
_atom_site_fract_z
Si Si1 0.269682 0.280335 0.301733
Si Si2 0.703339 0.687386 0.394059
Si Si3 0.670718 0.099887 0.587473
Si Si4 0.494193 0.732187 0.342284
Si Si5 0.835824 0.500000 0.405743
Si Si6 0.483406 0.000000 0.709890
Si Si7 0.056623 0.308524 0.154388
Si Si8 0.524928 0.100179 0.289320
O O1 0.259737 0.305796 0.440876
O O2 0.257793 0.225176 0.317682
O O3 0.381148 0.288840 0.270640
O O4 0.179693 0.300750 0.176037
O O5 0.738555 0.636938 0.355972
O O6 0.578943 0.692472 0.340538
O O7 0.615742 0.110000 0.426876
O O8 0.586120 0.102463 0.676342
O O9 0.726384 0.048748 0.605390
O O10 0.500000 0.747792 0.500000
O O11 0.516755 0.777869 0.264660
O O12 0.920579 0.500000 0.550730
O O13 0.895328 0.500000 0.284174
O O14 0.459075 0.049052 0.775498
O O15 0.031218 0.362045 0.174199
O O16 0.000000 0.292510 0.000000
#
# Coordination Sequence:
#
# PCOD8114064 Si02
#       8
#     8   8   8   8   4   4   8   8
#     4   9  17  29  41  59  84 110 142 173 202 242
#     4   9  15  25  44  66  79 103 144 177 201 240
#     4   9  14  23  43  64  85 107 134 173 207 245
#     4   9  19  31  46  60  80 110 147 175 204 242
#     4   7  12  20  34  64  88 102 127 166 216 244
#     4   7  12  24  35  56  83 111 136 161 200 252
#     4  11  21  29  41  64  88 112 141 171 208 248
#     4   9  16  24  41  60  86 112 135 167 209 245
#
# _framework density 15.076969999999999
#
# number of rings (size 3 to 8) (size 9 to 14) (size 15 to 20)
#    0.000    3.000    1.429    3.429    2.000    0.571 
#    0.000    0.357    0.000    0.000    0.000    5.500 
#    0.000    0.000    0.000   15.429    0.000    0.000 
#
# Total GULP energy -346910.378153 kJ/mol
# GULP energy per Si atom -12389.656363 kJ/mol
# Density = 1.504265 g / cm^3
# Si number density = 15.076970 Si / 1000 Ang^3
#
#
#
# Elastic Constant Matrix: (Units=GPa)
#
#
# Indices 1 2 3 4 5 6 
#
# 1 96.4669 50.0451 27.2543 0.0000 12.0783 0.0000
# 2 50.0451 130.6389 21.1165 0.0000 1.4721 0.0000
# 3 27.2543 21.1165 34.6018 0.0000 9.0431 0.0000
# 4 0.0000 0.0000 0.0000 7.5916 0.0000 -1.3846
# 5 12.0783 1.4721 9.0431 0.0000 14.0184 0.0000
# 6 0.0000 0.0000 0.0000 -1.3846 0.0000 20.0840
#
#
#
# Elastic Compliance Matrix: (Units=1/GPa)
#
#
# Indices 1 2 3 4 5 6 
#
# 1 0.016056 -0.004848 -0.007463 0.000000 -0.008510 0.000000
# 2 -0.004848 0.010059 -0.003771 0.000000 0.005554 0.000000
# 3 -0.007463 -0.003771 0.042454 0.000000 -0.020560 0.000000
# 4 0.000000 0.000000 0.000000 0.133402 0.000000 0.009197
# 5 -0.008510 0.005554 -0.020560 0.000000 0.091346 0.000000
# 6 0.000000 0.000000 0.000000 0.009197 0.000000 0.050425
#
#
# Mechanical properties :
#
#
# Convention : Reuss Voigt Hill
#
# Bulk Modulus (GPa) = 27.47111 50.94883 39.20997
# Shear Modulus (GPa) = 12.88521 19.22491 16.05506
#
# Velocity S-wave (km/s) = 2.92658 3.57475 3.26678
# Velocity P-wave (km/s) = 5.44793 7.13473 6.34761
#
# Compressibility (1/GPa) = 0.03640188
#
# Stress axis : x y z
#
# Youngs Moduli (GPa) = 62.28379 99.41350 23.55505
#
# Poissons Ratio (x) = 0.48198 0.17580
# Poissons Ratio (y) = 0.30197 0.08884
# Poissons Ratio (z) = 0.46485 0.37493
#
# Static dielectric constant tensor:
#      x y z
#    x 2.851080 0.000000 0.052270 
#    y 0.000000 3.065560 0.000000 
#    z 0.052270 0.000000 2.480070 
# 
# 
# High freq. dielectric constant tensor:
#      x y z
#    x 1.557240 0.000000 -0.000110 
#    y 0.000000 1.578100 0.000000 
#    z -0.000110 0.000000 1.531910 
# 
# From -- ./inp_files/67664.got.cif
#   From: 2010.06.25/outbox.cif.g09.slc.cpg/sg12_34_cif.got.tgz:67664.got - 2010.06.28 00:19:55.
