data_PCOD8114514
_publ_section_title
;
Structure prediction by ZEFSAII (Michael W. Deem and Ramdas Pophale) SiO2 
 PCOD8114514
Probable space group: C 2/M
;
_chemical_formula_sum "Si O2"
_cell_formula_units_Z 40
_cell_length_a 11.947994
_cell_length_b 20.536009
_cell_length_c 11.499977
_cell_angle_alpha 90.000000
_cell_angle_beta 35.816728
_cell_angle_gamma 90.000000
_cell_volume 1651.232432
_symmetry_space_group_name_H-M "C 2/M"
_symmetry_group_IT_number 12
_symmetry_cell_setting 'monoclinic'
loop_
_space_group_symop_operation_xyz
x,y,z
-x,y,-z
-x,-y,-z
x,-y,z
1/2+x,1/2+y,z
1/2-x,1/2+y,-z
1/2-x,1/2-y,-z
1/2+x,1/2-y,z
loop_
_atom_site_type_symbol
_atom_site_label
_atom_site_fract_x
_atom_site_fract_y
_atom_site_fract_z
Si Si1 0.393449 0.638887 0.268591
Si Si2 0.290853 0.428876 0.730351
Si Si3 0.086688 0.797785 0.298813
Si Si4 0.777746 0.340276 0.824502
Si Si5 0.103945 0.428369 0.649009
O O1 0.418949 0.696414 0.343274
O O2 0.237263 0.656305 0.302470
O O3 0.310287 0.577285 0.410103
O O4 0.597516 0.624849 0.036786
O O5 0.500000 0.430824 0.500000
O O6 0.252215 0.500000 0.824197
O O7 0.285688 0.365210 0.818585
O O8 0.132143 0.418676 0.763370
O O9 0.217817 0.736879 0.151836
O O10 0.000000 0.788611 0.500000
O O11 0.967601 0.373918 0.711008
O O12 0.020953 0.500000 0.693115
#
# Coordination Sequence:
#
# PCOD8114514 Si02
#       5
#     8   8   8   8   8
#     4  11  24  45  64  97 139 181 221 278 344 396
#     4   9  18  37  67 100 128 171 226 273 338 400
#     4  11  21  40  71  98 130 182 224 281 335 400
#     4  11  27  41  64 104 140 175 231 276 336 408
#     4  11  23  44  72  98 136 183 230 278 333 410
#
# _framework density 24.224332
#
# number of rings (size 3 to 8) (size 9 to 14) (size 15 to 20)
#    0.000    1.400    4.000    2.400    2.800    4.000 
#    0.000    2.000    0.000    2.400    0.000    0.000 
#    0.000    0.000    0.000    0.000    0.000    0.000 
#
# Total GULP energy -247792.799918 kJ/mol
# GULP energy per Si atom -12389.639996 kJ/mol
# Density = 2.416920 g / cm^3
# Si number density = 24.224332 Si / 1000 Ang^3
#
#
#
# Elastic Constant Matrix: (Units=GPa)
#
#
# Indices 1 2 3 4 5 6 
#
# 1 138.4372 43.4254 5.8901 -0.0121 3.5295 0.0141
# 2 43.4254 179.6088 19.0323 -0.0047 -12.2969 0.0043
# 3 5.8901 19.0323 42.2165 -0.0013 0.9287 0.0046
# 4 -0.0121 -0.0047 -0.0013 0.6775 0.0036 -5.0973
# 5 3.5295 -12.2969 0.9287 0.0036 31.6617 -0.0066
# 6 0.0141 0.0043 0.0046 -5.0973 -0.0066 22.7951
#
#
#
# Elastic Compliance Matrix: (Units=1/GPa)
#
#
# Indices 1 2 3 4 5 6 
#
# 1 0.007902 -0.002007 -0.000161 -0.000144 -0.001656 -0.000037
# 2 -0.002007 0.006537 -0.002729 0.000000 0.002843 0.000001
# 3 -0.000161 -0.002729 0.024980 0.000005 -0.001775 -0.000004
# 4 -0.000144 0.000000 0.000005 -2.163022 0.000159 -0.483685
# 5 -0.001656 0.002843 -0.001775 0.000159 0.032924 0.000046
# 6 -0.000037 0.000001 -0.000004 -0.483685 0.000046 -0.064290
#
#
# Mechanical properties :
#
#
# Convention : Reuss Voigt Hill
#
# Bulk Modulus (GPa) = 33.75753 55.21757 44.48755
# Shear Modulus (GPa) = -2.34159 30.48784 14.07312
#
# Velocity S-wave (km/s) = -0.98424 3.55147 2.41291
# Velocity P-wave (km/s) = 3.56006 6.29770 5.11542
#
# Compressibility (1/GPa) = 0.02962302
#
# Stress axis : x y z
#
# Youngs Moduli (GPa) = 126.54944 152.98256 40.03280
#
# Poissons Ratio (x) = 0.30700 0.00646
# Poissons Ratio (y) = 0.25396 0.10927
# Poissons Ratio (z) = 0.02042 0.41756
#
# Static dielectric constant tensor:
#      x y z
#    x 4.709180 0.000000 0.145210 
#    y 0.000000 4.683000 0.000000 
#    z 0.145210 0.000000 3.974410 
# 
# 
# High freq. dielectric constant tensor:
#      x y z
#    x 1.981200 0.000000 0.005330 
#    y 0.000000 1.950990 0.000000 
#    z 0.005330 0.000000 1.942670 
# 
# From -- ./inp_files/48805.got.cif
#   From: 2010.06.25/outbox.cif.g09.slc.cpg/sg12_25_cif.got.tgz:48805.got - 2010.06.28 00:19:55.
