data_PCOD8114038
_publ_section_title
;
Structure prediction by ZEFSAII (Michael W. Deem and Ramdas Pophale) SiO2 
 PCOD8114038
Probable space group: C 2/M
;
_chemical_formula_sum "Si O2"
_cell_formula_units_Z 40
_cell_length_a 17.452852
_cell_length_b 9.674972
_cell_length_c 15.647568
_cell_angle_alpha 90.000000
_cell_angle_beta 130.116741
_cell_angle_gamma 90.000000
_cell_volume 2020.565322
_symmetry_space_group_name_H-M "C 2/M"
_symmetry_group_IT_number 12
_symmetry_cell_setting 'monoclinic'
loop_
_space_group_symop_operation_xyz
x,y,z
-x,y,-z
-x,-y,-z
x,-y,z
1/2+x,1/2+y,z
1/2-x,1/2+y,-z
1/2-x,1/2-y,-z
1/2+x,1/2-y,z
loop_
_atom_site_type_symbol
_atom_site_label
_atom_site_fract_x
_atom_site_fract_y
_atom_site_fract_z
Si Si1 0.882528 0.724343 0.931069
Si Si2 0.932047 0.500000 0.691127
Si Si3 0.649958 0.777763 0.480364
Si Si4 0.878421 0.500000 0.406373
Si Si5 0.131968 0.500000 0.937050
Si Si6 0.245173 0.000000 0.145854
Si Si7 0.801327 0.500000 0.750522
Si Si8 0.101256 0.000000 0.525672
O O1 0.825045 0.868101 0.892517
O O2 0.842364 0.638278 0.822362
O O3 0.858150 0.637960 0.999151
O O4 0.000000 0.750471 0.000000
O O5 0.931873 0.362937 0.633054
O O6 0.829749 0.500000 0.671311
O O7 0.022153 0.500000 0.820387
O O8 0.750000 0.750000 0.500000
O O9 0.668362 0.864768 0.580767
O O10 0.602463 0.631645 0.465777
O O11 0.838508 0.500000 0.279701
O O12 0.000000 0.500000 0.500000
O O13 0.213540 0.500000 0.920934
O O14 0.681730 0.500000 0.660476
O O15 0.000000 0.000000 0.500000
#
# Coordination Sequence:
#
# PCOD8114038 Si02
#       8
#     8   4   8   4   4   4   4   4
#     4  11  23  43  68  93 122 165 217 265 316 374
#     4  11  21  39  67  87 119 171 220 242 304 390
#     4  11  22  39  62  90 124 166 213 256 301 373
#     4  11  24  43  62  91 131 175 206 244 312 392
#     4  11  23  44  67  88 124 173 216 252 313 397
#     4  12  25  39  64 101 133 155 205 281 324 350
#     4  11  20  41  68  87 120 174 209 246 313 391
#     4  12  24  39  61  96 134 160 201 268 323 359
#
# _framework density 19.796441999999999
#
# number of rings (size 3 to 8) (size 9 to 14) (size 15 to 20)
#    0.000    0.800    4.000    5.100    0.000    1.600 
#    0.000    1.000    0.000    0.000    0.000    0.000 
#    0.000    0.000    0.000    0.000    0.000    0.000 
#
# Total GULP energy -247994.690340 kJ/mol
# GULP energy per Si atom -12399.734517 kJ/mol
# Density = 1.975138 g / cm^3
# Si number density = 19.796442 Si / 1000 Ang^3
#
#
#
# Elastic Constant Matrix: (Units=GPa)
#
#
# Indices 1 2 3 4 5 6 
#
# 1 143.7226 67.6324 41.7115 0.0000 4.5222 0.0000
# 2 67.6324 186.7073 60.1202 0.0000 -1.9509 0.0000
# 3 41.7115 60.1202 125.3405 0.0000 3.9489 0.0000
# 4 0.0000 0.0000 0.0000 24.3438 0.0000 0.6582
# 5 4.5222 -1.9509 3.9489 0.0000 39.1505 0.0000
# 6 0.0000 0.0000 0.0000 0.6582 0.0000 31.3392
#
#
#
# Elastic Compliance Matrix: (Units=1/GPa)
#
#
# Indices 1 2 3 4 5 6 
#
# 1 0.008697 -0.002647 -0.001594 0.000000 -0.000976 0.000000
# 2 -0.002647 0.007155 -0.002580 0.000000 0.000923 0.000000
# 3 -0.001594 -0.002580 0.009776 0.000000 -0.000931 0.000000
# 4 0.000000 0.000000 0.000000 0.041102 0.000000 -0.000863
# 5 -0.000976 0.000923 -0.000931 0.000000 0.025795 0.000000
# 6 0.000000 0.000000 0.000000 -0.000863 0.000000 0.031927
#
#
# Mechanical properties :
#
#
# Convention : Reuss Voigt Hill
#
# Bulk Modulus (GPa) = 83.43469 88.29982 85.86725
# Shear Modulus (GPa) = 35.18926 38.05380 36.62153
#
# Velocity S-wave (km/s) = 4.22068 4.38911 4.30572
# Velocity P-wave (km/s) = 8.12342 8.38966 8.25761
#
# Compressibility (1/GPa) = 0.01198542
#
# Stress axis : x y z
#
# Youngs Moduli (GPa) = 114.98426 139.75420 102.29639
#
# Poissons Ratio (x) = 0.36998 0.16302
# Poissons Ratio (y) = 0.30441 0.26394
# Poissons Ratio (z) = 0.18324 0.36059
#
# Static dielectric constant tensor:
#      x y z
#    x 3.769450 0.000000 -0.096000 
#    y 0.000000 3.790430 0.000000 
#    z -0.096000 0.000000 3.618830 
# 
# 
# High freq. dielectric constant tensor:
#      x y z
#    x 1.785680 0.000000 -0.006990 
#    y 0.000000 1.785150 0.000000 
#    z -0.006990 0.000000 1.771440 
# 
# From -- ./inp_files/274699.got.cif
#   From: 2010.06.25/outbox.cif.g09.slc.cpg/sg12_138_cif.got.tgz:274699.got - 2010.06.28 00:19:55.
