data_PCOD8114345
_publ_section_title
;
Structure prediction by ZEFSAII (Michael W. Deem and Ramdas Pophale) SiO2 
 PCOD8114345
Probable space group: C 2/M
;
_chemical_formula_sum "Si O2"
_cell_formula_units_Z 64
_cell_length_a 23.774210
_cell_length_b 8.380374
_cell_length_c 14.870951
_cell_angle_alpha 90.000000
_cell_angle_beta 94.002151
_cell_angle_gamma 90.000000
_cell_volume 2955.615173
_symmetry_space_group_name_H-M "C 2/M"
_symmetry_group_IT_number 12
_symmetry_cell_setting 'monoclinic'
loop_
_space_group_symop_operation_xyz
x,y,z
-x,y,-z
-x,-y,-z
x,-y,z
1/2+x,1/2+y,z
1/2-x,1/2+y,-z
1/2-x,1/2-y,-z
1/2+x,1/2-y,z
loop_
_atom_site_type_symbol
_atom_site_label
_atom_site_fract_x
_atom_site_fract_y
_atom_site_fract_z
Si Si1 0.686807 0.314907 0.495864
Si Si2 0.488737 0.812257 0.280826
Si Si3 0.530246 0.817183 0.917419
Si Si4 0.842816 0.682597 0.014318
Si Si5 0.886749 0.685041 0.671268
Si Si6 0.318778 0.682827 0.822015
Si Si7 0.872205 0.684738 0.340377
Si Si8 0.798399 0.816787 0.182124
O O1 0.687712 0.500000 0.470213
O O2 0.750000 0.250000 0.500000
O O3 0.647927 0.220747 0.421912
O O4 0.660218 0.291956 0.590898
O O5 0.487797 0.736663 0.179689
O O6 0.547377 0.770520 0.336880
O O7 0.436476 0.751012 0.336044
O O8 0.479201 0.000000 0.268482
O O9 0.596849 0.801910 0.932876
O O10 0.509737 0.000000 0.913936
O O11 0.500000 0.732550 0.000000
O O12 0.824907 0.500000 0.995566
O O13 0.798762 0.765347 0.077365
O O14 0.844766 0.773680 0.920744
O O15 0.880737 0.500000 0.695746
O O16 0.865846 0.788768 0.752327
O O17 0.299680 0.500000 0.819128
O O18 0.265108 0.790916 0.790465
O O19 0.870211 0.500000 0.369938
O O20 0.840965 0.705065 0.241828
O O21 0.815826 0.000000 0.196390
#
# Coordination Sequence:
#
# PCOD8114345 Si02
#       8
#     8   8   8   8   8   8   8   8
#     4  12  26  46  69  98 131 166 209 261 323 383
#     4   9  19  37  64  96 128 166 213 260 309 376
#     4   9  16  30  57  90 122 162 213 262 304 359
#     4  11  21  37  61  89 124 165 215 266 315 377
#     4  11  23  43  69  97 127 165 212 259 312 377
#     4  12  25  41  60  88 127 169 213 265 324 381
#     4  11  22  42  69  97 128 168 215 262 315 378
#     4  12  24  40  61  90 127 167 212 264 323 383
#
# _framework density 21.653699
#
# number of rings (size 3 to 8) (size 9 to 14) (size 15 to 20)
#    0.000    1.125    1.250    6.375    0.000    2.500 
#    0.000    5.000    0.000    1.500    0.000    0.000 
#    0.000    0.000    0.000    0.000    0.000    0.000 
#
# Total GULP energy -396936.796052 kJ/mol
# GULP energy per Si atom -12404.274877 kJ/mol
# Density = 2.160441 g / cm^3
# Si number density = 21.653699 Si / 1000 Ang^3
#
#
#
# Elastic Constant Matrix: (Units=GPa)
#
#
# Indices 1 2 3 4 5 6 
#
# 1 136.9750 19.8913 51.2241 0.0000 -3.2965 0.0000
# 2 19.8913 71.4112 13.2368 0.0000 -2.7308 0.0000
# 3 51.2241 13.2368 109.9943 0.0000 -4.6123 0.0000
# 4 0.0000 0.0000 0.0000 30.8691 0.0000 -0.5120
# 5 -3.2965 -2.7308 -4.6123 0.0000 42.2591 0.0000
# 6 0.0000 0.0000 0.0000 -0.5120 0.0000 21.6929
#
#
#
# Elastic Compliance Matrix: (Units=1/GPa)
#
#
# Indices 1 2 3 4 5 6 
#
# 1 0.009057 -0.001776 -0.003998 0.000000 0.000155 0.000000
# 2 -0.001776 0.014694 -0.000911 0.000000 0.000712 0.000000
# 3 -0.003998 -0.000911 0.011098 0.000000 0.000841 0.000000
# 4 0.000000 0.000000 0.000000 0.032408 0.000000 0.000765
# 5 0.000155 0.000712 0.000841 0.000000 0.023813 0.000000
# 6 0.000000 0.000000 0.000000 0.000765 0.000000 0.046116
#
#
# Mechanical properties :
#
#
# Convention : Reuss Voigt Hill
#
# Bulk Modulus (GPa) = 46.55624 54.12055 50.33839
# Shear Modulus (GPa) = 31.70247 34.56611 33.13429
#
# Velocity S-wave (km/s) = 3.83046 3.99972 3.91601
# Velocity P-wave (km/s) = 6.41173 6.81016 6.61395
#
# Compressibility (1/GPa) = 0.02147940
#
# Stress axis : x y z
#
# Youngs Moduli (GPa) = 110.40884 68.05396 90.10609
#
# Poissons Ratio (x) = 0.12086 0.36022
# Poissons Ratio (y) = 0.19608 0.08213
# Poissons Ratio (z) = 0.44138 0.06203
#
# Static dielectric constant tensor:
#      x y z
#    x 3.972040 0.000000 -0.098660 
#    y 0.000000 3.617140 0.000000 
#    z -0.098660 0.000000 3.883280 
# 
# 
# High freq. dielectric constant tensor:
#      x y z
#    x 1.863470 0.000000 -0.003800 
#    y 0.000000 1.826770 0.000000 
#    z -0.003800 0.000000 1.854640 
# 
# From -- ./inp_files/238675.got.cif
#   From: 2010.06.25/outbox.cif.g09.slc.cpg/sg12_120_cif.got.tgz:238675.got - 2010.06.28 00:19:55.
