data_PCOD8114369
_publ_section_title
;
Structure prediction by ZEFSAII (Michael W. Deem and Ramdas Pophale) SiO2 
 PCOD8114369
Probable space group: C 2/M
;
_chemical_formula_sum "Si O2"
_cell_formula_units_Z 48
_cell_length_a 24.654882
_cell_length_b 8.382051
_cell_length_c 12.575581
_cell_angle_alpha 90.000000
_cell_angle_beta 71.020223
_cell_angle_gamma 90.000000
_cell_volume 2457.559846
_symmetry_space_group_name_H-M "C 2/M"
_symmetry_group_IT_number 12
_symmetry_cell_setting 'monoclinic'
loop_
_space_group_symop_operation_xyz
x,y,z
-x,y,-z
-x,-y,-z
x,-y,z
1/2+x,1/2+y,z
1/2-x,1/2+y,-z
1/2-x,1/2-y,-z
1/2+x,1/2-y,z
loop_
_atom_site_type_symbol
_atom_site_label
_atom_site_fract_x
_atom_site_fract_y
_atom_site_fract_z
Si Si1 0.563937 0.314609 0.241479
Si Si2 0.365681 0.685352 0.235621
Si Si3 0.557126 0.815817 0.631576
Si Si4 0.750600 0.314959 0.380853
Si Si5 0.440818 0.312195 0.992557
Si Si6 0.866692 0.315771 0.614730
O O1 0.579983 0.500000 0.239745
O O2 0.498372 0.293070 0.318942
O O3 0.571966 0.245364 0.116961
O O4 0.607182 0.214613 0.286310
O O5 0.377393 0.500000 0.252151
O O6 0.398032 0.789632 0.302516
O O7 0.298412 0.722982 0.281724
O O8 0.388744 0.732283 0.104107
O O9 0.586649 0.764364 0.502620
O O10 0.538198 0.000000 0.640630
O O11 0.766074 0.500000 0.373633
O O12 0.750000 0.250000 0.500000
O O13 0.689937 0.289398 0.363150
O O14 0.449432 0.500000 0.975945
O O15 0.500000 0.237080 0.000000
O O16 0.849836 0.500000 0.611674
#
# Coordination Sequence:
#
# PCOD8114369 Si02
#       6
#     8   8   8   8   8   8
#     4  11  22  38  61  88 121 159 202 244 297 358
#     4  11  21  37  63  90 119 154 198 246 297 348
#     4  11  22  36  57  87 124 158 194 245 300 355
#     4  12  24  40  62  89 120 155 199 244 294 352
#     4   9  18  36  60  88 119 155 196 245 294 349
#     4  11  24  41  59  85 123 160 199 246 299 352
#
# _framework density 19.531568
#
# number of rings (size 3 to 8) (size 9 to 14) (size 15 to 20)
#    0.000    1.167    3.333    4.000    0.000    4.000 
#    0.000    5.000    0.000    0.000    0.000    0.000 
#    0.000    0.000    0.000    0.000    0.000    0.000 
#
# Total GULP energy -297739.537972 kJ/mol
# GULP energy per Si atom -12405.814082 kJ/mol
# Density = 1.948711 g / cm^3
# Si number density = 19.531568 Si / 1000 Ang^3
#
#
#
# Elastic Constant Matrix: (Units=GPa)
#
#
# Indices 1 2 3 4 5 6 
#
# 1 91.6781 15.3633 76.2874 0.0000 4.8957 0.0000
# 2 15.3633 41.7192 19.5096 0.0000 -5.2565 0.0000
# 3 76.2874 19.5096 149.7897 0.0000 0.7344 0.0000
# 4 0.0000 0.0000 0.0000 17.2932 0.0000 0.0639
# 5 4.8957 -5.2565 0.7344 0.0000 38.4680 0.0000
# 6 0.0000 0.0000 0.0000 0.0639 0.0000 33.9982
#
#
#
# Elastic Compliance Matrix: (Units=1/GPa)
#
#
# Indices 1 2 3 4 5 6 
#
# 1 0.019478 -0.003069 -0.009507 0.000000 -0.002717 0.000000
# 2 -0.003069 0.026503 -0.001909 0.000000 0.004049 0.000000
# 3 -0.009507 -0.001909 0.011763 0.000000 0.000725 0.000000
# 4 0.000000 0.000000 0.000000 0.057827 0.000000 -0.000109
# 5 -0.002717 0.004049 0.000725 0.000000 0.026881 0.000000
# 6 0.000000 0.000000 0.000000 -0.000109 0.000000 0.029414
#
#
# Mechanical properties :
#
#
# Convention : Reuss Voigt Hill
#
# Bulk Modulus (GPa) = 34.75366 56.16751 45.46058
# Shear Modulus (GPa) = 23.76130 29.42033 26.59081
#
# Velocity S-wave (km/s) = 3.49170 3.88531 3.69376
# Velocity P-wave (km/s) = 5.83851 6.99623 6.44343
#
# Compressibility (1/GPa) = 0.02877395
#
# Stress axis : x y z
#
# Youngs Moduli (GPa) = 51.33933 37.73202 85.01241
#
# Poissons Ratio (x) = 0.11581 0.80822
# Poissons Ratio (y) = 0.15758 0.16225
# Poissons Ratio (z) = 0.48809 0.07201
#
# Static dielectric constant tensor:
#      x y z
#    x 3.580800 0.000000 -0.053120 
#    y 0.000000 3.483380 0.000000 
#    z -0.053120 0.000000 3.758670 
# 
# 
# High freq. dielectric constant tensor:
#      x y z
#    x 1.756910 0.000000 -0.001540 
#    y 0.000000 1.755270 0.000000 
#    z -0.001540 0.000000 1.764140 
# 
# From -- ./inp_files/172107.got.cif
#   From: 2010.06.25/outbox.cif.g09.slc.cpg/sg12_87_cif.got.tgz:172107.got - 2010.06.28 00:19:55.
