data_PCOD8114577
_publ_section_title
;
Structure prediction by ZEFSAII (Michael W. Deem and Ramdas Pophale) SiO2 
 PCOD8114577
Probable space group: C 2/M
;
_chemical_formula_sum "Si O2"
_cell_formula_units_Z 56
_cell_length_a 23.567737
_cell_length_b 26.833018
_cell_length_c 9.929998
_cell_angle_alpha 90.000000
_cell_angle_beta 153.745333
_cell_angle_gamma 90.000000
_cell_volume 2777.884131
_symmetry_space_group_name_H-M "C 2/M"
_symmetry_group_IT_number 12
_symmetry_cell_setting 'monoclinic'
loop_
_space_group_symop_operation_xyz
x,y,z
-x,y,-z
-x,-y,-z
x,-y,z
1/2+x,1/2+y,z
1/2-x,1/2+y,-z
1/2-x,1/2-y,-z
1/2+x,1/2-y,z
loop_
_atom_site_type_symbol
_atom_site_label
_atom_site_fract_x
_atom_site_fract_y
_atom_site_fract_z
Si Si1 0.462647 0.000000 0.701104
Si Si2 0.261549 0.336439 0.778949
Si Si3 0.845100 0.339430 0.882515
Si Si4 0.873403 0.275289 0.705958
Si Si5 0.293201 0.000000 0.605847
Si Si6 0.650761 0.395034 0.300819
Si Si7 0.947297 0.398828 0.535342
Si Si8 0.364961 0.247946 0.139889
O O1 0.423397 0.044361 0.518887
O O2 0.374941 0.000000 0.644845
O O3 0.611986 0.000000 0.063100
O O4 0.153746 0.295965 0.500457
O O5 0.316781 0.368833 0.773462
O O6 0.187771 0.369898 0.732014
O O7 0.372525 0.302516 0.083614
O O8 0.909520 0.320336 0.882847
O O9 0.707400 0.362976 0.546761
O O10 0.830532 0.295901 0.961718
O O11 0.940299 0.382693 0.126399
O O12 0.750000 0.250000 0.500000
O O13 0.000000 0.239893 0.000000
O O14 0.205735 0.950873 0.421509
O O15 0.500000 0.398111 0.000000
O O16 0.000000 0.389450 0.500000
O O17 0.500000 0.236512 0.500000
O O18 0.250000 0.250000 0.000000
#
# Coordination Sequence:
#
# PCOD8114577 Si02
#       8
#     4   8   8   8   4   8   8   8
#     4  11  23  40  72 102 127 161 226 274 348 399
#     4  11  24  43  64  95 127 174 225 270 336 387
#     4  11  23  41  64  96 123 171 226 268 332 387
#     4  11  22  36  63  86 126 165 213 280 324 381
#     4  11  21  44  72  98 131 169 204 288 348 403
#     4  11  25  41  70  98 133 168 214 284 338 406
#     4  12  23  43  68  96 132 171 220 278 331 397
#     4  12  27  44  63  90 136 188 227 269 319 397
#
# _framework density 20.159227000000001
#
# number of rings (size 3 to 8) (size 9 to 14) (size 15 to 20)
#    0.000    0.714    5.714    2.571    2.000    2.286 
#    0.000    0.000    0.000    0.000    0.000    3.000 
#    0.000    0.000    0.000    0.000    0.000    0.000 
#
# Total GULP energy -346968.326428 kJ/mol
# GULP energy per Si atom -12391.725944 kJ/mol
# Density = 2.011334 g / cm^3
# Si number density = 20.159227 Si / 1000 Ang^3
#
#
#
# Elastic Constant Matrix: (Units=GPa)
#
#
# Indices 1 2 3 4 5 6 
#
# 1 104.1565 44.0178 40.7609 0.0000 4.9768 0.0000
# 2 44.0178 128.7566 49.8500 0.0000 -0.1370 0.0000
# 3 40.7609 49.8500 119.4625 0.0000 16.3309 0.0000
# 4 0.0000 0.0000 0.0000 28.1450 0.0000 5.1481
# 5 4.9768 -0.1370 16.3309 0.0000 36.3021 0.0000
# 6 0.0000 0.0000 0.0000 5.1481 0.0000 26.9719
#
#
#
# Elastic Compliance Matrix: (Units=1/GPa)
#
#
# Indices 1 2 3 4 5 6 
#
# 1 0.011983 -0.003024 -0.002771 0.000000 -0.000408 0.000000
# 2 -0.003024 0.010150 -0.003479 0.000000 0.002018 0.000000
# 3 -0.002771 -0.003479 0.011420 0.000000 -0.004771 0.000000
# 4 0.000000 0.000000 0.000000 0.036816 0.000000 -0.007027
# 5 -0.000408 0.002018 -0.004771 0.000000 0.029756 0.000000
# 6 0.000000 0.000000 0.000000 -0.007027 0.000000 0.038417
#
#
# Mechanical properties :
#
#
# Convention : Reuss Voigt Hill
#
# Bulk Modulus (GPa) = 66.64887 69.07033 67.85960
# Shear Modulus (GPa) = 30.84669 32.80025 31.82347
#
# Velocity S-wave (km/s) = 3.91596 4.03806 3.97748
# Velocity P-wave (km/s) = 7.31979 7.48852 7.40464
#
# Compressibility (1/GPa) = 0.01500401
#
# Stress axis : x y z
#
# Youngs Moduli (GPa) = 83.45257 98.52513 87.56311
#
# Poissons Ratio (x) = 0.29796 0.24263
# Poissons Ratio (y) = 0.25238 0.30466
# Poissons Ratio (z) = 0.23124 0.34280
#
# Static dielectric constant tensor:
#      x y z
#    x 3.618740 0.000000 -0.099080 
#    y 0.000000 4.224350 0.000000 
#    z -0.099080 0.000000 4.129060 
# 
# 
# High freq. dielectric constant tensor:
#      x y z
#    x 1.789610 0.000000 -0.001440 
#    y 0.000000 1.793310 0.000000 
#    z -0.001440 0.000000 1.789750 
# 
# From -- ./inp_files/91685.got.cif
#   From: 2010.06.25/outbox.cif.g09.slc.cpg/sg12_46_cif.got.tgz:91685.got - 2010.06.28 00:19:55.
