data_PCOD8114809
_publ_section_title
;
Structure prediction by ZEFSAII (Michael W. Deem and Ramdas Pophale) SiO2 
 PCOD8114809
Probable space group: C 2/M
;
_chemical_formula_sum "Si O2"
_cell_formula_units_Z 48
_cell_length_a 17.864886
_cell_length_b 8.635381
_cell_length_c 30.372299
_cell_angle_alpha 90.000000
_cell_angle_beta 149.279037
_cell_angle_gamma 90.000000
_cell_volume 2393.641892
_symmetry_space_group_name_H-M "C 2/M"
_symmetry_group_IT_number 12
_symmetry_cell_setting 'monoclinic'
loop_
_space_group_symop_operation_xyz
x,y,z
-x,y,-z
-x,-y,-z
x,-y,z
1/2+x,1/2+y,z
1/2-x,1/2+y,-z
1/2-x,1/2-y,-z
1/2+x,1/2-y,z
loop_
_atom_site_type_symbol
_atom_site_label
_atom_site_fract_x
_atom_site_fract_y
_atom_site_fract_z
Si Si1 0.055685 0.818950 0.980038
Si Si2 0.075136 0.681198 0.170243
Si Si3 0.373173 0.682507 0.140673
Si Si4 0.530379 0.682380 0.307016
Si Si5 0.821605 0.681185 0.493071
Si Si6 0.907148 0.181902 0.336631
O O1 0.958169 0.719756 0.897213
O O2 0.034685 0.000000 0.959897
O O3 0.224324 0.775442 0.059576
O O4 0.000000 0.772273 0.000000
O O5 0.048054 0.500000 0.165292
O O6 0.242240 0.729481 0.264957
O O7 0.972522 0.785203 0.148701
O O8 0.341161 0.500000 0.127647
O O9 0.455291 0.750695 0.225353
O O10 0.507252 0.500000 0.294935
O O11 0.705871 0.721511 0.395379
O O12 0.452189 0.750816 0.311356
O O13 0.839767 0.500000 0.507509
O O14 0.750000 0.750000 0.500000
O O15 0.984326 0.753096 0.570171
O O16 0.926579 0.000000 0.345162
#
# Coordination Sequence:
#
# PCOD8114809 Si02
#       6
#     8   8   8   8   8   8
#     4  11  24  41  61  86 112 138 178 228 274 326
#     4  11  23  39  58  81 113 149 184 224 273 329
#     4  11  22  38  59  81 111 149 186 224 272 327
#     4   8  16  32  54  79 105 139 183 225 267 321
#     4   9  16  29  51  79 109 140 180 227 273 321
#     4   9  18  34  55  79 107 141 184 229 273 323
#
# _framework density 20.053125000000001
#
# number of rings (size 3 to 8) (size 9 to 14) (size 15 to 20)
#    0.000    2.167    0.000    4.500    0.000    4.000 
#    0.000   10.833    0.000    5.000    0.000    0.000 
#    0.000    0.000    0.000    0.000    0.000    0.000 
#
# Total GULP energy -297527.954726 kJ/mol
# GULP energy per Si atom -12396.998114 kJ/mol
# Density = 2.000748 g / cm^3
# Si number density = 20.053125 Si / 1000 Ang^3
#
#
#
# Elastic Constant Matrix: (Units=GPa)
#
#
# Indices 1 2 3 4 5 6 
#
# 1 61.2301 13.2701 7.4816 0.0000 18.1444 0.0000
# 2 13.2701 26.1844 27.1715 -0.0001 6.8219 0.0000
# 3 7.4816 27.1715 100.5182 -0.0003 26.7968 0.0000
# 4 0.0000 -0.0001 -0.0003 32.1964 0.0000 1.1198
# 5 18.1444 6.8219 26.7968 0.0000 28.2451 0.0000
# 6 0.0000 0.0000 0.0000 1.1198 0.0000 20.4270
#
#
#
# Elastic Compliance Matrix: (Units=1/GPa)
#
#
# Indices 1 2 3 4 5 6 
#
# 1 0.024270 -0.014912 0.007256 0.000000 -0.018873 0.000000
# 2 -0.014912 0.062266 -0.019096 0.000000 0.012657 0.000000
# 3 0.007256 -0.019096 0.019520 0.000000 -0.018568 0.000000
# 4 0.000000 0.000000 0.000000 0.031119 0.000000 -0.001706
# 5 -0.018873 0.012657 -0.018568 0.000000 0.062087 0.000000
# 6 0.000000 0.000000 0.000000 -0.001706 0.000000 0.049048
#
#
# Mechanical properties :
#
#
# Convention : Reuss Voigt Hill
#
# Bulk Modulus (GPa) = 19.02878 31.53100 25.27989
# Shear Modulus (GPa) = 15.65771 25.50766 20.58269
#
# Velocity S-wave (km/s) = 2.79733 3.57039 3.20724
# Velocity P-wave (km/s) = 4.46578 5.72318 5.13313
#
# Compressibility (1/GPa) = 0.05255197
#
# Stress axis : x y z
#
# Youngs Moduli (GPa) = 41.20371 16.06011 51.22880
#
# Poissons Ratio (x) = 0.23949 -0.37170
# Poissons Ratio (y) = 0.61443 0.97825
# Poissons Ratio (z) = -0.29896 0.30668
#
# Static dielectric constant tensor:
#      x y z
#    x 3.480720 0.000000 0.027380 
#    y 0.000000 3.510400 0.000000 
#    z 0.027380 0.000000 4.254640 
# 
# 
# High freq. dielectric constant tensor:
#      x y z
#    x 1.756890 0.000000 0.007970 
#    y 0.000000 1.770630 0.000000 
#    z 0.007970 0.000000 1.806940 
# 
# From -- ./inp_files/274061.got.cif
#   From: 2010.06.25/outbox.cif.g09.slc.cpg/sg12_138_cif.got.tgz:274061.got - 2010.06.28 00:19:55.
