data_PCOD8114992
_publ_section_title
;
Structure prediction by ZEFSAII (Michael W. Deem and Ramdas Pophale) SiO2 
 PCOD8114992
Probable space group: C 2/M
;
_chemical_formula_sum "Si O2"
_cell_formula_units_Z 40
_cell_length_a 18.722697
_cell_length_b 13.052164
_cell_length_c 13.356583
_cell_angle_alpha 90.000000
_cell_angle_beta 39.872154
_cell_angle_gamma 90.000000
_cell_volume 2092.455824
_symmetry_space_group_name_H-M "C 2/M"
_symmetry_group_IT_number 12
_symmetry_cell_setting 'monoclinic'
loop_
_space_group_symop_operation_xyz
x,y,z
-x,y,-z
-x,-y,-z
x,-y,z
1/2+x,1/2+y,z
1/2-x,1/2+y,-z
1/2-x,1/2-y,-z
1/2+x,1/2-y,z
loop_
_atom_site_type_symbol
_atom_site_label
_atom_site_fract_x
_atom_site_fract_y
_atom_site_fract_z
Si Si1 0.630260 0.220052 0.587433
Si Si2 0.467218 0.883362 0.920730
Si Si3 0.629146 0.116729 0.382829
Si Si4 0.488771 0.616828 0.624262
Si Si5 0.765213 0.214862 0.872893
O O1 0.750000 0.250000 0.500000
O O2 0.556580 0.173321 0.755377
O O3 0.649818 0.139419 0.477445
O O4 0.566829 0.319828 0.614633
O O5 0.460464 0.000000 0.890588
O O6 0.500000 0.875785 0.000000
O O7 0.346899 0.832935 0.047409
O O8 0.500000 0.132801 0.500000
O O9 0.700278 0.190776 0.235155
O O10 0.666350 0.000000 0.320737
O O11 0.500000 0.659745 0.500000
O O12 0.527856 0.500000 0.592122
O O13 0.358197 0.627344 0.785237
O O14 0.750000 0.250000 0.000000
#
# Coordination Sequence:
#
# PCOD8114992 Si02
#       5
#     8   8   8   8   8
#     4  12  23  43  66  89 128 167 210 260 308 370
#     4  11  25  42  64  94 127 165 207 257 317 374
#     4  11  22  40  66  93 122 163 212 256 305 369
#     4  11  23  41  65  93 123 163 211 257 309 369
#     4  12  21  41  64  93 130 161 201 262 313 370
#
# _framework density 19.116294
#
# number of rings (size 3 to 8) (size 9 to 14) (size 15 to 20)
#    0.000    0.600    6.000    2.400    0.000    4.800 
#    0.000    0.000    0.000    2.400    0.000    0.000 
#    0.000    0.000    0.000    0.000    0.000    0.000 
#
# Total GULP energy -248006.172607 kJ/mol
# GULP energy per Si atom -12400.308630 kJ/mol
# Density = 1.907278 g / cm^3
# Si number density = 19.116294 Si / 1000 Ang^3
#
#
#
# Elastic Constant Matrix: (Units=GPa)
#
#
# Indices 1 2 3 4 5 6 
#
# 1 125.5309 67.8972 66.2788 0.0000 -18.5381 0.0000
# 2 67.8972 139.0061 64.6860 0.0000 -5.4279 0.0000
# 3 66.2788 64.6860 137.2877 0.0000 -1.8785 0.0000
# 4 0.0000 0.0000 0.0000 30.6473 0.0000 3.4165
# 5 -18.5381 -5.4279 -1.8785 0.0000 45.0267 0.0000
# 6 0.0000 0.0000 0.0000 3.4165 0.0000 22.8799
#
#
#
# Elastic Compliance Matrix: (Units=1/GPa)
#
#
# Indices 1 2 3 4 5 6 
#
# 1 0.013269 -0.004284 -0.004322 0.000000 0.004766 0.000000
# 2 -0.004284 0.010636 -0.002952 0.000000 -0.000605 0.000000
# 3 -0.004322 -0.002952 0.010738 0.000000 -0.001687 0.000000
# 4 0.000000 0.000000 0.000000 0.033182 0.000000 -0.004955
# 5 0.004766 -0.000605 -0.001687 0.000000 0.024028 0.000000
# 6 0.000000 0.000000 0.000000 -0.004955 0.000000 0.044446
#
#
# Mechanical properties :
#
#
# Convention : Reuss Voigt Hill
#
# Bulk Modulus (GPa) = 86.74437 88.83874 87.79155
# Shear Modulus (GPa) = 30.62628 33.24163 31.93395
#
# Velocity S-wave (km/s) = 4.00697 4.17456 4.09162
# Velocity P-wave (km/s) = 8.17823 8.35521 8.26719
#
# Compressibility (1/GPa) = 0.01152813
#
# Stress axis : x y z
#
# Youngs Moduli (GPa) = 75.36219 94.01777 93.12396
#
# Poissons Ratio (x) = 0.40275 0.40252
# Poissons Ratio (y) = 0.32284 0.27487
# Poissons Ratio (z) = 0.32575 0.27751
#
# Static dielectric constant tensor:
#      x y z
#    x 3.502490 0.000000 0.057040 
#    y 0.000000 3.480210 0.000000 
#    z 0.057040 0.000000 3.721100 
# 
# 
# High freq. dielectric constant tensor:
#      x y z
#    x 1.751860 0.000000 0.004450 
#    y 0.000000 1.754550 0.000000 
#    z 0.004450 0.000000 1.757650 
# 
# From -- ./inp_files/142515.got.cif
#   From: 2010.06.25/outbox.cif.g09.slc.cpg/sg12_72_cif.got.tgz:142515.got - 2010.06.28 00:19:55.
