data_PCOD8114869
_publ_section_title
;
Structure prediction by ZEFSAII (Michael W. Deem and Ramdas Pophale) SiO2 
 PCOD8114869
Probable space group: C 2/M
;
_chemical_formula_sum "Si O2"
_cell_formula_units_Z 64
_cell_length_a 29.918251
_cell_length_b 8.641060
_cell_length_c 18.823436
_cell_angle_alpha 90.000000
_cell_angle_beta 139.249601
_cell_angle_gamma 90.000000
_cell_volume 3176.574190
_symmetry_space_group_name_H-M "C 2/M"
_symmetry_group_IT_number 12
_symmetry_cell_setting 'monoclinic'
loop_
_space_group_symop_operation_xyz
x,y,z
-x,y,-z
-x,-y,-z
x,-y,z
1/2+x,1/2+y,z
1/2-x,1/2+y,-z
1/2-x,1/2-y,-z
1/2+x,1/2-y,z
loop_
_atom_site_type_symbol
_atom_site_label
_atom_site_fract_x
_atom_site_fract_y
_atom_site_fract_z
Si Si1 0.416615 0.180529 0.101361
Si Si2 0.406831 0.819029 0.478768
Si Si3 0.701689 0.182351 0.535831
Si Si4 0.535012 0.676357 0.703326
Si Si5 0.659802 0.816893 0.330429
Si Si6 0.017401 0.316370 0.098831
Si Si7 0.850786 0.177361 0.272080
Si Si8 0.770920 0.817982 0.949870
O O1 0.464717 0.214520 0.227198
O O2 0.457220 0.232378 0.079988
O O3 0.397543 0.000000 0.076874
O O4 0.349088 0.283473 0.024970
O O5 0.346841 0.762991 0.458990
O O6 0.475367 0.726706 0.578583
O O7 0.386165 0.781715 0.373969
O O8 0.421363 0.000000 0.504766
O O9 0.668089 0.241325 0.421623
O O10 0.775803 0.258378 0.637927
O O11 0.711665 0.000000 0.546799
O O12 0.523524 0.500000 0.713403
O O13 0.607072 0.693673 0.749936
O O14 0.589884 0.747439 0.213331
O O15 0.657540 0.000000 0.324989
O O16 0.023221 0.500000 0.102858
O O17 0.000000 0.248611 0.000000
O O18 0.774871 0.240839 0.166656
O O19 0.847484 0.000000 0.293886
O O20 0.758404 0.000000 0.936215
O O21 0.750000 0.750000 0.000000
#
# Coordination Sequence:
#
# PCOD8114869 Si02
#       8
#     8   8   8   8   8   8   8   8
#     4  11  22  38  64  92 121 161 205 251 304 361
#     4  11  23  38  58  86 122 158 196 244 301 365
#     4   9  19  35  54  81 114 148 189 239 294 352
#     4  11  23  39  60  85 118 156 201 253 299 357
#     4   9  17  33  58  83 110 148 193 239 286 348
#     4   9  19  36  58  87 120 153 194 244 299 358
#     4  11  24  41  60  85 119 158 199 248 300 355
#     4  12  24  41  64  90 121 157 202 252 299 355
#
# _framework density 20.147492
#
# number of rings (size 3 to 8) (size 9 to 14) (size 15 to 20)
#    0.000    1.625    1.250    3.750    0.000    7.000 
#    0.000    5.000    0.000    2.625    0.000    0.000 
#    0.000    0.000    0.000    0.000    0.000    0.000 
#
# Total GULP energy -396962.064278 kJ/mol
# GULP energy per Si atom -12405.064509 kJ/mol
# Density = 2.010163 g / cm^3
# Si number density = 20.147492 Si / 1000 Ang^3
#
#
#
# Elastic Constant Matrix: (Units=GPa)
#
#
# Indices 1 2 3 4 5 6 
#
# 1 93.5506 32.1111 51.4921 0.0000 3.1727 0.0000
# 2 32.1111 51.0153 13.9943 0.0000 2.7399 0.0000
# 3 51.4921 13.9943 125.7684 0.0000 6.4232 0.0000
# 4 0.0000 0.0000 0.0000 30.3331 0.0000 5.0946
# 5 3.1727 2.7399 6.4232 0.0000 33.8311 0.0000
# 6 0.0000 0.0000 0.0000 5.0946 0.0000 29.1386
#
#
#
# Elastic Compliance Matrix: (Units=1/GPa)
#
#
# Indices 1 2 3 4 5 6 
#
# 1 0.017127 -0.009147 -0.006008 0.000000 0.000275 0.000000
# 2 -0.009147 0.025154 0.001016 0.000000 -0.001372 0.000000
# 3 -0.006008 0.001016 0.010374 0.000000 -0.001488 0.000000
# 4 0.000000 0.000000 0.000000 0.033965 0.000000 -0.005938
# 5 0.000275 -0.001372 -0.001488 0.000000 0.029927 0.000000
# 6 0.000000 0.000000 0.000000 -0.005938 0.000000 0.035357
#
#
# Mechanical properties :
#
#
# Convention : Reuss Voigt Hill
#
# Bulk Modulus (GPa) = 41.02252 51.72548 46.37400
# Shear Modulus (GPa) = 26.55231 30.17634 28.36433
#
# Velocity S-wave (km/s) = 3.63422 3.87430 3.75618
# Velocity P-wave (km/s) = 6.16566 6.76334 6.47141
#
# Compressibility (1/GPa) = 0.02437686
#
# Stress axis : x y z
#
# Youngs Moduli (GPa) = 58.38784 39.75447 96.39465
#
# Poissons Ratio (x) = 0.36363 0.57917
# Poissons Ratio (y) = 0.53407 -0.09795
# Poissons Ratio (z) = 0.35081 -0.04039
#
# Static dielectric constant tensor:
#      x y z
#    x 3.713550 0.000000 0.038000 
#    y 0.000000 3.488810 0.000000 
#    z 0.038000 0.000000 3.776580 
# 
# 
# High freq. dielectric constant tensor:
#      x y z
#    x 1.787410 0.000000 0.006780 
#    y 0.000000 1.775800 0.000000 
#    z 0.006780 0.000000 1.795590 
# 
# From -- ./inp_files/295865.got.cif
#   From: 2010.06.25/outbox.cif.g09.slc.cpg/sg12_148_cif.got.tgz:295865.got - 2010.06.28 00:19:55.
