data_PCOD8114731
_publ_section_title
;
Structure prediction by ZEFSAII (Michael W. Deem and Ramdas Pophale) SiO2 
 PCOD8114731
Probable space group: C 2/M
;
_chemical_formula_sum "Si O2"
_cell_formula_units_Z 48
_cell_length_a 20.315715
_cell_length_b 14.221506
_cell_length_c 15.175646
_cell_angle_alpha 90.000000
_cell_angle_beta 35.075134
_cell_angle_gamma 90.000000
_cell_volume 2519.581403
_symmetry_space_group_name_H-M "C 2/M"
_symmetry_group_IT_number 12
_symmetry_cell_setting 'monoclinic'
loop_
_space_group_symop_operation_xyz
x,y,z
-x,y,-z
-x,-y,-z
x,-y,z
1/2+x,1/2+y,z
1/2-x,1/2+y,-z
1/2-x,1/2-y,-z
1/2+x,1/2-y,z
loop_
_atom_site_type_symbol
_atom_site_label
_atom_site_fract_x
_atom_site_fract_y
_atom_site_fract_z
Si Si1 0.858161 0.107111 0.329745
Si Si2 0.094387 0.610092 0.642628
Si Si3 0.038211 0.103490 0.275107
Si Si4 0.794025 0.188870 0.031817
Si Si5 0.053012 0.296067 0.348091
Si Si6 0.996438 0.269384 0.103500
O O1 0.726194 0.135186 0.482383
O O2 0.915037 0.120696 0.364019
O O3 0.919016 0.175154 0.192778
O O4 0.872675 0.000000 0.280576
O O5 0.070497 0.500000 0.667466
O O6 0.021148 0.658681 0.647228
O O7 0.057605 0.649265 0.777542
O O8 0.059589 0.183092 0.325248
O O9 0.043454 0.000000 0.313833
O O10 0.132544 0.104949 0.092506
O O11 0.680229 0.157190 0.209421
O O12 0.750000 0.250000 0.000000
O O13 0.873910 0.249728 0.008428
O O14 0.000000 0.319280 0.500000
O O15 0.000000 0.306347 0.000000
#
# Coordination Sequence:
#
# PCOD8114731 Si02
#       6
#     8   8   8   8   8   8
#     4   9  19  37  61  86 113 149 190 232 290 346
#     4  11  23  40  58  82 119 157 194 237 287 346
#     4   9  18  36  62  86 111 149 189 239 291 337
#     4   9  18  39  55  84 117 152 194 226 283 348
#     4  11  23  37  60  84 117 153 195 238 287 350
#     4  11  22  36  64  89 115 151 192 244 293 337
#
# _framework density 19.050782999999999
#
# number of rings (size 3 to 8) (size 9 to 14) (size 15 to 20)
#    0.000    2.000    5.000    0.500    2.333    2.000 
#    0.000    0.000    0.000    0.000    0.000    0.000 
#    0.000    0.000    0.000    0.000    0.000    0.000 
#
# Total GULP energy -297523.631124 kJ/mol
# GULP energy per Si atom -12396.817964 kJ/mol
# Density = 1.900742 g / cm^3
# Si number density = 19.050783 Si / 1000 Ang^3
#
#
#
# Elastic Constant Matrix: (Units=GPa)
#
#
# Indices 1 2 3 4 5 6 
#
# 1 96.3378 32.7733 56.8231 0.0000 -6.8921 0.0000
# 2 32.7733 85.5684 32.9976 0.0000 0.1635 0.0000
# 3 56.8231 32.9976 125.7239 0.0000 -6.3330 0.0000
# 4 0.0000 0.0000 0.0000 16.5455 0.0000 -6.9511
# 5 -6.8921 0.1635 -6.3330 0.0000 45.1056 0.0000
# 6 0.0000 0.0000 0.0000 -6.9511 0.0000 10.5867
#
#
#
# Elastic Compliance Matrix: (Units=1/GPa)
#
#
# Indices 1 2 3 4 5 6 
#
# 1 0.015137 -0.003551 -0.005833 0.000000 0.001507 0.000000
# 2 -0.003551 0.013848 -0.002074 0.000000 -0.000884 0.000000
# 3 -0.005833 -0.002074 0.011169 0.000000 0.000684 0.000000
# 4 0.000000 0.000000 0.000000 0.083462 0.000000 0.054801
# 5 0.001507 -0.000884 0.000684 0.000000 0.022500 0.000000
# 6 0.000000 0.000000 0.000000 0.054801 0.000000 0.130440
#
#
# Mechanical properties :
#
#
# Convention : Reuss Voigt Hill
#
# Bulk Modulus (GPa) = 58.01433 61.42424 59.71928
# Shear Modulus (GPa) = 16.38169 26.78330 21.58250
#
# Velocity S-wave (km/s) = 2.93558 3.75359 3.36950
# Velocity P-wave (km/s) = 6.48142 7.14830 6.82301
#
# Compressibility (1/GPa) = 0.01723712
#
# Stress axis : x y z
#
# Youngs Moduli (GPa) = 66.06504 72.21192 89.53085
#
# Poissons Ratio (x) = 0.25641 0.52227
# Poissons Ratio (y) = 0.23458 0.18571
# Poissons Ratio (z) = 0.38538 0.14979
#
# Static dielectric constant tensor:
#      x y z
#    x 3.642380 0.000000 -0.695170 
#    y 0.000000 3.484020 0.000000 
#    z -0.695170 0.000000 4.352820 
# 
# 
# High freq. dielectric constant tensor:
#      x y z
#    x 1.737690 0.000000 -0.023760 
#    y 0.000000 1.732310 0.000000 
#    z -0.023760 0.000000 1.738870 
# 
# From -- ./inp_files/233356.got.cif
#   From: 2010.06.25/outbox.cif.g09.slc.cpg/sg12_117_cif.got.tgz:233356.got - 2010.06.28 00:19:55.
