data_PCOD8114738
_publ_section_title
;
Structure prediction by ZEFSAII (Michael W. Deem and Ramdas Pophale) SiO2 
 PCOD8114738
Probable space group: C 2/M
;
_chemical_formula_sum "Si O2"
_cell_formula_units_Z 48
_cell_length_a 13.015884
_cell_length_b 25.048810
_cell_length_c 8.205327
_cell_angle_alpha 90.000000
_cell_angle_beta 115.254273
_cell_angle_gamma 90.000000
_cell_volume 2419.515553
_symmetry_space_group_name_H-M "C 2/M"
_symmetry_group_IT_number 12
_symmetry_cell_setting 'monoclinic'
loop_
_space_group_symop_operation_xyz
x,y,z
-x,y,-z
-x,-y,-z
x,-y,z
1/2+x,1/2+y,z
1/2-x,1/2+y,-z
1/2-x,1/2-y,-z
1/2+x,1/2-y,z
loop_
_atom_site_type_symbol
_atom_site_label
_atom_site_fract_x
_atom_site_fract_y
_atom_site_fract_z
Si Si1 0.764540 0.561338 0.766536
Si Si2 0.976002 0.941274 0.291955
Si Si3 0.623005 0.161816 0.037511
Si Si4 0.381165 0.170603 0.342810
Si Si5 0.180383 0.121810 0.420806
Si Si6 0.201291 0.778432 0.625791
O O1 0.804912 0.500000 0.810440
O O2 0.657222 0.573486 0.814924
O O3 0.863373 0.602134 0.882150
O O4 0.734214 0.572268 0.556632
O O5 0.062471 0.899812 0.259634
O O6 0.000000 0.941624 0.500000
O O7 0.997593 0.000000 0.232097
O O8 0.706980 0.204950 0.175209
O O9 0.500000 0.183706 0.000000
O O10 0.633965 0.155271 0.853022
O O11 0.500000 0.149348 0.500000
O O12 0.272636 0.144188 0.357519
O O13 0.383081 0.235300 0.352210
O O14 0.141333 0.167524 0.523528
O O15 0.250000 0.750000 0.500000
#
# Coordination Sequence:
#
# PCOD8114738 Si02
#       6
#     8   8   8   8   8   8
#     4   9  18  34  56  81 107 141 184 227 276 330
#     4   8  14  28  53  81 107 136 174 221 272 326
#     4  11  22  38  57  79 110 146 183 227 277 327
#     4  11  22  37  55  79 111 146 184 226 272 326
#     4   9  17  32  55  82 109 141 178 221 271 325
#     4   9  19  35  55  80 106 139 178 219 269 324
#
# _framework density 19.838681999999999
#
# number of rings (size 3 to 8) (size 9 to 14) (size 15 to 20)
#    0.000    2.500    0.000    5.000    0.000    3.667 
#    0.000    5.833    0.000    5.500    0.000    0.000 
#    0.000    0.000    0.000    0.000    0.000    0.000 
#
# Total GULP energy -297322.264325 kJ/mol
# GULP energy per Si atom -12388.427680 kJ/mol
# Density = 1.979353 g / cm^3
# Si number density = 19.838682 Si / 1000 Ang^3
#
#
#
# Elastic Constant Matrix: (Units=GPa)
#
#
# Indices 1 2 3 4 5 6 
#
# 1 82.1943 21.7517 15.4470 0.0000 -1.7996 0.0000
# 2 21.7517 73.4878 15.2840 0.0000 -0.7974 0.0000
# 3 15.4470 15.2840 78.0524 0.0000 -5.5658 0.0000
# 4 0.0000 0.0000 0.0000 13.5488 0.0000 2.0785
# 5 -1.7996 -0.7974 -5.5658 0.0000 22.4105 0.0000
# 6 0.0000 0.0000 0.0000 2.0785 0.0000 31.0986
#
#
#
# Elastic Compliance Matrix: (Units=1/GPa)
#
#
# Indices 1 2 3 4 5 6 
#
# 1 0.013489 -0.003585 -0.001934 0.000000 0.000475 0.000000
# 2 -0.003585 0.015139 -0.002277 0.000000 -0.000315 0.000000
# 3 -0.001934 -0.002277 0.013869 0.000000 0.003208 0.000000
# 4 0.000000 0.000000 0.000000 0.074572 0.000000 -0.004984
# 5 0.000475 -0.000315 0.003208 0.000000 0.045446 0.000000
# 6 0.000000 0.000000 0.000000 -0.004984 0.000000 0.032489
#
#
# Mechanical properties :
#
#
# Convention : Reuss Voigt Hill
#
# Bulk Modulus (GPa) = 37.16806 37.63332 37.40069
# Shear Modulus (GPa) = 22.77233 25.49502 24.13367
#
# Velocity S-wave (km/s) = 3.39171 3.58874 3.49161
# Velocity P-wave (km/s) = 5.84072 6.01523 5.92862
#
# Compressibility (1/GPa) = 0.02690482
#
# Stress axis : x y z
#
# Youngs Moduli (GPa) = 74.13513 66.05396 72.10170
#
# Poissons Ratio (x) = 0.23682 0.13941
# Poissons Ratio (y) = 0.26579 0.16421
# Poissons Ratio (z) = 0.14334 0.15043
#
# Static dielectric constant tensor:
#      x y z
#    x 3.404620 0.000000 0.221730 
#    y 0.000000 4.091270 0.000000 
#    z 0.221730 0.000000 3.311820 
# 
# 
# High freq. dielectric constant tensor:
#      x y z
#    x 1.762490 0.000000 0.008460 
#    y 0.000000 1.779810 0.000000 
#    z 0.008460 0.000000 1.745880 
# 
# From -- ./inp_files/51452.got.cif
#   From: 2010.06.25/outbox.cif.g09.slc.cpg/sg12_26_cif.got.tgz:51452.got - 2010.06.28 00:19:55.
