data_PCOD8114600
_publ_section_title
;
Structure prediction by ZEFSAII (Michael W. Deem and Ramdas Pophale) SiO2 
 PCOD8114600
Probable space group: C 2/M
;
_chemical_formula_sum "Si O2"
_cell_formula_units_Z 48
_cell_length_a 9.491156
_cell_length_b 18.754978
_cell_length_c 14.744176
_cell_angle_alpha 90.000000
_cell_angle_beta 99.604983
_cell_angle_gamma 90.000000
_cell_volume 2587.765726
_symmetry_space_group_name_H-M "C 2/M"
_symmetry_group_IT_number 12
_symmetry_cell_setting 'monoclinic'
loop_
_space_group_symop_operation_xyz
x,y,z
-x,y,-z
-x,-y,-z
x,-y,z
1/2+x,1/2+y,z
1/2-x,1/2+y,-z
1/2-x,1/2-y,-z
1/2+x,1/2-y,z
loop_
_atom_site_type_symbol
_atom_site_label
_atom_site_fract_x
_atom_site_fract_y
_atom_site_fract_z
Si Si1 0.736865 0.326988 0.746197
Si Si2 0.807910 0.583746 0.397036
Si Si3 0.398302 0.320577 0.735808
Si Si4 0.869016 0.831229 0.932834
Si Si5 0.144832 0.662353 0.050795
Si Si6 0.623991 0.083214 0.391156
O O1 0.567141 0.311399 0.733654
O O2 0.821849 0.255671 0.729509
O O3 0.790795 0.363947 0.846229
O O4 0.771819 0.381244 0.670122
O O5 0.776260 0.500000 0.381632
O O6 0.674785 0.628654 0.345609
O O7 0.821792 0.604601 0.503581
O O8 0.956484 0.604837 0.362393
O O9 0.372825 0.358322 0.830191
O O10 0.874137 0.746090 0.936348
O O11 0.734859 0.859278 0.972924
O O12 0.000000 0.865267 0.000000
O O13 0.000000 0.625985 0.000000
O O14 0.638850 0.000000 0.378356
#
# Coordination Sequence:
#
# PCOD8114600 Si02
#       6
#     8   8   8   8   8   8
#     4  11  22  34  53  86 114 143 181 225 272 314
#     4   9  20  40  62  81 103 141 182 221 275 331
#     4  11  22  33  55  84 114 145 180 225 271 316
#     4   9  16  30  46  73 109 143 179 216 259 315
#     4   9  18  28  48  75 107 145 180 216 263 315
#     4   9  20  40  62  80 105 140 181 224 271 332
#
# _framework density 18.548819999999999
#
# number of rings (size 3 to 8) (size 9 to 14) (size 15 to 20)
#    0.000    2.333    1.667    2.000    9.333    2.000 
#    0.000    1.667    0.000    2.000    0.000    0.000 
#    0.000    0.000    0.000    0.000    0.000    0.000 
#
# Total GULP energy -297364.495911 kJ/mol
# GULP energy per Si atom -12390.187330 kJ/mol
# Density = 1.850660 g / cm^3
# Si number density = 18.548820 Si / 1000 Ang^3
#
#
#
# Elastic Constant Matrix: (Units=GPa)
#
#
# Indices 1 2 3 4 5 6 
#
# 1 160.8630 35.6205 75.2293 0.0000 3.3761 0.0000
# 2 35.6205 31.4108 40.3120 0.0000 0.6738 0.0000
# 3 75.2293 40.3120 121.1947 0.0000 1.0551 0.0000
# 4 0.0000 0.0000 0.0000 -8.5982 0.0000 -2.3833
# 5 3.3761 0.6738 1.0551 0.0000 37.6869 0.0000
# 6 0.0000 0.0000 0.0000 -2.3833 0.0000 29.7332
#
#
#
# Elastic Compliance Matrix: (Units=1/GPa)
#
#
# Indices 1 2 3 4 5 6 
#
# 1 0.009280 -0.005452 -0.003942 0.000000 -0.000624 0.000000
# 2 -0.005452 0.058760 -0.016160 0.000000 -0.000110 0.000000
# 3 -0.003942 -0.016160 0.016071 0.000000 0.000192 0.000000
# 4 0.000000 0.000000 0.000000 -0.113776 0.000000 -0.009120
# 5 -0.000624 -0.000110 0.000192 0.000000 0.026587 0.000000
# 6 0.000000 0.000000 0.000000 -0.009120 0.000000 0.032901
#
#
# Mechanical properties :
#
#
# Convention : Reuss Voigt Hill
#
# Bulk Modulus (GPa) = 30.29843 68.42133 49.35988
# Shear Modulus (GPa) = 54.38783 22.58484 38.48633
#
# Velocity S-wave (km/s) = 5.42080 3.49318 4.56001
# Velocity P-wave (km/s) = 7.45319 7.29637 7.37520
#
# Compressibility (1/GPa) = 0.03300501
#
# Stress axis : x y z
#
# Youngs Moduli (GPa) = 107.75722 17.01830 62.22258
#
# Poissons Ratio (x) = 0.09278 0.24526
# Poissons Ratio (y) = 0.58748 1.00551
# Poissons Ratio (z) = 0.42474 0.27501
#
# Static dielectric constant tensor:
#      x y z
#    x 3.564740 0.000000 0.034590 
#    y 0.000000 2.880100 0.000000 
#    z 0.034590 0.000000 3.685000 
# 
# 
# High freq. dielectric constant tensor:
#      x y z
#    x 1.734830 0.000000 -0.000100 
#    y 0.000000 1.667520 0.000000 
#    z -0.000100 0.000000 1.733850 
# 
# From -- ./inp_files/197184.got.cif
#   From: 2010.06.25/outbox.cif.g09.slc.cpg/sg12_99_cif.got.tgz:197184.got - 2010.06.28 00:19:55.
