data_PCOD8114357
_publ_section_title
;
Structure prediction by ZEFSAII (Michael W. Deem and Ramdas Pophale) SiO2 
 PCOD8114357
Probable space group: C 2/M
;
_chemical_formula_sum "Si O2"
_cell_formula_units_Z 48
_cell_length_a 12.849044
_cell_length_b 15.295825
_cell_length_c 21.051428
_cell_angle_alpha 90.000000
_cell_angle_beta 34.392714
_cell_angle_gamma 90.000000
_cell_volume 2337.048361
_symmetry_space_group_name_H-M "C 2/M"
_symmetry_group_IT_number 12
_symmetry_cell_setting 'monoclinic'
loop_
_space_group_symop_operation_xyz
x,y,z
-x,y,-z
-x,-y,-z
x,-y,z
1/2+x,1/2+y,z
1/2-x,1/2+y,-z
1/2-x,1/2-y,-z
1/2+x,1/2-y,z
loop_
_atom_site_type_symbol
_atom_site_label
_atom_site_fract_x
_atom_site_fract_y
_atom_site_fract_z
Si Si1 0.286328 0.658412 0.844361
Si Si2 0.963002 0.400613 0.924939
Si Si3 0.496919 0.180429 0.775653
Si Si4 0.035171 0.400223 0.624298
Si Si5 0.049891 0.901166 0.611597
Si Si6 0.621594 0.245716 0.379062
O O1 0.328669 0.758800 0.838629
O O2 0.465995 0.611276 0.724348
O O3 0.123554 0.659039 0.873991
O O4 0.224193 0.609637 0.940070
O O5 0.031925 0.500000 0.893908
O O6 0.926133 0.374738 0.871200
O O7 0.548757 0.114325 0.693074
O O8 0.667881 0.242601 0.706817
O O9 0.973625 0.500000 0.641916
O O10 0.234045 0.380066 0.493422
O O11 0.891088 0.332636 0.665849
O O12 0.950305 0.837152 0.612690
O O13 0.017202 0.000000 0.603836
O O14 0.500000 0.217937 0.500000
#
# Coordination Sequence:
#
# PCOD8114357 Si02
#       6
#     8   8   8   8   8   8
#     4  11  22  39  61  89 123 157 200 249 305 350
#     4  11  23  40  63  90 119 156 205 256 300 354
#     4  12  22  39  64  90 122 161 201 249 302 366
#     4  11  24  41  61  92 126 162 201 250 302 361
#     4  11  21  37  62  90 122 158 202 249 299 355
#     4  12  23  39  63  90 128 161 203 247 305 364
#
# _framework density 20.538726
#
# number of rings (size 3 to 8) (size 9 to 14) (size 15 to 20)
#    0.000    0.667    5.000    4.500    0.000    1.333 
#    0.000    2.500    0.000    0.000    0.000    9.333 
#    0.000    0.000    0.000    0.000    0.000    0.000 
#
# Total GULP energy -297707.475378 kJ/mol
# GULP energy per Si atom -12404.478141 kJ/mol
# Density = 2.049198 g / cm^3
# Si number density = 20.538726 Si / 1000 Ang^3
#
#
#
# Elastic Constant Matrix: (Units=GPa)
#
#
# Indices 1 2 3 4 5 6 
#
# 1 78.1535 51.0777 42.6590 0.0014 17.2171 0.0003
# 2 51.0777 120.4846 28.8243 0.0020 -1.0652 -0.0004
# 3 42.6590 28.8243 106.6902 0.0041 28.7513 0.0001
# 4 0.0014 0.0020 0.0041 26.0031 -0.0005 4.9062
# 5 17.2171 -1.0652 28.7513 -0.0005 35.0297 -0.0003
# 6 0.0003 -0.0004 0.0001 4.9062 -0.0003 19.4534
#
#
#
# Elastic Compliance Matrix: (Units=1/GPa)
#
#
# Indices 1 2 3 4 5 6 
#
# 1 0.022579 -0.008512 -0.004710 0.000000 -0.007491 -0.000001
# 2 -0.008512 0.012313 -0.001479 0.000000 0.005771 0.000001
# 3 -0.004710 -0.001479 0.014180 -0.000002 -0.009369 0.000000
# 4 0.000000 0.000000 -0.000002 0.040378 0.000002 -0.010184
# 5 -0.007491 0.005771 -0.009369 0.000002 0.040094 0.000000
# 6 -0.000001 0.000001 0.000000 -0.010184 0.000000 0.053973
#
#
# Mechanical properties :
#
#
# Convention : Reuss Voigt Hill
#
# Bulk Modulus (GPa) = 50.83269 61.16116 55.99693
# Shear Modulus (GPa) = 22.78157 28.28171 25.53164
#
# Velocity S-wave (km/s) = 3.33408 3.71481 3.52958
# Velocity P-wave (km/s) = 6.29483 6.94571 6.62826
#
# Compressibility (1/GPa) = 0.01967238
#
# Stress axis : x y z
#
# Youngs Moduli (GPa) = 44.28874 81.21545 70.52020
#
# Poissons Ratio (x) = 0.69127 0.33214
# Poissons Ratio (y) = 0.37697 0.10427
# Poissons Ratio (z) = 0.20859 0.12009
#
# Static dielectric constant tensor:
#      x y z
#    x 3.541650 0.000000 0.229650 
#    y 0.000000 3.646600 0.000000 
#    z 0.229650 0.000000 4.012120 
# 
# 
# High freq. dielectric constant tensor:
#      x y z
#    x 1.787330 0.000000 0.019620 
#    y 0.000000 1.802410 0.000000 
#    z 0.019620 0.000000 1.813760 
# 
# From -- ./inp_files/205126.got.cif
#   From: 2010.06.25/outbox.cif.g09.slc.cpg/sg12_103_cif.got.tgz:205126.got - 2010.06.28 00:19:55.
