data_PCOD8114687
_publ_section_title
;
Structure prediction by ZEFSAII (Michael W. Deem and Ramdas Pophale) SiO2 
 PCOD8114687
Probable space group: C 2/M
;
_chemical_formula_sum "Si O2"
_cell_formula_units_Z 56
_cell_length_a 19.704793
_cell_length_b 9.063234
_cell_length_c 22.969304
_cell_angle_alpha 90.000000
_cell_angle_beta 129.300215
_cell_angle_gamma 90.000000
_cell_volume 3174.335779
_symmetry_space_group_name_H-M "C 2/M"
_symmetry_group_IT_number 12
_symmetry_cell_setting 'monoclinic'
loop_
_space_group_symop_operation_xyz
x,y,z
-x,y,-z
-x,-y,-z
x,-y,z
1/2+x,1/2+y,z
1/2-x,1/2+y,-z
1/2-x,1/2-y,-z
1/2+x,1/2-y,z
loop_
_atom_site_type_symbol
_atom_site_label
_atom_site_fract_x
_atom_site_fract_y
_atom_site_fract_z
Si Si1 0.243042 0.824108 0.058451
Si Si2 0.673779 0.828342 0.493496
Si Si3 0.440300 0.326343 0.650555
Si Si4 0.292372 0.330112 0.658694
Si Si5 0.219172 0.667838 0.227182
Si Si6 0.899141 0.328651 0.944018
Si Si7 0.637220 0.327246 0.786319
O O1 0.152250 0.772319 0.038185
O O2 0.326108 0.769631 0.140948
O O3 0.244398 0.000000 0.053905
O O4 0.250000 0.750000 0.000000
O O5 0.750000 0.750000 0.500000
O O6 0.582559 0.753034 0.423702
O O7 0.698400 0.805033 0.575084
O O8 0.671355 0.000000 0.476413
O O9 0.431530 0.500000 0.635528
O O10 0.373122 0.268363 0.663625
O O11 0.537347 0.280553 0.722115
O O12 0.311015 0.500000 0.679010
O O13 0.290803 0.260239 0.720579
O O14 0.221008 0.500000 0.248236
O O15 0.136994 0.699960 0.140415
O O16 0.308912 0.709735 0.242873
O O17 0.885891 0.500000 0.954234
O O18 0.000000 0.281299 0.000000
O O19 0.647623 0.500000 0.807819
#
# Coordination Sequence:
#
# PCOD8114687 Si02
#       7
#     8   8   8   8   8   8   8
#     4  11  22  36  55  78 105 138 175 213 256 305
#     4   9  17  30  48  71  99 131 167 207 252 298
#     4   9  18  33  53  75  99 129 166 211 256 297
#     4   9  18  31  48  72 100 129 162 204 251 295
#     4   9  18  32  51  73  98 131 165 200 247 300
#     4   9  19  37  57  77 104 135 169 213 261 308
#     4   9  19  37  55  73 101 134 169 209 255 304
#
# _framework density 17.641484999999999
#
# number of rings (size 3 to 8) (size 9 to 14) (size 15 to 20)
#    0.000    2.714    0.000    3.429    0.000    7.143 
#    0.000    3.571    0.000    4.286    0.000    0.000 
#    0.000    0.000    0.000    0.000    0.000    0.000 
#
# Total GULP energy -347094.993178 kJ/mol
# GULP energy per Si atom -12396.249756 kJ/mol
# Density = 1.760133 g / cm^3
# Si number density = 17.641485 Si / 1000 Ang^3
#
#
#
# Elastic Constant Matrix: (Units=GPa)
#
#
# Indices 1 2 3 4 5 6 
#
# 1 89.5515 43.3466 85.3401 0.0000 11.5058 0.0000
# 2 43.3466 78.0771 64.1998 0.0000 5.5491 0.0000
# 3 85.3401 64.1998 140.6098 0.0000 10.1630 0.0000
# 4 0.0000 0.0000 0.0000 36.4495 0.0000 -4.5324
# 5 11.5058 5.5491 10.1630 0.0000 29.4488 0.0000
# 6 0.0000 0.0000 0.0000 -4.5324 0.0000 26.9044
#
#
#
# Elastic Compliance Matrix: (Units=1/GPa)
#
#
# Indices 1 2 3 4 5 6 
#
# 1 0.027473 -0.002375 -0.015226 0.000000 -0.005032 0.000000
# 2 -0.002375 0.020724 -0.008005 0.000000 -0.000214 0.000000
# 3 -0.015226 -0.008005 0.019967 0.000000 0.000567 0.000000
# 4 0.000000 0.000000 0.000000 0.028022 0.000000 0.004721
# 5 -0.005032 -0.000214 0.000567 0.000000 0.035768 0.000000
# 6 0.000000 0.000000 0.000000 0.004721 0.000000 0.037964
#
#
# Mechanical properties :
#
#
# Convention : Reuss Voigt Hill
#
# Bulk Modulus (GPa) = 58.99185 77.11238 68.05212
# Shear Modulus (GPa) = 22.04773 26.25067 24.14920
#
# Velocity S-wave (km/s) = 3.53904 3.86166 3.70386
# Velocity P-wave (km/s) = 7.08601 7.98053 7.54654
#
# Compressibility (1/GPa) = 0.01695149
#
# Stress axis : x y z
#
# Youngs Moduli (GPa) = 36.39980 48.25316 50.08241
#
# Poissons Ratio (x) = 0.11459 0.76255
# Poissons Ratio (y) = 0.08644 0.40093
# Poissons Ratio (z) = 0.55422 0.38628
#
# Static dielectric constant tensor:
#      x y z
#    x 3.380220 0.000000 0.417240 
#    y 0.000000 3.295810 0.000000 
#    z 0.417240 0.000000 3.948650 
# 
# 
# High freq. dielectric constant tensor:
#      x y z
#    x 1.661640 0.000000 0.005700 
#    y 0.000000 1.680780 0.000000 
#    z 0.005700 0.000000 1.694000 
# 
# From -- ./inp_files/320250.got.cif
#   From: 2010.06.25/outbox.cif.g09.slc.cpg/sg12_161_cif.got.tgz:320250.got - 2010.06.28 00:19:55.
