data_PCOD8114561
_publ_section_title
;
Structure prediction by ZEFSAII (Michael W. Deem and Ramdas Pophale) SiO2 
 PCOD8114561
Probable space group: C 2/M
;
_chemical_formula_sum "Si O2"
_cell_formula_units_Z 56
_cell_length_a 17.683787
_cell_length_b 14.788412
_cell_length_c 11.312884
_cell_angle_alpha 90.000000
_cell_angle_beta 119.490414
_cell_angle_gamma 90.000000
_cell_volume 2575.182591
_symmetry_space_group_name_H-M "C 2/M"
_symmetry_group_IT_number 12
_symmetry_cell_setting 'monoclinic'
loop_
_space_group_symop_operation_xyz
x,y,z
-x,y,-z
-x,-y,-z
x,-y,z
1/2+x,1/2+y,z
1/2-x,1/2+y,-z
1/2-x,1/2-y,-z
1/2+x,1/2-y,z
loop_
_atom_site_type_symbol
_atom_site_label
_atom_site_fract_x
_atom_site_fract_y
_atom_site_fract_z
Si Si1 0.632388 0.899854 0.929769
Si Si2 0.536826 0.834952 0.644563
Si Si3 0.371257 0.773520 0.660254
Si Si4 0.830662 0.100850 0.065768
Si Si5 0.707789 0.395173 0.514411
Si Si6 0.411135 0.359000 0.371334
Si Si7 0.406709 0.260774 0.948880
O O1 0.606997 0.893437 0.770859
O O2 0.609734 0.000000 0.957376
O O3 0.732968 0.877306 0.031028
O O4 0.576543 0.828741 0.960419
O O5 0.500000 0.888373 0.500000
O O6 0.463173 0.804865 0.680520
O O7 0.586500 0.749466 0.625111
O O8 0.357768 0.670093 0.607095
O O9 0.301692 0.849361 0.568374
O O10 0.363232 0.769607 0.794500
O O11 0.898738 0.109938 0.226179
O O12 0.836423 0.000000 0.018691
O O13 0.848253 0.168195 0.972567
O O14 0.710186 0.500000 0.470812
O O15 0.672995 0.394661 0.622408
O O16 0.500000 0.398185 0.500000
O O17 0.500000 0.306856 0.000000
#
# Coordination Sequence:
#
# PCOD8114561 Si02
#       7
#     8   8   8   8   8   8   8
#     4  11  25  44  69 100 132 176 229 274 326 395
#     4  11  22  44  70  96 129 174 224 275 332 394
#     4  11  24  44  65  98 136 176 217 266 340 396
#     4  11  25  42  66 100 134 176 222 272 335 401
#     4  11  25  42  68 101 134 173 220 276 330 393
#     4  11  21  42  69  99 127 171 225 275 327 388
#     4  12  24  42  66  94 133 176 219 272 331 389
#
# _framework density 21.746030000000001
#
# number of rings (size 3 to 8) (size 9 to 14) (size 15 to 20)
#    0.000    0.857    5.714    1.714    2.000    4.857 
#    0.000    1.429    0.000    0.000    0.000    0.000 
#    0.000    0.000    0.000    0.000    0.000    0.000 
#
# Total GULP energy -347121.248209 kJ/mol
# GULP energy per Si atom -12397.187436 kJ/mol
# Density = 2.169654 g / cm^3
# Si number density = 21.746030 Si / 1000 Ang^3
#
#
#
# Elastic Constant Matrix: (Units=GPa)
#
#
# Indices 1 2 3 4 5 6 
#
# 1 57.6728 36.4369 19.9064 0.0000 -0.7115 0.0000
# 2 36.4369 108.6224 15.0288 0.0000 -3.9597 0.0000
# 3 19.9064 15.0288 126.7544 0.0000 -5.1729 0.0000
# 4 0.0000 0.0000 0.0000 10.3343 0.0000 6.5624
# 5 -0.7115 -3.9597 -5.1729 0.0000 35.5175 0.0000
# 6 0.0000 0.0000 0.0000 6.5624 0.0000 -9.9413
#
#
#
# Elastic Compliance Matrix: (Units=1/GPa)
#
#
# Indices 1 2 3 4 5 6 
#
# 1 0.022915 -0.007333 -0.002760 0.000000 -0.000760 0.000000
# 2 -0.007333 0.011734 -0.000193 0.000000 0.001133 0.000000
# 3 -0.002760 -0.000193 0.008392 0.000000 0.001145 0.000000
# 4 0.000000 0.000000 0.000000 0.068184 0.000000 0.045009
# 5 -0.000760 0.001133 0.001145 0.000000 0.028433 0.000000
# 6 0.000000 0.000000 0.000000 0.045009 0.000000 -0.070879
#
#
# Mechanical properties :
#
#
# Convention : Reuss Voigt Hill
#
# Bulk Modulus (GPa) = 44.50628 48.42155 46.46392
# Shear Modulus (GPa) = 51.63058 21.96060 36.79559
#
# Velocity S-wave (km/s) = 4.87792 3.18129 4.11793
# Velocity P-wave (km/s) = 7.22747 5.98409 6.63497
#
# Compressibility (1/GPa) = 0.02246874
#
# Stress axis : x y z
#
# Youngs Moduli (GPa) = 43.63910 85.22264 119.15446
#
# Poissons Ratio (x) = 0.62490 0.32891
# Poissons Ratio (y) = 0.31999 0.02305
# Poissons Ratio (z) = 0.12046 0.01649
#
# Static dielectric constant tensor:
#      x y z
#    x 3.751130 0.000000 0.052610 
#    y 0.000000 3.853160 0.000000 
#    z 0.052610 0.000000 4.113490 
# 
# 
# High freq. dielectric constant tensor:
#      x y z
#    x 1.848560 0.000000 0.005010 
#    y 0.000000 1.845180 0.000000 
#    z 0.005010 0.000000 1.863930 
# 
# From -- ./inp_files/156731.got.cif
#   From: 2010.06.25/outbox.cif.g09.slc.cpg/sg12_79_cif.got.tgz:156731.got - 2010.06.28 00:19:55.
