data_PCOD8114527
_publ_section_title
;
Structure prediction by ZEFSAII (Michael W. Deem and Ramdas Pophale) SiO2 
 PCOD8114527
Probable space group: C 2/M
;
_chemical_formula_sum "Si O2"
_cell_formula_units_Z 48
_cell_length_a 9.051905
_cell_length_b 29.781299
_cell_length_c 17.226877
_cell_angle_alpha 90.000000
_cell_angle_beta 30.223743
_cell_angle_gamma 90.000000
_cell_volume 2337.676731
_symmetry_space_group_name_H-M "C 2/M"
_symmetry_group_IT_number 12
_symmetry_cell_setting 'monoclinic'
loop_
_space_group_symop_operation_xyz
x,y,z
-x,y,-z
-x,-y,-z
x,-y,z
1/2+x,1/2+y,z
1/2-x,1/2+y,-z
1/2-x,1/2-y,-z
1/2+x,1/2-y,z
loop_
_atom_site_type_symbol
_atom_site_label
_atom_site_fract_x
_atom_site_fract_y
_atom_site_fract_z
Si Si1 0.418713 0.000000 0.236582
Si Si2 0.000000 0.421403 0.500000
Si Si3 0.806072 0.279516 0.400453
Si Si4 0.273462 0.148075 0.728461
Si Si5 0.232091 0.935089 0.833122
Si Si6 0.310795 0.277136 0.894491
Si Si7 0.409356 0.500000 0.884427
Si Si8 0.907567 0.000000 0.362342
O O1 0.466254 0.955728 0.269344
O O2 0.613076 0.000000 0.068968
O O3 0.082222 0.000000 0.363634
O O4 0.843702 0.387184 0.629651
O O5 0.779913 0.453976 0.553107
O O6 0.500000 0.292769 0.500000
O O7 0.750000 0.250000 0.500000
O O8 0.948223 0.323255 0.372843
O O9 0.017736 0.254539 0.243605
O O10 0.216898 0.118611 0.831632
O O11 0.997610 0.178507 0.829058
O O12 0.125154 0.957338 0.801134
O O13 0.000000 0.952934 0.000000
O O14 0.250000 0.250000 0.000000
O O15 0.000000 0.292592 0.000000
O O16 0.356839 0.500000 0.815915
#
# Coordination Sequence:
#
# PCOD8114527 Si02
#       8
#     4   4   8   8   8   8   4   4
#     4   9  20  37  67  94 133 167 222 266 336 398
#     4  11  26  42  62  98 132 190 210 280 336 399
#     4  12  24  45  70  94 132 183 221 276 351 418
#     4  12  24  42  70  92 141 166 237 276 336 404
#     4   9  20  38  62  95 128 168 206 272 335 381
#     4  12  25  46  71 100 130 178 231 287 352 406
#     4   9  16  40  64  88 128 176 205 264 340 395
#     4  11  21  41  65  91 141 175 224 261 335 408
#
# _framework density 20.533207000000001
#
# number of rings (size 3 to 8) (size 9 to 14) (size 15 to 20)
#    0.000    1.167    5.000    2.250    2.333    1.333 
#    6.000    0.833    0.000    0.000    0.000    0.000 
#    0.000    0.000    0.000    0.000    0.000    0.000 
#
# Total GULP energy -297382.040751 kJ/mol
# GULP energy per Si atom -12390.918365 kJ/mol
# Density = 2.048647 g / cm^3
# Si number density = 20.533207 Si / 1000 Ang^3
#
#
#
# Elastic Constant Matrix: (Units=GPa)
#
#
# Indices 1 2 3 4 5 6 
#
# 1 145.8924 69.4171 49.1912 0.0000 -33.4225 0.0000
# 2 69.4171 165.0021 55.0545 0.0000 -15.2113 0.0000
# 3 49.1912 55.0545 86.0132 0.0000 -10.8260 0.0000
# 4 0.0000 0.0000 0.0000 36.6050 0.0000 4.5091
# 5 -33.4225 -15.2113 -10.8260 0.0000 51.1533 0.0000
# 6 0.0000 0.0000 0.0000 4.5091 0.0000 24.1165
#
#
#
# Elastic Compliance Matrix: (Units=1/GPa)
#
#
# Indices 1 2 3 4 5 6 
#
# 1 0.010618 -0.002763 -0.003631 0.000000 0.005348 0.000000
# 2 -0.002763 0.008508 -0.003878 0.000000 -0.000096 0.000000
# 3 -0.003631 -0.003878 0.016172 0.000000 -0.000103 0.000000
# 4 0.000000 0.000000 0.000000 0.027963 0.000000 -0.005228
# 5 0.005348 -0.000096 -0.000103 0.000000 0.022993 0.000000
# 6 0.000000 0.000000 0.000000 -0.005228 0.000000 0.042443
#
#
# Mechanical properties :
#
#
# Convention : Reuss Voigt Hill
#
# Bulk Modulus (GPa) = 67.77441 82.69260 75.23350
# Shear Modulus (GPa) = 32.43427 37.25796 34.84611
#
# Velocity S-wave (km/s) = 3.97873 4.26434 4.12401
# Velocity P-wave (km/s) = 7.36111 8.03780 7.70688
#
# Compressibility (1/GPa) = 0.01475483
#
# Stress axis : x y z
#
# Youngs Moduli (GPa) = 94.17687 117.53988 61.83560
#
# Poissons Ratio (x) = 0.32471 0.22455
# Poissons Ratio (y) = 0.26017 0.23978
# Poissons Ratio (z) = 0.34199 0.45579
#
# Static dielectric constant tensor:
#      x y z
#    x 3.929870 0.000000 0.131870 
#    y 0.000000 3.633880 0.000000 
#    z 0.131870 0.000000 3.724240 
# 
# 
# High freq. dielectric constant tensor:
#      x y z
#    x 1.815610 0.000000 0.011190 
#    y 0.000000 1.804540 0.000000 
#    z 0.011190 0.000000 1.807830 
# 
# From -- ./inp_files/260279.got.cif
#   From: 2010.06.25/outbox.cif.g09.slc.cpg/sg12_131_cif.got.tgz:260279.got - 2010.06.28 00:19:55.
