data_PCOD8114692
_publ_section_title
;
Structure prediction by ZEFSAII (Michael W. Deem and Ramdas Pophale) SiO2 
 PCOD8114692
Probable space group: C 2/M
;
_chemical_formula_sum "Si O2"
_cell_formula_units_Z 56
_cell_length_a 15.121276
_cell_length_b 27.561622
_cell_length_c 8.783986
_cell_angle_alpha 90.000000
_cell_angle_beta 61.172104
_cell_angle_gamma 90.000000
_cell_volume 3207.189772
_symmetry_space_group_name_H-M "C 2/M"
_symmetry_group_IT_number 12
_symmetry_cell_setting 'monoclinic'
loop_
_space_group_symop_operation_xyz
x,y,z
-x,y,-z
-x,-y,-z
x,-y,z
1/2+x,1/2+y,z
1/2-x,1/2+y,-z
1/2-x,1/2-y,-z
1/2+x,1/2-y,z
loop_
_atom_site_type_symbol
_atom_site_label
_atom_site_fract_x
_atom_site_fract_y
_atom_site_fract_z
Si Si1 0.849584 0.054556 0.212873
Si Si2 0.610664 0.639974 0.364707
Si Si3 0.563419 0.554346 0.183117
Si Si4 0.725843 0.271276 0.182421
Si Si5 0.719660 0.354337 0.587766
Si Si6 0.590964 0.734987 0.808464
Si Si7 0.906262 0.292972 0.487707
O O1 0.769925 0.095532 0.327157
O O2 0.951796 0.067408 0.218684
O O3 0.813049 0.000000 0.284971
O O4 0.862447 0.058537 0.021523
O O5 0.500000 0.660659 0.500000
O O6 0.598617 0.589250 0.288363
O O7 0.670935 0.677064 0.205579
O O8 0.678638 0.632671 0.456180
O O9 0.566468 0.500000 0.247252
O O10 0.831455 0.274175 0.185255
O O11 0.652037 0.238530 0.341247
O O12 0.750000 0.250000 0.000000
O O13 0.645653 0.316393 0.733616
O O14 0.832964 0.333931 0.480880
O O15 0.553060 0.757983 0.681163
O O16 0.500000 0.725302 0.000000
O O17 0.000000 0.317053 0.500000
#
# Coordination Sequence:
#
# PCOD8114692 Si02
#       7
#     8   8   8   8   8   8   8
#     4   9  19  36  54  78 111 142 181 223 268 331
#     4  12  22  33  54  79 116 146 180 225 268 329
#     4   9  20  34  52  80 112 146 177 216 273 335
#     4  11  23  36  53  81 109 149 188 226 273 329
#     4  11  22  36  55  84 109 144 189 225 271 330
#     4  11  23  37  55  78 115 147 185 229 272 324
#     4  11  22  41  55  76 114 147 189 235 272 315
#
# _framework density 17.46077
#
# number of rings (size 3 to 8) (size 9 to 14) (size 15 to 20)
#    0.000    1.429    4.286    3.000    8.000    0.857 
#    0.000    0.000    0.000    0.429    0.000    0.000 
#    0.000    3.429    0.000    0.000    0.000    0.000 
#
# Total GULP energy -347133.399449 kJ/mol
# GULP energy per Si atom -12397.621409 kJ/mol
# Density = 1.742103 g / cm^3
# Si number density = 17.460770 Si / 1000 Ang^3
#
#
#
# Elastic Constant Matrix: (Units=GPa)
#
#
# Indices 1 2 3 4 5 6 
#
# 1 99.4248 33.6540 35.3851 0.0000 7.4447 0.0000
# 2 33.6540 106.1360 46.4298 0.0000 1.6571 0.0000
# 3 35.3851 46.4298 104.5319 0.0000 8.6898 0.0000
# 4 0.0000 0.0000 0.0000 137.5361 0.0000 -56.6494
# 5 7.4447 1.6571 8.6898 0.0000 22.1170 0.0000
# 6 0.0000 0.0000 0.0000 -56.6494 0.0000 64.7858
#
#
#
# Elastic Compliance Matrix: (Units=1/GPa)
#
#
# Indices 1 2 3 4 5 6 
#
# 1 0.012117 -0.002614 -0.002706 0.000000 -0.002820 0.000000
# 2 -0.002614 0.012289 -0.004724 0.000000 0.001815 0.000000
# 3 -0.002706 -0.004724 0.012897 0.000000 -0.003802 0.000000
# 4 0.000000 0.000000 0.000000 0.011363 0.000000 0.009936
# 5 -0.002820 0.001815 -0.003802 0.000000 0.047521 0.000000
# 6 0.000000 0.000000 0.000000 0.009936 0.000000 0.024124
#
#
# Mechanical properties :
#
#
# Convention : Reuss Voigt Hill
#
# Bulk Modulus (GPa) = 58.09387 60.11451 59.10419
# Shear Modulus (GPa) = 34.21392 57.86271 46.03831
#
# Velocity S-wave (km/s) = 4.43140 5.76287 5.14042
# Velocity P-wave (km/s) = 7.71533 8.87603 8.31596
#
# Compressibility (1/GPa) = 0.01721352
#
# Stress axis : x y z
#
# Youngs Moduli (GPa) = 82.52881 81.37215 77.53700
#
# Poissons Ratio (x) = 0.21273 0.20983
# Poissons Ratio (y) = 0.21575 0.36632
# Poissons Ratio (z) = 0.22334 0.38444
#
# Static dielectric constant tensor:
#      x y z
#    x 3.322710 0.000000 0.026280 
#    y 0.000000 3.310440 0.000000 
#    z 0.026280 0.000000 3.342190 
# 
# 
# High freq. dielectric constant tensor:
#      x y z
#    x 1.661880 0.000000 0.020660 
#    y 0.000000 1.663120 0.000000 
#    z 0.020660 0.000000 1.677090 
# 
# From -- ./inp_files/65308.got.cif
#   From: 2010.06.25/outbox.cif.g09.slc.cpg/sg12_33_cif.got.tgz:65308.got - 2010.06.28 00:19:55.
