data_PCOD8114001
_publ_section_title
;
Structure prediction by ZEFSAII (Michael W. Deem and Ramdas Pophale) SiO2 
 PCOD8114001
Probable space group: C 2/M
;
_chemical_formula_sum "Si O2"
_cell_formula_units_Z 32
_cell_length_a 23.274124
_cell_length_b 14.734675
_cell_length_c 9.385353
_cell_angle_alpha 90.000000
_cell_angle_beta 27.446551
_cell_angle_gamma 90.000000
_cell_volume 1483.511678
_symmetry_space_group_name_H-M "C 2/M"
_symmetry_group_IT_number 12
_symmetry_cell_setting 'monoclinic'
loop_
_space_group_symop_operation_xyz
x,y,z
-x,y,-z
-x,-y,-z
x,-y,z
1/2+x,1/2+y,z
1/2-x,1/2+y,-z
1/2-x,1/2-y,-z
1/2+x,1/2-y,z
loop_
_atom_site_type_symbol
_atom_site_label
_atom_site_fract_x
_atom_site_fract_y
_atom_site_fract_z
Si Si1 0.109590 0.759034 0.367590
Si Si2 0.190031 0.651988 0.643242
Si Si3 0.911496 0.101030 0.323339
Si Si4 0.557182 0.103409 0.670585
O O1 0.096245 0.828378 0.529301
O O2 0.086685 0.654966 0.460840
O O3 0.000000 0.788794 0.500000
O O4 0.250000 0.750000 0.000000
O O5 0.250000 0.750000 0.500000
O O6 0.275670 0.589264 0.553176
O O7 0.175291 0.608649 0.518218
O O8 0.056365 0.657605 0.010184
O O9 0.953572 0.000000 0.283484
O O10 0.000000 0.137343 0.000000
O O11 0.523054 0.000000 0.711956
#
# Coordination Sequence:
#
# PCOD8114001 Si02
#       4
#     8   8   8   8
#     4  12  28  46  68 101 143 191 234 291 364 431
#     4  11  20  39  71 103 136 171 228 294 347 409
#     4  11  24  43  71 102 136 180 234 292 352 421
#     4  11  24  42  69 102 137 182 234 289 349 422
#
# _framework density 21.570440000000001
#
# number of rings (size 3 to 8) (size 9 to 14) (size 15 to 20)
#    0.000    0.750    2.500    6.000    3.500    2.000 
#    0.000    0.000    0.000    0.000    0.000    0.000 
#    0.000    0.000    0.000    0.000    0.000    0.000 
#
# Total GULP energy -198275.313662 kJ/mol
# GULP energy per Si atom -12392.207104 kJ/mol
# Density = 2.152134 g / cm^3
# Si number density = 21.570440 Si / 1000 Ang^3
#
#
#
# Elastic Constant Matrix: (Units=GPa)
#
#
# Indices 1 2 3 4 5 6 
#
# 1 136.5596 33.2857 58.8714 0.0000 -8.5657 0.0000
# 2 33.2857 157.4514 69.5767 0.0000 12.5627 0.0000
# 3 58.8714 69.5767 134.1139 0.0000 7.0875 0.0000
# 4 0.0000 0.0000 0.0000 26.2396 0.0000 -4.2805
# 5 -8.5657 12.5627 7.0875 0.0000 35.1371 0.0000
# 6 0.0000 0.0000 0.0000 -4.2805 0.0000 25.5579
#
#
#
# Elastic Compliance Matrix: (Units=1/GPa)
#
#
# Indices 1 2 3 4 5 6 
#
# 1 0.009388 -0.000452 -0.004059 0.000000 0.003269 0.000000
# 2 -0.000452 0.008419 -0.004048 0.000000 -0.002304 0.000000
# 3 -0.004059 -0.004048 0.011436 0.000000 -0.001849 0.000000
# 4 0.000000 0.000000 0.000000 0.039181 0.000000 0.006562
# 5 0.003269 -0.002304 -0.001849 0.000000 0.030454 0.000000
# 6 0.000000 0.000000 0.000000 0.006562 0.000000 0.040226
#
#
# Mechanical properties :
#
#
# Convention : Reuss Voigt Hill
#
# Bulk Modulus (GPa) = 82.47145 83.51027 82.99086
# Shear Modulus (GPa) = 31.19875 35.14631 33.17253
#
# Velocity S-wave (km/s) = 3.80724 4.04093 3.92582
# Velocity P-wave (km/s) = 7.59232 7.78276 7.68813
#
# Compressibility (1/GPa) = 0.01212541
#
# Stress axis : x y z
#
# Youngs Moduli (GPa) = 106.51914 118.77722 87.44342
#
# Poissons Ratio (x) = 0.05364 0.35497
# Poissons Ratio (y) = 0.04811 0.35395
# Poissons Ratio (z) = 0.43241 0.48078
#
# Static dielectric constant tensor:
#      x y z
#    x 4.277160 0.000000 -0.185290 
#    y 0.000000 3.853500 0.000000 
#    z -0.185290 0.000000 4.025340 
# 
# 
# High freq. dielectric constant tensor:
#      x y z
#    x 1.850120 0.000000 -0.014000 
#    y 0.000000 1.857110 0.000000 
#    z -0.014000 0.000000 1.846180 
# 
# From -- ./inp_files/45221.got.cif
#   From: 2010.06.25/outbox.cif.g09.slc.cpg/sg12_23_cif.got.tgz:45221.got - 2010.06.28 00:19:55.
