data_PCOD8114220
_publ_section_title
;
Structure prediction by ZEFSAII (Michael W. Deem and Ramdas Pophale) SiO2 
 PCOD8114220
Probable space group: C 2/M
;
_chemical_formula_sum "Si O2"
_cell_formula_units_Z 48
_cell_length_a 14.084031
_cell_length_b 24.666727
_cell_length_c 10.415008
_cell_angle_alpha 90.000000
_cell_angle_beta 136.502562
_cell_angle_gamma 90.000000
_cell_volume 2490.518925
_symmetry_space_group_name_H-M "C 2/M"
_symmetry_group_IT_number 12
_symmetry_cell_setting 'monoclinic'
loop_
_space_group_symop_operation_xyz
x,y,z
-x,y,-z
-x,-y,-z
x,-y,z
1/2+x,1/2+y,z
1/2-x,1/2+y,-z
1/2-x,1/2-y,-z
1/2+x,1/2-y,z
loop_
_atom_site_type_symbol
_atom_site_label
_atom_site_fract_x
_atom_site_fract_y
_atom_site_fract_z
Si Si1 0.272483 0.149073 0.170714
Si Si2 0.493937 0.672452 0.795502
Si Si3 0.625848 0.739684 0.707674
Si Si4 0.116627 0.283575 0.206172
Si Si5 0.295264 0.137955 0.490773
Si Si6 0.520110 0.059721 0.670448
O O1 0.315493 0.208220 0.154991
O O2 0.313781 0.152686 0.360010
O O3 0.352626 0.100637 0.176711
O O4 0.107375 0.141037 0.993491
O O5 0.574735 0.691988 0.749596
O O6 0.424458 0.721861 0.804063
O O7 0.367720 0.631802 0.635204
O O8 0.500000 0.761257 0.500000
O O9 0.740271 0.713778 0.728104
O O10 0.132219 0.314973 0.355229
O O11 0.000000 0.310029 0.000000
O O12 0.379266 0.082279 0.598000
O O13 0.500000 0.054102 0.500000
O O14 0.551570 0.000000 0.759609
#
# Coordination Sequence:
#
# PCOD8114220 Si02
#       6
#     8   8   8   8   8   8
#     4  11  21  35  55  82 114 148 184 229 278 327
#     4  12  22  35  51  83 120 153 185 221 274 338
#     4  12  22  35  53  81 120 158 185 221 267 331
#     4  12  23  36  52  83 120 153 191 221 265 338
#     4  11  21  37  56  79 114 147 186 231 275 330
#     4   9  20  38  60  82 104 141 192 240 285 327
#
# _framework density 19.273091999999998
#
# number of rings (size 3 to 8) (size 9 to 14) (size 15 to 20)
#    0.000    0.833    5.000    5.000    2.333    0.000 
#    0.000    0.833    0.000    4.500    0.000    1.167 
#    0.000    0.000    0.000    0.000    0.000    0.000 
#
# Total GULP energy -297546.259215 kJ/mol
# GULP energy per Si atom -12397.760801 kJ/mol
# Density = 1.922923 g / cm^3
# Si number density = 19.273092 Si / 1000 Ang^3
#
#
#
# Elastic Constant Matrix: (Units=GPa)
#
#
# Indices 1 2 3 4 5 6 
#
# 1 109.4333 46.3453 36.9429 0.0000 25.5126 0.0000
# 2 46.3453 107.3439 37.5517 0.0000 17.6143 0.0000
# 3 36.9429 37.5517 117.2847 0.0000 28.8233 0.0000
# 4 0.0000 0.0000 0.0000 14.0258 0.0000 4.3990
# 5 25.5126 17.6143 28.8233 0.0000 32.2829 0.0000
# 6 0.0000 0.0000 0.0000 4.3990 0.0000 15.8838
#
#
#
# Elastic Compliance Matrix: (Units=1/GPa)
#
#
# Indices 1 2 3 4 5 6 
#
# 1 0.012827 -0.004027 -0.001025 0.000000 -0.007025 0.000000
# 2 -0.004027 0.012071 -0.002255 0.000000 -0.001391 0.000000
# 3 -0.001025 -0.002255 0.011619 0.000000 -0.008334 0.000000
# 4 0.000000 0.000000 0.000000 0.078079 0.000000 -0.021624
# 5 -0.007025 -0.001391 -0.008334 0.000000 0.044728 0.000000
# 6 0.000000 0.000000 0.000000 -0.021624 0.000000 0.068946
#
#
# Mechanical properties :
#
#
# Convention : Reuss Voigt Hill
#
# Bulk Modulus (GPa) = 45.65141 63.97132 54.81136
# Shear Modulus (GPa) = 19.98527 26.65330 23.31928
#
# Velocity S-wave (km/s) = 3.22367 3.72281 3.48219
# Velocity P-wave (km/s) = 6.13140 7.19327 6.68346
#
# Compressibility (1/GPa) = 0.02190513
#
# Stress axis : x y z
#
# Youngs Moduli (GPa) = 77.96039 82.84010 86.06602
#
# Poissons Ratio (x) = 0.33358 0.08818
# Poissons Ratio (y) = 0.31393 0.19406
# Poissons Ratio (z) = 0.07988 0.18678
#
# Static dielectric constant tensor:
#      x y z
#    x 3.549340 0.000000 0.298250 
#    y 0.000000 3.412250 0.000000 
#    z 0.298250 0.000000 3.893310 
# 
# 
# High freq. dielectric constant tensor:
#      x y z
#    x 1.751180 0.000000 0.023940 
#    y 0.000000 1.691240 0.000000 
#    z 0.023940 0.000000 1.759370 
# 
# From -- ./inp_files/148021.got.cif
#   From: 2010.06.25/outbox.cif.g09.slc.cpg/sg12_75_cif.got.tgz:148021.got - 2010.06.28 00:19:55.
