data_PCOD8114774
_publ_section_title
;
Structure prediction by ZEFSAII (Michael W. Deem and Ramdas Pophale) SiO2 
 PCOD8114774
Probable space group: C 2/M
;
_chemical_formula_sum "Si O2"
_cell_formula_units_Z 40
_cell_length_a 11.415163
_cell_length_b 17.139181
_cell_length_c 11.363508
_cell_angle_alpha 90.000000
_cell_angle_beta 107.720717
_cell_angle_gamma 90.000000
_cell_volume 2117.742068
_symmetry_space_group_name_H-M "C 2/M"
_symmetry_group_IT_number 12
_symmetry_cell_setting 'monoclinic'
loop_
_space_group_symop_operation_xyz
x,y,z
-x,y,-z
-x,-y,-z
x,-y,z
1/2+x,1/2+y,z
1/2-x,1/2+y,-z
1/2-x,1/2-y,-z
1/2+x,1/2-y,z
loop_
_atom_site_type_symbol
_atom_site_label
_atom_site_fract_x
_atom_site_fract_y
_atom_site_fract_z
Si Si1 0.187750 0.909762 0.618840
Si Si2 0.112062 0.348534 0.162029
Si Si3 0.650773 0.089870 0.927799
Si Si4 0.068425 0.090267 0.341026
Si Si5 0.114611 0.169655 0.112205
O O1 0.300885 0.857686 0.698218
O O2 0.162517 0.889504 0.475105
O O3 0.068983 0.889964 0.660381
O O4 0.222706 0.000000 0.642514
O O5 0.119729 0.262525 0.111220
O O6 0.973952 0.370267 0.158276
O O7 0.156784 0.405934 0.071448
O O8 0.762281 0.135892 0.904777
O O9 0.656289 0.000000 0.890099
O O10 0.102175 0.143298 0.242179
O O11 0.079686 0.000000 0.308908
O O12 0.000000 0.139051 0.000000
#
# Coordination Sequence:
#
# PCOD8114774 Si02
#       5
#     8   8   8   8   8
#     4   9  18  37  63  84 112 154 198 237 286 349
#     4  11  22  37  61  83 118 157 195 238 295 349
#     4  11  23  39  59  88 118 156 201 239 284 354
#     4   9  20  37  59  88 115 149 197 243 285 348
#     4  12  24  37  59  87 123 152 191 245 301 340
#
# _framework density 18.888041000000001
#
# number of rings (size 3 to 8) (size 9 to 14) (size 15 to 20)
#    0.000    1.600    2.000    6.000    2.800    4.000 
#    0.000    1.000    0.000    3.600    0.000    0.000 
#    0.000    0.000    0.000    0.000    0.000    0.000 
#
# Total GULP energy -248072.029221 kJ/mol
# GULP energy per Si atom -12403.601461 kJ/mol
# Density = 1.884505 g / cm^3
# Si number density = 18.888041 Si / 1000 Ang^3
#
#
#
# Elastic Constant Matrix: (Units=GPa)
#
#
# Indices 1 2 3 4 5 6 
#
# 1 130.0088 59.5620 63.1750 0.0000 11.2412 0.0000
# 2 59.5620 91.3429 26.5633 0.0000 12.6547 0.0000
# 3 63.1750 26.5633 117.0746 0.0000 18.5802 0.0000
# 4 0.0000 0.0000 0.0000 37.9762 0.0000 -6.2299
# 5 11.2412 12.6547 18.5802 0.0000 29.6579 0.0000
# 6 0.0000 0.0000 0.0000 -6.2299 0.0000 35.6217
#
#
#
# Elastic Compliance Matrix: (Units=1/GPa)
#
#
# Indices 1 2 3 4 5 6 
#
# 1 0.013980 -0.007585 -0.006102 0.000000 0.001761 0.000000
# 2 -0.007585 0.016215 0.001172 0.000000 -0.004778 0.000000
# 3 -0.006102 0.001172 0.012526 0.000000 -0.006035 0.000000
# 4 0.000000 0.000000 0.000000 0.027110 0.000000 0.004741
# 5 0.001761 -0.004778 -0.006035 0.000000 0.038870 0.000000
# 6 0.000000 0.000000 0.000000 0.004741 0.000000 0.028902
#
#
# Mechanical properties :
#
#
# Convention : Reuss Voigt Hill
#
# Bulk Modulus (GPa) = 56.52619 70.78076 63.65347
# Shear Modulus (GPa) = 29.66838 33.25956 31.46397
#
# Velocity S-wave (km/s) = 3.96757 4.20084 4.08587
# Velocity P-wave (km/s) = 7.14008 7.81566 7.48550
#
# Compressibility (1/GPa) = 0.01769092
#
# Stress axis : x y z
#
# Youngs Moduli (GPa) = 71.53179 61.67175 79.83347
#
# Poissons Ratio (x) = 0.46779 0.48715
# Poissons Ratio (y) = 0.54258 -0.09359
# Poissons Ratio (z) = 0.43649 -0.07230
#
# Static dielectric constant tensor:
#      x y z
#    x 3.493490 0.000000 0.124550 
#    y 0.000000 3.366810 0.000000 
#    z 0.124550 0.000000 3.444570 
# 
# 
# High freq. dielectric constant tensor:
#      x y z
#    x 1.732930 0.000000 0.011090 
#    y 0.000000 1.733150 0.000000 
#    z 0.011090 0.000000 1.734560 
# 
# From -- ./inp_files/47131.got.cif
#   From: 2010.06.25/outbox.cif.g09.slc.cpg/sg12_24_cif.got.tgz:47131.got - 2010.06.28 00:19:55.
