data_PCOD8114547
_publ_section_title
;
Structure prediction by ZEFSAII (Michael W. Deem and Ramdas Pophale) SiO2 
 PCOD8114547
Probable space group: C 2/M
;
_chemical_formula_sum "Si O2"
_cell_formula_units_Z 32
_cell_length_a 14.391839
_cell_length_b 17.562167
_cell_length_c 11.577723
_cell_angle_alpha 90.000000
_cell_angle_beta 29.263964
_cell_angle_gamma 90.000000
_cell_volume 1430.470278
_symmetry_space_group_name_H-M "C 2/M"
_symmetry_group_IT_number 12
_symmetry_cell_setting 'monoclinic'
loop_
_space_group_symop_operation_xyz
x,y,z
-x,y,-z
-x,-y,-z
x,-y,z
1/2+x,1/2+y,z
1/2-x,1/2+y,-z
1/2-x,1/2-y,-z
1/2+x,1/2-y,z
loop_
_atom_site_type_symbol
_atom_site_label
_atom_site_fract_x
_atom_site_fract_y
_atom_site_fract_z
Si Si1 0.811079 0.846226 0.275846
Si Si2 0.448030 0.628568 0.362058
Si Si3 0.000000 0.759844 0.500000
Si Si4 0.591968 0.000000 0.523525
Si Si5 0.775431 0.500000 0.264711
Si Si6 0.216454 0.000000 0.065785
O O1 0.858989 0.819943 0.355194
O O2 0.678113 0.790276 0.346996
O O3 0.719434 0.927151 0.398847
O O4 0.000000 0.856801 0.000000
O O5 0.553237 0.686425 0.334891
O O6 0.287308 0.576385 0.598954
O O7 0.612979 0.575180 0.128231
O O8 0.500000 0.000000 0.500000
O O9 0.435964 0.000000 0.794184
O O10 0.676898 0.500000 0.246123
O O11 0.000000 0.500000 0.000000
#
# Coordination Sequence:
#
# PCOD8114547 Si02
#       6
#     8   8   4   4   4   4
#     4  12  27  47  70 103 139 190 234 287 351 415
#     4  11  23  46  70 105 142 177 240 289 345 418
#     4  12  26  48  68 102 152 180 230 284 354 432
#     4  12  23  46  73 103 137 178 242 286 345 410
#     4  11  21  41  73 107 134 182 240 297 343 394
#     4  11  21  43  79 100 134 184 230 304 343 393
#
# _framework density 22.370266000000001
#
# number of rings (size 3 to 8) (size 9 to 14) (size 15 to 20)
#    0.000    0.500    3.750    6.375    0.000    2.000 
#    4.500    0.000    0.000    0.000    0.000    0.000 
#    0.000    0.000    0.000    0.000    0.000    0.000 
#
# Total GULP energy -198374.374636 kJ/mol
# GULP energy per Si atom -12398.398415 kJ/mol
# Density = 2.231935 g / cm^3
# Si number density = 22.370266 Si / 1000 Ang^3
#
#
#
# Elastic Constant Matrix: (Units=GPa)
#
#
# Indices 1 2 3 4 5 6 
#
# 1 180.2879 56.3807 45.2516 0.0668 12.5098 0.0395
# 2 56.3807 129.5658 62.8864 0.1622 -8.4040 0.0579
# 3 45.2516 62.8864 156.0203 0.1503 -5.8030 0.0735
# 4 0.0668 0.1622 0.1503 7.4592 -0.0891 -19.2961
# 5 12.5098 -8.4040 -5.8030 -0.0891 35.9470 -0.0470
# 6 0.0395 0.0579 0.0735 -19.2961 -0.0470 60.7367
#
#
#
# Elastic Compliance Matrix: (Units=1/GPa)
#
#
# Indices 1 2 3 4 5 6 
#
# 1 0.006869 -0.002699 -0.001023 -0.000159 -0.003187 -0.000054
# 2 -0.002699 0.010752 -0.003443 -0.000624 0.002895 -0.000200
# 3 -0.001023 -0.003443 0.008126 -0.000465 0.000861 -0.000153
# 4 -0.000159 -0.000624 -0.000465 0.752838 0.002013 0.239180
# 5 -0.003187 0.002895 0.000861 0.002013 0.029750 0.000661
# 6 -0.000054 -0.000200 -0.000153 0.239180 0.000661 0.092453
#
#
# Mechanical properties :
#
#
# Convention : Reuss Voigt Hill
#
# Bulk Modulus (GPa) = 87.57773 88.32349 87.95061
# Shear Modulus (GPa) = 5.44116 40.91894 23.18005
#
# Velocity S-wave (km/s) = 1.56128 4.28152 3.22250
# Velocity P-wave (km/s) = 6.51800 8.00063 7.29707
#
# Compressibility (1/GPa) = 0.01141843
#
# Stress axis : x y z
#
# Youngs Moduli (GPa) = 145.58974 93.00441 123.05900
#
# Poissons Ratio (x) = 0.25102 0.12584
# Poissons Ratio (y) = 0.39295 0.42365
# Poissons Ratio (z) = 0.14888 0.32018
#
# Static dielectric constant tensor:
#      x y z
#    x 4.348800 -0.000040 0.128900 
#    y -0.000040 4.070280 0.000060 
#    z 0.128900 0.000060 3.825360 
# 
# 
# High freq. dielectric constant tensor:
#      x y z
#    x 1.914840 0.000000 0.001560 
#    y 0.000000 1.876690 0.000010 
#    z 0.001560 0.000010 1.873770 
# 
# From -- ./inp_files/131519.got.cif
#   From: 2010.06.25/outbox.cif.g09.slc.cpg/sg12_66_cif.got.tgz:131519.got - 2010.06.28 00:19:55.
