data_PCOD8114703
_publ_section_title
;
Structure prediction by ZEFSAII (Michael W. Deem and Ramdas Pophale) SiO2 
 PCOD8114703
Probable space group: C 2/M
;
_chemical_formula_sum "Si O2"
_cell_formula_units_Z 56
_cell_length_a 35.449169
_cell_length_b 14.078896
_cell_length_c 14.074175
_cell_angle_alpha 90.000000
_cell_angle_beta 25.543485
_cell_angle_gamma 90.000000
_cell_volume 3028.812058
_symmetry_space_group_name_H-M "C 2/M"
_symmetry_group_IT_number 12
_symmetry_cell_setting 'monoclinic'
loop_
_space_group_symop_operation_xyz
x,y,z
-x,y,-z
-x,-y,-z
x,-y,z
1/2+x,1/2+y,z
1/2-x,1/2+y,-z
1/2-x,1/2-y,-z
1/2+x,1/2-y,z
loop_
_atom_site_type_symbol
_atom_site_label
_atom_site_fract_x
_atom_site_fract_y
_atom_site_fract_z
Si Si1 0.776310 0.110733 0.189417
Si Si2 0.252264 0.356408 0.025312
Si Si3 0.930584 0.246441 0.841794
Si Si4 0.901724 0.602209 0.758133
Si Si5 0.126767 0.611118 0.662245
Si Si6 0.947845 0.388098 0.975749
Si Si7 0.553342 0.604712 0.474952
O O1 0.707951 0.155714 0.420563
O O2 0.791422 0.000000 0.171298
O O3 0.742847 0.129226 0.159069
O O4 0.867016 0.160000 0.008677
O O5 0.343424 0.398159 0.779723
O O6 0.250000 0.250000 0.000000
O O7 0.167674 0.404531 0.169963
O O8 0.885101 0.305462 0.859941
O O9 0.024031 0.194379 0.607711
O O10 0.935801 0.322317 0.912965
O O11 0.894299 0.500000 0.829338
O O12 0.000000 0.614233 0.500000
O O13 0.129733 0.500000 0.639175
O O14 0.127638 0.633094 0.773582
O O15 0.037765 0.647057 0.817482
O O16 0.947986 0.500000 0.947317
O O17 0.500000 0.620327 0.500000
O O18 0.529767 0.500000 0.571497
#
# Coordination Sequence:
#
# PCOD8114703 Si02
#       7
#     8   8   8   8   8   8   8
#     4  11  22  36  57  82 110 148 192 232 274 327
#     4  12  22  38  57  80 115 155 191 231 278 331
#     4  12  22  34  56  83 113 149 188 233 277 335
#     4  11  24  38  51  78 115 149 187 232 285 337
#     4   8  18  37  59  82 108 139 184 236 287 340
#     4   9  19  37  59  84 111 141 180 237 295 338
#     4  11  22  38  56  79 116 156 196 234 268 318
#
# _framework density 18.489097999999998
#
# number of rings (size 3 to 8) (size 9 to 14) (size 15 to 20)
#    0.000    1.429    2.857    4.286    4.000    0.571 
#    0.000    0.000    0.000    0.000    0.000    8.000 
#    0.000    0.000    0.000    0.000    0.000    0.000 
#
# Total GULP energy -346915.315639 kJ/mol
# GULP energy per Si atom -12389.832701 kJ/mol
# Density = 1.844702 g / cm^3
# Si number density = 18.489098 Si / 1000 Ang^3
#
#
#
# Elastic Constant Matrix: (Units=GPa)
#
#
# Indices 1 2 3 4 5 6 
#
# 1 83.1221 32.8734 45.8682 0.0000 -1.2547 0.0000
# 2 32.8734 109.7777 34.0269 0.0000 9.9889 0.0000
# 3 45.8682 34.0269 121.4570 0.0000 -0.3189 0.0000
# 4 0.0000 0.0000 0.0000 38.6841 0.0000 2.9512
# 5 -1.2547 9.9889 -0.3189 0.0000 31.0369 0.0000
# 6 0.0000 0.0000 0.0000 2.9512 0.0000 21.7946
#
#
#
# Elastic Compliance Matrix: (Units=1/GPa)
#
#
# Indices 1 2 3 4 5 6 
#
# 1 0.016268 -0.003421 -0.005181 0.000000 0.001705 0.000000
# 2 -0.003421 0.011032 -0.001808 0.000000 -0.003707 0.000000
# 3 -0.005181 -0.001808 0.010698 0.000000 0.000483 0.000000
# 4 0.000000 0.000000 0.000000 0.026120 0.000000 -0.003537
# 5 0.001705 -0.003707 0.000483 0.000000 0.033487 0.000000
# 6 0.000000 0.000000 0.000000 -0.003537 0.000000 0.046362
#
#
# Mechanical properties :
#
#
# Convention : Reuss Voigt Hill
#
# Bulk Modulus (GPa) = 58.21636 59.98820 59.10228
# Shear Modulus (GPa) = 29.32347 31.74234 30.53291
#
# Velocity S-wave (km/s) = 3.98677 4.14794 4.06815
# Velocity P-wave (km/s) = 7.26276 7.44689 7.35540
#
# Compressibility (1/GPa) = 0.01717730
#
# Stress axis : x y z
#
# Youngs Moduli (GPa) = 61.47052 90.64885 93.47733
#
# Poissons Ratio (x) = 0.31010 0.48428
# Poissons Ratio (y) = 0.21028 0.16905
# Poissons Ratio (z) = 0.31846 0.16393
#
# Static dielectric constant tensor:
#      x y z
#    x 3.455400 0.000000 -0.154570 
#    y 0.000000 3.559810 0.000000 
#    z -0.154570 0.000000 3.902830 
# 
# 
# High freq. dielectric constant tensor:
#      x y z
#    x 1.692050 0.000000 -0.005580 
#    y 0.000000 1.725380 0.000000 
#    z -0.005580 0.000000 1.722010 
# 
# From -- ./inp_files/189638.got.cif
#   From: 2010.06.25/outbox.cif.g09.slc.cpg/sg12_95_cif.got.tgz:189638.got - 2010.06.28 00:19:55.
