data_PCOD8114660
_publ_section_title
;
Structure prediction by ZEFSAII (Michael W. Deem and Ramdas Pophale) SiO2 
 PCOD8114660
Probable space group: C 2/M
;
_chemical_formula_sum "Si O2"
_cell_formula_units_Z 56
_cell_length_a 25.796322
_cell_length_b 15.748578
_cell_length_c 16.192392
_cell_angle_alpha 90.000000
_cell_angle_beta 25.970516
_cell_angle_gamma 90.000000
_cell_volume 2880.670561
_symmetry_space_group_name_H-M "C 2/M"
_symmetry_group_IT_number 12
_symmetry_cell_setting 'monoclinic'
loop_
_space_group_symop_operation_xyz
x,y,z
-x,y,-z
-x,-y,-z
x,-y,z
1/2+x,1/2+y,z
1/2-x,1/2+y,-z
1/2-x,1/2-y,-z
1/2+x,1/2-y,z
loop_
_atom_site_type_symbol
_atom_site_label
_atom_site_fract_x
_atom_site_fract_y
_atom_site_fract_z
Si Si1 0.698478 0.736965 0.912625
Si Si2 0.325134 0.098103 0.488038
Si Si3 0.622360 0.907028 0.774925
Si Si4 0.907397 0.833363 0.693203
Si Si5 0.965732 0.313906 0.726355
Si Si6 0.358498 0.728656 0.194268
Si Si7 0.244343 0.593435 0.053202
O O1 0.824001 0.778318 0.753001
O O2 0.679023 0.719245 0.845662
O O3 0.696453 0.646054 0.958974
O O4 0.593516 0.794657 0.100020
O O5 0.390273 0.101695 0.305915
O O6 0.409972 0.139970 0.435630
O O7 0.204264 0.154135 0.662171
O O8 0.296782 0.000000 0.551753
O O9 0.690353 0.822045 0.707240
O O10 0.684228 0.000000 0.704828
O O11 0.500000 0.906827 0.000000
O O12 0.977684 0.772639 0.656898
O O13 0.000000 0.879819 0.500000
O O14 0.831387 0.903359 0.849523
O O15 0.884690 0.376183 0.788868
O O16 0.500000 0.719891 0.000000
O O17 0.232957 0.500000 0.104228
#
# Coordination Sequence:
#
# PCOD8114660 Si02
#       7
#     8   8   8   8   8   8   8
#     4   9  19  34  53  76 103 140 179 217 262 313
#     4  11  22  35  56  84 110 140 180 224 269 323
#     4   9  19  36  57  81 106 133 175 228 272 313
#     4   9  17  31  51  76 106 136 169 213 264 318
#     4   9  17  33  55  76 102 137 177 219 264 314
#     4  11  22  37  57  78 108 149 183 220 272 322
#     4   9  18  32  52  78 106 137 173 215 266 321
#
# _framework density 19.439917999999999
#
# number of rings (size 3 to 8) (size 9 to 14) (size 15 to 20)
#    0.000    2.429    0.000    5.143    0.000    1.143 
#    0.000    2.857    0.000   15.000    0.000    0.000 
#    0.000    0.000    0.000    0.000    0.000    0.000 
#
# Total GULP energy -346917.280713 kJ/mol
# GULP energy per Si atom -12389.902883 kJ/mol
# Density = 1.939567 g / cm^3
# Si number density = 19.439918 Si / 1000 Ang^3
#
#
#
# Elastic Constant Matrix: (Units=GPa)
#
#
# Indices 1 2 3 4 5 6 
#
# 1 88.0764 27.5240 27.6984 0.0000 8.2293 0.0000
# 2 27.5240 120.0831 22.7394 0.0000 -11.1780 0.0000
# 3 27.6984 22.7394 58.8996 0.0000 -3.6326 0.0000
# 4 0.0000 0.0000 0.0000 19.4297 0.0000 -1.8733
# 5 8.2293 -11.1780 -3.6326 0.0000 19.9351 0.0000
# 6 0.0000 0.0000 0.0000 -1.8733 0.0000 15.2802
#
#
#
# Elastic Compliance Matrix: (Units=1/GPa)
#
#
# Indices 1 2 3 4 5 6 
#
# 1 0.015245 -0.003116 -0.006536 0.000000 -0.009232 0.000000
# 2 -0.003116 0.010030 -0.002003 0.000000 0.006546 0.000000
# 3 -0.006536 -0.002003 0.021160 0.000000 0.005430 0.000000
# 4 0.000000 0.000000 0.000000 0.052083 0.000000 0.006385
# 5 -0.009232 0.006546 0.005430 0.000000 0.058633 0.000000
# 6 0.000000 0.000000 0.000000 0.006385 0.000000 0.066227
#
#
# Mechanical properties :
#
#
# Convention : Reuss Voigt Hill
#
# Bulk Modulus (GPa) = 43.24239 46.99808 45.12023
# Shear Modulus (GPa) = 19.65422 23.53548 21.59485
#
# Velocity S-wave (km/s) = 3.18311 3.48325 3.33656
# Velocity P-wave (km/s) = 5.98348 6.35657 6.17284
#
# Compressibility (1/GPa) = 0.02312546
#
# Stress axis : x y z
#
# Youngs Moduli (GPa) = 65.59329 99.69631 47.25912
#
# Poissons Ratio (x) = 0.31066 0.30887
# Poissons Ratio (y) = 0.20439 0.09468
# Poissons Ratio (z) = 0.42870 0.19973
#
# Static dielectric constant tensor:
#      x y z
#    x 3.351830 0.000000 0.119360 
#    y 0.000000 3.703980 0.000000 
#    z 0.119360 0.000000 3.538200 
# 
# 
# High freq. dielectric constant tensor:
#      x y z
#    x 1.744180 0.000000 0.017330 
#    y 0.000000 1.753650 0.000000 
#    z 0.017330 0.000000 1.750880 
# 
# From -- ./inp_files/240888.got.cif
#   From: 2010.06.25/outbox.cif.g09.slc.cpg/sg12_121_cif.got.tgz:240888.got - 2010.06.28 00:19:55.
