data_PCOD8114239
_publ_section_title
;
Structure prediction by ZEFSAII (Michael W. Deem and Ramdas Pophale) SiO2 
 PCOD8114239
Probable space group: C 2/M
;
_chemical_formula_sum "Si O2"
_cell_formula_units_Z 56
_cell_length_a 9.716216
_cell_length_b 21.261681
_cell_length_c 20.339482
_cell_angle_alpha 90.000000
_cell_angle_beta 138.509969
_cell_angle_gamma 90.000000
_cell_volume 2783.644654
_symmetry_space_group_name_H-M "C 2/M"
_symmetry_group_IT_number 12
_symmetry_cell_setting 'monoclinic'
loop_
_space_group_symop_operation_xyz
x,y,z
-x,y,-z
-x,-y,-z
x,-y,z
1/2+x,1/2+y,z
1/2-x,1/2+y,-z
1/2-x,1/2-y,-z
1/2+x,1/2-y,z
loop_
_atom_site_type_symbol
_atom_site_label
_atom_site_fract_x
_atom_site_fract_y
_atom_site_fract_z
Si Si1 0.624574 0.929840 0.482613
Si Si2 0.257565 0.751276 0.425094
Si Si3 0.850219 0.572788 0.781174
Si Si4 0.937363 0.882821 0.680003
Si Si5 0.155147 0.426867 0.000947
Si Si6 0.111023 0.073922 0.192694
Si Si7 0.969201 0.628858 0.688704
O O1 0.500000 0.898161 0.500000
O O2 0.862648 0.925692 0.591496
O O3 0.608154 0.893911 0.409336
O O4 0.544456 0.000000 0.441895
O O5 0.500000 0.739662 0.500000
O O6 0.250000 0.750000 0.500000
O O7 0.166159 0.814605 0.361571
O O8 0.108214 0.700416 0.335824
O O9 0.786508 0.500000 0.765949
O O10 0.685790 0.616729 0.761242
O O11 0.863527 0.590587 0.709832
O O12 0.068991 0.585053 0.896709
O O13 0.863104 0.916100 0.720260
O O14 0.178244 0.500000 0.026273
O O15 0.388000 0.399037 0.089327
O O16 0.000000 0.396746 0.000000
O O17 0.282924 0.117057 0.217565
O O18 0.144912 0.000000 0.187695
#
# Coordination Sequence:
#
# PCOD8114239 Si02
#       7
#     8   8   8   8   8   8   8
#     4  11  21  35  57  88 121 156 197 250 308 363
#     4  12  25  45  62  81 121 172 222 248 291 361
#     4  11  23  39  61  96 131 157 195 256 327 374
#     4  12  22  38  64  88 116 162 214 257 292 360
#     4   9  18  36  64  93 124 160 202 251 304 377
#     4  11  21  38  66  96 121 156 206 256 311 368
#     4  12  25  39  59  90 130 164 202 254 309 370
#
# _framework density 20.117511
#
# number of rings (size 3 to 8) (size 9 to 14) (size 15 to 20)
#    0.000    0.857    4.286    4.714    0.000    0.571 
#    0.000    3.571    0.000    5.143    0.000    0.000 
#    0.000    0.000    0.000    0.000    0.000    0.000 
#
# Total GULP energy -347054.230988 kJ/mol
# GULP energy per Si atom -12394.793964 kJ/mol
# Density = 2.007172 g / cm^3
# Si number density = 20.117511 Si / 1000 Ang^3
#
#
#
# Elastic Constant Matrix: (Units=GPa)
#
#
# Indices 1 2 3 4 5 6 
#
# 1 110.3478 38.9931 24.4853 0.0007 14.9063 0.0005
# 2 38.9931 86.4569 42.0602 0.0000 16.0737 0.0001
# 3 24.4853 42.0602 84.5670 0.0007 12.8467 0.0003
# 4 0.0007 0.0000 0.0007 17.9106 0.0008 7.0863
# 5 14.9063 16.0737 12.8467 0.0008 45.7705 0.0004
# 6 0.0005 0.0001 0.0003 7.0863 0.0004 24.5703
#
#
#
# Elastic Compliance Matrix: (Units=1/GPa)
#
#
# Indices 1 2 3 4 5 6 
#
# 1 0.010982 -0.004217 -0.000798 0.000000 -0.001872 0.000000
# 2 -0.004217 0.017393 -0.007009 0.000001 -0.002767 0.000000
# 3 -0.000798 -0.007009 0.015802 0.000000 -0.001714 0.000000
# 4 0.000000 0.000001 0.000000 0.063024 -0.000001 -0.018177
# 5 -0.001872 -0.002767 -0.001714 -0.000001 0.023911 0.000000
# 6 0.000000 0.000000 0.000000 -0.018177 0.000000 0.045942
#
#
# Mechanical properties :
#
#
# Convention : Reuss Voigt Hill
#
# Bulk Modulus (GPa) = 49.67902 54.71653 52.19778
# Shear Modulus (GPa) = 24.06019 29.37249 26.71634
#
# Velocity S-wave (km/s) = 3.46205 3.82520 3.64815
# Velocity P-wave (km/s) = 6.38193 6.83864 6.61423
#
# Compressibility (1/GPa) = 0.02012922
#
# Stress axis : x y z
#
# Youngs Moduli (GPa) = 91.05563 57.49564 63.28140
#
# Poissons Ratio (x) = 0.24245 0.05051
# Poissons Ratio (y) = 0.38397 0.44354
# Poissons Ratio (z) = 0.07268 0.40299
#
# Static dielectric constant tensor:
#      x y z
#    x 3.768600 0.000000 0.242640 
#    y 0.000000 3.567870 0.000000 
#    z 0.242640 0.000000 3.902950 
# 
# 
# High freq. dielectric constant tensor:
#      x y z
#    x 1.791830 0.000000 0.009070 
#    y 0.000000 1.753940 0.000000 
#    z 0.009070 0.000000 1.794870 
# 
# From -- ./inp_files/259268.got.cif
#   From: 2010.06.25/outbox.cif.g09.slc.cpg/sg12_130_cif.got.tgz:259268.got - 2010.06.28 00:19:55.
