data_PCOD8114079
_publ_section_title
;
Structure prediction by ZEFSAII (Michael W. Deem and Ramdas Pophale) SiO2 
 PCOD8114079
Probable space group: C 2/M
;
_chemical_formula_sum "Si O2"
_cell_formula_units_Z 64
_cell_length_a 31.093546
_cell_length_b 9.305491
_cell_length_c 14.391966
_cell_angle_alpha 90.000000
_cell_angle_beta 117.571740
_cell_angle_gamma 90.000000
_cell_volume 3691.263838
_symmetry_space_group_name_H-M "C 2/M"
_symmetry_group_IT_number 12
_symmetry_cell_setting 'monoclinic'
loop_
_space_group_symop_operation_xyz
x,y,z
-x,y,-z
-x,-y,-z
x,-y,z
1/2+x,1/2+y,z
1/2-x,1/2+y,-z
1/2-x,1/2-y,-z
1/2+x,1/2-y,z
loop_
_atom_site_type_symbol
_atom_site_label
_atom_site_fract_x
_atom_site_fract_y
_atom_site_fract_z
Si Si1 0.419873 0.665906 0.775208
Si Si2 0.297552 0.167681 0.941043
Si Si3 0.609461 0.830089 0.082691
Si Si4 0.032701 0.163655 0.889813
Si Si5 0.890539 0.669911 0.363769
Si Si6 0.467299 0.336344 0.324411
Si Si7 0.297552 0.832319 0.154062
Si Si8 0.919873 0.834093 0.564539
O O1 0.406690 0.500000 0.778314
O O2 0.387945 0.763593 0.811675
O O3 0.476355 0.692306 0.852599
O O4 0.407444 0.711177 0.657444
O O5 0.342528 0.218469 0.923873
O O6 0.250000 0.250000 0.858029
O O7 0.287420 0.000000 0.919575
O O8 0.309477 0.208045 0.059478
O O9 0.605180 0.000000 0.085445
O O10 0.562616 0.772246 0.982412
O O11 0.045267 0.192701 0.795267
O O12 0.045977 0.000000 0.930128
O O13 0.894819 0.500000 0.375084
O O14 0.937383 0.727754 0.357177
O O15 0.842527 0.718469 0.261184
O O16 0.887946 0.736408 0.464217
O O17 0.454023 0.500000 0.338175
O O18 0.523644 0.307692 0.399888
O O19 0.287419 0.000000 0.155264
O O20 0.906691 0.000000 0.535067
#
# Coordination Sequence:
#
# PCOD8114079 Si02
#       8
#     8   8   8   8   8   8   8   8
#     4   9  19  35  51  68  95 132 172 208 236 272
#     4   9  19  35  52  72  99 127 155 191 237 289
#     4  11  21  31  48  75 103 128 157 199 249 295
#     4   9  18  32  49  70  98 133 170 202 233 278
#     4  11  21  31  48  75 103 128 157 199 249 295
#     4   9  18  32  49  70  98 133 170 202 233 278
#     4   9  19  35  52  72  99 127 155 191 237 289
#     4   9  19  35  51  68  95 132 172 208 236 272
#
# _framework density 17.338235999999998
#
# number of rings (size 3 to 8) (size 9 to 14) (size 15 to 20)
#    0.000    2.500    0.000    3.750    0.000    8.000 
#    0.000    5.000    0.000    0.750    0.000    0.000 
#    0.000    0.000    0.000    0.000    0.000    0.000 
#
# Total GULP energy -396871.304751 kJ/mol
# GULP energy per Si atom -12402.228273 kJ/mol
# Density = 1.729877 g / cm^3
# Si number density = 17.338236 Si / 1000 Ang^3
#
#
#
# Elastic Constant Matrix: (Units=GPa)
#
#
# Indices 1 2 3 4 5 6 
#
# 1 94.6895 49.6173 56.2393 0.0000 -15.1015 0.0000
# 2 49.6173 70.3025 55.8932 0.0000 -5.4342 0.0000
# 3 56.2393 55.8932 116.0753 0.0000 -3.4150 0.0000
# 4 0.0000 0.0000 0.0000 32.4064 0.0000 -1.3358
# 5 -15.1015 -5.4342 -3.4150 0.0000 17.8249 0.0000
# 6 0.0000 0.0000 0.0000 -1.3358 0.0000 30.8638
#
#
#
# Elastic Compliance Matrix: (Units=1/GPa)
#
#
# Indices 1 2 3 4 5 6 
#
# 1 0.020764 -0.009588 -0.005040 0.000000 0.013703 0.000000
# 2 -0.009588 0.027914 -0.008834 0.000000 -0.001306 0.000000
# 3 -0.005040 -0.008834 0.015192 0.000000 -0.004053 0.000000
# 4 0.000000 0.000000 0.000000 0.030913 0.000000 0.001338
# 5 0.013703 -0.001306 -0.004053 0.000000 0.066536 0.000000
# 6 0.000000 0.000000 0.000000 0.001338 0.000000 0.032458
#
#
# Mechanical properties :
#
#
# Convention : Reuss Voigt Hill
#
# Bulk Modulus (GPa) = 59.01610 67.17410 63.09510
# Shear Modulus (GPa) = 20.29633 24.17354 22.23494
#
# Velocity S-wave (km/s) = 3.42513 3.73799 3.58498
# Velocity P-wave (km/s) = 7.05366 7.58008 7.32160
#
# Compressibility (1/GPa) = 0.01694453
#
# Stress axis : x y z
#
# Youngs Moduli (GPa) = 48.16031 35.82457 65.82551
#
# Poissons Ratio (x) = 0.34350 0.33177
# Poissons Ratio (y) = 0.46177 0.58151
# Poissons Ratio (z) = 0.24274 0.31648
#
# Static dielectric constant tensor:
#      x y z
#    x 3.150340 0.000000 -0.123790 
#    y 0.000000 3.151430 0.000000 
#    z -0.123790 0.000000 3.293290 
# 
# 
# High freq. dielectric constant tensor:
#      x y z
#    x 1.653860 0.000000 -0.012890 
#    y 0.000000 1.668090 0.000000 
#    z -0.012890 0.000000 1.668740 
# 
# From -- ./inp_files/104513.got.cif
#   From: 2010.06.25/outbox.cif.g09.slc.cpg/sg12_53_cif.got.tgz:104513.got - 2010.06.28 00:19:55.
