data_PCOD8114765
_publ_section_title
;
Structure prediction by ZEFSAII (Michael W. Deem and Ramdas Pophale) SiO2 
 PCOD8114765
Probable space group: C 2/M
;
_chemical_formula_sum "Si O2"
_cell_formula_units_Z 56
_cell_length_a 19.588052
_cell_length_b 8.526247
_cell_length_c 24.422049
_cell_angle_alpha 90.000000
_cell_angle_beta 44.220472
_cell_angle_gamma 90.000000
_cell_volume 2844.634083
_symmetry_space_group_name_H-M "C 2/M"
_symmetry_group_IT_number 12
_symmetry_cell_setting 'monoclinic'
loop_
_space_group_symop_operation_xyz
x,y,z
-x,y,-z
-x,-y,-z
x,-y,z
1/2+x,1/2+y,z
1/2-x,1/2+y,-z
1/2-x,1/2-y,-z
1/2+x,1/2-y,z
loop_
_atom_site_type_symbol
_atom_site_label
_atom_site_fract_x
_atom_site_fract_y
_atom_site_fract_z
Si Si1 0.794283 0.816437 0.222836
Si Si2 0.990595 0.681533 0.069112
Si Si3 0.962857 0.184840 0.324417
Si Si4 0.839351 0.683319 0.482222
Si Si5 0.306692 0.684221 0.018835
Si Si6 0.183570 0.816048 0.187268
Si Si7 0.288672 0.684733 0.348600
O O1 0.720835 0.719490 0.226828
O O2 0.780565 0.747777 0.292120
O O3 0.905955 0.790319 0.141535
O O4 0.768942 0.000000 0.233680
O O5 0.965576 0.500000 0.094187
O O6 0.090380 0.727192 0.041441
O O7 0.000000 0.718271 0.000000
O O8 0.938271 0.241264 0.400831
O O9 0.884001 0.254235 0.326074
O O10 0.071443 0.240915 0.245903
O O11 0.958532 0.000000 0.327672
O O12 0.847092 0.500000 0.469134
O O13 0.750000 0.750000 0.500000
O O14 0.813302 0.723898 0.560668
O O15 0.324385 0.500000 0.002943
O O16 0.248114 0.718135 0.107937
O O17 0.250000 0.750000 0.000000
O O18 0.195560 0.000000 0.167789
O O19 0.305104 0.500000 0.335729
#
# Coordination Sequence:
#
# PCOD8114765 Si02
#       7
#     8   8   8   8   8   8   8
#     4  11  22  37  60  85 114 153 197 240 287 348
#     4  11  23  41  63  86 117 154 194 240 290 343
#     4   9  19  36  58  82 112 150 190 235 289 342
#     4   9  16  31  55  82 113 146 185 233 285 341
#     4  12  26  43  64  89 118 152 194 240 290 346
#     4  11  23  40  59  83 119 156 189 238 295 343
#     4   8  17  34  56  84 111 144 188 235 284 339
#
# _framework density 19.686187
#
# number of rings (size 3 to 8) (size 9 to 14) (size 15 to 20)
#    0.000    1.857    1.429    3.857    2.000    1.714 
#    0.000    7.857    0.000    4.286    0.000    0.000 
#    0.000    0.000    0.000    0.000    0.000    0.000 
#
# Total GULP energy -347139.320654 kJ/mol
# GULP energy per Si atom -12397.832881 kJ/mol
# Density = 1.964138 g / cm^3
# Si number density = 19.686187 Si / 1000 Ang^3
#
#
#
# Elastic Constant Matrix: (Units=GPa)
#
#
# Indices 1 2 3 4 5 6 
#
# 1 90.0914 6.0415 19.5962 0.0001 12.7107 0.0006
# 2 6.0415 24.9691 18.1951 0.0002 2.9312 0.0013
# 3 19.5962 18.1951 73.1277 0.0000 15.0603 0.0000
# 4 0.0001 0.0002 0.0000 31.4585 0.0000 -0.1464
# 5 12.7107 2.9312 15.0603 0.0000 32.9355 0.0000
# 6 0.0006 0.0013 0.0000 -0.1464 0.0000 27.0478
#
#
#
# Elastic Compliance Matrix: (Units=1/GPa)
#
#
# Indices 1 2 3 4 5 6 
#
# 1 0.012162 -0.000836 -0.002318 0.000000 -0.003559 0.000000
# 2 -0.000836 0.049030 -0.012302 0.000000 0.001584 -0.000002
# 3 -0.002318 -0.012302 0.018709 0.000000 -0.006565 0.000001
# 4 0.000000 0.000000 0.000000 0.031789 0.000000 0.000172
# 5 -0.003559 0.001584 -0.006565 0.000000 0.034597 0.000000
# 6 0.000000 -0.000002 0.000001 0.000172 0.000000 0.036973
#
#
# Mechanical properties :
#
#
# Convention : Reuss Voigt Hill
#
# Bulk Modulus (GPa) = 20.41223 30.65042 25.53132
# Shear Modulus (GPa) = 21.69195 27.91207 24.80201
#
# Velocity S-wave (km/s) = 3.32307 3.76952 3.55331
# Velocity P-wave (km/s) = 5.01149 5.87784 5.46187
#
# Compressibility (1/GPa) = 0.04899025
#
# Stress axis : x y z
#
# Youngs Moduli (GPa) = 82.22127 20.39569 53.45079
#
# Poissons Ratio (x) = 0.01704 0.12391
# Poissons Ratio (y) = 0.06871 0.65753
# Poissons Ratio (z) = 0.19061 0.25090
#
# Static dielectric constant tensor:
#      x y z
#    x 3.772600 0.000000 0.113510 
#    y 0.000000 3.537400 0.000000 
#    z 0.113510 0.000000 4.121020 
# 
# 
# High freq. dielectric constant tensor:
#      x y z
#    x 1.753760 0.000000 0.003520 
#    y 0.000000 1.759990 0.000000 
#    z 0.003520 0.000000 1.780310 
# 
# From -- ./inp_files/342341.got.cif
#   From: 2010.06.25/outbox.cif.g09.slc.cpg/sg12_172_cif.got.tgz:342341.got - 2010.06.28 00:19:55.
