data_PCOD8114716
_publ_section_title
;
Structure prediction by ZEFSAII (Michael W. Deem and Ramdas Pophale) SiO2 
 PCOD8114716
Probable space group: C 2/M
;
_chemical_formula_sum "Si O2"
_cell_formula_units_Z 64
_cell_length_a 27.720512
_cell_length_b 14.417535
_cell_length_c 8.944543
_cell_angle_alpha 90.000000
_cell_angle_beta 113.968046
_cell_angle_gamma 90.000000
_cell_volume 3266.542682
_symmetry_space_group_name_H-M "C 2/M"
_symmetry_group_IT_number 12
_symmetry_cell_setting 'monoclinic'
loop_
_space_group_symop_operation_xyz
x,y,z
-x,y,-z
-x,-y,-z
x,-y,z
1/2+x,1/2+y,z
1/2-x,1/2+y,-z
1/2-x,1/2-y,-z
1/2+x,1/2-y,z
loop_
_atom_site_type_symbol
_atom_site_label
_atom_site_fract_x
_atom_site_fract_y
_atom_site_fract_z
Si Si1 0.228312 0.106712 0.638155
Si Si2 0.004524 0.714301 0.168821
Si Si3 0.320940 0.392040 0.734794
Si Si4 0.383305 0.602589 0.359373
Si Si5 0.566763 0.604807 0.261129
Si Si6 0.445063 0.104771 0.517466
Si Si7 0.898212 0.718312 0.209289
Si Si8 0.208089 0.262300 0.079224
O O1 0.217289 0.134136 0.452128
O O2 0.176197 0.124625 0.668896
O O3 0.273892 0.169421 0.765919
O O4 0.245911 0.000000 0.670177
O O5 0.020263 0.822480 0.170137
O O6 0.049059 0.660115 0.319605
O O7 0.947593 0.699234 0.167396
O O8 0.000000 0.668614 0.000000
O O9 0.315296 0.500000 0.765228
O O10 0.381333 0.368202 0.768512
O O11 0.303825 0.336966 0.860928
O O12 0.387577 0.500000 0.294736
O O13 0.421440 0.610513 0.548592
O O14 0.400877 0.673573 0.254881
O O15 0.548326 0.500000 0.197506
O O16 0.500000 0.106628 0.500000
O O17 0.400609 0.155004 0.361425
O O18 0.426691 0.000000 0.527817
O O19 0.844780 0.693344 0.055861
O O20 0.250000 0.250000 0.000000
#
# Coordination Sequence:
#
# PCOD8114716 Si02
#       8
#     8   8   8   8   8   8   8   8
#     4   9  19  38  60  83 116 157 197 241 291 347
#     4  11  22  36  59  87 118 152 195 241 284 348
#     4   9  20  39  62  87 118 158 197 235 290 354
#     4   9  17  33  58  85 115 152 192 230 281 348
#     4   9  18  35  60  88 121 155 188 230 283 350
#     4   9  20  40  61  79 109 150 191 239 294 344
#     4  11  22  37  56  87 117 153 194 239 293 343
#     4  12  23  35  58  86 117 154 195 247 294 341
#
# _framework density 19.592580999999999
#
# number of rings (size 3 to 8) (size 9 to 14) (size 15 to 20)
#    0.000    2.125    2.500    2.625    0.000    2.500 
#    0.000    1.250    0.000    5.250    0.000    0.000 
#    0.000    0.000    0.000    0.000    0.000    0.000 
#
# Total GULP energy -396817.920063 kJ/mol
# GULP energy per Si atom -12400.560002 kJ/mol
# Density = 1.954799 g / cm^3
# Si number density = 19.592581 Si / 1000 Ang^3
#
#
#
# Elastic Constant Matrix: (Units=GPa)
#
#
# Indices 1 2 3 4 5 6 
#
# 1 61.9947 24.3336 42.5043 0.0000 5.2735 0.0000
# 2 24.3336 94.6773 49.3481 0.0000 4.1028 0.0000
# 3 42.5043 49.3481 122.7609 0.0000 9.2567 0.0000
# 4 0.0000 0.0000 0.0000 23.1870 0.0000 -0.9422
# 5 5.2735 4.1028 9.2567 0.0000 32.7014 0.0000
# 6 0.0000 0.0000 0.0000 -0.9422 0.0000 25.7705
#
#
#
# Elastic Compliance Matrix: (Units=1/GPa)
#
#
# Indices 1 2 3 4 5 6 
#
# 1 0.021530 -0.002078 -0.006516 0.000000 -0.001367 0.000000
# 2 -0.002078 0.013563 -0.004731 0.000000 -0.000027 0.000000
# 3 -0.006516 -0.004731 0.012445 0.000000 -0.001879 0.000000
# 4 0.000000 0.000000 0.000000 0.043192 0.000000 0.001579
# 5 -0.001367 -0.000027 -0.001879 0.000000 0.031335 0.000000
# 6 0.000000 0.000000 0.000000 0.001579 0.000000 0.038862
#
#
# Mechanical properties :
#
#
# Convention : Reuss Voigt Hill
#
# Bulk Modulus (GPa) = 47.87218 56.86723 52.36971
# Shear Modulus (GPa) = 25.70173 27.21491 26.45832
#
# Velocity S-wave (km/s) = 3.62582 3.73103 3.67880
# Velocity P-wave (km/s) = 6.48195 6.90280 6.69568
#
# Compressibility (1/GPa) = 0.02088896
#
# Stress axis : x y z
#
# Youngs Moduli (GPa) = 46.44734 73.72897 80.35160
#
# Poissons Ratio (x) = 0.15321 0.52357
# Poissons Ratio (y) = 0.09652 0.38012
# Poissons Ratio (z) = 0.30265 0.34879
#
# Static dielectric constant tensor:
#      x y z
#    x 3.268280 0.000000 0.069870 
#    y 0.000000 3.570770 0.000000 
#    z 0.069870 0.000000 3.713710 
# 
# 
# High freq. dielectric constant tensor:
#      x y z
#    x 1.737910 0.000000 0.003110 
#    y 0.000000 1.759200 0.000000 
#    z 0.003110 0.000000 1.774670 
# 
# From -- ./inp_files/104665.got.cif
#   From: 2010.06.25/outbox.cif.g09.slc.cpg/sg12_53_cif.got.tgz:104665.got - 2010.06.28 00:19:55.
