data_PCOD8114257
_publ_section_title
;
Structure prediction by ZEFSAII (Michael W. Deem and Ramdas Pophale) SiO2 
 PCOD8114257
Probable space group: C 2/M
;
_chemical_formula_sum "Si O2"
_cell_formula_units_Z 36
_cell_length_a 22.483772
_cell_length_b 9.551946
_cell_length_c 9.203495
_cell_angle_alpha 90.000000
_cell_angle_beta 68.165666
_cell_angle_gamma 90.000000
_cell_volume 1834.783850
_symmetry_space_group_name_H-M "C 2/M"
_symmetry_group_IT_number 12
_symmetry_cell_setting 'monoclinic'
loop_
_space_group_symop_operation_xyz
x,y,z
-x,y,-z
-x,-y,-z
x,-y,z
1/2+x,1/2+y,z
1/2-x,1/2+y,-z
1/2-x,1/2-y,-z
1/2+x,1/2-y,z
loop_
_atom_site_type_symbol
_atom_site_label
_atom_site_fract_x
_atom_site_fract_y
_atom_site_fract_z
Si Si1 0.422712 0.500000 0.075808
Si Si2 0.446618 0.000000 0.174499
Si Si3 0.074696 0.000000 0.598527
Si Si4 0.129264 0.229450 0.088050
Si Si5 0.497095 0.785965 0.344202
Si Si6 0.822267 0.500000 0.100422
Si Si7 0.679221 0.500000 0.254090
O O1 0.398012 0.500000 0.263184
O O2 0.500000 0.500000 0.000000
O O3 0.394684 0.638564 0.026908
O O4 0.451644 0.864848 0.272201
O O5 0.376045 0.000000 0.174343
O O6 0.500000 0.000000 0.000000
O O7 0.028336 0.129808 0.613571
O O8 0.134364 0.000000 0.435570
O O9 0.068127 0.294750 0.219911
O O10 0.168002 0.137274 0.167635
O O11 0.172913 0.359464 0.000153
O O12 0.500000 0.858371 0.500000
O O13 0.752744 0.500000 0.239746
#
# Coordination Sequence:
#
# PCOD8114257 Si02
#       7
#     4   4   4   8   8   4   4
#     4  11  21  35  65  99 131 159 212 267 321 378
#     4  12  25  41  63  95 131 165 209 272 329 369
#     4  12  22  37  66  98 129 164 210 267 323 369
#     4  11  22  41  68  95 125 173 219 264 314 381
#     4  12  22  39  66 100 128 159 213 275 329 369
#     4  12  25  43  67  92 133 174 221 254 316 393
#     4  11  25  45  63  93 134 179 212 255 315 392
#
# _framework density 19.620842
#
# number of rings (size 3 to 8) (size 9 to 14) (size 15 to 20)
#    0.000    0.444    6.667    3.333    0.000    0.000 
#    0.000    4.444    4.889    0.000    0.000    0.000 
#    0.000    0.000    0.000    0.000    0.000    0.000 
#
# Total GULP energy -223242.974149 kJ/mol
# GULP energy per Si atom -12402.387453 kJ/mol
# Density = 1.957618 g / cm^3
# Si number density = 19.620842 Si / 1000 Ang^3
#
#
#
# Elastic Constant Matrix: (Units=GPa)
#
#
# Indices 1 2 3 4 5 6 
#
# 1 101.0314 16.6134 34.3009 0.0000 -0.1590 0.0000
# 2 16.6134 104.5733 29.4565 0.0000 1.5102 0.0000
# 3 34.3009 29.4565 121.0594 0.0000 14.4750 0.0000
# 4 0.0000 0.0000 0.0000 21.3616 0.0000 -3.9294
# 5 -0.1590 1.5102 14.4750 0.0000 39.4639 0.0000
# 6 0.0000 0.0000 0.0000 -3.9294 0.0000 19.0727
#
#
#
# Elastic Compliance Matrix: (Units=1/GPa)
#
#
# Indices 1 2 3 4 5 6 
#
# 1 0.011091 -0.000916 -0.003063 0.000000 0.001203 0.000000
# 2 -0.000916 0.010353 -0.002313 0.000000 0.000449 0.000000
# 3 -0.003063 -0.002313 0.010126 0.000000 -0.003638 0.000000
# 4 0.000000 0.000000 0.000000 0.048657 0.000000 0.010025
# 5 0.001203 0.000449 -0.003638 0.000000 0.026662 0.000000
# 6 0.000000 0.000000 0.000000 0.010025 0.000000 0.054496
#
#
# Mechanical properties :
#
#
# Convention : Reuss Voigt Hill
#
# Bulk Modulus (GPa) = 52.67514 54.15621 53.41568
# Shear Modulus (GPa) = 27.73170 32.39917 30.06544
#
# Velocity S-wave (km/s) = 3.76357 4.06798 3.91873
# Velocity P-wave (km/s) = 6.76689 7.05166 6.91074
#
# Compressibility (1/GPa) = 0.01898429
#
# Stress axis : x y z
#
# Youngs Moduli (GPa) = 90.16715 96.58689 98.75372
#
# Poissons Ratio (x) = 0.08852 0.30251
# Poissons Ratio (y) = 0.08263 0.22844
# Poissons Ratio (z) = 0.27621 0.22342
#
# Static dielectric constant tensor:
#      x y z
#    x 3.424920 0.000000 0.184330 
#    y 0.000000 3.843790 0.000000 
#    z 0.184330 0.000000 3.804700 
# 
# 
# High freq. dielectric constant tensor:
#      x y z
#    x 1.752300 0.000000 0.012960 
#    y 0.000000 1.781640 0.000000 
#    z 0.012960 0.000000 1.770150 
# 
# From -- ./inp_files/92688.got.cif
#   From: 2010.06.25/outbox.cif.g09.slc.cpg/sg12_47_cif.got.tgz:92688.got - 2010.06.28 00:19:55.
