data_PCOD8114808
_publ_section_title
;
Structure prediction by ZEFSAII (Michael W. Deem and Ramdas Pophale) SiO2 
 PCOD8114808
Probable space group: C 2/M
;
_chemical_formula_sum "Si O2"
_cell_formula_units_Z 64
_cell_length_a 19.638155
_cell_length_b 8.997995
_cell_length_c 19.320216
_cell_angle_alpha 90.000000
_cell_angle_beta 90.599084
_cell_angle_gamma 90.000000
_cell_volume 3413.773226
_symmetry_space_group_name_H-M "C 2/M"
_symmetry_group_IT_number 12
_symmetry_cell_setting 'monoclinic'
loop_
_space_group_symop_operation_xyz
x,y,z
-x,y,-z
-x,-y,-z
x,-y,z
1/2+x,1/2+y,z
1/2-x,1/2+y,-z
1/2-x,1/2-y,-z
1/2+x,1/2-y,z
loop_
_atom_site_type_symbol
_atom_site_label
_atom_site_fract_x
_atom_site_fract_y
_atom_site_fract_z
Si Si1 0.323951 0.330114 0.721084
Si Si2 0.224915 0.828756 0.931420
Si Si3 0.518283 0.325118 0.078639
Si Si4 0.834125 0.673083 0.290118
Si Si5 0.812679 0.170339 0.571019
Si Si6 0.827373 0.169611 0.423362
Si Si7 0.395315 0.823008 0.147645
Si Si8 0.860736 0.330191 0.852606
O O1 0.331092 0.500000 0.746232
O O2 0.244701 0.282193 0.719986
O O3 0.354434 0.308227 0.643437
O O4 0.366619 0.227992 0.773922
O O5 0.157195 0.746367 0.906934
O O6 0.282387 0.814120 0.873635
O O7 0.207280 0.000000 0.946990
O O8 0.250000 0.750000 0.000000
O O9 0.512572 0.500000 0.091632
O O10 0.469602 0.238561 0.131127
O O11 0.594305 0.268784 0.095028
O O12 0.500000 0.283059 0.000000
O O13 0.842957 0.500000 0.297503
O O14 0.864227 0.741146 0.361921
O O15 0.876759 0.731136 0.224866
O O16 0.858274 0.196955 0.501724
O O17 0.751354 0.286176 0.571158
O O18 0.783960 0.000000 0.569702
O O19 0.833245 0.000000 0.401461
O O20 0.392954 0.000000 0.140574
O O21 0.885844 0.500000 0.856235
#
# Coordination Sequence:
#
# PCOD8114808 Si02
#       8
#     8   8   8   8   8   8   8   8
#     4   9  16  30  50  72 104 142 178 216 261 315
#     4  11  23  37  56  82 110 138 175 220 267 323
#     4  11  25  43  61  80 105 139 178 222 272 328
#     4   9  18  31  48  73 106 142 175 214 266 317
#     4   8  15  26  39  63 100 140 177 213 261 311
#     4   9  15  23  40  66  99 138 177 217 257 306
#     4  11  22  38  59  81 108 142 179 222 271 321
#     4  11  23  37  55  81 109 139 177 222 267 317
#
# _framework density 18.747584
#
# number of rings (size 3 to 8) (size 9 to 14) (size 15 to 20)
#    0.000    2.125    1.250    3.375    0.000    8.000 
#    0.000    0.000    0.000    0.000    0.000    0.875 
#    0.000    7.000    0.000    0.000    0.000    0.000 
#
# Total GULP energy -396663.471297 kJ/mol
# GULP energy per Si atom -12395.733478 kJ/mol
# Density = 1.870491 g / cm^3
# Si number density = 18.747584 Si / 1000 Ang^3
#
#
#
# Elastic Constant Matrix: (Units=GPa)
#
#
# Indices 1 2 3 4 5 6 
#
# 1 31.2736 14.0085 3.8351 0.0000 -0.9628 0.0000
# 2 14.0085 69.7564 42.3258 0.0000 0.0635 0.0000
# 3 3.8351 42.3258 126.5801 0.0000 -2.2028 0.0000
# 4 0.0000 0.0000 0.0000 33.8968 0.0000 1.4547
# 5 -0.9628 0.0635 -2.2028 0.0000 20.3986 0.0000
# 6 0.0000 0.0000 0.0000 1.4547 0.0000 24.9590
#
#
#
# Elastic Compliance Matrix: (Units=1/GPa)
#
#
# Indices 1 2 3 4 5 6 
#
# 1 0.035477 -0.008147 0.001682 0.000000 0.001881 0.000000
# 2 -0.008147 0.019865 -0.006416 0.000000 -0.001139 0.000000
# 3 0.001682 -0.006416 0.010015 0.000000 0.001181 0.000000
# 4 0.000000 0.000000 0.000000 0.029575 0.000000 -0.001724
# 5 0.001881 -0.001139 0.001181 0.000000 0.049243 0.000000
# 6 0.000000 0.000000 0.000000 -0.001724 0.000000 0.040166
#
#
# Mechanical properties :
#
#
# Convention : Reuss Voigt Hill
#
# Bulk Modulus (GPa) = 25.25478 38.66097 31.95787
# Shear Modulus (GPa) = 22.39131 27.01359 24.70245
#
# Velocity S-wave (km/s) = 3.45970 3.80005 3.63386
# Velocity P-wave (km/s) = 5.42766 6.31826 5.88982
#
# Compressibility (1/GPa) = 0.03959647
#
# Stress axis : x y z
#
# Youngs Moduli (GPa) = 28.18745 50.33866 99.85053
#
# Poissons Ratio (x) = 0.41010 -0.16795
# Poissons Ratio (y) = 0.22964 0.64060
# Poissons Ratio (z) = -0.04741 0.32295
#
# Static dielectric constant tensor:
#      x y z
#    x 2.964750 0.000000 -0.154380 
#    y 0.000000 3.489070 0.000000 
#    z -0.154380 0.000000 3.916850 
# 
# 
# High freq. dielectric constant tensor:
#      x y z
#    x 1.666500 0.000000 -0.004550 
#    y 0.000000 1.736070 0.000000 
#    z -0.004550 0.000000 1.752950 
# 
# From -- ./inp_files/281231.got.cif
#   From: 2010.06.25/outbox.cif.g09.slc.cpg/sg12_141_cif.got.tgz:281231.got - 2010.06.28 00:19:55.
