data_PCOD8114170
_publ_section_title
;
Structure prediction by ZEFSAII (Michael W. Deem and Ramdas Pophale) SiO2 
 PCOD8114170
Probable space group: C 2/M
;
_chemical_formula_sum "Si O2"
_cell_formula_units_Z 64
_cell_length_a 20.705382
_cell_length_b 8.514535
_cell_length_c 26.024733
_cell_angle_alpha 90.000000
_cell_angle_beta 134.174753
_cell_angle_gamma 90.000000
_cell_volume 3290.648448
_symmetry_space_group_name_H-M "C 2/M"
_symmetry_group_IT_number 12
_symmetry_cell_setting 'monoclinic'
loop_
_space_group_symop_operation_xyz
x,y,z
-x,y,-z
-x,-y,-z
x,-y,z
1/2+x,1/2+y,z
1/2-x,1/2+y,-z
1/2-x,1/2-y,-z
1/2+x,1/2-y,z
loop_
_atom_site_type_symbol
_atom_site_label
_atom_site_fract_x
_atom_site_fract_y
_atom_site_fract_z
Si Si1 0.918845 0.816139 0.777515
Si Si2 0.639683 0.185980 0.077961
Si Si3 0.822156 0.186829 0.223486
Si Si4 0.097044 0.682866 0.533420
Si Si5 0.485757 0.313256 0.703878
Si Si6 0.725507 0.683748 0.688844
Si Si7 0.505736 0.185898 0.920324
Si Si8 0.347533 0.683774 0.543320
O O1 0.954246 0.756814 0.742197
O O2 0.831142 0.717038 0.743371
O O3 0.997268 0.778131 0.862035
O O4 0.896005 0.000000 0.763975
O O5 0.740063 0.253661 0.142894
O O6 0.575556 0.243970 0.088364
O O7 0.640183 0.000000 0.080870
O O8 0.599517 0.236518 0.000185
O O9 0.809634 0.240887 0.275290
O O10 0.915222 0.256558 0.253211
O O11 0.821687 0.000000 0.220878
O O12 0.097815 0.500000 0.520253
O O13 0.172980 0.717077 0.617358
O O14 0.118044 0.778780 0.494111
O O15 0.000000 0.738212 0.500000
O O16 0.489790 0.500000 0.703082
O O17 0.416762 0.244933 0.623392
O O18 0.707401 0.500000 0.670136
O O19 0.502172 0.000000 0.908386
O O20 0.342035 0.500000 0.547675
O O21 0.250000 0.750000 0.500000
#
# Coordination Sequence:
#
# PCOD8114170 Si02
#       8
#     8   8   8   8   8   8   8   8
#     4  11  21  34  52  79 114 146 173 217 278 334
#     4   8  14  27  52  80 106 134 176 230 269 307
#     4   9  16  31  55  81 103 134 182 229 269 314
#     4  11  24  40  57  82 118 151 180 226 290 348
#     4   9  20  35  52  76 108 141 176 220 272 327
#     4  11  21  35  60  85 104 135 187 239 274 320
#     4   9  16  30  52  80 107 137 181 226 265 310
#     4  11  22  39  61  83 109 147 194 241 285 341
#
# _framework density 19.449055000000001
#
# number of rings (size 3 to 8) (size 9 to 14) (size 15 to 20)
#    0.000    2.125    1.250    3.750    0.000    3.000 
#    0.000    3.750    0.000    3.000    0.000    0.000 
#    0.000    0.000    0.000    0.000    0.000    0.000 
#
# Total GULP energy -396795.792943 kJ/mol
# GULP energy per Si atom -12399.868529 kJ/mol
# Density = 1.940479 g / cm^3
# Si number density = 19.449055 Si / 1000 Ang^3
#
#
#
# Elastic Constant Matrix: (Units=GPa)
#
#
# Indices 1 2 3 4 5 6 
#
# 1 128.2935 16.1295 64.2373 0.0000 2.6318 0.0000
# 2 16.1295 26.4545 12.5147 0.0000 2.5080 -0.0001
# 3 64.2373 12.5147 166.0056 0.0000 4.9218 0.0000
# 4 0.0000 0.0000 0.0000 27.2971 0.0000 -1.0077
# 5 2.6318 2.5080 4.9218 0.0000 30.8495 0.0000
# 6 0.0000 -0.0001 0.0000 -1.0077 0.0000 21.7335
#
#
#
# Elastic Compliance Matrix: (Units=1/GPa)
#
#
# Indices 1 2 3 4 5 6 
#
# 1 0.010158 -0.004500 -0.003594 0.000000 0.000073 0.000000
# 2 -0.004500 0.041422 -0.001299 0.000000 -0.002776 0.000000
# 3 -0.003594 -0.001299 0.007536 0.000000 -0.000790 0.000000
# 4 0.000000 0.000000 0.000000 0.036697 0.000000 0.001701
# 5 0.000073 -0.002776 -0.000790 0.000000 0.032761 0.000000
# 6 0.000000 0.000000 0.000000 0.001701 0.000000 0.046091
#
#
# Mechanical properties :
#
#
# Convention : Reuss Voigt Hill
#
# Bulk Modulus (GPa) = 24.79521 56.27962 40.53741
# Shear Modulus (GPa) = 24.16688 31.16750 27.66719
#
# Velocity S-wave (km/s) = 3.52884 4.00749 3.77576
# Velocity P-wave (km/s) = 5.42034 7.10022 6.31637
#
# Compressibility (1/GPa) = 0.04033038
#
# Stress axis : x y z
#
# Youngs Moduli (GPa) = 98.44115 24.14158 132.69871
#
# Poissons Ratio (x) = 0.10865 0.47688
# Poissons Ratio (y) = 0.44303 0.17236
# Poissons Ratio (z) = 0.35377 0.03136
#
# Static dielectric constant tensor:
#      x y z
#    x 3.612090 0.000000 0.136470 
#    y 0.000000 3.144930 0.000000 
#    z 0.136470 0.000000 4.116850 
# 
# 
# High freq. dielectric constant tensor:
#      x y z
#    x 1.749000 0.000000 0.002810 
#    y 0.000000 1.723220 0.000000 
#    z 0.002810 0.000000 1.778490 
# 
# From -- ./inp_files/346273.got.cif
#   From: 2010.06.25/outbox.cif.g09.slc.cpg/sg12_174_cif.got.tgz:346273.got - 2010.06.28 00:19:55.
