data_PCOD8114104
_publ_section_title
;
Structure prediction by ZEFSAII (Michael W. Deem and Ramdas Pophale) SiO2 
 PCOD8114104
Probable space group: C 2/M
;
_chemical_formula_sum "Si O2"
_cell_formula_units_Z 56
_cell_length_a 10.965153
_cell_length_b 21.096898
_cell_length_c 12.530268
_cell_angle_alpha 90.000000
_cell_angle_beta 86.277911
_cell_angle_gamma 90.000000
_cell_volume 2892.521655
_symmetry_space_group_name_H-M "C 2/M"
_symmetry_group_IT_number 12
_symmetry_cell_setting 'monoclinic'
loop_
_space_group_symop_operation_xyz
x,y,z
-x,y,-z
-x,-y,-z
x,-y,z
1/2+x,1/2+y,z
1/2-x,1/2+y,-z
1/2-x,1/2-y,-z
1/2+x,1/2-y,z
loop_
_atom_site_type_symbol
_atom_site_label
_atom_site_fract_x
_atom_site_fract_y
_atom_site_fract_z
Si Si1 0.367328 0.753296 0.569195
Si Si2 0.206933 0.129251 0.317359
Si Si3 0.972393 0.072236 0.380192
Si Si4 0.362909 0.072401 0.883550
Si Si5 0.852501 0.573398 0.125936
Si Si6 0.736814 0.875172 0.318430
Si Si7 0.631834 0.929786 0.514884
O O1 0.500000 0.753247 0.500000
O O2 0.250000 0.750000 0.500000
O O3 0.358865 0.696215 0.655793
O O4 0.344952 0.816074 0.639877
O O5 0.280015 0.124035 0.202300
O O6 0.298925 0.116574 0.409554
O O7 0.102217 0.076057 0.313474
O O8 0.882872 0.124997 0.331672
O O9 0.000000 0.093020 0.500000
O O10 0.923387 0.000000 0.375553
O O11 0.505770 0.081530 0.854327
O O12 0.286732 0.114337 0.805002
O O13 0.325207 0.000000 0.868377
O O14 0.327374 0.093066 0.005187
O O15 0.814490 0.500000 0.148697
O O16 0.697987 0.934007 0.396578
O O17 0.500000 0.899944 0.500000
O O18 0.622920 0.000000 0.566090
#
# Coordination Sequence:
#
# PCOD8114104 Si02
#       7
#     8   8   8   8   8   8   8
#     4  12  26  42  58  85 127 167 210 252 299 367
#     4  12  22  37  57  84 117 165 203 243 303 374
#     4  11  21  36  56  84 121 158 197 247 308 371
#     4   9  19  37  61  91 120 148 193 252 315 360
#     4   9  19  37  62  90 119 151 192 250 310 368
#     4  12  22  37  58  84 116 159 202 246 301 356
#     4  11  21  32  53  87 116 143 191 254 311 363
#
# _framework density 19.360268999999999
#
# number of rings (size 3 to 8) (size 9 to 14) (size 15 to 20)
#    0.000    1.143    2.857    6.000    2.000    2.286 
#    0.000    1.429    0.000    2.571    0.000    0.000 
#    0.000    0.000    0.000    0.000    0.000    0.000 
#
# Total GULP energy -346956.490279 kJ/mol
# GULP energy per Si atom -12391.303224 kJ/mol
# Density = 1.931620 g / cm^3
# Si number density = 19.360269 Si / 1000 Ang^3
#
#
#
# Elastic Constant Matrix: (Units=GPa)
#
#
# Indices 1 2 3 4 5 6 
#
# 1 124.3890 40.1078 56.2208 0.0000 -1.6988 0.0000
# 2 40.1078 91.6426 43.4881 0.0000 -3.3084 0.0000
# 3 56.2208 43.4881 118.7444 0.0000 2.9740 0.0000
# 4 0.0000 0.0000 0.0000 28.3885 0.0000 -6.8004
# 5 -1.6988 -3.3084 2.9740 0.0000 33.2042 0.0000
# 6 0.0000 0.0000 0.0000 -6.8004 0.0000 24.7137
#
#
#
# Elastic Compliance Matrix: (Units=1/GPa)
#
#
# Indices 1 2 3 4 5 6 
#
# 1 0.010797 -0.002746 -0.004123 0.000000 0.000648 0.000000
# 2 -0.002746 0.014008 -0.003870 0.000000 0.001602 0.000000
# 3 -0.004123 -0.003870 0.011832 0.000000 -0.001656 0.000000
# 4 0.000000 0.000000 0.000000 0.037711 0.000000 0.010377
# 5 0.000648 0.001602 -0.001656 0.000000 0.030458 0.000000
# 6 0.000000 0.000000 0.000000 0.010377 0.000000 0.043319
#
#
# Mechanical properties :
#
#
# Convention : Reuss Voigt Hill
#
# Bulk Modulus (GPa) = 65.96291 68.26771 67.11531
# Shear Modulus (GPa) = 28.62785 30.25858 29.44322
#
# Velocity S-wave (km/s) = 3.84955 3.95767 3.90398
# Velocity P-wave (km/s) = 7.34193 7.49817 7.42046
#
# Compressibility (1/GPa) = 0.01516003
#
# Stress axis : x y z
#
# Youngs Moduli (GPa) = 92.62094 71.38750 84.51459
#
# Poissons Ratio (x) = 0.19600 0.34841
# Poissons Ratio (y) = 0.25429 0.32711
# Poissons Ratio (z) = 0.38183 0.27630
#
# Static dielectric constant tensor:
#      x y z
#    x 3.792800 0.000000 -0.025750 
#    y 0.000000 3.561050 0.000000 
#    z -0.025750 0.000000 3.409700 
# 
# 
# High freq. dielectric constant tensor:
#      x y z
#    x 1.765700 0.000000 -0.002420 
#    y 0.000000 1.739210 0.000000 
#    z -0.002420 0.000000 1.731170 
# 
# From -- ./inp_files/133226.got.cif
#   From: 2010.06.25/outbox.cif.g09.slc.cpg/sg12_67_cif.got.tgz:133226.got - 2010.06.28 00:19:55.
