data_PCOD8114567
_publ_section_title
;
Structure prediction by ZEFSAII (Michael W. Deem and Ramdas Pophale) SiO2 
 PCOD8114567
Probable space group: C 2/M
;
_chemical_formula_sum "Si O2"
_cell_formula_units_Z 40
_cell_length_a 8.809632
_cell_length_b 14.670904
_cell_length_c 15.688322
_cell_angle_alpha 90.000000
_cell_angle_beta 63.524502
_cell_angle_gamma 90.000000
_cell_volume 1814.992641
_symmetry_space_group_name_H-M "C 2/M"
_symmetry_group_IT_number 12
_symmetry_cell_setting 'monoclinic'
loop_
_space_group_symop_operation_xyz
x,y,z
-x,y,-z
-x,-y,-z
x,-y,z
1/2+x,1/2+y,z
1/2-x,1/2+y,-z
1/2-x,1/2-y,-z
1/2+x,1/2-y,z
loop_
_atom_site_type_symbol
_atom_site_label
_atom_site_fract_x
_atom_site_fract_y
_atom_site_fract_z
Si Si1 0.200115 0.675967 0.444625
Si Si2 0.332109 0.000000 0.988431
Si Si3 0.322568 0.500000 0.497580
Si Si4 0.398669 0.500000 0.795299
Si Si5 0.398948 0.320870 0.229757
Si Si6 0.620582 0.000000 0.715992
Si Si7 0.375607 0.852645 0.836985
O O1 0.250000 0.750000 0.500000
O O2 0.303947 0.585717 0.440915
O O3 0.262289 0.710534 0.335887
O O4 0.000000 0.658065 0.500000
O O5 0.330081 0.906851 0.934545
O O6 0.500000 0.000000 0.000000
O O7 0.174639 0.000000 0.091066
O O8 0.500000 0.500000 0.500000
O O9 0.183107 0.500000 0.604947
O O10 0.509411 0.409930 0.756704
O O11 0.259176 0.500000 0.755932
O O12 0.538621 0.245381 0.169846
O O13 0.300303 0.341917 0.168023
O O14 0.507540 0.910291 0.749085
#
# Coordination Sequence:
#
# PCOD8114567 Si02
#       7
#     8   4   4   4   8   4   8
#     4  12  25  43  66  98 142 181 231 279 319 397
#     4  11  25  51  71 102 131 171 221 280 350 403
#     4  12  24  38  63  97 131 180 228 274 334 391
#     4  12  25  45  73  96 140 170 228 282 334 416
#     4  12  25  44  68 105 133 185 223 272 342 389
#     4  11  21  43  65  93 133 181 219 284 335 389
#     4  11  25  44  71  96 137 172 224 279 335 408
#
# _framework density 22.038658000000002
#
# number of rings (size 3 to 8) (size 9 to 14) (size 15 to 20)
#    0.000    0.400    2.000    8.700    0.000    2.400 
#    0.000    0.000    0.000    0.000    0.000    0.000 
#    0.000    0.000    0.000    0.000    0.000    0.000 
#
# Total GULP energy -248071.657484 kJ/mol
# GULP energy per Si atom -12403.582874 kJ/mol
# Density = 2.198850 g / cm^3
# Si number density = 22.038658 Si / 1000 Ang^3
#
#
#
# Elastic Constant Matrix: (Units=GPa)
#
#
# Indices 1 2 3 4 5 6 
#
# 1 113.4972 40.6860 -0.4196 0.0000 9.0276 0.0000
# 2 40.6860 141.8162 9.0843 0.0000 10.4196 0.0000
# 3 -0.4196 9.0843 125.3415 0.0000 0.6721 0.0000
# 4 0.0000 0.0000 0.0000 35.7644 0.0000 2.9826
# 5 9.0276 10.4196 0.6721 0.0000 35.9011 0.0000
# 6 0.0000 0.0000 0.0000 2.9826 0.0000 42.5795
#
#
#
# Elastic Compliance Matrix: (Units=1/GPa)
#
#
# Indices 1 2 3 4 5 6 
#
# 1 0.009929 -0.002739 0.000241 0.000000 -0.001706 0.000000
# 2 -0.002739 0.007993 -0.000580 0.000000 -0.001620 0.000000
# 3 0.000241 -0.000580 0.008021 0.000000 -0.000042 0.000000
# 4 0.000000 0.000000 0.000000 0.028125 0.000000 -0.001970
# 5 -0.001706 -0.001620 -0.000042 0.000000 0.028754 0.000000
# 6 0.000000 0.000000 0.000000 -0.001970 0.000000 0.023623
#
#
# Mechanical properties :
#
#
# Convention : Reuss Voigt Hill
#
# Bulk Modulus (GPa) = 50.53432 53.26181 51.89807
# Shear Modulus (GPa) = 41.94701 44.93596 43.44149
#
# Velocity S-wave (km/s) = 4.36746 4.52038 4.44458
# Velocity P-wave (km/s) = 6.95791 7.17392 7.06674
#
# Compressibility (1/GPa) = 0.01978853
#
# Stress axis : x y z
#
# Youngs Moduli (GPa) = 100.71358 125.10519 124.66865
#
# Poissons Ratio (x) = 0.34262 -0.03003
# Poissons Ratio (y) = 0.27582 0.07228
# Poissons Ratio (z) = -0.02426 0.07254
#
# Static dielectric constant tensor:
#      x y z
#    x 5.793090 0.000000 -0.015600 
#    y 0.000000 4.090600 0.000000 
#    z -0.015600 0.000000 2.302270 
# 
# 
# High freq. dielectric constant tensor:
#      x y z
#    x 1.880820 0.000000 0.001660 
#    y 0.000000 1.878030 0.000000 
#    z 0.001660 0.000000 1.878210 
# 
# From -- ./inp_files/194516.got.cif
#   From: 2010.06.25/outbox.cif.g09.slc.cpg/sg12_98_cif.got.tgz:194516.got - 2010.06.28 00:19:55.
