data_PCOD8114501
_publ_section_title
;
Structure prediction by ZEFSAII (Michael W. Deem and Ramdas Pophale) SiO2 
 PCOD8114501
Probable space group: C 2/M
;
_chemical_formula_sum "Si O2"
_cell_formula_units_Z 64
_cell_length_a 16.477697
_cell_length_b 24.332728
_cell_length_c 13.307461
_cell_angle_alpha 90.000000
_cell_angle_beta 145.041430
_cell_angle_gamma 90.000000
_cell_volume 3057.207984
_symmetry_space_group_name_H-M "C 2/M"
_symmetry_group_IT_number 12
_symmetry_cell_setting 'monoclinic'
loop_
_space_group_symop_operation_xyz
x,y,z
-x,y,-z
-x,-y,-z
x,-y,z
1/2+x,1/2+y,z
1/2-x,1/2+y,-z
1/2-x,1/2-y,-z
1/2+x,1/2-y,z
loop_
_atom_site_type_symbol
_atom_site_label
_atom_site_fract_x
_atom_site_fract_y
_atom_site_fract_z
Si Si1 0.489111 0.116727 0.262856
Si Si2 0.750656 0.350051 0.338596
Si Si3 0.017065 0.882672 0.806618
Si Si4 0.843543 0.763647 0.360009
Si Si5 0.251246 0.306723 0.054907
Si Si6 0.889925 0.436276 0.806783
Si Si7 0.757381 0.436447 0.165886
Si Si8 0.111789 0.123785 0.525596
O O1 0.614061 0.145998 0.451617
O O2 0.562355 0.077439 0.256954
O O3 0.390473 0.078586 0.231539
O O4 0.398173 0.162942 0.113289
O O5 0.600612 0.356943 0.240222
O O6 0.745938 0.288379 0.287834
O O7 0.763013 0.396779 0.267136
O O8 0.939659 0.905996 0.628965
O O9 0.123442 0.837263 0.874501
O O10 0.107623 0.929268 0.955847
O O11 0.781429 0.797770 0.202768
O O12 0.855110 0.810699 0.458521
O O13 0.000000 0.739066 0.500000
O O14 0.250000 0.250000 0.000000
O O15 0.861630 0.500000 0.786106
O O16 0.750221 0.406520 0.701519
O O17 0.000000 0.415275 0.000000
O O18 0.769580 0.500000 0.212171
O O19 0.000000 0.116383 0.500000
#
# Coordination Sequence:
#
# PCOD8114501 Si02
#       8
#     8   8   8   8   8   8   8   8
#     4  11  24  44  69  99 136 179 228 276 345 409
#     4  12  25  44  68 104 137 173 233 282 336 405
#     4  11  24  44  66  98 134 175 226 279 337 407
#     4  11  21  40  67  97 137 177 218 277 337 406
#     4  11  22  40  66  96 134 181 222 271 337 407
#     4  11  25  44  67 100 136 173 228 287 337 404
#     4  11  26  46  70  96 136 185 227 281 341 405
#     4  11  23  44  70  98 137 176 222 280 344 407
#
# _framework density 20.934134
#
# number of rings (size 3 to 8) (size 9 to 14) (size 15 to 20)
#    0.000    0.875    3.750    4.875    1.750    4.750 
#    0.000    2.500    0.000    0.000    0.000    0.000 
#    0.000    0.000    0.000    0.000    0.000    0.000 
#
# Total GULP energy -396783.743478 kJ/mol
# GULP energy per Si atom -12399.491984 kJ/mol
# Density = 2.088649 g / cm^3
# Si number density = 20.934134 Si / 1000 Ang^3
#
#
#
# Elastic Constant Matrix: (Units=GPa)
#
#
# Indices 1 2 3 4 5 6 
#
# 1 258.4036 210.0962 -202.0387 0.0000 60.4502 0.0000
# 2 210.0962 280.0837 -243.4302 0.0000 71.0732 0.0000
# 3 -202.0387 -243.4302 558.6175 0.0000 -88.2005 0.0000
# 4 0.0000 0.0000 0.0000 -5.7632 0.0000 -26.3764
# 5 60.4502 71.0732 -88.2005 0.0000 59.7998 0.0000
# 6 0.0000 0.0000 0.0000 -26.3764 0.0000 13.8082
#
#
#
# Elastic Compliance Matrix: (Units=1/GPa)
#
#
# Indices 1 2 3 4 5 6 
#
# 1 0.010110 -0.006822 0.000457 0.000000 -0.001439 0.000000
# 2 -0.006822 0.011235 0.001837 0.000000 -0.003748 0.000000
# 3 0.000457 0.001837 0.003048 0.000000 0.001851 0.000000
# 4 0.000000 0.000000 0.000000 -0.017810 0.000000 -0.034021
# 5 -0.001439 -0.003748 0.001851 0.000000 0.025361 0.000000
# 6 0.000000 0.000000 0.000000 -0.034021 0.000000 0.007434
#
#
# Mechanical properties :
#
#
# Convention : Reuss Voigt Hill
#
# Bulk Modulus (GPa) = 65.20288 69.59548 67.39918
# Shear Modulus (GPa) = 93.37883 102.40080 97.88981
#
# Velocity S-wave (km/s) = 6.68602 7.00156 6.84561
# Velocity P-wave (km/s) = 9.52985 9.93376 9.73390
#
# Compressibility (1/GPa) = 0.01533675
#
# Stress axis : x y z
#
# Youngs Moduli (GPa) = 98.91283 89.00762 328.08475
#
# Poissons Ratio (x) = 0.60718 -0.14983
# Poissons Ratio (y) = 0.67475 -0.60267
# Poissons Ratio (z) = -0.04517 -0.16350
#
# Static dielectric constant tensor:
#      x y z
#    x 3.810810 0.000000 -0.070230 
#    y 0.000000 3.677010 0.000000 
#    z -0.070230 0.000000 4.263940 
# 
# 
# High freq. dielectric constant tensor:
#      x y z
#    x 1.824030 0.000000 0.001930 
#    y 0.000000 1.814050 0.000000 
#    z 0.001930 0.000000 1.842570 
# 
# From -- ./inp_files/149807.got.cif
#   From: 2010.06.25/outbox.cif.g09.slc.cpg/sg12_75_cif.got.tgz:149807.got - 2010.06.28 00:19:55.
