data_PCOD8114939
_publ_section_title
;
Structure prediction by ZEFSAII (Michael W. Deem and Ramdas Pophale) SiO2 
 PCOD8114939
Probable space group: C 2/M
;
_chemical_formula_sum "Si O2"
_cell_formula_units_Z 40
_cell_length_a 18.340944
_cell_length_b 10.501815
_cell_length_c 11.364925
_cell_angle_alpha 90.000000
_cell_angle_beta 60.562689
_cell_angle_gamma 90.000000
_cell_volume 1906.416973
_symmetry_space_group_name_H-M "C 2/M"
_symmetry_group_IT_number 12
_symmetry_cell_setting 'monoclinic'
loop_
_space_group_symop_operation_xyz
x,y,z
-x,y,-z
-x,-y,-z
x,-y,z
1/2+x,1/2+y,z
1/2-x,1/2+y,-z
1/2-x,1/2-y,-z
1/2+x,1/2-y,z
loop_
_atom_site_type_symbol
_atom_site_label
_atom_site_fract_x
_atom_site_fract_y
_atom_site_fract_z
Si Si1 0.109948 0.310165 0.154784
Si Si2 0.745266 0.000000 0.678351
Si Si3 0.238863 0.274696 0.252299
Si Si4 0.088108 0.852628 0.977152
Si Si5 0.403519 0.000000 0.040200
Si Si6 0.802348 0.500000 0.540012
Si Si7 0.990732 0.500000 0.369537
O O1 0.192890 0.313972 0.167654
O O2 0.123156 0.380746 0.019156
O O3 0.033244 0.372173 0.285638
O O4 0.091741 0.169217 0.117171
O O5 0.788439 0.869507 0.691317
O O6 0.755944 0.000000 0.528861
O O7 0.649173 0.000000 0.798091
O O8 0.337826 0.285865 0.155500
O O9 0.210779 0.372076 0.375619
O O10 0.095846 0.000000 0.944046
O O11 0.000000 0.796965 0.000000
O O12 0.500000 0.000000 0.000000
O O13 0.894710 0.500000 0.411594
O O14 0.000000 0.500000 0.500000
#
# Coordination Sequence:
#
# PCOD8114939 Si02
#       7
#     8   4   8   8   4   4   4
#     4  11  23  40  72 100 135 169 224 295 338 401
#     4  12  27  39  66 100 138 181 232 282 327 421
#     4  12  25  44  70 101 140 182 232 279 352 410
#     4  11  25  42  66 101 138 182 221 281 355 411
#     4  11  22  39  66 108 128 168 231 290 338 387
#     4  12  25  49  69  95 139 186 228 284 343 415
#     4  11  22  43  72  99 124 176 231 277 343 403
#
# _framework density 20.981767999999999
#
# number of rings (size 3 to 8) (size 9 to 14) (size 15 to 20)
#    0.000    0.600    5.000    3.600    4.200    0.000 
#    0.000    0.000    0.000    1.800    0.000    0.000 
#    0.000    0.000    0.000    0.000    0.000    0.000 
#
# Total GULP energy -247902.507360 kJ/mol
# GULP energy per Si atom -12395.125368 kJ/mol
# Density = 2.093401 g / cm^3
# Si number density = 20.981768 Si / 1000 Ang^3
#
#
#
# Elastic Constant Matrix: (Units=GPa)
#
#
# Indices 1 2 3 4 5 6 
#
# 1 124.8661 36.1458 42.5013 0.0000 8.7544 0.0000
# 2 36.1458 125.3898 39.8656 0.0000 3.6093 0.0000
# 3 42.5013 39.8656 102.7943 0.0000 11.1297 0.0000
# 4 0.0000 0.0000 0.0000 24.8590 0.0000 12.5091
# 5 8.7544 3.6093 11.1297 0.0000 42.8725 0.0000
# 6 0.0000 0.0000 0.0000 12.5091 0.0000 21.3294
#
#
#
# Elastic Compliance Matrix: (Units=1/GPa)
#
#
# Indices 1 2 3 4 5 6 
#
# 1 0.009677 -0.001737 -0.003220 0.000000 -0.000994 0.000000
# 2 -0.001737 0.009410 -0.002967 0.000000 0.000333 0.000000
# 3 -0.003220 -0.002967 0.012462 0.000000 -0.002328 0.000000
# 4 0.000000 0.000000 0.000000 0.057069 0.000000 -0.033469
# 5 -0.000994 0.000333 -0.002328 0.000000 0.024104 0.000000
# 6 0.000000 0.000000 0.000000 -0.033469 0.000000 0.066512
#
#
# Mechanical properties :
#
#
# Convention : Reuss Voigt Hill
#
# Bulk Modulus (GPa) = 63.69090 65.56398 64.62744
# Shear Modulus (GPa) = 24.96061 33.44800 29.20431
#
# Velocity S-wave (km/s) = 3.45285 3.99701 3.73485
# Velocity P-wave (km/s) = 6.80569 7.25378 7.03331
#
# Compressibility (1/GPa) = 0.01570083
#
# Stress axis : x y z
#
# Youngs Moduli (GPa) = 103.33694 106.27371 80.24347
#
# Poissons Ratio (x) = 0.18463 0.25836
# Poissons Ratio (y) = 0.17953 0.23808
# Poissons Ratio (z) = 0.33271 0.31531
#
# Static dielectric constant tensor:
#      x y z
#    x 3.857200 0.000000 0.012460 
#    y 0.000000 4.534330 0.000000 
#    z 0.012460 0.000000 3.832370 
# 
# 
# High freq. dielectric constant tensor:
#      x y z
#    x 1.817790 0.000000 0.011360 
#    y 0.000000 1.837000 0.000000 
#    z 0.011360 0.000000 1.821660 
# 
# From -- ./inp_files/153368.got.cif
#   From: 2010.06.25/outbox.cif.g09.slc.cpg/sg12_77_cif.got.tgz:153368.got - 2010.06.28 00:19:55.
