data_PCOD8114899
_publ_section_title
;
Structure prediction by ZEFSAII (Michael W. Deem and Ramdas Pophale) SiO2 
 PCOD8114899
Probable space group: C 2/M
;
_chemical_formula_sum "Si O2"
_cell_formula_units_Z 40
_cell_length_a 8.227185
_cell_length_b 28.774712
_cell_length_c 14.030247
_cell_angle_alpha 90.000000
_cell_angle_beta 31.727302
_cell_angle_gamma 90.000000
_cell_volume 1746.673581
_symmetry_space_group_name_H-M "C 2/M"
_symmetry_group_IT_number 12
_symmetry_cell_setting 'monoclinic'
loop_
_space_group_symop_operation_xyz
x,y,z
-x,y,-z
-x,-y,-z
x,-y,z
1/2+x,1/2+y,z
1/2-x,1/2+y,-z
1/2-x,1/2-y,-z
1/2+x,1/2-y,z
loop_
_atom_site_type_symbol
_atom_site_label
_atom_site_fract_x
_atom_site_fract_y
_atom_site_fract_z
Si Si1 0.136817 0.626631 0.697748
Si Si2 0.646284 0.705806 0.684285
Si Si3 0.734688 0.107611 0.305060
Si Si4 0.606638 0.214119 0.838008
Si Si5 0.652684 0.946164 0.025175
O O1 0.500000 0.629027 0.500000
O O2 0.011657 0.670911 0.819061
O O3 0.960321 0.626328 0.686221
O O4 0.054696 0.579543 0.793630
O O5 0.593365 0.652125 0.736356
O O6 0.493773 0.737900 0.844346
O O7 0.481308 0.715250 0.664803
O O8 0.000000 0.720005 0.500000
O O9 0.500000 0.085544 0.500000
O O10 0.990793 0.070075 0.149066
O O11 0.500000 0.206603 0.000000
O O12 0.647540 0.000000 0.054467
O O13 0.500000 0.936141 0.000000
#
# Coordination Sequence:
#
# PCOD8114899 Si02
#       5
#     8   8   8   8   8
#     4  12  24  42  67  95 131 172 216 264 319 378
#     4  11  22  39  60  89 129 171 215 258 311 374
#     4  11  24  43  68  97 130 170 215 264 320 381
#     4  12  24  39  62  93 131 170 215 262 315 376
#     4  11  25  46  70  97 129 165 210 265 324 386
#
# _framework density 22.900675
#
# number of rings (size 3 to 8) (size 9 to 14) (size 15 to 20)
#    0.000    0.600    0.000   10.200    0.000    4.000 
#    0.000    0.000    0.000    0.000    0.000    0.000 
#    0.000    0.000    0.000    0.000    0.000    0.000 
#
# Total GULP energy -248075.001574 kJ/mol
# GULP energy per Si atom -12403.750079 kJ/mol
# Density = 2.284855 g / cm^3
# Si number density = 22.900675 Si / 1000 Ang^3
#
#
#
# Elastic Constant Matrix: (Units=GPa)
#
#
# Indices 1 2 3 4 5 6 
#
# 1 96.6579 6.7906 -18.5309 0.0000 3.6344 0.0000
# 2 6.7906 99.1552 19.3907 0.0000 12.4444 0.0000
# 3 -18.5309 19.3907 81.4902 0.0000 14.1792 0.0000
# 4 0.0000 0.0000 0.0000 -1.3071 0.0000 -4.5808
# 5 3.6344 12.4444 14.1792 0.0000 35.2985 0.0000
# 6 0.0000 0.0000 0.0000 -4.5808 0.0000 28.6820
#
#
#
# Elastic Compliance Matrix: (Units=1/GPa)
#
#
# Indices 1 2 3 4 5 6 
#
# 1 0.011102 -0.001123 0.003141 0.000000 -0.002009 0.000000
# 2 -0.001123 0.010979 -0.002381 0.000000 -0.002799 0.000000
# 3 0.003141 -0.002381 0.014474 0.000000 -0.005298 0.000000
# 4 0.000000 0.000000 0.000000 -0.490502 0.000000 -0.078338
# 5 -0.002009 -0.002799 -0.005298 0.000000 0.031652 0.000000
# 6 0.000000 0.000000 0.000000 -0.078338 0.000000 0.022354
#
#
# Mechanical properties :
#
#
# Convention : Reuss Voigt Hill
#
# Bulk Modulus (GPa) = 27.90813 32.51157 30.20985
# Shear Modulus (GPa) = -12.91077 30.51154 8.80039
#
# Velocity S-wave (km/s) = -2.37697 3.65409 1.96245
# Velocity P-wave (km/s) = 2.16328 5.65957 4.28430
#
# Compressibility (1/GPa) = 0.03583185
#
# Stress axis : x y z
#
# Youngs Moduli (GPa) = 90.07035 91.08385 69.08861
#
# Poissons Ratio (x) = 0.10224 -0.21704
# Poissons Ratio (y) = 0.10110 0.16448
# Poissons Ratio (z) = -0.28295 0.21685
#
# Static dielectric constant tensor:
#      x y z
#    x 4.747770 0.000000 -0.195180 
#    y 0.000000 3.992810 0.000000 
#    z -0.195180 0.000000 4.424080 
# 
# 
# High freq. dielectric constant tensor:
#      x y z
#    x 1.929450 0.000000 -0.009570 
#    y 0.000000 1.892970 0.000000 
#    z -0.009570 0.000000 1.920480 
# 
# From -- ./inp_files/201104.got.cif
#   From: 2010.06.25/outbox.cif.g09.slc.cpg/sg12_101_cif.got.tgz:201104.got - 2010.06.28 00:19:55.
