data_PCOD8114349
_publ_section_title
;
Structure prediction by ZEFSAII (Michael W. Deem and Ramdas Pophale) SiO2 
 PCOD8114349
Probable space group: C 2/M
;
_chemical_formula_sum "Si O2"
_cell_formula_units_Z 48
_cell_length_a 11.399220
_cell_length_b 15.399086
_cell_length_c 19.866311
_cell_angle_alpha 90.000000
_cell_angle_beta 40.708593
_cell_angle_gamma 90.000000
_cell_volume 2274.448777
_symmetry_space_group_name_H-M "C 2/M"
_symmetry_group_IT_number 12
_symmetry_cell_setting 'monoclinic'
loop_
_space_group_symop_operation_xyz
x,y,z
-x,y,-z
-x,-y,-z
x,-y,z
1/2+x,1/2+y,z
1/2-x,1/2+y,-z
1/2-x,1/2-y,-z
1/2+x,1/2-y,z
loop_
_atom_site_type_symbol
_atom_site_label
_atom_site_fract_x
_atom_site_fract_y
_atom_site_fract_z
Si Si1 0.259034 0.595743 0.448486
Si Si2 0.079735 0.647294 0.325520
Si Si3 0.514408 0.000000 0.105408
Si Si4 0.795947 0.000000 0.864854
Si Si5 0.924677 0.846297 0.247630
Si Si6 0.546587 0.851986 0.766792
Si Si7 0.550989 0.675481 0.405234
O O1 0.290645 0.500000 0.404991
O O2 0.306163 0.662415 0.367827
O O3 0.394697 0.609492 0.451794
O O4 0.055956 0.601995 0.563184
O O5 0.285704 0.619280 0.251213
O O6 0.061000 0.750352 0.344195
O O7 0.038685 0.620682 0.267272
O O8 0.322743 0.000000 0.150951
O O9 0.538740 0.086941 0.139075
O O10 0.676031 0.000000 0.982956
O O11 0.911850 0.087878 0.814507
O O12 0.995254 0.749514 0.199175
O O13 0.758578 0.872807 0.673165
O O14 0.500000 0.715008 0.500000
#
# Coordination Sequence:
#
# PCOD8114349 Si02
#       7
#     8   8   4   4   8   8   8
#     4  12  23  36  60  96 139 187 231 267 318 392
#     4  11  23  38  59  98 142 179 219 269 323 399
#     4  11  28  49  77 102 126 169 223 295 346 408
#     4  11  26  53  75  99 132 165 228 287 348 410
#     4  11  24  42  71  97 137 188 224 271 338 404
#     4  11  24  42  69 102 137 176 226 276 339 397
#     4  11  21  37  61  92 139 187 227 269 318 390
#
# _framework density 21.104012999999998
#
# number of rings (size 3 to 8) (size 9 to 14) (size 15 to 20)
#    0.000    0.833    4.167    4.000    5.833    1.667 
#    0.000    1.667    0.000    0.000    0.000    0.000 
#    0.000    0.000    0.000    0.000    0.000    0.000 
#
# Total GULP energy -297620.592143 kJ/mol
# GULP energy per Si atom -12400.858006 kJ/mol
# Density = 2.105598 g / cm^3
# Si number density = 21.104013 Si / 1000 Ang^3
#
#
#
# Elastic Constant Matrix: (Units=GPa)
#
#
# Indices 1 2 3 4 5 6 
#
# 1 114.1099 39.0862 43.7031 0.0001 7.9326 0.0000
# 2 39.0862 114.7418 39.8457 0.0003 5.2814 -0.0001
# 3 43.7031 39.8457 84.7264 0.0013 8.9875 -0.0001
# 4 0.0001 0.0003 0.0013 23.8104 -0.0003 -2.1167
# 5 7.9326 5.2814 8.9875 -0.0003 33.5780 -0.0001
# 6 0.0000 -0.0001 -0.0001 -2.1167 -0.0001 27.5926
#
#
#
# Elastic Compliance Matrix: (Units=1/GPa)
#
#
# Indices 1 2 3 4 5 6 
#
# 1 0.011403 -0.002189 -0.004737 0.000000 -0.001081 0.000000
# 2 -0.002189 0.010840 -0.003955 0.000000 -0.000129 0.000000
# 3 -0.004737 -0.003955 0.016387 -0.000001 -0.002645 0.000000
# 4 0.000000 0.000000 -0.000001 0.042287 0.000000 0.003244
# 5 -0.001081 -0.000129 -0.002645 0.000000 0.030765 0.000000
# 6 0.000000 0.000000 0.000000 0.003244 0.000000 0.036490
#
#
# Mechanical properties :
#
#
# Convention : Reuss Voigt Hill
#
# Bulk Modulus (GPa) = 59.28933 62.09426 60.69179
# Shear Modulus (GPa) = 28.48046 29.72573 29.10309
#
# Velocity S-wave (km/s) = 3.67758 3.75712 3.71756
# Velocity P-wave (km/s) = 6.79615 6.95040 6.87371
#
# Compressibility (1/GPa) = 0.01686644
#
# Stress axis : x y z
#
# Youngs Moduli (GPa) = 87.69606 92.24714 61.02432
#
# Poissons Ratio (x) = 0.20197 0.28910
# Poissons Ratio (y) = 0.19201 0.24135
# Poissons Ratio (z) = 0.41546 0.36484
#
# Static dielectric constant tensor:
#      x y z
#    x 4.144460 0.000000 -0.090100 
#    y 0.000000 3.665770 0.000000 
#    z -0.090100 0.000000 3.451990 
# 
# 
# High freq. dielectric constant tensor:
#      x y z
#    x 1.850760 0.000000 -0.003250 
#    y 0.000000 1.824680 0.000000 
#    z -0.003250 0.000000 1.789310 
# 
# From -- ./inp_files/305658.got.cif
#   From: 2010.06.25/outbox.cif.g09.slc.cpg/sg12_153_cif.got.tgz:305658.got - 2010.06.28 00:19:55.
