data_PCOD8114165
_publ_section_title
;
Structure prediction by ZEFSAII (Michael W. Deem and Ramdas Pophale) SiO2 
 PCOD8114165
Probable space group: C 2/M
;
_chemical_formula_sum "Si O2"
_cell_formula_units_Z 56
_cell_length_a 8.991280
_cell_length_b 28.378254
_cell_length_c 15.622223
_cell_angle_alpha 90.000000
_cell_angle_beta 132.026477
_cell_angle_gamma 90.000000
_cell_volume 2961.029246
_symmetry_space_group_name_H-M "C 2/M"
_symmetry_group_IT_number 12
_symmetry_cell_setting 'monoclinic'
loop_
_space_group_symop_operation_xyz
x,y,z
-x,y,-z
-x,-y,-z
x,-y,z
1/2+x,1/2+y,z
1/2-x,1/2+y,-z
1/2-x,1/2-y,-z
1/2+x,1/2-y,z
loop_
_atom_site_type_symbol
_atom_site_label
_atom_site_fract_x
_atom_site_fract_y
_atom_site_fract_z
Si Si1 0.305294 0.945933 0.075342
Si Si2 0.089674 0.203883 0.121784
Si Si3 0.111134 0.945720 0.177352
Si Si4 0.271358 0.778730 0.422118
Si Si5 0.907612 0.631903 0.875126
Si Si6 0.449959 0.363173 0.736891
Si Si7 0.496880 0.781644 0.798725
O O1 0.256665 0.931752 0.154746
O O2 0.493290 0.917503 0.111447
O O3 0.369551 0.000000 0.096928
O O4 0.116041 0.937097 0.941139
O O5 0.054012 0.162824 0.174318
O O6 0.322477 0.217844 0.199275
O O7 0.961757 0.249688 0.101306
O O8 0.000000 0.183856 0.000000
O O9 0.154402 0.913329 0.278588
O O10 0.144695 0.000000 0.216643
O O11 0.500000 0.792076 0.500000
O O12 0.250000 0.750000 0.500000
O O13 0.158776 0.829815 0.375547
O O14 0.194440 0.744170 0.317713
O O15 0.671093 0.625982 0.789638
O O16 0.951187 0.666297 0.812706
O O17 0.000000 0.651027 0.000000
#
# Coordination Sequence:
#
# PCOD8114165 Si02
#       7
#     8   8   8   8   8   8   8
#     4   9  19  33  52  79 118 162 185 209 259 318
#     4  11  21  34  51  75 114 146 179 219 265 332
#     4   9  18  35  55  80 115 151 188 221 259 322
#     4  11  23  42  59  75 103 139 187 246 287 327
#     4  12  21  32  51  82 120 149 177 218 259 329
#     4  11  22  34  55  84 107 147 192 222 278 330
#     4  11  22  36  53  78 102 143 187 225 280 331
#
# _framework density 18.912341999999999
#
# number of rings (size 3 to 8) (size 9 to 14) (size 15 to 20)
#    0.000    1.429    1.429    7.714    2.000    0.857 
#    0.000    0.000    0.000    0.429    0.000    1.000 
#    0.000    5.714    0.000    0.000    0.000    0.000 
#
# Total GULP energy -347065.436095 kJ/mol
# GULP energy per Si atom -12395.194146 kJ/mol
# Density = 1.886930 g / cm^3
# Si number density = 18.912342 Si / 1000 Ang^3
#
#
#
# Elastic Constant Matrix: (Units=GPa)
#
#
# Indices 1 2 3 4 5 6 
#
# 1 118.6210 56.8201 32.8358 0.0000 15.8632 0.0000
# 2 56.8201 113.3118 33.3920 0.0000 -0.6222 0.0000
# 3 32.8358 33.3920 68.7061 0.0000 9.9500 0.0000
# 4 0.0000 0.0000 0.0000 27.2084 0.0000 -1.6621
# 5 15.8632 -0.6222 9.9500 0.0000 30.2538 0.0000
# 6 0.0000 0.0000 0.0000 -1.6621 0.0000 37.5221
#
#
#
# Elastic Compliance Matrix: (Units=1/GPa)
#
#
# Indices 1 2 3 4 5 6 
#
# 1 0.012590 -0.005632 -0.002422 0.000000 -0.005921 0.000000
# 2 -0.005632 0.012931 -0.004262 0.000000 0.004621 0.000000
# 3 -0.002422 -0.004262 0.018493 0.000000 -0.004900 0.000000
# 4 0.000000 0.000000 0.000000 0.036853 0.000000 0.001632
# 5 -0.005921 0.004621 -0.004900 0.000000 0.037865 0.000000
# 6 0.000000 0.000000 0.000000 0.001632 0.000000 0.026723
#
#
# Mechanical properties :
#
#
# Convention : Reuss Voigt Hill
#
# Bulk Modulus (GPa) = 51.59568 60.74832 56.17200
# Shear Modulus (GPa) = 28.32074 30.83625 29.57849
#
# Velocity S-wave (km/s) = 3.87392 4.04230 3.95901
# Velocity P-wave (km/s) = 6.88116 7.34695 7.11787
#
# Compressibility (1/GPa) = 0.01938147
#
# Stress axis : x y z
#
# Youngs Moduli (GPa) = 79.42604 77.33502 54.07319
#
# Poissons Ratio (x) = 0.43555 0.13099
# Poissons Ratio (y) = 0.44733 0.23046
# Poissons Ratio (z) = 0.19241 0.32960
#
# Static dielectric constant tensor:
#      x y z
#    x 3.692970 0.000000 -0.037600 
#    y 0.000000 3.627480 0.000000 
#    z -0.037600 0.000000 3.232150 
# 
# 
# High freq. dielectric constant tensor:
#      x y z
#    x 1.752830 0.000000 0.005580 
#    y 0.000000 1.740660 0.000000 
#    z 0.005580 0.000000 1.689240 
# 
# From -- ./inp_files/178707.got.cif
#   From: 2010.06.25/outbox.cif.g09.slc.cpg/sg12_90_cif.got.tgz:178707.got - 2010.06.28 00:19:55.
