data_PCOD8114014
_publ_section_title
;
Structure prediction by ZEFSAII (Michael W. Deem and Ramdas Pophale) SiO2 
 PCOD8114014
Probable space group: C 2/M
;
_chemical_formula_sum "Si O2"
_cell_formula_units_Z 40
_cell_length_a 22.139802
_cell_length_b 18.302642
_cell_length_c 15.842345
_cell_angle_alpha 90.000000
_cell_angle_beta 17.476296
_cell_angle_gamma 90.000000
_cell_volume 1927.873468
_symmetry_space_group_name_H-M "C 2/M"
_symmetry_group_IT_number 12
_symmetry_cell_setting 'monoclinic'
loop_
_space_group_symop_operation_xyz
x,y,z
-x,y,-z
-x,-y,-z
x,-y,z
1/2+x,1/2+y,z
1/2-x,1/2+y,-z
1/2-x,1/2-y,-z
1/2+x,1/2-y,z
loop_
_atom_site_type_symbol
_atom_site_label
_atom_site_fract_x
_atom_site_fract_y
_atom_site_fract_z
Si Si1 0.979561 0.226377 0.709537
Si Si2 0.937792 0.500000 0.733840
Si Si3 0.048328 0.368499 0.707339
Si Si4 0.512458 0.640716 0.826439
Si Si5 0.864985 0.708588 0.100957
Si Si6 0.726633 0.500000 0.853828
O O1 0.095046 0.294685 0.595062
O O2 0.981260 0.157070 0.769070
O O3 0.122608 0.207990 0.439093
O O4 0.750000 0.250000 0.000000
O O5 0.955373 0.429460 0.769898
O O6 0.081138 0.500000 0.461899
O O7 0.736671 0.500000 0.944263
O O8 0.262845 0.389292 0.459293
O O9 0.891336 0.350819 0.991395
O O10 0.447317 0.711895 0.965403
O O11 0.380542 0.573590 0.032848
O O12 0.000000 0.682430 0.000000
#
# Coordination Sequence:
#
# PCOD8114014 Si02
#       6
#     8   4   8   8   8   4
#     4  11  22  38  63  95 131 164 211 264 311 368
#     4  11  25  43  59  92 128 168 211 268 323 384
#     4  11  22  39  65  93 126 165 217 259 309 382
#     4  11  22  37  63  95 122 167 213 261 310 382
#     4  11  20  40  66  93 128 166 209 257 314 373
#     4  11  25  41  62  87 130 165 207 268 339 371
#
# _framework density 20.748249999999999
#
# number of rings (size 3 to 8) (size 9 to 14) (size 15 to 20)
#    0.000    1.000    4.000    4.200    0.000    5.600 
#    0.000    1.500    0.000    2.400    0.000    0.000 
#    0.000    0.000    0.000    0.000    0.000    0.000 
#
# Total GULP energy -247825.086424 kJ/mol
# GULP energy per Si atom -12391.254321 kJ/mol
# Density = 2.070103 g / cm^3
# Si number density = 20.748250 Si / 1000 Ang^3
#
#
#
# Elastic Constant Matrix: (Units=GPa)
#
#
# Indices 1 2 3 4 5 6 
#
# 1 108.9078 33.0573 47.2684 -0.0389 10.0555 0.0817
# 2 33.0573 83.6118 7.2199 -0.0304 14.6176 0.0622
# 3 47.2684 7.2199 131.0987 0.0115 8.7092 0.0091
# 4 -0.0389 -0.0304 0.0115 22.7812 0.0187 6.5867
# 5 10.0555 14.6176 8.7092 0.0187 40.5873 -0.0497
# 6 0.0817 0.0622 0.0091 6.5867 -0.0497 25.0031
#
#
#
# Elastic Compliance Matrix: (Units=1/GPa)
#
#
# Indices 1 2 3 4 5 6 
#
# 1 0.012401 -0.004441 -0.004189 0.000028 -0.000574 -0.000037
# 2 -0.004441 0.014375 0.001096 0.000025 -0.004312 -0.000037
# 3 -0.004189 0.001096 0.009166 -0.000012 -0.001324 0.000008
# 4 0.000028 0.000025 -0.000012 0.047515 -0.000051 -0.012517
# 5 -0.000574 -0.004312 -0.001324 -0.000051 0.026618 0.000079
# 6 -0.000037 -0.000037 0.000008 -0.012517 0.000079 0.043293
#
#
# Mechanical properties :
#
#
# Convention : Reuss Voigt Hill
#
# Bulk Modulus (GPa) = 47.90437 55.41218 51.65827
# Shear Modulus (GPa) = 28.50747 33.41251 30.95999
#
# Velocity S-wave (km/s) = 3.71073 4.01730 3.86706
# Velocity P-wave (km/s) = 6.44188 6.94861 6.70004
#
# Compressibility (1/GPa) = 0.02087492
#
# Stress axis : x y z
#
# Youngs Moduli (GPa) = 80.63864 69.56479 109.10333
#
# Poissons Ratio (x) = 0.30893 0.45698
# Poissons Ratio (y) = 0.35810 -0.11957
# Poissons Ratio (z) = 0.33776 -0.07624
#
# Static dielectric constant tensor:
#      x y z
#    x 3.982680 -0.000010 0.066240 
#    y -0.000010 3.581950 0.000070 
#    z 0.066240 0.000070 3.769060 
# 
# 
# High freq. dielectric constant tensor:
#      x y z
#    x 1.820210 0.000000 0.000860 
#    y 0.000000 1.794130 0.000010 
#    z 0.000860 0.000010 1.815780 
# 
# From -- ./inp_files/47196.got.cif
#   From: 2010.06.25/outbox.cif.g09.slc.cpg/sg12_24_cif.got.tgz:47196.got - 2010.06.28 00:19:55.
