data_PCOD8114897
_publ_section_title
;
Structure prediction by ZEFSAII (Michael W. Deem and Ramdas Pophale) SiO2 
 PCOD8114897
Probable space group: C 2/M
;
_chemical_formula_sum "Si O2"
_cell_formula_units_Z 40
_cell_length_a 14.529527
_cell_length_b 8.473037
_cell_length_c 18.043633
_cell_angle_alpha 90.000000
_cell_angle_beta 116.100538
_cell_angle_gamma 90.000000
_cell_volume 1994.813227
_symmetry_space_group_name_H-M "C 2/M"
_symmetry_group_IT_number 12
_symmetry_cell_setting 'monoclinic'
loop_
_space_group_symop_operation_xyz
x,y,z
-x,y,-z
-x,-y,-z
x,-y,z
1/2+x,1/2+y,z
1/2-x,1/2+y,-z
1/2-x,1/2-y,-z
1/2+x,1/2-y,z
loop_
_atom_site_type_symbol
_atom_site_label
_atom_site_fract_x
_atom_site_fract_y
_atom_site_fract_z
Si Si1 0.071870 0.686781 0.631584
Si Si2 0.358093 0.682816 0.191419
Si Si3 0.852650 0.685262 0.500378
Si Si4 0.851652 0.816545 0.932001
Si Si5 0.976852 0.314528 0.106178
O O1 0.079258 0.500000 0.648636
O O2 0.121485 0.782340 0.715899
O O3 0.136028 0.736642 0.581328
O O4 0.953529 0.741351 0.580860
O O5 0.331792 0.500000 0.171643
O O6 0.265835 0.787996 0.128006
O O7 0.456519 0.733186 0.178118
O O8 0.847800 0.500000 0.502552
O O9 0.750000 0.750000 0.500000
O O10 0.917944 0.759166 0.885833
O O11 0.871426 0.000000 0.954437
O O12 0.883969 0.720195 0.016557
O O13 0.990391 0.500000 0.121408
#
# Coordination Sequence:
#
# PCOD8114897 Si02
#       5
#     8   8   8   8   8
#     4   9  20  39  57  81 114 149 184 227 280 339
#     4  12  24  38  57  85 117 153 192 236 285 336
#     4   9  19  37  62  84 110 145 183 225 279 338
#     4  11  22  39  60  84 114 151 193 239 285 338
#     4  11  22  39  60  84 114 151 193 239 285 338
#
# _framework density 20.052002999999999
#
# number of rings (size 3 to 8) (size 9 to 14) (size 15 to 20)
#    0.000    1.600    0.000    8.400    0.000    3.200 
#    0.000    6.000    0.000    0.000    0.000    0.000 
#    0.000    0.000    0.000    0.000    0.000    0.000 
#
# Total GULP energy -248064.052196 kJ/mol
# GULP energy per Si atom -12403.202610 kJ/mol
# Density = 2.000636 g / cm^3
# Si number density = 20.052003 Si / 1000 Ang^3
#
#
#
# Elastic Constant Matrix: (Units=GPa)
#
#
# Indices 1 2 3 4 5 6 
#
# 1 111.8842 17.8702 24.8239 0.0000 -13.4928 0.0000
# 2 17.8702 76.9884 10.1681 0.0000 -5.4572 0.0000
# 3 24.8239 10.1681 45.9629 0.0000 -17.2900 0.0000
# 4 0.0000 0.0000 0.0000 33.9939 0.0000 -2.1840
# 5 -13.4928 -5.4572 -17.2900 0.0000 25.5214 0.0000
# 6 0.0000 0.0000 0.0000 -2.1840 0.0000 37.7403
#
#
#
# Elastic Compliance Matrix: (Units=1/GPa)
#
#
# Indices 1 2 3 4 5 6 
#
# 1 0.010457 -0.001685 -0.004470 0.000000 0.002140 0.000000
# 2 -0.001685 0.013677 -0.001812 0.000000 0.000806 0.000000
# 3 -0.004470 -0.001812 0.031587 0.000000 0.018648 0.000000
# 4 0.000000 0.000000 0.000000 0.029527 0.000000 0.001709
# 5 0.002140 0.000806 0.018648 0.000000 0.053120 0.000000
# 6 0.000000 0.000000 0.000000 0.001709 0.000000 0.026596
#
#
# Mechanical properties :
#
#
# Convention : Reuss Voigt Hill
#
# Bulk Modulus (GPa) = 25.13485 37.83996 31.48740
# Shear Modulus (GPa) = 25.75209 31.58268 28.66738
#
# Velocity S-wave (km/s) = 3.58755 3.97298 3.78518
# Velocity P-wave (km/s) = 5.45186 6.32123 5.90257
#
# Compressibility (1/GPa) = 0.03978540
#
# Stress axis : x y z
#
# Youngs Moduli (GPa) = 95.63207 73.11758 31.65894
#
# Poissons Ratio (x) = 0.12321 0.14151
# Poissons Ratio (y) = 0.16115 0.05738
# Poissons Ratio (z) = 0.42745 0.13252
#
# Static dielectric constant tensor:
#      x y z
#    x 3.535020 0.000000 -0.152900 
#    y 0.000000 3.558000 0.000000 
#    z -0.152900 0.000000 3.553000 
# 
# 
# High freq. dielectric constant tensor:
#      x y z
#    x 1.793190 0.000000 -0.009480 
#    y 0.000000 1.785900 0.000000 
#    z -0.009480 0.000000 1.774670 
# 
# From -- ./inp_files/267380.got.cif
#   From: 2010.06.25/outbox.cif.g09.slc.cpg/sg12_134_cif.got.tgz:267380.got - 2010.06.28 00:19:55.
