data_PCOD8114662
_publ_section_title
;
Structure prediction by ZEFSAII (Michael W. Deem and Ramdas Pophale) SiO2 
 PCOD8114662
Probable space group: C 2/M
;
_chemical_formula_sum "Si O2"
_cell_formula_units_Z 56
_cell_length_a 29.831771
_cell_length_b 8.558447
_cell_length_c 12.365072
_cell_angle_alpha 90.000000
_cell_angle_beta 105.612681
_cell_angle_gamma 90.000000
_cell_volume 3040.488733
_symmetry_space_group_name_H-M "C 2/M"
_symmetry_group_IT_number 12
_symmetry_cell_setting 'monoclinic'
loop_
_space_group_symop_operation_xyz
x,y,z
-x,y,-z
-x,-y,-z
x,-y,z
1/2+x,1/2+y,z
1/2-x,1/2+y,-z
1/2-x,1/2-y,-z
1/2+x,1/2-y,z
loop_
_atom_site_type_symbol
_atom_site_label
_atom_site_fract_x
_atom_site_fract_y
_atom_site_fract_z
Si Si1 0.053335 0.181816 0.910698
Si Si2 0.705314 0.180776 0.529164
Si Si3 0.693476 0.680535 0.127495
Si Si4 0.355747 0.819834 0.108049
Si Si5 0.291200 0.681219 0.238295
Si Si6 0.551297 0.681383 0.160677
Si Si7 0.141822 0.678084 0.290861
O O1 0.089470 0.281924 0.864534
O O2 0.001156 0.234482 0.844927
O O3 0.060689 0.000000 0.890561
O O4 0.062259 0.214299 0.042623
O O5 0.750000 0.250000 0.500000
O O6 0.694837 0.273495 0.631494
O O7 0.660579 0.203679 0.423827
O O8 0.714554 0.000000 0.562097
O O9 0.686651 0.500000 0.092367
O O10 0.747849 0.718690 0.167583
O O11 0.670229 0.711791 0.228140
O O12 0.669258 0.784487 0.021082
O O13 0.334799 0.715144 0.189855
O O14 0.349049 0.000000 0.133389
O O15 0.277703 0.500000 0.225359
O O16 0.557679 0.500000 0.191148
O O17 0.587205 0.779835 0.256097
O O18 0.149341 0.500000 0.258625
#
# Coordination Sequence:
#
# PCOD8114662 Si02
#       7
#     8   8   8   8   8   8   8
#     4   9  18  34  55  83 115 150 187 229 279 336
#     4  11  23  39  59  83 114 151 191 238 282 331
#     4  12  23  37  57  82 116 153 189 230 281 337
#     4  12  24  38  57  84 117 152 189 231 285 342
#     4  12  25  41  59  81 112 151 196 237 280 338
#     4   9  18  33  56  83 115 150 187 229 281 335
#     4  11  22  35  56  86 118 148 187 233 283 334
#
# _framework density 18.418092999999999
#
# number of rings (size 3 to 8) (size 9 to 14) (size 15 to 20)
#    0.000    1.143    2.857    6.000    0.000    2.286 
#    0.000    1.429    0.000    0.857    0.000    6.000 
#    0.000    0.000    0.000    0.000    0.000    0.000 
#
# Total GULP energy -347357.242047 kJ/mol
# GULP energy per Si atom -12405.615787 kJ/mol
# Density = 1.837617 g / cm^3
# Si number density = 18.418093 Si / 1000 Ang^3
#
#
#
# Elastic Constant Matrix: (Units=GPa)
#
#
# Indices 1 2 3 4 5 6 
#
# 1 111.5323 25.2070 42.9625 0.0000 8.4174 0.0000
# 2 25.2070 75.4392 24.3362 0.0000 7.1402 0.0000
# 3 42.9625 24.3362 66.4195 0.0000 1.8868 0.0000
# 4 0.0000 0.0000 0.0000 27.5040 0.0000 0.0196
# 5 8.4174 7.1402 1.8868 0.0000 30.9036 0.0000
# 6 0.0000 0.0000 0.0000 0.0196 0.0000 31.7515
#
#
#
# Elastic Compliance Matrix: (Units=1/GPa)
#
#
# Indices 1 2 3 4 5 6 
#
# 1 0.012332 -0.001506 -0.007352 0.000000 -0.002562 0.000000
# 2 -0.001506 0.015527 -0.004633 0.000000 -0.002894 0.000000
# 3 -0.007352 -0.004633 0.021459 0.000000 0.001763 0.000000
# 4 0.000000 0.000000 0.000000 0.036358 0.000000 -0.000023
# 5 -0.002562 -0.002894 0.001763 0.000000 0.033618 0.000000
# 6 0.000000 0.000000 0.000000 -0.000023 0.000000 0.031495
#
#
# Mechanical properties :
#
#
# Convention : Reuss Voigt Hill
#
# Bulk Modulus (GPa) = 44.77085 48.71138 46.74111
# Shear Modulus (GPa) = 26.99552 28.75751 27.87651
#
# Velocity S-wave (km/s) = 3.83261 3.95571 3.89464
# Velocity P-wave (km/s) = 6.62918 6.88248 6.75702
#
# Compressibility (1/GPa) = 0.02233596
#
# Stress axis : x y z
#
# Youngs Moduli (GPa) = 81.09114 64.40195 46.60112
#
# Poissons Ratio (x) = 0.09701 0.34261
# Poissons Ratio (y) = 0.12215 0.21589
# Poissons Ratio (z) = 0.59618 0.29836
#
# Static dielectric constant tensor:
#      x y z
#    x 3.421930 0.000000 0.166520 
#    y 0.000000 3.418150 0.000000 
#    z 0.166520 0.000000 3.292130 
# 
# 
# High freq. dielectric constant tensor:
#      x y z
#    x 1.714690 0.000000 0.010870 
#    y 0.000000 1.723840 0.000000 
#    z 0.010870 0.000000 1.694630 
# 
# From -- ./inp_files/181104.got.cif
#   From: 2010.06.25/outbox.cif.g09.slc.cpg/sg12_91_cif.got.tgz:181104.got - 2010.06.28 00:19:55.
