data_PCOD8114254
_publ_section_title
;
Structure prediction by ZEFSAII (Michael W. Deem and Ramdas Pophale) SiO2 
 PCOD8114254
Probable space group: C 2/M
;
_chemical_formula_sum "Si O2"
_cell_formula_units_Z 56
_cell_length_a 9.400100
_cell_length_b 22.335539
_cell_length_c 15.984795
_cell_angle_alpha 90.000000
_cell_angle_beta 57.297351
_cell_angle_gamma 90.000000
_cell_volume 2824.117589
_symmetry_space_group_name_H-M "C 2/M"
_symmetry_group_IT_number 12
_symmetry_cell_setting 'monoclinic'
loop_
_space_group_symop_operation_xyz
x,y,z
-x,y,-z
-x,-y,-z
x,-y,z
1/2+x,1/2+y,z
1/2-x,1/2+y,-z
1/2-x,1/2-y,-z
1/2+x,1/2-y,z
loop_
_atom_site_type_symbol
_atom_site_label
_atom_site_fract_x
_atom_site_fract_y
_atom_site_fract_z
Si Si1 0.878596 0.068651 0.865330
Si Si2 0.235752 0.434024 0.253930
Si Si3 0.367249 0.150107 0.157719
Si Si4 0.768367 0.613024 0.920679
Si Si5 0.419589 0.179844 0.614898
Si Si6 0.106252 0.268064 0.706395
Si Si7 0.258289 0.244248 0.899594
O O1 0.773132 0.104325 0.829409
O O2 0.072189 0.075558 0.777455
O O3 0.817940 0.000000 0.883606
O O4 0.859711 0.094190 0.965524
O O5 0.173707 0.500000 0.302241
O O6 0.225350 0.434414 0.156011
O O7 0.117366 0.384513 0.332922
O O8 0.549595 0.119247 0.092244
O O9 0.331757 0.171705 0.264409
O O10 0.374011 0.210811 0.100297
O O11 0.712492 0.675335 0.893258
O O12 0.500000 0.168420 0.500000
O O13 0.250553 0.218520 0.659985
O O14 0.556437 0.214403 0.628041
O O15 0.944343 0.240056 0.805341
O O16 0.250000 0.250000 0.000000
#
# Coordination Sequence:
#
# PCOD8114254 Si02
#       7
#     8   8   8   8   8   8   8
#     4  11  24  39  59  86 124 175 214 250 303 371
#     4  11  24  44  64  88 124 168 211 262 317 375
#     4  11  21  38  58  88 130 163 210 249 307 361
#     4  11  22  38  59  89 129 168 212 254 300 372
#     4  12  25  45  70  96 121 160 209 267 326 377
#     4  11  23  43  62  96 129 162 199 259 319 377
#     4  11  21  35  60  92 132 166 201 241 311 373
#
# _framework density 19.829201999999999
#
# number of rings (size 3 to 8) (size 9 to 14) (size 15 to 20)
#    0.000    0.857    5.714    2.571    2.000    4.286 
#    5.143    0.000    0.000    0.000    0.000    2.000 
#    0.000    0.000    0.000    0.000    0.000    0.000 
#
# Total GULP energy -347227.563704 kJ/mol
# GULP energy per Si atom -12400.984418 kJ/mol
# Density = 1.978407 g / cm^3
# Si number density = 19.829202 Si / 1000 Ang^3
#
#
#
# Elastic Constant Matrix: (Units=GPa)
#
#
# Indices 1 2 3 4 5 6 
#
# 1 88.7156 41.6014 23.9095 0.0000 19.7734 0.0000
# 2 41.6014 104.9116 15.7944 0.0000 -0.8868 0.0000
# 3 23.9095 15.7944 94.2994 0.0000 10.2737 0.0000
# 4 0.0000 0.0000 0.0000 18.2967 0.0000 -0.8371
# 5 19.7734 -0.8868 10.2737 0.0000 24.7209 0.0000
# 6 0.0000 0.0000 0.0000 -0.8371 0.0000 32.2850
#
#
#
# Elastic Compliance Matrix: (Units=1/GPa)
#
#
# Indices 1 2 3 4 5 6 
#
# 1 0.018225 -0.007058 -0.001909 0.000000 -0.014037 0.000000
# 2 -0.007058 0.012539 -0.001021 0.000000 0.006520 0.000000
# 3 -0.001909 -0.001021 0.011624 0.000000 -0.003340 0.000000
# 4 0.000000 0.000000 0.000000 0.054720 0.000000 0.001419
# 5 -0.014037 0.006520 -0.003340 0.000000 0.053301 0.000000
# 6 0.000000 0.000000 0.000000 0.001419 0.000000 0.031011
#
#
# Mechanical properties :
#
#
# Convention : Reuss Voigt Hill
#
# Bulk Modulus (GPa) = 44.62099 50.05969 47.34034
# Shear Modulus (GPa) = 23.93866 28.83529 26.38697
#
# Velocity S-wave (km/s) = 3.47831 3.81751 3.65185
# Velocity P-wave (km/s) = 6.21957 6.68816 6.45811
#
# Compressibility (1/GPa) = 0.02241098
#
# Stress axis : x y z
#
# Youngs Moduli (GPa) = 54.86960 79.74827 86.03230
#
# Poissons Ratio (x) = 0.56287 0.16427
# Poissons Ratio (y) = 0.38728 0.08784
# Poissons Ratio (z) = 0.10477 0.08142
#
# Static dielectric constant tensor:
#      x y z
#    x 3.993120 0.000000 0.005980 
#    y 0.000000 3.979380 0.000000 
#    z 0.005980 0.000000 3.486590 
# 
# 
# High freq. dielectric constant tensor:
#      x y z
#    x 1.787230 0.000000 0.007870 
#    y 0.000000 1.775960 0.000000 
#    z 0.007870 0.000000 1.743630 
# 
# From -- ./inp_files/198796.got.cif
#   From: 2010.06.25/outbox.cif.g09.slc.cpg/sg12_100_cif.got.tgz:198796.got - 2010.06.28 00:19:55.
