data_PCOD8114669
_publ_section_title
;
Structure prediction by ZEFSAII (Michael W. Deem and Ramdas Pophale) SiO2 
 PCOD8114669
Probable space group: C 2/M
;
_chemical_formula_sum "Si O2"
_cell_formula_units_Z 56
_cell_length_a 9.026019
_cell_length_b 17.237572
_cell_length_c 26.745418
_cell_angle_alpha 90.000000
_cell_angle_beta 139.690713
_cell_angle_gamma 90.000000
_cell_volume 2691.955444
_symmetry_space_group_name_H-M "C 2/M"
_symmetry_group_IT_number 12
_symmetry_cell_setting 'monoclinic'
loop_
_space_group_symop_operation_xyz
x,y,z
-x,y,-z
-x,-y,-z
x,-y,z
1/2+x,1/2+y,z
1/2-x,1/2+y,-z
1/2-x,1/2-y,-z
1/2+x,1/2-y,z
loop_
_atom_site_type_symbol
_atom_site_label
_atom_site_fract_x
_atom_site_fract_y
_atom_site_fract_z
Si Si1 0.808645 0.833701 0.994165
Si Si2 0.839290 0.154420 0.285949
Si Si3 0.240534 0.647035 0.544133
Si Si4 0.506508 0.408676 0.860059
Si Si5 0.839507 0.412040 0.856612
Si Si6 0.535164 0.181384 0.726624
Si Si7 0.758349 0.670747 0.562213
O O1 0.571944 0.864164 0.910941
O O2 0.750000 0.750000 0.000000
O O3 0.000000 0.830556 0.000000
O O4 0.883544 0.890293 0.058118
O O5 0.777975 0.091953 0.227903
O O6 0.624166 0.177097 0.265374
O O7 0.038813 0.112061 0.370475
O O8 0.922231 0.229295 0.276026
O O9 0.187900 0.623931 0.473783
O O10 0.293982 0.737876 0.564434
O O11 0.000000 0.616107 0.500000
O O12 0.457337 0.500000 0.843147
O O13 0.675063 0.380216 0.858817
O O14 0.269858 0.362829 0.796016
O O15 0.901845 0.500000 0.885480
O O16 0.405519 0.140203 0.646792
O O17 0.500000 0.649077 0.500000
#
# Coordination Sequence:
#
# PCOD8114669 Si02
#       7
#     8   8   8   8   8   8   8
#     4  12  25  44  71  99 127 156 194 244 294 350
#     4  11  22  36  57  90 122 159 204 254 306 355
#     4   9  18  28  50  80 116 155 197 252 306 359
#     4  11  25  44  65  90 123 163 201 243 298 358
#     4  11  25  44  65  89 124 163 201 244 296 359
#     4  11  22  35  59  88 123 159 203 256 303 360
#     4   9  16  30  48  80 116 153 198 249 308 355
#
# _framework density 20.802723
#
# number of rings (size 3 to 8) (size 9 to 14) (size 15 to 20)
#    0.000    1.429    1.429    4.286    8.000    4.000 
#    0.000    0.000    0.000    1.714    0.000    0.000 
#    0.000    0.000    0.000    0.000    0.000    0.000 
#
# Total GULP energy -346933.371979 kJ/mol
# GULP energy per Si atom -12390.477571 kJ/mol
# Density = 2.075537 g / cm^3
# Si number density = 20.802723 Si / 1000 Ang^3
#
#
#
# Elastic Constant Matrix: (Units=GPa)
#
#
# Indices 1 2 3 4 5 6 
#
# 1 176.0962 16.4553 36.7792 0.0002 1.1926 0.0000
# 2 16.4553 41.9861 11.1621 0.0004 4.2894 0.0000
# 3 36.7792 11.1621 126.2002 0.0001 -4.4162 -0.0002
# 4 0.0002 0.0004 0.0001 7.4141 0.0005 -6.7396
# 5 1.1926 4.2894 -4.4162 0.0005 47.7787 0.0001
# 6 0.0000 0.0000 -0.0002 -6.7396 0.0001 20.4312
#
#
#
# Elastic Compliance Matrix: (Units=1/GPa)
#
#
# Indices 1 2 3 4 5 6 
#
# 1 0.006207 -0.001984 -0.001638 0.000000 -0.000128 0.000000
# 2 -0.001984 0.025302 -0.001743 -0.000002 -0.002383 -0.000001
# 3 -0.001638 -0.001743 0.008590 0.000000 0.000991 0.000000
# 4 0.000000 -0.000002 0.000000 0.192644 -0.000002 0.063547
# 5 -0.000128 -0.002383 0.000991 -0.000002 0.021239 -0.000001
# 6 0.000000 -0.000001 0.000000 0.063547 -0.000001 0.069907
#
#
# Mechanical properties :
#
#
# Convention : Reuss Voigt Hill
#
# Bulk Modulus (GPa) = 34.04971 52.56398 43.30685
# Shear Modulus (GPa) = 14.51764 33.78386 24.15075
#
# Velocity S-wave (km/s) = 2.64459 4.03427 3.41096
# Velocity P-wave (km/s) = 5.07234 6.85735 6.03124
#
# Compressibility (1/GPa) = 0.02936882
#
# Stress axis : x y z
#
# Youngs Moduli (GPa) = 161.10606 39.52276 116.41256
#
# Poissons Ratio (x) = 0.07842 0.19068
# Poissons Ratio (y) = 0.31966 0.20291
# Poissons Ratio (z) = 0.26389 0.06889
#
# Static dielectric constant tensor:
#      x y z
#    x 3.992240 0.000000 -0.116420 
#    y 0.000000 3.320890 0.000000 
#    z -0.116420 0.000000 4.178320 
# 
# 
# High freq. dielectric constant tensor:
#      x y z
#    x 1.836860 0.000000 -0.003240 
#    y 0.000000 1.769450 0.000000 
#    z -0.003240 0.000000 1.838370 
# 
# From -- ./inp_files/356751.got.cif
#   From: 2010.06.25/outbox.cif.g09.slc.cpg/sg12_179_cif.got.tgz:356751.got - 2010.06.28 00:19:55.
