data_PCOD8114372
_publ_section_title
;
Structure prediction by ZEFSAII (Michael W. Deem and Ramdas Pophale) SiO2 
 PCOD8114372
Probable space group: C 2/M
;
_chemical_formula_sum "Si O2"
_cell_formula_units_Z 64
_cell_length_a 14.635123
_cell_length_b 23.622965
_cell_length_c 12.808222
_cell_angle_alpha 90.000000
_cell_angle_beta 42.436514
_cell_angle_gamma 90.000000
_cell_volume 2987.976906
_symmetry_space_group_name_H-M "C 2/M"
_symmetry_group_IT_number 12
_symmetry_cell_setting 'monoclinic'
loop_
_space_group_symop_operation_xyz
x,y,z
-x,y,-z
-x,-y,-z
x,-y,z
1/2+x,1/2+y,z
1/2-x,1/2+y,-z
1/2-x,1/2-y,-z
1/2+x,1/2-y,z
loop_
_atom_site_type_symbol
_atom_site_label
_atom_site_fract_x
_atom_site_fract_y
_atom_site_fract_z
Si Si1 0.467572 0.436241 0.329014
Si Si2 0.049667 0.767007 0.730382
Si Si3 0.765614 0.383734 0.340894
Si Si4 0.226852 0.434538 0.879997
Si Si5 0.449027 0.853642 0.827855
Si Si6 0.828480 0.765025 0.585441
Si Si7 0.077775 0.875331 0.829222
Si Si8 0.367399 0.844207 0.665334
O O1 0.444912 0.500000 0.383706
O O2 0.360611 0.399416 0.481706
O O3 0.619336 0.417191 0.227568
O O4 0.439727 0.429910 0.229399
O O5 0.050129 0.771853 0.603216
O O6 0.205062 0.763847 0.631110
O O7 0.002360 0.823726 0.830440
O O8 0.958130 0.713783 0.846649
O O9 0.799694 0.428437 0.221457
O O10 0.720137 0.324677 0.325431
O O11 0.896404 0.376482 0.305336
O O12 0.196133 0.500000 0.938266
O O13 0.131517 0.389837 0.019163
O O14 0.373255 0.860547 0.781904
O O15 0.872722 0.723939 0.642740
O O16 0.235323 0.869328 0.722572
O O17 0.000000 0.887032 0.000000
O O18 0.500000 0.871700 0.500000
#
# Coordination Sequence:
#
# PCOD8114372 Si02
#       8
#     8   8   8   8   8   8   8   8
#     4  11  24  44  67  90 122 169 225 274 320 384
#     4   9  18  36  59  89 127 167 205 250 312 382
#     4  11  22  41  70  96 123 167 222 271 323 383
#     4  11  26  45  64  93 130 168 217 278 334 380
#     4  11  23  40  66  97 134 168 208 265 331 389
#     4   9  18  34  59  91 126 164 202 256 311 374
#     4  11  23  40  62  92 132 168 210 264 318 385
#     4  11  21  37  63  94 128 172 207 253 320 392
#
# _framework density 21.419173000000001
#
# number of rings (size 3 to 8) (size 9 to 14) (size 15 to 20)
#    0.000    1.500    2.500    2.625    0.000    7.750 
#    0.000    2.500    0.000    1.500    0.000    0.000 
#    0.000    0.000    0.000    0.000    0.000    0.000 
#
# Total GULP energy -396611.949433 kJ/mol
# GULP energy per Si atom -12394.123420 kJ/mol
# Density = 2.137042 g / cm^3
# Si number density = 21.419173 Si / 1000 Ang^3
#
#
#
# Elastic Constant Matrix: (Units=GPa)
#
#
# Indices 1 2 3 4 5 6 
#
# 1 96.2018 25.8987 14.0416 0.0003 0.6812 -0.0003
# 2 25.8987 58.3809 29.5169 0.0000 -8.7528 0.0000
# 3 14.0416 29.5169 91.9013 0.0003 6.3898 -0.0003
# 4 0.0003 0.0000 0.0003 24.1845 -0.0003 10.4614
# 5 0.6812 -8.7528 6.3898 -0.0003 36.7254 0.0004
# 6 -0.0003 0.0000 -0.0003 10.4614 0.0004 19.3675
#
#
#
# Elastic Compliance Matrix: (Units=1/GPa)
#
#
# Indices 1 2 3 4 5 6 
#
# 1 0.011888 -0.005543 0.000072 0.000000 -0.001554 0.000000
# 2 -0.005543 0.024475 -0.007518 0.000001 0.007244 -0.000001
# 3 0.000072 -0.007518 0.013574 0.000000 -0.004155 0.000001
# 4 0.000000 0.000001 0.000000 0.053956 0.000001 -0.029145
# 5 -0.001554 0.007244 -0.004155 0.000001 0.029707 -0.000001
# 6 0.000000 -0.000001 0.000001 -0.029145 -0.000001 0.067376
#
#
# Mechanical properties :
#
#
# Convention : Reuss Voigt Hill
#
# Bulk Modulus (GPa) = 41.73806 42.82203 42.28005
# Shear Modulus (GPa) = 21.28226 27.85727 24.56977
#
# Velocity S-wave (km/s) = 3.15557 3.61026 3.39055
# Velocity P-wave (km/s) = 5.72761 6.11674 5.92537
#
# Compressibility (1/GPa) = 0.02395894
#
# Stress axis : x y z
#
# Youngs Moduli (GPa) = 84.12186 40.85866 73.67254
#
# Poissons Ratio (x) = 0.22648 -0.00531
# Poissons Ratio (y) = 0.46628 0.55383
# Poissons Ratio (z) = -0.00606 0.30716
#
# Static dielectric constant tensor:
#      x y z
#    x 4.031570 0.000000 -0.041400 
#    y 0.000000 3.792200 0.000000 
#    z -0.041400 0.000000 3.740460 
# 
# 
# High freq. dielectric constant tensor:
#      x y z
#    x 1.853080 0.000000 -0.004500 
#    y 0.000000 1.824700 0.000000 
#    z -0.004500 0.000000 1.831270 
# 
# From -- ./inp_files/149745.got.cif
#   From: 2010.06.25/outbox.cif.g09.slc.cpg/sg12_75_cif.got.tgz:149745.got - 2010.06.28 00:19:55.
