data_PCOD8114251
_publ_section_title
;
Structure prediction by ZEFSAII (Michael W. Deem and Ramdas Pophale) SiO2 
 PCOD8114251
Probable space group: C 2/M
;
_chemical_formula_sum "Si O2"
_cell_formula_units_Z 56
_cell_length_a 18.866380
_cell_length_b 8.743736
_cell_length_c 20.694225
_cell_angle_alpha 90.000000
_cell_angle_beta 59.308976
_cell_angle_gamma 90.000000
_cell_volume 2935.614430
_symmetry_space_group_name_H-M "C 2/M"
_symmetry_group_IT_number 12
_symmetry_cell_setting 'monoclinic'
loop_
_space_group_symop_operation_xyz
x,y,z
-x,y,-z
-x,-y,-z
x,-y,z
1/2+x,1/2+y,z
1/2-x,1/2+y,-z
1/2-x,1/2-y,-z
1/2+x,1/2-y,z
loop_
_atom_site_type_symbol
_atom_site_label
_atom_site_fract_x
_atom_site_fract_y
_atom_site_fract_z
Si Si1 0.997307 0.819607 0.426624
Si Si2 0.132598 0.665361 0.709833
Si Si3 0.283281 0.826044 0.205467
Si Si4 0.468883 0.820007 0.082797
Si Si5 0.023878 0.176466 0.185130
Si Si6 0.835098 0.668915 0.451647
Si Si7 0.113565 0.320864 0.263113
O O1 0.067626 0.748971 0.347398
O O2 0.000000 0.762682 0.500000
O O3 0.907988 0.774271 0.442771
O O4 0.009019 0.000000 0.417387
O O5 0.092095 0.500000 0.750544
O O6 0.210987 0.693087 0.719579
O O7 0.162977 0.648216 0.624740
O O8 0.068624 0.803493 0.745351
O O9 0.372231 0.776445 0.135111
O O10 0.210739 0.714503 0.217152
O O11 0.261289 0.000000 0.195446
O O12 0.526391 0.746335 0.111832
O O13 0.482179 0.000000 0.079792
O O14 0.500000 0.753754 0.000000
O O15 0.082768 0.260077 0.208553
O O16 0.048562 0.000000 0.171091
O O17 0.838630 0.500000 0.482795
O O18 0.750000 0.750000 0.500000
O O19 0.097302 0.500000 0.273876
#
# Coordination Sequence:
#
# PCOD8114251 Si02
#       7
#     8   8   8   8   8   8   8
#     4  11  25  43  61  83 115 155 199 249 307 357
#     4   9  19  37  58  80 110 150 192 241 292 344
#     4   9  19  36  59  87 118 151 192 236 288 347
#     4   9  19  39  66  93 123 157 191 235 292 349
#     4  11  21  35  60  88 116 153 195 237 287 344
#     4  11  23  38  58  84 115 150 195 245 297 352
#     4  12  24  39  59  85 119 156 200 246 293 350
#
# _framework density 19.076074999999999
#
# number of rings (size 3 to 8) (size 9 to 14) (size 15 to 20)
#    0.000    1.714    1.429    4.286    2.000    4.286 
#    0.000    0.714    0.000    0.000    0.000    0.000 
#    0.000    0.000    0.000    0.000    0.000    0.000 
#
# Total GULP energy -347004.516621 kJ/mol
# GULP energy per Si atom -12393.018451 kJ/mol
# Density = 1.903266 g / cm^3
# Si number density = 19.076075 Si / 1000 Ang^3
#
#
#
# Elastic Constant Matrix: (Units=GPa)
#
#
# Indices 1 2 3 4 5 6 
#
# 1 126.8616 46.7914 66.4995 0.0000 10.1094 -0.0001
# 2 46.7914 98.4391 43.0208 -0.0001 8.8079 0.0000
# 3 66.4995 43.0208 106.5566 0.0000 21.5644 0.0000
# 4 0.0000 -0.0001 0.0000 23.6314 0.0000 1.2526
# 5 10.1094 8.8079 21.5644 0.0000 27.5987 0.0000
# 6 -0.0001 0.0000 0.0000 1.2526 0.0000 29.3875
#
#
#
# Elastic Compliance Matrix: (Units=1/GPa)
#
#
# Indices 1 2 3 4 5 6 
#
# 1 0.012505 -0.003079 -0.006929 0.000000 0.001816 0.000000
# 2 -0.003079 0.013093 -0.003263 0.000000 -0.000501 0.000000
# 3 -0.006929 -0.003263 0.016988 0.000000 -0.009694 0.000000
# 4 0.000000 0.000000 0.000000 0.042412 0.000000 -0.001808
# 5 0.001816 -0.000501 -0.009694 0.000000 0.043303 0.000000
# 6 0.000000 0.000000 0.000000 -0.001808 0.000000 0.034105
#
#
# Mechanical properties :
#
#
# Convention : Reuss Voigt Hill
#
# Bulk Modulus (GPa) = 62.32516 71.60895 66.96706
# Shear Modulus (GPa) = 25.73374 27.82656 26.78015
#
# Velocity S-wave (km/s) = 3.67687 3.82346 3.75088
# Velocity P-wave (km/s) = 7.12521 7.55724 7.34440
#
# Compressibility (1/GPa) = 0.01604489
#
# Stress axis : x y z
#
# Youngs Moduli (GPa) = 79.96507 76.37687 58.86413
#
# Poissons Ratio (x) = 0.23513 0.40786
# Poissons Ratio (y) = 0.24618 0.19210
# Poissons Ratio (z) = 0.55407 0.24925
#
# Static dielectric constant tensor:
#      x y z
#    x 3.494030 0.000000 0.303060 
#    y 0.000000 3.417310 0.000000 
#    z 0.303060 0.000000 3.544020 
# 
# 
# High freq. dielectric constant tensor:
#      x y z
#    x 1.745180 0.000000 0.014830 
#    y 0.000000 1.744080 0.000000 
#    z 0.014830 0.000000 1.734100 
# 
# From -- ./inp_files/313794.got.cif
#   From: 2010.06.25/outbox.cif.g09.slc.cpg/sg12_157_cif.got.tgz:313794.got - 2010.06.28 00:19:55.
