data_PCOD8114307
_publ_section_title
;
Structure prediction by ZEFSAII (Michael W. Deem and Ramdas Pophale) SiO2 
 PCOD8114307
Probable space group: C 2/M
;
_chemical_formula_sum "Si O2"
_cell_formula_units_Z 32
_cell_length_a 17.137285
_cell_length_b 13.009301
_cell_length_c 10.902246
_cell_angle_alpha 90.000000
_cell_angle_beta 41.722370
_cell_angle_gamma 90.000000
_cell_volume 1617.611605
_symmetry_space_group_name_H-M "C 2/M"
_symmetry_group_IT_number 12
_symmetry_cell_setting 'monoclinic'
loop_
_space_group_symop_operation_xyz
x,y,z
-x,y,-z
-x,-y,-z
x,-y,z
1/2+x,1/2+y,z
1/2-x,1/2+y,-z
1/2-x,1/2-y,-z
1/2+x,1/2-y,z
loop_
_atom_site_type_symbol
_atom_site_label
_atom_site_fract_x
_atom_site_fract_y
_atom_site_fract_z
Si Si1 0.644275 0.882169 0.094508
Si Si2 0.160334 0.881941 0.676339
Si Si3 0.733684 0.711745 0.825433
Si Si4 0.101541 0.290739 0.577774
O O1 0.738217 0.859479 0.090923
O O2 0.515464 0.856619 0.295708
O O3 0.652092 0.000000 0.046970
O O4 0.673123 0.816987 0.939359
O O5 0.145595 0.850077 0.837507
O O6 0.077754 0.811918 0.686499
O O7 0.296491 0.860316 0.477413
O O8 0.125987 0.000000 0.697062
O O9 0.853974 0.739571 0.611185
#
# Coordination Sequence:
#
# PCOD8114307 Si02
#       4
#     8   8   8   8
#     4  11  21  36  61  84 110 150 186 230 279 325
#     4   9  18  37  58  78 113 152 181 228 283 323
#     4   9  21  37  53  87 117 134 190 236 269 334
#     4   9  20  36  56  87 111 141 191 231 268 337
#
# _framework density 19.782250999999999
#
# number of rings (size 3 to 8) (size 9 to 14) (size 15 to 20)
#    1.500    1.000    0.000    2.250    0.000    3.000 
#    0.000    8.750    0.000    7.500    0.000    0.000 
#    0.000    0.000    0.000    0.000    0.000    0.000 
#
# Total GULP energy -198308.273926 kJ/mol
# GULP energy per Si atom -12394.267120 kJ/mol
# Density = 1.973723 g / cm^3
# Si number density = 19.782251 Si / 1000 Ang^3
#
#
#
# Elastic Constant Matrix: (Units=GPa)
#
#
# Indices 1 2 3 4 5 6 
#
# 1 28.7239 26.4652 -5.2015 0.0000 6.3756 0.0000
# 2 26.4652 153.3212 31.3549 0.0000 14.4284 0.0000
# 3 -5.2015 31.3549 62.6751 0.0000 5.4073 0.0000
# 4 0.0000 0.0000 0.0000 27.2105 0.0000 0.4829
# 5 6.3756 14.4284 5.4073 0.0000 22.6750 0.0000
# 6 0.0000 0.0000 0.0000 0.4829 0.0000 24.4943
#
#
#
# Elastic Compliance Matrix: (Units=1/GPa)
#
#
# Indices 1 2 3 4 5 6 
#
# 1 0.047033 -0.009112 0.009294 0.000000 -0.009643 0.000000
# 2 -0.009112 0.009373 -0.005260 0.000000 -0.002148 0.000000
# 3 0.009294 -0.005260 0.019700 0.000000 -0.003964 0.000000
# 4 0.000000 0.000000 0.000000 0.036763 0.000000 -0.000725
# 5 -0.009643 -0.002148 -0.003964 0.000000 0.049125 0.000000
# 6 0.000000 0.000000 0.000000 -0.000725 0.000000 0.040840
#
#
# Mechanical properties :
#
#
# Convention : Reuss Voigt Hill
#
# Bulk Modulus (GPa) = 15.16312 38.88417 27.02364
# Shear Modulus (GPa) = 21.27908 27.68273 24.48090
#
# Velocity S-wave (km/s) = 3.28329 3.74488 3.52165
# Velocity P-wave (km/s) = 4.69627 6.19658 5.49784
#
# Compressibility (1/GPa) = 0.06594951
#
# Stress axis : x y z
#
# Youngs Moduli (GPa) = 21.26187 106.69164 50.76155
#
# Poissons Ratio (x) = 0.97212 -0.47175
# Poissons Ratio (y) = 0.19373 0.26700
# Poissons Ratio (z) = -0.19760 0.56118
#
# Static dielectric constant tensor:
#      x y z
#    x 3.341150 0.000000 0.111630 
#    y 0.000000 3.346570 0.000000 
#    z 0.111630 0.000000 3.400990 
# 
# 
# High freq. dielectric constant tensor:
#      x y z
#    x 1.757730 0.000000 0.007210 
#    y 0.000000 1.756820 0.000000 
#    z 0.007210 0.000000 1.760700 
# 
# From -- ./inp_files/139965.got.cif
#   From: 2010.06.25/outbox.cif.g09.slc.cpg/sg12_70_cif.got.tgz:139965.got - 2010.06.28 00:19:55.
