data_PCOD8114720
_publ_section_title
;
Structure prediction by ZEFSAII (Michael W. Deem and Ramdas Pophale) SiO2 
 PCOD8114720
Probable space group: C 2/M
;
_chemical_formula_sum "Si O2"
_cell_formula_units_Z 56
_cell_length_a 9.014680
_cell_length_b 28.453492
_cell_length_c 18.206024
_cell_angle_alpha 90.000000
_cell_angle_beta 141.887901
_cell_angle_gamma 90.000000
_cell_volume 2882.228111
_symmetry_space_group_name_H-M "C 2/M"
_symmetry_group_IT_number 12
_symmetry_cell_setting 'monoclinic'
loop_
_space_group_symop_operation_xyz
x,y,z
-x,y,-z
-x,-y,-z
x,-y,z
1/2+x,1/2+y,z
1/2-x,1/2+y,-z
1/2-x,1/2-y,-z
1/2+x,1/2-y,z
loop_
_atom_site_type_symbol
_atom_site_label
_atom_site_fract_x
_atom_site_fract_y
_atom_site_fract_z
Si Si1 0.780860 0.134955 0.612449
Si Si2 0.067237 0.792346 0.442671
Si Si3 0.288041 0.647057 0.968252
Si Si4 0.869002 0.052495 0.199016
Si Si5 0.070690 0.190862 0.835779
Si Si6 0.672665 0.051936 0.964665
Si Si7 0.885724 0.281926 0.825513
O O1 0.500000 0.121508 0.500000
O O2 0.845004 0.158574 0.559228
O O3 0.942062 0.089146 0.691849
O O4 0.840584 0.173961 0.698614
O O5 0.250000 0.750000 0.500000
O O6 0.000000 0.802472 0.500000
O O7 0.826187 0.774214 0.313075
O O8 0.247765 0.591763 0.935256
O O9 0.050203 0.676482 0.858095
O O10 0.500000 0.666597 0.000000
O O11 0.344194 0.649251 0.077643
O O12 0.603207 0.063120 0.124311
O O13 0.952392 0.000000 0.255081
O O14 0.850650 0.054840 0.103893
O O15 0.291343 0.206135 0.869850
O O16 0.023927 0.232492 0.875929
O O17 0.694932 0.000000 0.937735
#
# Coordination Sequence:
#
# PCOD8114720 Si02
#       7
#     8   8   8   8   8   8   8
#     4  11  22  36  60  88 118 155 193 239 287 345
#     4  11  22  39  59  83 113 153 202 244 281 338
#     4  12  24  36  55  86 121 152 190 237 295 349
#     4   9  18  36  63  89 111 146 193 241 292 345
#     4  11  22  39  55  80 117 155 199 236 286 342
#     4   9  18  36  62  85 112 147 190 242 292 348
#     4  11  23  37  59  80 113 158 196 241 286 338
#
# _framework density 19.429411999999999
#
# number of rings (size 3 to 8) (size 9 to 14) (size 15 to 20)
#    0.000    1.429    1.429    7.286    2.000    1.714 
#    0.000    0.000    0.000    0.429    0.000    0.000 
#    0.000    0.000    0.000    0.000    0.000    0.000 
#
# Total GULP energy -347015.276247 kJ/mol
# GULP energy per Si atom -12393.402723 kJ/mol
# Density = 1.938519 g / cm^3
# Si number density = 19.429412 Si / 1000 Ang^3
#
#
#
# Elastic Constant Matrix: (Units=GPa)
#
#
# Indices 1 2 3 4 5 6 
#
# 1 101.0526 50.4952 41.9254 0.0000 3.4123 0.0000
# 2 50.4952 144.7447 49.1714 0.0000 12.1123 0.0000
# 3 41.9254 49.1714 97.8618 -0.0002 13.5052 -0.0001
# 4 0.0000 0.0000 -0.0002 32.8673 -0.0001 4.5953
# 5 3.4123 12.1123 13.5052 -0.0001 28.5453 0.0000
# 6 0.0000 0.0000 -0.0001 4.5953 0.0000 27.7972
#
#
#
# Elastic Compliance Matrix: (Units=1/GPa)
#
#
# Indices 1 2 3 4 5 6 
#
# 1 0.013269 -0.003335 -0.004264 0.000000 0.001846 0.000000
# 2 -0.003335 0.009243 -0.002920 0.000000 -0.002142 0.000000
# 3 -0.004264 -0.002920 0.014198 0.000000 -0.004969 0.000000
# 4 0.000000 0.000000 0.000000 0.031145 0.000000 -0.005149
# 5 0.001846 -0.002142 -0.004969 0.000000 0.038071 0.000000
# 6 0.000000 0.000000 0.000000 -0.005149 0.000000 0.036826
#
#
# Mechanical properties :
#
#
# Convention : Reuss Voigt Hill
#
# Bulk Modulus (GPa) = 63.80471 69.64923 66.72697
# Shear Modulus (GPa) = 29.58333 31.31311 30.44822
#
# Velocity S-wave (km/s) = 3.90629 4.01887 3.96298
# Velocity P-wave (km/s) = 7.29767 7.58025 7.44030
#
# Compressibility (1/GPa) = 0.01567282
#
# Stress axis : x y z
#
# Youngs Moduli (GPa) = 75.36406 108.18566 70.43264
#
# Poissons Ratio (x) = 0.36080 0.30030
# Poissons Ratio (y) = 0.25134 0.20567
# Poissons Ratio (z) = 0.32133 0.31591
#
# Static dielectric constant tensor:
#      x y z
#    x 3.403560 0.000000 0.106810 
#    y 0.000000 3.689580 0.000000 
#    z 0.106810 0.000000 3.449040 
# 
# 
# High freq. dielectric constant tensor:
#      x y z
#    x 1.744470 0.000000 0.012160 
#    y 0.000000 1.768050 0.000000 
#    z 0.012160 0.000000 1.748160 
# 
# From -- ./inp_files/178670.got.cif
#   From: 2010.06.25/outbox.cif.g09.slc.cpg/sg12_90_cif.got.tgz:178670.got - 2010.06.28 00:19:55.
