data_PCOD8114672
_publ_section_title
;
Structure prediction by ZEFSAII (Michael W. Deem and Ramdas Pophale) SiO2 
 PCOD8114672
Probable space group: C 2/M
;
_chemical_formula_sum "Si O2"
_cell_formula_units_Z 64
_cell_length_a 24.498372
_cell_length_b 23.715759
_cell_length_c 12.234894
_cell_angle_alpha 90.000000
_cell_angle_beta 153.872423
_cell_angle_gamma 90.000000
_cell_volume 3130.354476
_symmetry_space_group_name_H-M "C 2/M"
_symmetry_group_IT_number 12
_symmetry_cell_setting 'monoclinic'
loop_
_space_group_symop_operation_xyz
x,y,z
-x,y,-z
-x,-y,-z
x,-y,z
1/2+x,1/2+y,z
1/2-x,1/2+y,-z
1/2-x,1/2-y,-z
1/2+x,1/2-y,z
loop_
_atom_site_type_symbol
_atom_site_label
_atom_site_fract_x
_atom_site_fract_y
_atom_site_fract_z
Si Si1 0.319969 0.379514 0.004122
Si Si2 0.962241 0.228579 0.309602
Si Si3 0.806880 0.218069 0.426804
Si Si4 0.433020 0.435006 0.620858
Si Si5 0.905076 0.338485 0.079327
Si Si6 0.684259 0.152991 0.554087
Si Si7 0.368766 0.365430 0.706121
Si Si8 0.254834 0.064855 0.909007
O O1 0.353829 0.317735 0.110541
O O2 0.434849 0.405372 0.145920
O O3 0.281786 0.420557 0.033245
O O4 0.208141 0.374043 0.716249
O O5 0.909339 0.287645 0.172892
O O6 0.000000 0.239408 0.500000
O O7 0.080889 0.207136 0.455435
O O8 0.765825 0.282794 0.355122
O O9 0.852359 0.197850 0.628189
O O10 0.690591 0.178791 0.186730
O O11 0.452793 0.500000 0.681751
O O12 0.355690 0.409100 0.582343
O O13 0.363588 0.425203 0.381266
O O14 0.038889 0.349102 0.265446
O O15 0.866981 0.395711 0.072066
O O16 0.760188 0.120195 0.597179
O O17 0.500000 0.370865 0.000000
O O18 0.299054 0.000000 0.983118
#
# Coordination Sequence:
#
# PCOD8114672 Si02
#       8
#     8   8   8   8   8   8   8   8
#     4  12  21  42  66 100 133 164 212 274 332 387
#     4  11  22  35  66  99 132 167 209 274 333 389
#     4  11  22  43  62  95 133 179 207 266 324 394
#     4  11  23  43  70  97 127 168 222 275 330 383
#     4  11  24  42  63  95 133 174 218 256 323 397
#     4  11  26  40  64  98 134 172 222 259 325 388
#     4  12  23  44  67  95 133 168 216 275 322 378
#     4  11  25  44  68  95 129 174 219 266 324 397
#
# _framework density 20.444969
#
# number of rings (size 3 to 8) (size 9 to 14) (size 15 to 20)
#    0.000    0.750    5.000    2.625    5.250    2.750 
#    0.000    2.500    0.000    1.500    0.000    0.000 
#    0.000    0.000    0.000    0.000    0.000    0.000 
#
# Total GULP energy -396968.110151 kJ/mol
# GULP energy per Si atom -12405.253442 kJ/mol
# Density = 2.039844 g / cm^3
# Si number density = 20.444969 Si / 1000 Ang^3
#
#
#
# Elastic Constant Matrix: (Units=GPa)
#
#
# Indices 1 2 3 4 5 6 
#
# 1 85.5730 32.7302 25.3606 0.0000 -4.4513 0.0000
# 2 32.7302 109.0624 36.6233 0.0000 5.6955 0.0000
# 3 25.3606 36.6233 77.2035 0.0000 2.6872 0.0000
# 4 0.0000 0.0000 0.0000 27.1703 0.0000 -1.9583
# 5 -4.4513 5.6955 2.6872 0.0000 35.5404 0.0000
# 6 0.0000 0.0000 0.0000 -1.9583 0.0000 23.0370
#
#
#
# Elastic Compliance Matrix: (Units=1/GPa)
#
#
# Indices 1 2 3 4 5 6 
#
# 1 0.013999 -0.003282 -0.003129 0.000000 0.002516 0.000000
# 2 -0.003282 0.011742 -0.004424 0.000000 -0.001958 0.000000
# 3 -0.003129 -0.004424 0.016111 0.000000 -0.000901 0.000000
# 4 0.000000 0.000000 0.000000 0.037032 0.000000 0.003148
# 5 0.002516 -0.001958 -0.000901 0.000000 0.028834 0.000000
# 6 0.000000 0.000000 0.000000 0.003148 0.000000 0.043676
#
#
# Mechanical properties :
#
#
# Convention : Reuss Voigt Hill
#
# Bulk Modulus (GPa) = 49.54964 51.25192 50.40078
# Shear Modulus (GPa) = 27.81005 28.95786 28.38395
#
# Velocity S-wave (km/s) = 3.69214 3.76757 3.73005
# Velocity P-wave (km/s) = 6.51645 6.63692 6.57696
#
# Compressibility (1/GPa) = 0.02018178
#
# Stress axis : x y z
#
# Youngs Moduli (GPa) = 71.43118 85.16638 62.07074
#
# Poissons Ratio (x) = 0.27950 0.19425
# Poissons Ratio (y) = 0.23442 0.27459
# Poissons Ratio (z) = 0.22354 0.37676
#
# Static dielectric constant tensor:
#      x y z
#    x 3.742170 0.000000 -0.056690 
#    y 0.000000 3.767110 0.000000 
#    z -0.056690 0.000000 3.698720 
# 
# 
# High freq. dielectric constant tensor:
#      x y z
#    x 1.800220 0.000000 -0.007530 
#    y 0.000000 1.793840 0.000000 
#    z -0.007530 0.000000 1.799330 
# 
# From -- ./inp_files/178425.got.cif
#   From: 2010.06.25/outbox.cif.g09.slc.cpg/sg12_90_cif.got.tgz:178425.got - 2010.06.28 00:19:55.
