data_PCOD8114118
_publ_section_title
;
Structure prediction by ZEFSAII (Michael W. Deem and Ramdas Pophale) SiO2 
 PCOD8114118
Probable space group: C 2/M
;
_chemical_formula_sum "Si O2"
_cell_formula_units_Z 36
_cell_length_a 5.145312
_cell_length_b 33.317523
_cell_length_c 12.115709
_cell_angle_alpha 90.000000
_cell_angle_beta 101.221277
_cell_angle_gamma 90.000000
_cell_volume 2037.278695
_symmetry_space_group_name_H-M "C 2/M"
_symmetry_group_IT_number 12
_symmetry_cell_setting 'monoclinic'
loop_
_space_group_symop_operation_xyz
x,y,z
-x,y,-z
-x,-y,-z
x,-y,z
1/2+x,1/2+y,z
1/2-x,1/2+y,-z
1/2-x,1/2-y,-z
1/2+x,1/2-y,z
loop_
_atom_site_type_symbol
_atom_site_label
_atom_site_fract_x
_atom_site_fract_y
_atom_site_fract_z
Si Si1 0.629871 0.267917 0.625290
Si Si2 0.273821 0.143576 0.574193
Si Si3 0.550772 0.453671 0.133118
Si Si4 0.114594 0.426977 0.257460
Si Si5 0.215153 0.500000 0.424009
O O1 0.500000 0.251491 0.500000
O O2 0.381165 0.259101 0.686573
O O3 0.710080 0.314127 0.625877
O O4 0.500000 0.147735 0.500000
O O5 0.375739 0.115504 0.680586
O O6 0.000000 0.126271 0.500000
O O7 0.550614 0.500000 0.173342
O O8 0.323538 0.428769 0.175522
O O9 0.826992 0.433001 0.182754
O O10 0.500000 0.451212 0.000000
O O11 0.182222 0.460485 0.350968
O O12 0.500000 0.500000 0.500000
O O13 0.000000 0.500000 0.500000
#
# Coordination Sequence:
#
# PCOD8114118 Si02
#       5
#     8   8   8   8   4
#     4   9  16  28  47  69  98 137 174 203 239 286
#     4  11  21  33  49  75 110 143 170 204 244 297
#     4  11  22  39  58  75  94 126 175 228 273 300
#     4  12  22  37  53  76 103 135 173 210 256 304
#     4  12  22  34  49  70 103 142 172 192 228 298
#
# _framework density 17.670631
#
# number of rings (size 3 to 8) (size 9 to 14) (size 15 to 20)
#    0.000    1.111    2.222    8.000    0.000    1.778 
#    0.000    0.000    0.000    0.000    0.000    0.000 
#    0.000   17.778    0.000    0.000    0.000    0.000 
#
# Total GULP energy -223170.595248 kJ/mol
# GULP energy per Si atom -12398.366403 kJ/mol
# Density = 1.763041 g / cm^3
# Si number density = 17.670631 Si / 1000 Ang^3
#
#
#
# Elastic Constant Matrix: (Units=GPa)
#
#
# Indices 1 2 3 4 5 6 
#
# 1 178.2989 54.9776 48.7081 0.0000 17.6034 0.0000
# 2 54.9776 113.0499 42.0918 0.0000 5.4403 0.0000
# 3 48.7081 42.0918 67.5426 0.0000 11.2887 0.0000
# 4 0.0000 0.0000 0.0000 40.4666 0.0000 13.1657
# 5 17.6034 5.4403 11.2887 0.0000 37.4570 0.0000
# 6 0.0000 0.0000 0.0000 13.1657 0.0000 37.4899
#
#
#
# Elastic Compliance Matrix: (Units=1/GPa)
#
#
# Indices 1 2 3 4 5 6 
#
# 1 0.007495 -0.002164 -0.003707 0.000000 -0.002091 0.000000
# 2 -0.002164 0.012153 -0.006200 0.000000 0.001121 0.000000
# 3 -0.003707 -0.006200 0.022009 0.000000 -0.003991 0.000000
# 4 0.000000 0.000000 0.000000 0.027899 0.000000 -0.009798
# 5 -0.002091 0.001121 -0.003991 0.000000 0.028720 0.000000
# 6 0.000000 0.000000 0.000000 -0.009798 0.000000 0.030115
#
#
# Mechanical properties :
#
#
# Convention : Reuss Voigt Hill
#
# Bulk Modulus (GPa) = 57.09389 72.27183 64.68286
# Shear Modulus (GPa) = 31.57143 37.29029 34.43086
#
# Velocity S-wave (km/s) = 4.23148 4.59878 4.41895
# Velocity P-wave (km/s) = 7.50027 8.31785 7.91962
#
# Compressibility (1/GPa) = 0.01751501
#
# Stress axis : x y z
#
# Youngs Moduli (GPa) = 133.42370 82.28695 45.43510
#
# Poissons Ratio (x) = 0.17808 0.16842
# Poissons Ratio (y) = 0.28874 0.28170
# Poissons Ratio (z) = 0.49458 0.51018
#
# Static dielectric constant tensor:
#      x y z
#    x 3.923580 0.000000 0.054060 
#    y 0.000000 3.497400 0.000000 
#    z 0.054060 0.000000 2.997730 
# 
# 
# High freq. dielectric constant tensor:
#      x y z
#    x 1.721130 0.000000 0.008220 
#    y 0.000000 1.677150 0.000000 
#    z 0.008220 0.000000 1.639580 
# 
# From -- ./inp_files/115958.got.cif
#   From: 2010.06.25/outbox.cif.g09.slc.cpg/sg12_58_cif.got.tgz:115958.got - 2010.06.28 00:19:55.
