data_PCOD8114831
_publ_section_title
;
Structure prediction by ZEFSAII (Michael W. Deem and Ramdas Pophale) SiO2 
 PCOD8114831
Probable space group: C 2/M
;
_chemical_formula_sum "Si O2"
_cell_formula_units_Z 56
_cell_length_a 18.692216
_cell_length_b 24.311060
_cell_length_c 9.926141
_cell_angle_alpha 90.000000
_cell_angle_beta 143.428592
_cell_angle_gamma 90.000000
_cell_volume 2687.591424
_symmetry_space_group_name_H-M "C 2/M"
_symmetry_group_IT_number 12
_symmetry_cell_setting 'monoclinic'
loop_
_space_group_symop_operation_xyz
x,y,z
-x,y,-z
-x,-y,-z
x,-y,z
1/2+x,1/2+y,z
1/2-x,1/2+y,-z
1/2-x,1/2-y,-z
1/2+x,1/2-y,z
loop_
_atom_site_type_symbol
_atom_site_label
_atom_site_fract_x
_atom_site_fract_y
_atom_site_fract_z
Si Si1 0.017242 0.161674 0.379923
Si Si2 0.864376 0.393882 0.764303
Si Si3 0.677396 0.437088 0.683869
Si Si4 0.251527 0.280848 0.365342
Si Si5 0.911018 0.437451 0.556360
Si Si6 0.162208 0.598669 0.830049
Si Si7 0.272740 0.294897 0.922665
O O1 0.060296 0.098278 0.464189
O O2 0.116447 0.195345 0.450976
O O3 0.000000 0.189410 0.500000
O O4 0.893356 0.168292 0.113532
O O5 0.777910 0.432776 0.720352
O O6 0.843825 0.330621 0.776952
O O7 0.841486 0.404443 0.569879
O O8 0.000000 0.411105 0.000000
O O9 0.637004 0.500000 0.637347
O O10 0.727299 0.414927 0.903028
O O11 0.250000 0.250000 0.500000
O O12 0.220851 0.235682 0.208433
O O13 0.930877 0.500000 0.633198
O O14 0.835447 0.438127 0.302354
O O15 0.039875 0.409175 0.727754
O O16 0.165813 0.661377 0.781152
O O17 0.250000 0.250000 0.000000
#
# Coordination Sequence:
#
# PCOD8114831 Si02
#       7
#     8   8   8   8   8   8   8
#     4  11  23  44  62  96 128 160 218 260 312 398
#     4  11  23  39  62  94 128 163 221 262 318 397
#     4  11  22  41  65  92 129 170 214 268 320 378
#     4  11  26  43  65  95 127 171 213 268 326 378
#     4  11  23  39  62  95 135 167 203 271 338 383
#     4  11  22  38  60  97 128 163 219 260 316 395
#     4  12  24  42  67  91 127 174 212 270 323 375
#
# _framework density 20.836500000000001
#
# number of rings (size 3 to 8) (size 9 to 14) (size 15 to 20)
#    0.000    0.857    4.286    3.857    2.000    3.143 
#    0.000    0.000    0.000    0.000    0.000    5.000 
#    0.000    0.000    0.000    0.000    0.000    0.000 
#
# Total GULP energy -347181.667858 kJ/mol
# GULP energy per Si atom -12399.345281 kJ/mol
# Density = 2.078908 g / cm^3
# Si number density = 20.836500 Si / 1000 Ang^3
#
#
#
# Elastic Constant Matrix: (Units=GPa)
#
#
# Indices 1 2 3 4 5 6 
#
# 1 121.3735 56.4616 36.3212 0.0000 -20.9782 0.0000
# 2 56.4616 155.7147 46.9750 0.0000 -5.5029 0.0000
# 3 36.3212 46.9750 80.2354 0.0000 -10.0089 0.0000
# 4 0.0000 0.0000 0.0000 22.6068 0.0000 -11.6151
# 5 -20.9782 -5.5029 -10.0089 0.0000 39.3568 0.0000
# 6 0.0000 0.0000 0.0000 -11.6151 0.0000 30.8025
#
#
#
# Elastic Compliance Matrix: (Units=1/GPa)
#
#
# Indices 1 2 3 4 5 6 
#
# 1 0.011353 -0.003130 -0.002692 0.000000 0.004929 0.000000
# 2 -0.003130 0.008663 -0.003833 0.000000 -0.001432 0.000000
# 3 -0.002692 -0.003833 0.016194 0.000000 0.002148 0.000000
# 4 0.000000 0.000000 0.000000 0.054864 0.000000 0.020688
# 5 0.004929 -0.001432 0.002148 0.000000 0.028382 0.000000
# 6 0.000000 0.000000 0.000000 0.020688 0.000000 0.040266
#
#
# Mechanical properties :
#
#
# Convention : Reuss Voigt Hill
#
# Bulk Modulus (GPa) = 59.17550 70.75992 64.96771
# Shear Modulus (GPa) = 27.07611 33.05763 30.06687
#
# Velocity S-wave (km/s) = 3.60871 3.98744 3.80279
# Velocity P-wave (km/s) = 6.76944 7.43188 7.10838
#
# Compressibility (1/GPa) = 0.01689888
#
# Stress axis : x y z
#
# Youngs Moduli (GPa) = 88.08570 115.43555 61.75120
#
# Poissons Ratio (x) = 0.36134 0.16621
# Poissons Ratio (y) = 0.27573 0.23672
# Poissons Ratio (z) = 0.23709 0.44251
#
# Static dielectric constant tensor:
#      x y z
#    x 4.017680 0.000000 -0.088400 
#    y 0.000000 4.037170 0.000000 
#    z -0.088400 0.000000 3.601850 
# 
# 
# High freq. dielectric constant tensor:
#      x y z
#    x 1.830790 0.000000 -0.008180 
#    y 0.000000 1.823380 0.000000 
#    z -0.008180 0.000000 1.800540 
# 
# From -- ./inp_files/80109.got.cif
#   From: 2010.06.25/outbox.cif.g09.slc.cpg/sg12_41_cif.got.tgz:80109.got - 2010.06.28 00:19:55.
