data_PCOD8114117
_publ_section_title
;
Structure prediction by ZEFSAII (Michael W. Deem and Ramdas Pophale) SiO2 
 PCOD8114117
Probable space group: C 2/M
;
_chemical_formula_sum "Si O2"
_cell_formula_units_Z 40
_cell_length_a 27.405227
_cell_length_b 9.002062
_cell_length_c 19.039173
_cell_angle_alpha 90.000000
_cell_angle_beta 28.479513
_cell_angle_gamma 90.000000
_cell_volume 2239.753669
_symmetry_space_group_name_H-M "C 2/M"
_symmetry_group_IT_number 12
_symmetry_cell_setting 'monoclinic'
loop_
_space_group_symop_operation_xyz
x,y,z
-x,y,-z
-x,-y,-z
x,-y,z
1/2+x,1/2+y,z
1/2-x,1/2+y,-z
1/2-x,1/2-y,-z
1/2+x,1/2-y,z
loop_
_atom_site_type_symbol
_atom_site_label
_atom_site_fract_x
_atom_site_fract_y
_atom_site_fract_z
Si Si1 0.734296 0.176875 0.945122
Si Si2 0.118335 0.674297 0.349215
Si Si3 0.573266 0.333616 0.059381
Si Si4 0.273366 0.663680 0.264301
Si Si5 0.421751 0.833879 0.163448
O O1 0.827903 0.227096 0.777756
O O2 0.732253 0.000000 0.953486
O O3 0.750000 0.250000 0.000000
O O4 0.625436 0.232765 0.052944
O O5 0.137129 0.500000 0.308624
O O6 0.165180 0.713625 0.366969
O O7 0.000000 0.716331 0.500000
O O8 0.554352 0.500000 0.112341
O O9 0.464831 0.262986 0.173588
O O10 0.645840 0.339130 0.900634
O O11 0.263987 0.500000 0.309641
O O12 0.311365 0.772896 0.277626
O O13 0.405382 0.000000 0.211711
O O14 0.500000 0.829720 0.000000
#
# Coordination Sequence:
#
# PCOD8114117 Si02
#       5
#     8   8   8   8   8
#     4  11  21  33  49  70  97 127 161 198 237 281
#     4   9  18  33  51  71  97 128 161 197 238 282
#     4   9  16  27  42  61  87 118 152 190 234 280
#     4   8  14  24  39  60  87 119 151 185 228 276
#     4   9  15  22  35  58  87 117 148 185 230 276
#
# _framework density 17.859106000000001
#
# number of rings (size 3 to 8) (size 9 to 14) (size 15 to 20)
#    0.000    2.800    0.000    4.200    0.000    7.600 
#    0.000    0.000    0.000    0.000    0.000    1.400 
#    0.000    0.000    0.000    0.000    0.000    0.000 
#
# Total GULP energy -247906.980707 kJ/mol
# GULP energy per Si atom -12395.349035 kJ/mol
# Density = 1.781846 g / cm^3
# Si number density = 17.859106 Si / 1000 Ang^3
#
#
#
# Elastic Constant Matrix: (Units=GPa)
#
#
# Indices 1 2 3 4 5 6 
#
# 1 156.0108 83.9339 46.4241 0.0016 -34.3241 -0.0006
# 2 83.9339 154.5095 33.3336 0.0010 -13.4405 -0.0013
# 3 46.4241 33.3336 31.1277 -0.0014 -18.5006 0.0000
# 4 0.0016 0.0010 -0.0014 14.3771 -0.0001 -2.7463
# 5 -34.3241 -13.4405 -18.5006 -0.0001 28.3827 0.0002
# 6 -0.0006 -0.0013 0.0000 -2.7463 0.0002 35.8138
#
#
#
# Elastic Compliance Matrix: (Units=1/GPa)
#
#
# Indices 1 2 3 4 5 6 
#
# 1 0.013772 -0.004338 -0.011780 -0.000002 0.006922 0.000000
# 2 -0.004338 0.009951 -0.007353 -0.000001 -0.005326 0.000000
# 3 -0.011780 -0.007353 0.076776 0.000009 0.032316 0.000000
# 4 -0.000002 -0.000001 0.000009 0.070589 0.000003 0.005413
# 5 0.006922 -0.005326 0.032316 0.000003 0.062146 0.000000
# 6 0.000000 0.000000 0.000000 0.005413 0.000000 0.028337
#
#
# Mechanical properties :
#
#
# Convention : Reuss Voigt Hill
#
# Bulk Modulus (GPa) = 18.67160 74.33682 46.50421
# Shear Modulus (GPa) = 15.32021 27.57847 21.44934
#
# Velocity S-wave (km/s) = 2.93206 3.93393 3.46935
# Velocity P-wave (km/s) = 4.68405 7.89612 6.49188
#
# Compressibility (1/GPa) = 0.05355728
#
# Stress axis : x y z
#
# Youngs Moduli (GPa) = 72.61185 100.48800 13.02491
#
# Poissons Ratio (x) = 0.43588 0.15344
# Poissons Ratio (y) = 0.31497 0.09577
# Poissons Ratio (z) = 0.85540 0.73888
#
# Static dielectric constant tensor:
#      x y z
#    x 3.650840 0.000000 -0.398990 
#    y 0.000000 3.479270 0.000000 
#    z -0.398990 0.000000 2.771560 
# 
# 
# High freq. dielectric constant tensor:
#      x y z
#    x 1.705360 0.000000 -0.031980 
#    y 0.000000 1.700530 0.000000 
#    z -0.031980 0.000000 1.616730 
# 
# From -- ./inp_files/162736.got.cif
#   From: 2010.06.25/outbox.cif.g09.slc.cpg/sg12_82_cif.got.tgz:162736.got - 2010.06.28 00:19:55.
