data_PCOD8114482
_publ_section_title
;
Structure prediction by ZEFSAII (Michael W. Deem and Ramdas Pophale) SiO2 
 PCOD8114482
Probable space group: C 2/M
;
_chemical_formula_sum "Si O2"
_cell_formula_units_Z 56
_cell_length_a 15.498086
_cell_length_b 17.309831
_cell_length_c 20.068963
_cell_angle_alpha 90.000000
_cell_angle_beta 150.837260
_cell_angle_gamma 90.000000
_cell_volume 2623.523790
_symmetry_space_group_name_H-M "C 2/M"
_symmetry_group_IT_number 12
_symmetry_cell_setting 'monoclinic'
loop_
_space_group_symop_operation_xyz
x,y,z
-x,y,-z
-x,-y,-z
x,-y,z
1/2+x,1/2+y,z
1/2-x,1/2+y,-z
1/2-x,1/2-y,-z
1/2+x,1/2-y,z
loop_
_atom_site_type_symbol
_atom_site_label
_atom_site_fract_x
_atom_site_fract_y
_atom_site_fract_z
Si Si1 0.047624 0.329941 0.627817
Si Si2 0.746728 0.089176 0.647243
Si Si3 0.398850 0.815836 0.180121
Si Si4 0.126454 0.850196 0.892472
Si Si5 0.726531 0.910050 0.351235
Si Si6 0.685556 0.910517 0.097211
Si Si7 0.432229 0.347898 0.365588
O O1 0.193661 0.374766 0.682825
O O2 0.097498 0.334866 0.739055
O O3 0.043750 0.241632 0.601414
O O4 0.855607 0.367159 0.482133
O O5 0.956906 0.094935 0.781397
O O6 0.691041 0.000000 0.607701
O O7 0.436032 0.727027 0.187628
O O8 0.547534 0.865477 0.244397
O O9 0.204105 0.835290 0.018879
O O10 0.288322 0.893782 0.963295
O O11 0.800258 0.887599 0.328802
O O12 0.876224 0.888527 0.506291
O O13 0.683237 0.000000 0.324341
O O14 0.846069 0.861222 0.236089
O O15 0.703183 0.000000 0.127257
O O16 0.500000 0.878051 0.000000
#
# Coordination Sequence:
#
# PCOD8114482 Si02
#       7
#     8   8   8   8   8   8   8
#     4  11  23  44  69  97 128 176 223 276 329 383
#     4  11  25  45  69  97 134 175 225 281 329 392
#     4  11  25  43  65  98 129 175 221 274 327 392
#     4  11  24  45  66  96 132 174 223 271 327 398
#     4  11  23  38  62  95 134 167 212 274 327 388
#     4  11  23  39  63  95 133 172 211 264 331 394
#     4  11  21  40  64  94 127 173 220 264 326 397
#
# _framework density 21.345338000000002
#
# number of rings (size 3 to 8) (size 9 to 14) (size 15 to 20)
#    0.000    1.000    1.429    7.286    2.000    6.286 
#    0.000    0.714    0.000    0.000    0.000    0.000 
#    0.000    0.000    0.000    0.000    0.000    0.000 
#
# Total GULP energy -347225.236976 kJ/mol
# GULP energy per Si atom -12400.901321 kJ/mol
# Density = 2.129675 g / cm^3
# Si number density = 21.345338 Si / 1000 Ang^3
#
#
#
# Elastic Constant Matrix: (Units=GPa)
#
#
# Indices 1 2 3 4 5 6 
#
# 1 79.9623 29.7942 67.3852 -0.0021 -0.8690 0.0067
# 2 29.7942 132.6801 42.9256 0.0386 7.6538 0.0020
# 3 67.3852 42.9256 111.5560 0.0517 -8.8677 0.0033
# 4 -0.0021 0.0386 0.0517 26.3980 0.0084 10.0361
# 5 -0.8690 7.6538 -8.8677 0.0084 44.5093 -0.0026
# 6 0.0067 0.0020 0.0033 10.0361 -0.0026 28.0929
#
#
#
# Elastic Compliance Matrix: (Units=1/GPa)
#
#
# Indices 1 2 3 4 5 6 
#
# 1 0.025818 -0.000622 -0.015554 0.000042 -0.002488 -0.000019
# 2 -0.000622 0.008836 -0.003197 -0.000007 -0.002168 0.000002
# 3 -0.015554 -0.003197 0.019924 -0.000044 0.004216 0.000018
# 4 0.000042 -0.000007 -0.000044 0.043835 -0.000016 -0.015660
# 5 -0.002488 -0.002168 0.004216 -0.000016 0.023631 0.000008
# 6 -0.000019 0.000002 0.000018 -0.015660 0.000008 0.041191
#
#
# Mechanical properties :
#
#
# Convention : Reuss Voigt Hill
#
# Bulk Modulus (GPa) = 63.15685 67.15649 65.15667
# Shear Modulus (GPa) = 24.12452 32.07293 28.09872
#
# Velocity S-wave (km/s) = 3.36549 3.88051 3.63214
# Velocity P-wave (km/s) = 6.68987 7.18387 6.94127
#
# Compressibility (1/GPa) = 0.01583360
#
# Stress axis : x y z
#
# Youngs Moduli (GPa) = 38.73289 113.17495 50.18975
#
# Poissons Ratio (x) = 0.07040 0.78063
# Poissons Ratio (y) = 0.02409 0.16044
# Poissons Ratio (z) = 0.60244 0.36177
#
# Static dielectric constant tensor:
#      x y z
#    x 3.767050 -0.000010 -0.079540 
#    y -0.000010 3.863650 -0.000020 
#    z -0.079540 -0.000020 3.929790 
# 
# 
# High freq. dielectric constant tensor:
#      x y z
#    x 1.832340 0.000000 -0.003450 
#    y 0.000000 1.846320 0.000000 
#    z -0.003450 0.000000 1.846250 
# 
# From -- ./inp_files/311765.got.cif
#   From: 2010.06.25/outbox.cif.g09.slc.cpg/sg12_156_cif.got.tgz:311765.got - 2010.06.28 00:19:55.
