data_PCOD8114276
_publ_section_title
;
Structure prediction by ZEFSAII (Michael W. Deem and Ramdas Pophale) SiO2 
 PCOD8114276
Probable space group: C 2/M
;
_chemical_formula_sum "Si O2"
_cell_formula_units_Z 48
_cell_length_a 29.838030
_cell_length_b 8.779904
_cell_length_c 9.595846
_cell_angle_alpha 90.000000
_cell_angle_beta 99.440074
_cell_angle_gamma 90.000000
_cell_volume 2479.828485
_symmetry_space_group_name_H-M "C 2/M"
_symmetry_group_IT_number 12
_symmetry_cell_setting 'monoclinic'
loop_
_space_group_symop_operation_xyz
x,y,z
-x,y,-z
-x,-y,-z
x,-y,z
1/2+x,1/2+y,z
1/2-x,1/2+y,-z
1/2-x,1/2-y,-z
1/2+x,1/2-y,z
loop_
_atom_site_type_symbol
_atom_site_label
_atom_site_fract_x
_atom_site_fract_y
_atom_site_fract_z
Si Si1 0.542306 0.681309 0.613572
Si Si2 0.542687 0.318639 0.931374
Si Si3 0.772129 0.820994 0.878505
Si Si4 0.222454 0.822982 0.607973
Si Si5 0.378734 0.323825 0.538210
Si Si6 0.128359 0.181783 0.153875
O O1 0.500000 0.736894 0.500000
O O2 0.544164 0.500000 0.624564
O O3 0.540296 0.745687 0.771392
O O4 0.585686 0.749036 0.552700
O O5 0.541684 0.500000 0.928404
O O6 0.500000 0.257299 0.000000
O O7 0.589142 0.261229 0.028585
O O8 0.735859 0.775788 0.745555
O O9 0.822734 0.755801 0.873300
O O10 0.775349 0.000000 0.896348
O O11 0.750000 0.750000 0.000000
O O12 0.250000 0.750000 0.500000
O O13 0.169791 0.798932 0.554141
O O14 0.234726 0.000000 0.633651
O O15 0.391081 0.500000 0.561034
O O16 0.381265 0.252206 0.695281
O O17 0.130034 0.000000 0.161346
#
# Coordination Sequence:
#
# PCOD8114276 Si02
#       6
#     8   8   8   8   8   8
#     4   9  16  25  40  64  95 131 171 214 265 324
#     4   9  16  25  40  63  95 134 171 211 265 325
#     4  11  23  38  55  79 111 148 187 230 276 326
#     4  11  21  36  57  81 111 148 187 228 273 325
#     4   9  17  29  46  69  99 135 173 217 269 320
#     4   9  17  30  46  67  99 136 173 216 270 323
#
# _framework density 19.356178
#
# number of rings (size 3 to 8) (size 9 to 14) (size 15 to 20)
#    0.000    2.333    1.667    2.000    2.333    4.000 
#    0.000    0.000    0.000    0.000    0.000    0.000 
#    0.000    8.000    0.000    0.000    0.000    0.000 
#
# Total GULP energy -297454.196638 kJ/mol
# GULP energy per Si atom -12393.924860 kJ/mol
# Density = 1.931212 g / cm^3
# Si number density = 19.356178 Si / 1000 Ang^3
#
#
#
# Elastic Constant Matrix: (Units=GPa)
#
#
# Indices 1 2 3 4 5 6 
#
# 1 139.3880 24.3829 90.1806 0.0000 -22.7344 0.0000
# 2 24.3829 17.7892 14.7103 0.0000 -1.7124 0.0000
# 3 90.1806 14.7103 198.2552 0.0000 -17.2600 0.0000
# 4 0.0000 0.0000 0.0000 21.2602 0.0000 -0.0610
# 5 -22.7344 -1.7124 -17.2600 0.0000 39.5977 0.0000
# 6 0.0000 0.0000 0.0000 -0.0610 0.0000 17.5957
#
#
#
# Elastic Compliance Matrix: (Units=1/GPa)
#
#
# Indices 1 2 3 4 5 6 
#
# 1 0.013485 -0.014155 -0.004639 0.000000 0.005108 0.000000
# 2 -0.014155 0.074765 0.000484 0.000000 -0.004683 0.000000
# 3 -0.004639 0.000484 0.007160 0.000000 0.000478 0.000000
# 4 0.000000 0.000000 0.000000 0.047037 0.000000 0.000163
# 5 0.005108 -0.004683 0.000478 0.000000 0.028193 0.000000
# 6 0.000000 0.000000 0.000000 0.000163 0.000000 0.056833
#
#
# Mechanical properties :
#
#
# Convention : Reuss Voigt Hill
#
# Bulk Modulus (GPa) = 17.01000 68.22001 42.61500
# Shear Modulus (GPa) = 17.62492 30.76795 24.19644
#
# Velocity S-wave (km/s) = 3.02082 3.99126 3.53946
# Velocity P-wave (km/s) = 4.57975 7.52073 6.22637
#
# Compressibility (1/GPa) = 0.05878896
#
# Stress axis : x y z
#
# Youngs Moduli (GPa) = 74.15831 13.37517 139.66822
#
# Poissons Ratio (x) = 0.18933 0.64789
# Poissons Ratio (y) = 1.04973 -0.06755
# Poissons Ratio (z) = 0.34400 -0.00647
#
# Static dielectric constant tensor:
#      x y z
#    x 4.175080 0.000000 -0.321530 
#    y 0.000000 2.944210 0.000000 
#    z -0.321530 0.000000 3.955920 
# 
# 
# High freq. dielectric constant tensor:
#      x y z
#    x 1.770960 0.000000 -0.002600 
#    y 0.000000 1.677440 0.000000 
#    z -0.002600 0.000000 1.775430 
# 
# From -- ./inp_files/108748.got.cif
#   From: 2010.06.25/outbox.cif.g09.slc.cpg/sg12_55_cif.got.tgz:108748.got - 2010.06.28 00:19:55.
