data_PCOD8114187
_publ_section_title
;
Structure prediction by ZEFSAII (Michael W. Deem and Ramdas Pophale) SiO2 
 PCOD8114187
Probable space group: C 2/M
;
_chemical_formula_sum "Si O2"
_cell_formula_units_Z 48
_cell_length_a 19.033357
_cell_length_b 8.830278
_cell_length_c 15.724730
_cell_angle_alpha 90.000000
_cell_angle_beta 77.224623
_cell_angle_gamma 90.000000
_cell_volume 2577.427547
_symmetry_space_group_name_H-M "C 2/M"
_symmetry_group_IT_number 12
_symmetry_cell_setting 'monoclinic'
loop_
_space_group_symop_operation_xyz
x,y,z
-x,y,-z
-x,-y,-z
x,-y,z
1/2+x,1/2+y,z
1/2-x,1/2+y,-z
1/2-x,1/2-y,-z
1/2+x,1/2-y,z
loop_
_atom_site_type_symbol
_atom_site_label
_atom_site_fract_x
_atom_site_fract_y
_atom_site_fract_z
Si Si1 0.686359 0.325198 0.464679
Si Si2 0.309510 0.822252 0.717644
Si Si3 0.910428 0.827344 0.356968
Si Si4 0.030937 0.176008 0.902736
Si Si5 0.338698 0.177856 0.221411
Si Si6 0.942347 0.826410 0.760069
O O1 0.705383 0.500000 0.442873
O O2 0.750000 0.250000 0.500000
O O3 0.673614 0.243921 0.379450
O O4 0.612909 0.308151 0.539019
O O5 0.238070 0.752431 0.778278
O O6 0.375628 0.783497 0.761820
O O7 0.299735 0.000000 0.712279
O O8 0.861550 0.720889 0.311040
O O9 0.994548 0.786839 0.324596
O O10 0.897958 0.000000 0.328308
O O11 0.103708 0.265785 0.862854
O O12 0.971094 0.205625 0.846968
O O13 0.051110 0.000000 0.902842
O O14 0.000000 0.236771 0.000000
O O15 0.330624 0.000000 0.216255
O O16 0.917304 0.000000 0.756039
#
# Coordination Sequence:
#
# PCOD8114187 Si02
#       6
#     8   8   8   8   8   8
#     4  11  21  34  55  82 111 148 193 238 279 326
#     4  12  24  37  53  78 115 154 191 234 281 326
#     4   9  19  36  57  79 109 148 189 232 280 334
#     4   9  19  39  66  90 113 143 178 221 278 344
#     4  11  21  34  57  84 112 146 187 232 276 330
#     4   9  19  37  58  82 112 145 183 227 279 335
#
# _framework density 18.62322
#
# number of rings (size 3 to 8) (size 9 to 14) (size 15 to 20)
#    0.000    1.833    1.667    4.500    0.000    4.333 
#    0.000    4.167    0.000    0.000    0.000    0.000 
#    0.000    0.000    0.000    0.000    0.000    0.000 
#
# Total GULP energy -297675.080528 kJ/mol
# GULP energy per Si atom -12403.128355 kJ/mol
# Density = 1.858083 g / cm^3
# Si number density = 18.623220 Si / 1000 Ang^3
#
#
#
# Elastic Constant Matrix: (Units=GPa)
#
#
# Indices 1 2 3 4 5 6 
#
# 1 128.3413 65.5872 54.3335 0.0000 -7.3697 0.0000
# 2 65.5872 133.6402 46.8705 0.0000 -7.9285 0.0000
# 3 54.3335 46.8705 105.4000 0.0000 -16.9013 0.0000
# 4 0.0000 0.0000 0.0000 25.8586 0.0000 0.6673
# 5 -7.3697 -7.9285 -16.9013 0.0000 22.8941 0.0000
# 6 0.0000 0.0000 0.0000 0.6673 0.0000 33.3607
#
#
#
# Elastic Compliance Matrix: (Units=1/GPa)
#
#
# Indices 1 2 3 4 5 6 
#
# 1 0.011764 -0.004323 -0.004281 0.000000 -0.000871 0.000000
# 2 -0.004323 0.010455 -0.002340 0.000000 0.000501 0.000000
# 3 -0.004281 -0.002340 0.014047 0.000000 0.008182 0.000000
# 4 0.000000 0.000000 0.000000 0.038692 0.000000 -0.000774
# 5 -0.000871 0.000501 0.008182 0.000000 0.049613 0.000000
# 6 0.000000 0.000000 0.000000 -0.000774 0.000000 0.029991
#
#
# Mechanical properties :
#
#
# Convention : Reuss Voigt Hill
#
# Bulk Modulus (GPa) = 69.55887 77.88489 73.72188
# Shear Modulus (GPa) = 27.58728 29.79536 28.69132
#
# Velocity S-wave (km/s) = 3.85299 4.00422 3.92933
# Velocity P-wave (km/s) = 7.56477 7.95554 7.76261
#
# Compressibility (1/GPa) = 0.01437631
#
# Stress axis : x y z
#
# Youngs Moduli (GPa) = 85.00794 95.64696 71.18838
#
# Poissons Ratio (x) = 0.41352 0.30477
# Poissons Ratio (y) = 0.36753 0.16659
# Poissons Ratio (z) = 0.36394 0.22383
#
# Static dielectric constant tensor:
#      x y z
#    x 3.409130 0.000000 -0.241370 
#    y 0.000000 3.413930 0.000000 
#    z -0.241370 0.000000 3.472920 
# 
# 
# High freq. dielectric constant tensor:
#      x y z
#    x 1.723080 0.000000 -0.015380 
#    y 0.000000 1.724790 0.000000 
#    z -0.015380 0.000000 1.709930 
# 
# From -- ./inp_files/221597.got.cif
#   From: 2010.06.25/outbox.cif.g09.slc.cpg/sg12_111_cif.got.tgz:221597.got - 2010.06.28 00:19:55.
