data_PCOD8114618
_publ_section_title
;
Structure prediction by ZEFSAII (Michael W. Deem and Ramdas Pophale) SiO2 
 PCOD8114618
Probable space group: C 2/M
;
_chemical_formula_sum "Si O2"
_cell_formula_units_Z 56
_cell_length_a 32.541704
_cell_length_b 9.019256
_cell_length_c 12.500653
_cell_angle_alpha 90.000000
_cell_angle_beta 123.475349
_cell_angle_gamma 90.000000
_cell_volume 3060.369821
_symmetry_space_group_name_H-M "C 2/M"
_symmetry_group_IT_number 12
_symmetry_cell_setting 'monoclinic'
loop_
_space_group_symop_operation_xyz
x,y,z
-x,y,-z
-x,-y,-z
x,-y,z
1/2+x,1/2+y,z
1/2-x,1/2+y,-z
1/2-x,1/2-y,-z
1/2+x,1/2-y,z
loop_
_atom_site_type_symbol
_atom_site_label
_atom_site_fract_x
_atom_site_fract_y
_atom_site_fract_z
Si Si1 0.149557 0.830250 0.747362
Si Si2 0.935296 0.824341 0.007844
Si Si3 0.043875 0.824954 0.198161
Si Si4 0.755224 0.328937 0.815469
Si Si5 0.225884 0.324331 0.566739
Si Si6 0.625717 0.326476 0.476932
Si Si7 0.360713 0.171331 0.056611
O O1 0.206976 0.788605 0.815013
O O2 0.119664 0.797847 0.594972
O O3 0.125741 0.732452 0.806761
O O4 0.143778 0.000000 0.773749
O O5 0.932147 0.771542 0.879510
O O6 0.929630 0.000000 0.010350
O O7 0.891365 0.749689 0.008434
O O8 0.987823 0.767774 0.130621
O O9 0.076449 0.771777 0.345591
O O10 0.041298 0.000000 0.189407
O O11 0.752167 0.500000 0.773245
O O12 0.757339 0.225105 0.714761
O O13 0.803068 0.297408 0.954809
O O14 0.227263 0.500000 0.557736
O O15 0.250000 0.250000 0.500000
O O16 0.170018 0.269528 0.494427
O O17 0.636756 0.500000 0.471249
O O18 0.373898 0.000000 0.072292
#
# Coordination Sequence:
#
# PCOD8114618 Si02
#       7
#     8   8   8   8   8   8   8
#     4   9  18  34  54  75 103 140 180 220 260 316
#     4   9  18  34  56  82 106 134 176 218 262 322
#     4   8  16  34  59  81 104 134 173 220 265 316
#     4   9  20  37  53  74 105 140 179 221 262 310
#     4  11  22  34  50  76 109 142 176 214 256 312
#     4   9  18  35  57  79 104 137 176 219 269 313
#     4  11  22  34  52  78 110 140 175 224 269 311
#
# _framework density 18.298442000000001
#
# number of rings (size 3 to 8) (size 9 to 14) (size 15 to 20)
#    0.000    2.571    0.000    3.857    2.000    3.429 
#    0.000    2.857    0.000    4.286    0.000    0.000 
#    0.000    0.000    0.000    0.000    0.000    0.000 
#
# Total GULP energy -347164.267630 kJ/mol
# GULP energy per Si atom -12398.723844 kJ/mol
# Density = 1.825679 g / cm^3
# Si number density = 18.298442 Si / 1000 Ang^3
#
#
#
# Elastic Constant Matrix: (Units=GPa)
#
#
# Indices 1 2 3 4 5 6 
#
# 1 67.2363 26.7369 38.8552 0.0000 -8.2451 0.0000
# 2 26.7369 71.8409 32.5859 0.0000 -6.2350 0.0000
# 3 38.8552 32.5859 115.9228 0.0000 2.7650 0.0000
# 4 0.0000 0.0000 0.0000 20.1966 0.0000 -2.3287
# 5 -8.2451 -6.2350 2.7650 0.0000 21.2638 0.0000
# 6 0.0000 0.0000 0.0000 -2.3287 0.0000 25.1426
#
#
#
# Elastic Compliance Matrix: (Units=1/GPa)
#
#
# Indices 1 2 3 4 5 6 
#
# 1 0.021036 -0.004454 -0.005981 0.000000 0.007628 0.000000
# 2 -0.004454 0.017510 -0.003521 0.000000 0.003865 0.000000
# 3 -0.005981 -0.003521 0.011737 0.000000 -0.004878 0.000000
# 4 0.000000 0.000000 0.000000 0.050048 0.000000 0.004635
# 5 0.007628 0.003865 -0.004878 0.000000 0.051754 0.000000
# 6 0.000000 0.000000 0.000000 0.004635 0.000000 0.040202
#
#
# Mechanical properties :
#
#
# Convention : Reuss Voigt Hill
#
# Bulk Modulus (GPa) = 44.70114 50.15068 47.42591
# Shear Modulus (GPa) = 21.96295 23.77539 22.86917
#
# Velocity S-wave (km/s) = 3.46824 3.60851 3.53907
# Velocity P-wave (km/s) = 6.36555 6.69540 6.53256
#
# Compressibility (1/GPa) = 0.02237080
#
# Stress axis : x y z
#
# Youngs Moduli (GPa) = 47.53817 57.11033 85.19884
#
# Poissons Ratio (x) = 0.25437 0.50955
# Poissons Ratio (y) = 0.21174 0.30001
# Poissons Ratio (z) = 0.28431 0.20110
#
# Static dielectric constant tensor:
#      x y z
#    x 3.353340 0.000000 0.238620 
#    y 0.000000 3.190440 0.000000 
#    z 0.238620 0.000000 4.020520 
# 
# 
# High freq. dielectric constant tensor:
#      x y z
#    x 1.698180 0.000000 -0.005060 
#    y 0.000000 1.692130 0.000000 
#    z -0.005060 0.000000 1.715960 
# 
# From -- ./inp_files/180646.got.cif
#   From: 2010.06.25/outbox.cif.g09.slc.cpg/sg12_91_cif.got.tgz:180646.got - 2010.06.28 00:19:55.
