data_PCOD8114805
_publ_section_title
;
Structure prediction by ZEFSAII (Michael W. Deem and Ramdas Pophale) SiO2 
 PCOD8114805
Probable space group: C 2/M
;
_chemical_formula_sum "Si O2"
_cell_formula_units_Z 56
_cell_length_a 22.840984
_cell_length_b 17.602637
_cell_length_c 21.394215
_cell_angle_alpha 90.000000
_cell_angle_beta 18.945558
_cell_angle_gamma 90.000000
_cell_volume 2792.739979
_symmetry_space_group_name_H-M "C 2/M"
_symmetry_group_IT_number 12
_symmetry_cell_setting 'monoclinic'
loop_
_space_group_symop_operation_xyz
x,y,z
-x,y,-z
-x,-y,-z
x,-y,z
1/2+x,1/2+y,z
1/2-x,1/2+y,-z
1/2-x,1/2-y,-z
1/2+x,1/2-y,z
loop_
_atom_site_type_symbol
_atom_site_label
_atom_site_fract_x
_atom_site_fract_y
_atom_site_fract_z
Si Si1 0.369316 0.412132 0.886698
Si Si2 0.242704 0.839682 0.517726
Si Si3 0.206105 0.912595 0.796401
Si Si4 0.733653 0.171007 0.145502
Si Si5 0.040851 0.586823 0.132071
Si Si6 0.332275 0.810607 0.561059
Si Si7 0.482472 0.207622 0.091317
O O1 0.389227 0.500000 0.887507
O O2 0.561366 0.376969 0.673815
O O3 0.283809 0.362438 0.028109
O O4 0.244382 0.405160 0.951839
O O5 0.250000 0.750000 0.500000
O O6 0.411494 0.877792 0.314452
O O7 0.251672 0.855770 0.582917
O O8 0.276456 0.898295 0.795201
O O9 0.324586 0.865473 0.628261
O O10 0.226181 0.000000 0.758491
O O11 0.000000 0.884384 0.000000
O O12 0.539203 0.211993 0.338390
O O13 0.879203 0.230954 0.021807
O O14 0.987178 0.500000 0.175243
O O15 0.022103 0.627975 0.084553
O O16 0.220608 0.733732 0.686867
O O17 0.500000 0.196085 0.000000
#
# Coordination Sequence:
#
# PCOD8114805 Si02
#       7
#     8   8   8   8   8   8   8
#     4  11  24  41  63  96 133 171 210 260 323 390
#     4  12  23  41  67  95 129 165 207 263 327 384
#     4  11  22  38  58  87 131 174 211 255 312 381
#     4  12  22  38  64  93 131 169 211 258 315 385
#     4  11  26  45  67  96 129 169 219 271 327 383
#     4  12  23  38  62  94 127 170 215 255 316 383
#     4  12  25  45  66  93 128 167 221 273 320 372
#
# _framework density 20.051991999999998
#
# number of rings (size 3 to 8) (size 9 to 14) (size 15 to 20)
#    0.000    0.429    7.143    1.286    2.000    5.429 
#    0.000    0.000    0.000    0.000    0.000    5.000 
#    0.000    0.000    0.000    0.000    0.000    0.000 
#
# Total GULP energy -347344.218677 kJ/mol
# GULP energy per Si atom -12405.150667 kJ/mol
# Density = 2.000635 g / cm^3
# Si number density = 20.051992 Si / 1000 Ang^3
#
#
#
# Elastic Constant Matrix: (Units=GPa)
#
#
# Indices 1 2 3 4 5 6 
#
# 1 88.9674 44.5038 18.3201 -0.0090 1.6560 0.0084
# 2 44.5038 112.7876 28.9459 -0.0621 -5.2166 0.0219
# 3 18.3201 28.9459 98.3633 -0.0876 -15.7726 0.0439
# 4 -0.0090 -0.0621 -0.0876 18.9985 0.0343 -0.9451
# 5 1.6560 -5.2166 -15.7726 0.0343 27.5883 -0.0027
# 6 0.0084 0.0219 0.0439 -0.9451 -0.0027 35.5069
#
#
#
# Elastic Compliance Matrix: (Units=1/GPa)
#
#
# Indices 1 2 3 4 5 6 
#
# 1 0.014294 -0.005377 -0.001520 -0.000013 -0.002744 0.000001
# 2 -0.005377 0.011614 -0.002216 0.000023 0.001252 -0.000002
# 3 -0.001520 -0.002216 0.012164 0.000036 0.006627 -0.000012
# 4 -0.000013 0.000023 0.000036 0.052706 -0.000040 0.001403
# 5 -0.002744 0.001252 0.006627 -0.000040 0.040437 -0.000006
# 6 0.000001 -0.000002 -0.000012 0.001403 -0.000006 0.028201
#
#
# Mechanical properties :
#
#
# Convention : Reuss Voigt Hill
#
# Bulk Modulus (GPa) = 50.38404 53.73978 52.06191
# Shear Modulus (GPa) = 27.13607 30.30865 28.72236
#
# Velocity S-wave (km/s) = 3.68269 3.89202 3.78880
# Velocity P-wave (km/s) = 6.57755 6.85970 6.72011
#
# Compressibility (1/GPa) = 0.01984756
#
# Stress axis : x y z
#
# Youngs Moduli (GPa) = 69.96059 86.10023 82.20925
#
# Poissons Ratio (x) = 0.46295 0.12495
# Poissons Ratio (y) = 0.37617 0.18214
# Poissons Ratio (z) = 0.10633 0.19076
#
# Static dielectric constant tensor:
#      x y z
#    x 3.869380 0.000100 -0.123790 
#    y 0.000100 3.628750 0.000330 
#    z -0.123790 0.000330 3.826630 
# 
# 
# High freq. dielectric constant tensor:
#      x y z
#    x 1.786720 -0.000010 -0.005840 
#    y -0.000010 1.769600 0.000020 
#    z -0.005840 0.000020 1.796540 
# 
# From -- ./inp_files/322649.got.cif
#   From: 2010.06.25/outbox.cif.g09.slc.cpg/sg12_162_cif.got.tgz:322649.got - 2010.06.28 00:19:55.
