data_PCOD8114131
_publ_section_title
;
Structure prediction by ZEFSAII (Michael W. Deem and Ramdas Pophale) SiO2 
 PCOD8114131
Probable space group: C 2/M
;
_chemical_formula_sum "Si O2"
_cell_formula_units_Z 48
_cell_length_a 17.812992
_cell_length_b 16.254232
_cell_length_c 16.140532
_cell_angle_alpha 90.000000
_cell_angle_beta 145.816395
_cell_angle_gamma 90.000000
_cell_volume 2625.663081
_symmetry_space_group_name_H-M "C 2/M"
_symmetry_group_IT_number 12
_symmetry_cell_setting 'monoclinic'
loop_
_space_group_symop_operation_xyz
x,y,z
-x,y,-z
-x,-y,-z
x,-y,z
1/2+x,1/2+y,z
1/2-x,1/2+y,-z
1/2-x,1/2-y,-z
1/2+x,1/2-y,z
loop_
_atom_site_type_symbol
_atom_site_label
_atom_site_fract_x
_atom_site_fract_y
_atom_site_fract_z
Si Si1 0.171345 0.244876 0.343559
Si Si2 0.762613 0.167411 0.903863
Si Si3 0.313926 0.593185 0.194277
Si Si4 0.013431 0.907995 0.810272
Si Si5 0.596066 0.171217 0.900959
Si Si6 0.348735 0.742830 0.346174
O O1 0.250000 0.250000 0.500000
O O2 0.273886 0.261001 0.364094
O O3 0.105686 0.154657 0.278702
O O4 0.063258 0.318925 0.237330
O O5 0.629827 0.148305 0.836360
O O6 0.721497 0.185831 0.772393
O O7 0.872145 0.094673 0.012921
O O8 0.837605 0.243402 0.014000
O O9 0.332912 0.500000 0.243069
O O10 0.416421 0.614743 0.213450
O O11 0.343946 0.654179 0.297323
O O12 0.160668 0.603311 0.021599
O O13 0.953730 0.000000 0.753464
O O14 0.500000 0.769182 0.500000
#
# Coordination Sequence:
#
# PCOD8114131 Si02
#       6
#     8   8   8   8   8   8
#     4  11  21  34  52  75 106 143 181 218 258 311
#     4   8  15  30  51  73  98 130 170 210 251 305
#     4   9  18  34  56  82 110 136 167 213 267 319
#     4   9  18  35  59  82 104 134 174 220 265 309
#     4   8  15  30  50  72 100 135 169 203 249 308
#     4  11  21  33  51  76 105 142 182 217 259 312
#
# _framework density 18.281096000000002
#
# number of rings (size 3 to 8) (size 9 to 14) (size 15 to 20)
#    0.000    2.667    0.000    5.000    0.000    6.333 
#    0.000    5.000    0.000    4.000    0.000    0.000 
#    0.000    0.000    0.000    0.000    0.000    0.000 
#
# Total GULP energy -297427.518641 kJ/mol
# GULP energy per Si atom -12392.813277 kJ/mol
# Density = 1.823949 g / cm^3
# Si number density = 18.281096 Si / 1000 Ang^3
#
#
#
# Elastic Constant Matrix: (Units=GPa)
#
#
# Indices 1 2 3 4 5 6 
#
# 1 95.6817 18.7489 40.1914 0.0000 -1.7033 0.0000
# 2 18.7489 69.7865 14.0378 0.0000 -1.0887 0.0000
# 3 40.1914 14.0378 92.6749 0.0000 -1.0149 0.0000
# 4 0.0000 0.0000 0.0000 16.4438 -0.0001 -0.5079
# 5 -1.7033 -1.0887 -1.0149 -0.0001 33.4208 -0.0001
# 6 0.0000 0.0000 0.0000 -0.5079 -0.0001 22.5547
#
#
#
# Elastic Compliance Matrix: (Units=1/GPa)
#
#
# Indices 1 2 3 4 5 6 
#
# 1 0.013184 -0.002461 -0.005340 0.000000 0.000430 0.000000
# 2 -0.002461 0.015245 -0.001238 0.000000 0.000334 0.000000
# 3 -0.005340 -0.001238 0.013295 0.000000 0.000091 0.000000
# 4 0.000000 0.000000 0.000000 0.060855 0.000000 0.001370
# 5 0.000430 0.000334 0.000091 0.000000 0.029957 0.000000
# 6 0.000000 0.000000 0.000000 0.001370 0.000000 0.044368
#
#
# Mechanical properties :
#
#
# Convention : Reuss Voigt Hill
#
# Bulk Modulus (GPa) = 42.29243 44.89993 43.59618
# Shear Modulus (GPa) = 24.64689 26.82820 25.73754
#
# Velocity S-wave (km/s) = 3.67579 3.83500 3.75624
# Velocity P-wave (km/s) = 6.41872 6.65010 6.53543
#
# Compressibility (1/GPa) = 0.02364489
#
# Stress axis : x y z
#
# Youngs Moduli (GPa) = 75.84679 65.59565 75.21643
#
# Poissons Ratio (x) = 0.16145 0.40168
# Poissons Ratio (y) = 0.18668 0.09313
# Poissons Ratio (z) = 0.40505 0.08122
#
# Static dielectric constant tensor:
#      x y z
#    x 3.278360 0.000000 0.061510 
#    y 0.000000 3.471270 0.000000 
#    z 0.061510 0.000000 3.467230 
# 
# 
# High freq. dielectric constant tensor:
#      x y z
#    x 1.698160 0.000000 -0.000410 
#    y 0.000000 1.685240 0.000000 
#    z -0.000410 0.000000 1.704480 
# 
# From -- ./inp_files/216506.got.cif
#   From: 2010.06.25/outbox.cif.g09.slc.cpg/sg12_109_cif.got.tgz:216506.got - 2010.06.28 00:19:55.
