data_PCOD8114215
_publ_section_title
;
Structure prediction by ZEFSAII (Michael W. Deem and Ramdas Pophale) SiO2 
 PCOD8114215
Probable space group: C 2/M
;
_chemical_formula_sum "Si O2"
_cell_formula_units_Z 48
_cell_length_a 14.473213
_cell_length_b 14.367602
_cell_length_c 22.076827
_cell_angle_alpha 90.000000
_cell_angle_beta 33.427516
_cell_angle_gamma 90.000000
_cell_volume 2528.972868
_symmetry_space_group_name_H-M "C 2/M"
_symmetry_group_IT_number 12
_symmetry_cell_setting 'monoclinic'
loop_
_space_group_symop_operation_xyz
x,y,z
-x,y,-z
-x,-y,-z
x,-y,z
1/2+x,1/2+y,z
1/2-x,1/2+y,-z
1/2-x,1/2-y,-z
1/2+x,1/2-y,z
loop_
_atom_site_type_symbol
_atom_site_label
_atom_site_fract_x
_atom_site_fract_y
_atom_site_fract_z
Si Si1 0.125835 0.892876 0.983964
Si Si2 0.507122 0.171051 0.252004
Si Si3 0.427881 0.500000 0.635314
Si Si4 0.848197 0.398312 0.037061
Si Si5 0.769820 0.500000 0.375456
Si Si6 0.025699 0.261110 0.858274
Si Si7 0.149924 0.815764 0.248935
O O1 0.072298 0.833999 0.072359
O O2 0.101126 0.000000 0.014366
O O3 0.312649 0.874291 0.859215
O O4 0.000000 0.860374 0.000000
O O5 0.372888 0.090793 0.337485
O O6 0.447039 0.232800 0.228074
O O7 0.510312 0.236624 0.310687
O O8 0.600473 0.500000 0.505769
O O9 0.271594 0.500000 0.673952
O O10 0.420138 0.407876 0.680668
O O11 0.781139 0.500000 0.054133
O O12 0.708361 0.339808 0.148582
O O13 0.000000 0.410711 0.000000
O O14 0.907903 0.346755 0.943893
O O15 0.206707 0.267153 0.790219
#
# Coordination Sequence:
#
# PCOD8114215 Si02
#       7
#     8   8   4   8   4   8   8
#     4  11  21  35  54  81 128 172 201 234 291 373
#     4  12  23  38  61  94 124 164 209 250 309 372
#     4  11  24  48  68  88 117 156 216 282 315 354
#     4   9  17  27  50  83 120 157 191 230 298 358
#     4  11  26  44  70  91 112 161 218 268 324 357
#     4  11  21  36  54  90 128 166 198 245 299 375
#     4  11  21  38  63  89 124 157 204 259 308 363
#
# _framework density 18.980036999999999
#
# number of rings (size 3 to 8) (size 9 to 14) (size 15 to 20)
#    0.000    1.167    6.667    1.000    2.333    0.667 
#    1.500    0.000    0.000    0.000    0.000    1.167 
#    0.000    0.000    0.000    0.000    0.000    0.000 
#
# Total GULP energy -297602.223006 kJ/mol
# GULP energy per Si atom -12400.092625 kJ/mol
# Density = 1.893684 g / cm^3
# Si number density = 18.980037 Si / 1000 Ang^3
#
#
#
# Elastic Constant Matrix: (Units=GPa)
#
#
# Indices 1 2 3 4 5 6 
#
# 1 85.1321 48.0559 28.8795 -0.0006 -6.0323 0.0002
# 2 48.0559 111.0507 26.6437 -0.0021 -13.2462 0.0008
# 3 28.8795 26.6437 57.9230 -0.0073 -8.3591 0.0036
# 4 -0.0006 -0.0021 -0.0073 16.5289 0.0018 -3.5114
# 5 -6.0323 -13.2462 -8.3591 0.0018 19.4434 -0.0006
# 6 0.0002 0.0008 0.0036 -3.5114 -0.0006 23.6287
#
#
#
# Elastic Compliance Matrix: (Units=1/GPa)
#
#
# Indices 1 2 3 4 5 6 
#
# 1 0.017131 -0.006165 -0.005911 -0.000002 -0.001427 0.000001
# 2 -0.006165 0.012863 -0.001977 0.000000 0.006000 0.000000
# 3 -0.005911 -0.001977 0.022029 0.000008 0.006290 -0.000002
# 4 -0.000002 0.000000 0.000008 0.062473 -0.000003 0.009284
# 5 -0.001427 0.006000 0.006290 -0.000003 0.057781 0.000000
# 6 0.000001 0.000000 -0.000002 0.009284 0.000000 0.043701
#
#
# Mechanical properties :
#
#
# Convention : Reuss Voigt Hill
#
# Bulk Modulus (GPa) = 41.81342 51.25156 46.53249
# Shear Modulus (GPa) = 19.83699 21.95531 20.89615
#
# Velocity S-wave (km/s) = 3.23639 3.40480 3.32166
# Velocity P-wave (km/s) = 6.00363 6.52062 6.26746
#
# Compressibility (1/GPa) = 0.02391577
#
# Stress axis : x y z
#
# Youngs Moduli (GPa) = 58.37482 77.74359 45.39561
#
# Poissons Ratio (x) = 0.47929 0.26834
# Poissons Ratio (y) = 0.35988 0.08975
# Poissons Ratio (z) = 0.34506 0.15370
#
# Static dielectric constant tensor:
#      x y z
#    x 3.563400 0.000000 -0.106570 
#    y 0.000000 3.699300 0.000000 
#    z -0.106570 0.000000 3.134020 
# 
# 
# High freq. dielectric constant tensor:
#      x y z
#    x 1.745590 0.000000 -0.009390 
#    y 0.000000 1.752910 0.000000 
#    z -0.009390 0.000000 1.694660 
# 
# From -- ./inp_files/142911.got.cif
#   From: 2010.06.25/outbox.cif.g09.slc.cpg/sg12_72_cif.got.tgz:142911.got - 2010.06.28 00:19:55.
