data_PCOD8114083
_publ_section_title
;
Structure prediction by ZEFSAII (Michael W. Deem and Ramdas Pophale) SiO2 
 PCOD8114083
Probable space group: C 2/M
;
_chemical_formula_sum "Si O2"
_cell_formula_units_Z 48
_cell_length_a 13.304961
_cell_length_b 21.191411
_cell_length_c 10.298393
_cell_angle_alpha 90.000000
_cell_angle_beta 111.255882
_cell_angle_gamma 90.000000
_cell_volume 2706.108342
_symmetry_space_group_name_H-M "C 2/M"
_symmetry_group_IT_number 12
_symmetry_cell_setting 'monoclinic'
loop_
_space_group_symop_operation_xyz
x,y,z
-x,y,-z
-x,-y,-z
x,-y,z
1/2+x,1/2+y,z
1/2-x,1/2+y,-z
1/2-x,1/2-y,-z
1/2+x,1/2-y,z
loop_
_atom_site_type_symbol
_atom_site_label
_atom_site_fract_x
_atom_site_fract_y
_atom_site_fract_z
Si Si1 0.737693 0.696703 0.883426
Si Si2 0.142928 0.072623 0.941182
Si Si3 0.367166 0.205610 0.700332
Si Si4 0.070992 0.727617 0.655599
Si Si5 0.597870 0.570625 0.218358
Si Si6 0.753830 0.832897 0.588825
O O1 0.727294 0.625365 0.931723
O O2 0.844406 0.696694 0.842433
O O3 0.634607 0.713163 0.745897
O O4 0.750000 0.750000 0.000000
O O5 0.025788 0.093601 0.833447
O O6 0.172265 0.000000 0.912788
O O7 0.143618 0.076896 0.095704
O O8 0.494500 0.196540 0.730594
O O9 0.295683 0.158224 0.578597
O O10 0.336406 0.275056 0.635906
O O11 0.157063 0.675356 0.648055
O O12 0.000000 0.751416 0.500000
O O13 0.601167 0.500000 0.269618
O O14 0.675883 0.606122 0.352324
#
# Coordination Sequence:
#
# PCOD8114083 Si02
#       6
#     8   8   8   8   8   8
#     4  11  21  31  49  76 101 132 170 205 242 293
#     4   9  18  31  47  70 101 131 160 201 251 298
#     4   9  18  30  47  70  97 125 155 201 251 289
#     4   9  18  32  50  71  98 128 159 207 260 296
#     4   9  17  31  51  71  94 128 165 202 246 295
#     4   9  16  30  50  70  91 121 161 202 246 292
#
# _framework density 17.737648
#
# number of rings (size 3 to 8) (size 9 to 14) (size 15 to 20)
#    0.000    2.667    0.000    5.000    0.000    2.000 
#    0.000    0.833    0.000    8.000    0.000    3.500 
#    0.000    0.000    0.000    0.000    0.000    0.000 
#
# Total GULP energy -297426.146780 kJ/mol
# GULP energy per Si atom -12392.756116 kJ/mol
# Density = 1.769728 g / cm^3
# Si number density = 17.737648 Si / 1000 Ang^3
#
#
#
# Elastic Constant Matrix: (Units=GPa)
#
#
# Indices 1 2 3 4 5 6 
#
# 1 73.1322 20.0757 27.1889 0.0000 -15.7285 0.0000
# 2 20.0757 65.4900 27.7394 0.0000 -4.5228 0.0000
# 3 27.1889 27.7394 60.9272 0.0000 -9.0736 0.0000
# 4 0.0000 0.0000 0.0000 31.3507 0.0000 5.9535
# 5 -15.7285 -4.5228 -9.0736 0.0000 29.7326 0.0000
# 6 0.0000 0.0000 0.0000 5.9535 0.0000 25.1208
#
#
#
# Elastic Compliance Matrix: (Units=1/GPa)
#
#
# Indices 1 2 3 4 5 6 
#
# 1 0.018143 -0.002587 -0.005812 0.000000 0.007430 0.000000
# 2 -0.002587 0.019288 -0.007746 0.000000 -0.000798 0.000000
# 3 -0.005812 -0.007746 0.022943 0.000000 0.002749 0.000000
# 4 0.000000 0.000000 0.000000 0.033400 0.000000 -0.007916
# 5 0.007430 -0.000798 0.002749 0.000000 0.038281 0.000000
# 6 0.000000 0.000000 0.000000 -0.007916 0.000000 0.041684
#
#
# Mechanical properties :
#
#
# Convention : Reuss Voigt Hill
#
# Bulk Modulus (GPa) = 35.60754 38.83970 37.22362
# Shear Modulus (GPa) = 23.21366 25.54386 24.37876
#
# Velocity S-wave (km/s) = 3.62155 3.79897 3.71132
# Velocity P-wave (km/s) = 6.13234 6.41773 6.27666
#
# Compressibility (1/GPa) = 0.02808394
#
# Stress axis : x y z
#
# Youngs Moduli (GPa) = 55.11844 51.84466 43.58660
#
# Poissons Ratio (x) = 0.13410 0.25333
# Poissons Ratio (y) = 0.14257 0.33764
# Poissons Ratio (z) = 0.32035 0.40161
#
# Static dielectric constant tensor:
#      x y z
#    x 3.393830 0.000000 -0.061380 
#    y 0.000000 3.065960 0.000000 
#    z -0.061380 0.000000 3.314480 
# 
# 
# High freq. dielectric constant tensor:
#      x y z
#    x 1.685710 0.000000 -0.003300 
#    y 0.000000 1.650600 0.000000 
#    z -0.003300 0.000000 1.682700 
# 
# From -- ./inp_files/63622.got.cif
#   From: 2010.06.25/outbox.cif.g09.slc.cpg/sg12_32_cif.got.tgz:63622.got - 2010.06.28 00:19:55.
