data_PCOD8114499
_publ_section_title
;
Structure prediction by ZEFSAII (Michael W. Deem and Ramdas Pophale) SiO2 
 PCOD8114499
Probable space group: C 2/M
;
_chemical_formula_sum "Si O2"
_cell_formula_units_Z 44
_cell_length_a 9.108272
_cell_length_b 31.626062
_cell_length_c 7.650792
_cell_angle_alpha 90.000000
_cell_angle_beta 121.933975
_cell_angle_gamma 90.000000
_cell_volume 1870.338914
_symmetry_space_group_name_H-M "C 2/M"
_symmetry_group_IT_number 12
_symmetry_cell_setting 'monoclinic'
loop_
_space_group_symop_operation_xyz
x,y,z
-x,y,-z
-x,-y,-z
x,-y,z
1/2+x,1/2+y,z
1/2-x,1/2+y,-z
1/2-x,1/2-y,-z
1/2+x,1/2-y,z
loop_
_atom_site_type_symbol
_atom_site_label
_atom_site_fract_x
_atom_site_fract_y
_atom_site_fract_z
Si Si1 0.806728 0.389874 0.317063
Si Si2 0.029308 0.046929 0.224963
Si Si3 0.000000 0.259386 0.000000
Si Si4 0.737217 0.324815 0.778077
Si Si5 0.815948 0.586404 0.923339
Si Si6 0.374733 0.311259 0.669054
O O1 0.683318 0.419601 0.360614
O O2 0.747833 0.341018 0.292709
O O3 0.000000 0.396376 0.500000
O O4 0.794131 0.401846 0.109824
O O5 0.853740 0.058134 0.224546
O O6 0.086780 0.000000 0.321413
O O7 0.000000 0.047122 0.000000
O O8 0.847028 0.291578 0.965312
O O9 0.920571 0.232597 0.791854
O O10 0.826135 0.370684 0.812929
O O11 0.556659 0.335045 0.757844
O O12 0.714813 0.302961 0.574054
O O13 0.000000 0.562652 0.000000
#
# Coordination Sequence:
#
# PCOD8114499 Si02
#       6
#     8   8   4   8   8   8
#     4  11  23  40  67  95 130 179 220 269 328 398
#     4   9  20  40  68  99 132 173 219 267 324 396
#     4  12  24  42  64  94 130 176 222 278 324 388
#     4  11  23  41  65  92 129 174 219 279 326 386
#     4  11  21  40  67  95 135 175 220 267 333 393
#     4  11  24  42  63  93 131 171 223 272 332 391
#
# _framework density 23.525148000000002
#
# number of rings (size 3 to 8) (size 9 to 14) (size 15 to 20)
#    0.000    1.273    2.727    3.273    1.273    0.727 
#    3.273    0.000    0.000    7.636    0.000    0.000 
#    0.000    0.000    0.000    0.000    0.000    0.000 
#
# Total GULP energy -272713.871953 kJ/mol
# GULP energy per Si atom -12396.085089 kJ/mol
# Density = 2.347160 g / cm^3
# Si number density = 23.525148 Si / 1000 Ang^3
#
#
#
# Elastic Constant Matrix: (Units=GPa)
#
#
# Indices 1 2 3 4 5 6 
#
# 1 134.3568 43.1217 23.6026 0.0000 34.1507 0.0000
# 2 43.1217 121.8835 37.1022 0.0000 22.5958 0.0000
# 3 23.6026 37.1022 65.3629 0.0000 23.3742 0.0000
# 4 0.0000 0.0000 0.0000 19.0498 0.0000 2.8788
# 5 34.1507 22.5958 23.3742 0.0000 39.2916 0.0000
# 6 0.0000 0.0000 0.0000 2.8788 0.0000 27.4570
#
#
#
# Elastic Compliance Matrix: (Units=1/GPa)
#
#
# Indices 1 2 3 4 5 6 
#
# 1 0.010046 -0.002252 0.000394 0.000000 -0.007671 0.000000
# 2 -0.002252 0.010708 -0.004780 0.000000 -0.001357 0.000000
# 3 0.000394 -0.004780 0.021606 0.000000 -0.010447 0.000000
# 4 0.000000 0.000000 0.000000 0.053339 0.000000 -0.005592
# 5 -0.007671 -0.001357 -0.010447 0.000000 0.039113 0.000000
# 6 0.000000 0.000000 0.000000 -0.005592 0.000000 0.037007
#
#
# Mechanical properties :
#
#
# Convention : Reuss Voigt Hill
#
# Bulk Modulus (GPa) = 34.38274 58.80624 46.59449
# Shear Modulus (GPa) = 25.66867 31.67812 28.67339
#
# Velocity S-wave (km/s) = 3.30679 3.67354 3.49498
# Velocity P-wave (km/s) = 5.40619 6.56084 6.01130
#
# Compressibility (1/GPa) = 0.02908436
#
# Stress axis : x y z
#
# Youngs Moduli (GPa) = 99.53903 93.38925 46.28373
#
# Poissons Ratio (x) = 0.21032 -0.01823
# Poissons Ratio (y) = 0.22417 0.22122
# Poissons Ratio (z) = -0.03920 0.44636
#
# Static dielectric constant tensor:
#      x y z
#    x 4.404770 0.000000 0.396850 
#    y 0.000000 4.173040 0.000000 
#    z 0.396850 0.000000 4.272240 
# 
# 
# High freq. dielectric constant tensor:
#      x y z
#    x 1.935600 0.000000 0.017420 
#    y 0.000000 1.918620 0.000000 
#    z 0.017420 0.000000 1.923000 
# 
# From -- ./inp_files/42352.got.cif
#   From: 2010.06.25/outbox.cif.g09.slc.cpg/sg12_22_cif.got.tgz:42352.got - 2010.06.28 00:19:55.
