data_PCOD8114282
_publ_section_title
;
Structure prediction by ZEFSAII (Michael W. Deem and Ramdas Pophale) SiO2 
 PCOD8114282
Probable space group: C 2/M
;
_chemical_formula_sum "Si O2"
_cell_formula_units_Z 56
_cell_length_a 29.949237
_cell_length_b 8.392452
_cell_length_c 12.510171
_cell_angle_alpha 90.000000
_cell_angle_beta 105.702562
_cell_angle_gamma 90.000000
_cell_volume 3027.050484
_symmetry_space_group_name_H-M "C 2/M"
_symmetry_group_IT_number 12
_symmetry_cell_setting 'monoclinic'
loop_
_space_group_symop_operation_xyz
x,y,z
-x,y,-z
-x,-y,-z
x,-y,z
1/2+x,1/2+y,z
1/2-x,1/2+y,-z
1/2-x,1/2-y,-z
1/2+x,1/2-y,z
loop_
_atom_site_type_symbol
_atom_site_label
_atom_site_fract_x
_atom_site_fract_y
_atom_site_fract_z
Si Si1 0.052918 0.688183 0.922628
Si Si2 0.360480 0.685109 0.695360
Si Si3 0.306799 0.315859 0.872670
Si Si4 0.790313 0.183064 0.246218
Si Si5 0.852124 0.685524 0.108106
Si Si6 0.296704 0.814681 0.478563
Si Si7 0.950684 0.311357 0.838834
O O1 0.055167 0.500000 0.933856
O O2 0.095547 0.750434 0.878604
O O3 0.003313 0.737166 0.839451
O O4 0.057917 0.753487 0.046551
O O5 0.351392 0.500000 0.667532
O O6 0.335727 0.741179 0.788450
O O7 0.339716 0.786038 0.584876
O O8 0.415188 0.722079 0.737388
O O9 0.316397 0.500000 0.905213
O O10 0.252603 0.292963 0.815230
O O11 0.321298 0.209811 0.982578
O O12 0.832857 0.214072 0.194210
O O13 0.807243 0.223896 0.375752
O O14 0.774937 0.000000 0.230070
O O15 0.851815 0.500000 0.137932
O O16 0.250000 0.750000 0.500000
O O17 0.290724 0.000000 0.450437
O O18 0.942959 0.500000 0.825113
#
# Coordination Sequence:
#
# PCOD8114282 Si02
#       7
#     8   8   8   8   8   8   8
#     4   8  16  30  54  82 111 145 184 227 273 329
#     4  11  22  35  55  84 117 148 182 227 278 329
#     4  11  22  36  54  80 115 151 188 227 274 332
#     4  12  25  40  57  79 111 150 190 230 278 332
#     4  11  21  36  57  82 114 151 190 230 278 332
#     4  12  24  40  61  83 108 144 187 232 277 325
#     4   9  16  32  55  82 111 145 186 227 274 327
#
# _framework density 18.499855
#
# number of rings (size 3 to 8) (size 9 to 14) (size 15 to 20)
#    0.000    1.429    2.857    5.143    0.000    1.143 
#    0.000    2.857    0.000    0.857    0.000    6.000 
#    0.000    0.000    0.000    0.000    0.000    0.000 
#
# Total GULP energy -347297.011315 kJ/mol
# GULP energy per Si atom -12403.464690 kJ/mol
# Density = 1.845775 g / cm^3
# Si number density = 18.499855 Si / 1000 Ang^3
#
#
#
# Elastic Constant Matrix: (Units=GPa)
#
#
# Indices 1 2 3 4 5 6 
#
# 1 122.6835 14.7268 57.2177 0.0000 9.8027 0.0000
# 2 14.7268 55.9254 15.0818 0.0000 -3.8382 0.0000
# 3 57.2177 15.0818 99.5638 0.0000 -0.0616 0.0000
# 4 0.0000 0.0000 0.0000 27.1881 0.0000 1.7549
# 5 9.8027 -3.8382 -0.0616 0.0000 31.7330 0.0000
# 6 0.0000 0.0000 0.0000 1.7549 0.0000 24.7236
#
#
#
# Elastic Compliance Matrix: (Units=1/GPa)
#
#
# Indices 1 2 3 4 5 6 
#
# 1 0.011660 -0.001589 -0.006462 0.000000 -0.003807 0.000000
# 2 -0.001589 0.019021 -0.001966 0.000000 0.002788 0.000000
# 3 -0.006462 -0.001966 0.014057 0.000000 0.001786 0.000000
# 4 0.000000 0.000000 0.000000 0.036950 0.000000 -0.002623
# 5 -0.003807 0.002788 0.001786 0.000000 0.033030 0.000000
# 6 0.000000 0.000000 0.000000 -0.002623 0.000000 0.040633
#
#
# Mechanical properties :
#
#
# Convention : Reuss Voigt Hill
#
# Bulk Modulus (GPa) = 40.48249 50.24725 45.36487
# Shear Modulus (GPa) = 27.23012 29.47200 28.35106
#
# Velocity S-wave (km/s) = 3.84071 3.99569 3.91897
# Velocity P-wave (km/s) = 6.44966 6.96471 6.71213
#
# Compressibility (1/GPa) = 0.02470204
#
# Stress axis : x y z
#
# Youngs Moduli (GPa) = 85.76383 52.57346 71.14072
#
# Poissons Ratio (x) = 0.08353 0.45974
# Poissons Ratio (y) = 0.13627 0.13989
# Poissons Ratio (z) = 0.55424 0.10338
#
# Static dielectric constant tensor:
#      x y z
#    x 3.658770 0.000000 0.042960 
#    y 0.000000 3.283600 0.000000 
#    z 0.042960 0.000000 3.304960 
# 
# 
# High freq. dielectric constant tensor:
#      x y z
#    x 1.717200 0.000000 0.009380 
#    y 0.000000 1.714420 0.000000 
#    z 0.009380 0.000000 1.699290 
# 
# From -- ./inp_files/186387.got.cif
#   From: 2010.06.25/outbox.cif.g09.slc.cpg/sg12_94_cif.got.tgz:186387.got - 2010.06.28 00:19:55.
