data_PCOD8114141
_publ_section_title
;
Structure prediction by ZEFSAII (Michael W. Deem and Ramdas Pophale) SiO2 
 PCOD8114141
Probable space group: C 2/M
;
_chemical_formula_sum "Si O2"
_cell_formula_units_Z 56
_cell_length_a 27.227901
_cell_length_b 18.407540
_cell_length_c 17.512787
_cell_angle_alpha 90.000000
_cell_angle_beta 161.270160
_cell_angle_gamma 90.000000
_cell_volume 2818.473486
_symmetry_space_group_name_H-M "C 2/M"
_symmetry_group_IT_number 12
_symmetry_cell_setting 'monoclinic'
loop_
_space_group_symop_operation_xyz
x,y,z
-x,y,-z
-x,-y,-z
x,-y,z
1/2+x,1/2+y,z
1/2-x,1/2+y,-z
1/2-x,1/2-y,-z
1/2+x,1/2-y,z
loop_
_atom_site_type_symbol
_atom_site_label
_atom_site_fract_x
_atom_site_fract_y
_atom_site_fract_z
Si Si1 0.250000 0.369271 0.629830
Si Si2 0.118074 0.915462 0.736149
Si Si3 0.009662 0.869271 0.889493
Si Si4 0.740814 0.790841 0.361612
Si Si5 0.068435 0.418313 0.872777
Si Si6 0.959750 0.081687 0.655408
Si Si7 0.500780 0.790841 0.121577
O O1 0.367872 0.391217 0.735743
O O2 0.176786 0.288277 0.505370
O O3 0.100212 0.419961 0.413433
O O4 0.332306 0.377131 0.832306
O O5 0.081188 0.894015 0.769480
O O6 0.000000 0.879071 0.500000
O O7 0.098604 0.000000 0.697210
O O8 0.295394 0.894015 0.983686
O O9 0.026232 0.919962 0.839454
O O10 0.980384 0.788277 0.808968
O O11 0.664229 0.816909 0.328458
O O12 0.829128 0.858185 0.456110
O O13 0.608406 0.767614 0.108406
O O14 0.100423 0.500000 0.951624
O O15 0.075165 0.358185 0.948184
O O16 0.898023 0.000000 0.546823
#
# Coordination Sequence:
#
# PCOD8114141 Si02
#       7
#     8   8   8   8   8   8   8
#     4   9  19  36  55  76 108 146 174 202 252 315
#     4   9  20  38  54  71 103 143 175 210 266 322
#     4   9  19  36  55  76 108 146 174 202 252 315
#     4   9  18  33  53  77 106 138 169 207 261 319
#     4  11  21  33  53  78 102 134 177 220 260 305
#     4  11  21  33  53  78 102 134 177 220 260 305
#     4   9  18  33  53  77 106 138 169 207 261 319
#
# _framework density 19.868911000000001
#
# number of rings (size 3 to 8) (size 9 to 14) (size 15 to 20)
#    0.000    2.429    0.000    4.286    0.000    6.857 
#    0.000    6.429    0.000    6.000    0.000    0.000 
#    0.000    0.000    0.000    0.000    0.000    0.000 
#
# Total GULP energy -346871.500048 kJ/mol
# GULP energy per Si atom -12388.267859 kJ/mol
# Density = 1.982369 g / cm^3
# Si number density = 19.868911 Si / 1000 Ang^3
#
#
#
# Elastic Constant Matrix: (Units=GPa)
#
#
# Indices 1 2 3 4 5 6 
#
# 1 118.2773 39.0127 47.5831 0.0000 23.8135 0.0000
# 2 39.0127 83.4479 12.0919 0.0000 23.5712 0.0000
# 3 47.5831 12.0919 74.2062 0.0000 14.7724 0.0000
# 4 0.0000 0.0000 0.0000 16.9251 0.0000 -10.4627
# 5 23.8135 23.5712 14.7724 0.0000 29.6629 0.0000
# 6 0.0000 0.0000 0.0000 -10.4627 0.0000 4.9756
#
#
#
# Elastic Compliance Matrix: (Units=1/GPa)
#
#
# Indices 1 2 3 4 5 6 
#
# 1 0.013523 -0.004158 -0.007204 0.000000 -0.003964 0.000000
# 2 -0.004158 0.016731 0.002134 0.000000 -0.011019 0.000000
# 3 -0.007204 0.002134 0.018798 0.000000 -0.005273 0.000000
# 4 0.000000 0.000000 0.000000 -0.197001 0.000000 -0.414255
# 5 -0.003964 -0.011019 -0.005273 0.000000 0.048277 0.000000
# 6 0.000000 0.000000 0.000000 -0.414255 0.000000 -0.670121
#
#
# Mechanical properties :
#
#
# Convention : Reuss Voigt Hill
#
# Bulk Modulus (GPa) = 32.68681 52.58965 42.63823
# Shear Modulus (GPa) = -6.74639 22.12895 7.69128
#
# Velocity S-wave (km/s) = -1.84467 3.34091 1.96962
# Velocity P-wave (km/s) = 3.45686 6.43490 5.16516
#
# Compressibility (1/GPa) = 0.03059338
#
# Stress axis : x y z
#
# Youngs Moduli (GPa) = 73.94953 59.76917 53.19789
#
# Poissons Ratio (x) = 0.24854 0.38326
# Poissons Ratio (y) = 0.30751 -0.11351
# Poissons Ratio (z) = 0.53277 -0.12754
#
# Static dielectric constant tensor:
#      x y z
#    x 3.683540 0.000000 -0.019730 
#    y 0.000000 3.403300 0.000000 
#    z -0.019730 0.000000 3.706050 
# 
# 
# High freq. dielectric constant tensor:
#      x y z
#    x 1.762290 0.000000 -0.017710 
#    y 0.000000 1.764030 0.000000 
#    z -0.017710 0.000000 1.782520 
# 
# From -- ./inp_files/293908.got.cif
#   From: 2010.06.25/outbox.cif.g09.slc.cpg/sg12_147_cif.got.tgz:293908.got - 2010.06.28 00:19:55.
