data_PCOD8114611
_publ_section_title
;
Structure prediction by ZEFSAII (Michael W. Deem and Ramdas Pophale) SiO2 
 PCOD8114611
Probable space group: C 2/M
;
_chemical_formula_sum "Si O2"
_cell_formula_units_Z 48
_cell_length_a 22.567178
_cell_length_b 9.146787
_cell_length_c 19.629188
_cell_angle_alpha 90.000000
_cell_angle_beta 136.087214
_cell_angle_gamma 90.000000
_cell_volume 2810.177975
_symmetry_space_group_name_H-M "C 2/M"
_symmetry_group_IT_number 12
_symmetry_cell_setting 'monoclinic'
loop_
_space_group_symop_operation_xyz
x,y,z
-x,y,-z
-x,-y,-z
x,-y,z
1/2+x,1/2+y,z
1/2-x,1/2+y,-z
1/2-x,1/2-y,-z
1/2+x,1/2-y,z
loop_
_atom_site_type_symbol
_atom_site_label
_atom_site_fract_x
_atom_site_fract_y
_atom_site_fract_z
Si Si1 0.839954 0.172780 0.583949
Si Si2 0.621340 0.828280 0.644578
Si Si3 0.057715 0.327308 0.446945
Si Si4 0.056410 0.665038 0.979270
Si Si5 0.194051 0.170996 0.168243
Si Si6 0.916996 0.831321 0.792720
O O1 0.750000 0.250000 0.500000
O O2 0.907815 0.233920 0.586771
O O3 0.874333 0.213895 0.686743
O O4 0.828661 0.000000 0.565361
O O5 0.604412 0.770218 0.554120
O O6 0.543081 0.791032 0.629883
O O7 0.709468 0.765241 0.748190
O O8 0.630945 0.000000 0.644507
O O9 0.073087 0.500000 0.447578
O O10 0.076745 0.500000 0.974531
O O11 0.004374 0.740896 0.875074
O O12 0.145660 0.747124 0.066869
O O13 0.000000 0.674062 0.000000
O O14 0.151041 0.205396 0.205055
O O15 0.191735 0.000000 0.149443
O O16 0.943219 0.000000 0.816096
#
# Coordination Sequence:
#
# PCOD8114611 Si02
#       6
#     8   8   8   8   8   8
#     4  11  22  34  49  71  98 127 159 193 232 279
#     4   8  15  29  51  73  94 125 161 195 231 279
#     4   9  17  32  51  71  96 126 161 196 232 276
#     4   9  17  28  43  67  96 121 148 189 239 280
#     4   9  15  27  48  70  91 120 158 192 227 276
#     4   9  18  31  47  67  93 125 157 189 227 277
#
# _framework density 17.080769
#
# number of rings (size 3 to 8) (size 9 to 14) (size 15 to 20)
#    0.000    2.833    0.000    3.000    0.000    6.000 
#    0.000    6.667    0.000    1.000    0.000    0.000 
#    0.000    0.000    0.000    0.000    0.000    0.000 
#
# Total GULP energy -297551.484245 kJ/mol
# GULP energy per Si atom -12397.978510 kJ/mol
# Density = 1.704189 g / cm^3
# Si number density = 17.080769 Si / 1000 Ang^3
#
#
#
# Elastic Constant Matrix: (Units=GPa)
#
#
# Indices 1 2 3 4 5 6 
#
# 1 78.1697 42.3189 63.7409 0.0000 12.2945 0.0000
# 2 42.3189 75.0872 70.4591 0.0000 6.6567 0.0000
# 3 63.7409 70.4591 159.7485 0.0000 25.2202 0.0000
# 4 0.0000 0.0000 0.0000 25.4735 0.0000 -1.6589
# 5 12.2945 6.6567 25.2202 0.0000 30.7535 0.0000
# 6 0.0000 0.0000 0.0000 -1.6589 0.0000 22.9919
#
#
#
# Elastic Compliance Matrix: (Units=1/GPa)
#
#
# Indices 1 2 3 4 5 6 
#
# 1 0.020991 -0.007073 -0.004794 0.000000 -0.002930 0.000000
# 2 -0.007073 0.025496 -0.009188 0.000000 0.004844 0.000000
# 3 -0.004794 -0.009188 0.013335 0.000000 -0.007031 0.000000
# 4 0.000000 0.000000 0.000000 0.039442 0.000000 0.002846
# 5 -0.002930 0.004844 -0.007031 0.000000 0.038405 0.000000
# 6 0.000000 0.000000 0.000000 0.002846 0.000000 0.043699
#
#
# Mechanical properties :
#
#
# Convention : Reuss Voigt Hill
#
# Bulk Modulus (GPa) = 56.45340 74.00481 65.22910
# Shear Modulus (GPa) = 21.79771 24.94289 23.37030
#
# Velocity S-wave (km/s) = 3.57621 3.82552 3.70296
# Velocity P-wave (km/s) = 7.08343 7.93305 7.52025
#
# Compressibility (1/GPa) = 0.01771373
#
# Stress axis : x y z
#
# Youngs Moduli (GPa) = 47.63891 39.22121 74.99041
#
# Poissons Ratio (x) = 0.27740 0.35948
# Poissons Ratio (y) = 0.33694 0.68902
# Poissons Ratio (z) = 0.22836 0.36037
#
# Static dielectric constant tensor:
#      x y z
#    x 3.089390 0.000000 0.262720 
#    y 0.000000 3.063470 0.000000 
#    z 0.262720 0.000000 3.472850 
# 
# 
# High freq. dielectric constant tensor:
#      x y z
#    x 1.632890 0.000000 0.016120 
#    y 0.000000 1.644230 0.000000 
#    z 0.016120 0.000000 1.667000 
# 
# From -- ./inp_files/280803.got.cif
#   From: 2010.06.25/outbox.cif.g09.slc.cpg/sg12_141_cif.got.tgz:280803.got - 2010.06.28 00:19:55.
