data_PCOD8114432
_publ_section_title
;
Structure prediction by ZEFSAII (Michael W. Deem and Ramdas Pophale) SiO2 
 PCOD8114432
Probable space group: C 2/M
;
_chemical_formula_sum "Si O2"
_cell_formula_units_Z 40
_cell_length_a 10.596247
_cell_length_b 22.323797
_cell_length_c 10.816993
_cell_angle_alpha 90.000000
_cell_angle_beta 51.724513
_cell_angle_gamma 90.000000
_cell_volume 2008.719429
_symmetry_space_group_name_H-M "C 2/M"
_symmetry_group_IT_number 12
_symmetry_cell_setting 'monoclinic'
loop_
_space_group_symop_operation_xyz
x,y,z
-x,y,-z
-x,-y,-z
x,-y,z
1/2+x,1/2+y,z
1/2-x,1/2+y,-z
1/2-x,1/2-y,-z
1/2+x,1/2-y,z
loop_
_atom_site_type_symbol
_atom_site_label
_atom_site_fract_x
_atom_site_fract_y
_atom_site_fract_z
Si Si1 0.560579 0.879632 0.779128
Si Si2 0.831309 0.431611 0.536699
Si Si3 0.941220 0.253776 0.896934
Si Si4 0.722391 0.931096 0.913293
Si Si5 0.471299 0.624142 0.162983
O O1 0.661770 0.903363 0.602953
O O2 0.512391 0.810709 0.780620
O O3 0.673914 0.887189 0.830556
O O4 0.396876 0.917729 0.899288
O O5 0.776829 0.500000 0.557159
O O6 0.706363 0.396933 0.698088
O O7 0.000000 0.424791 0.500000
O O8 0.011720 0.192258 0.799207
O O9 0.750000 0.250000 0.000000
O O10 0.000000 0.262360 0.000000
O O11 0.903855 0.918532 0.842568
O O12 0.705152 0.000000 0.882539
O O13 0.500000 0.620089 0.000000
#
# Coordination Sequence:
#
# PCOD8114432 Si02
#       5
#     8   8   8   8   8
#     4  11  21  40  64  92 124 168 206 264 327 374
#     4  11  25  42  60  91 131 165 210 269 322 379
#     4  11  21  40  67  95 128 163 217 269 313 386
#     4  11  21  38  64  94 124 166 216 259 320 390
#     4  11  24  40  65  93 123 176 215 263 319 382
#
# _framework density 19.913184000000001
#
# number of rings (size 3 to 8) (size 9 to 14) (size 15 to 20)
#    0.000    1.000    4.000    4.200    2.800    4.800 
#    0.000    2.000    0.000    0.000    0.000    0.000 
#    0.000    0.000    0.000    0.000    0.000    0.000 
#
# Total GULP energy -248060.473878 kJ/mol
# GULP energy per Si atom -12403.023694 kJ/mol
# Density = 1.986786 g / cm^3
# Si number density = 19.913184 Si / 1000 Ang^3
#
#
#
# Elastic Constant Matrix: (Units=GPa)
#
#
# Indices 1 2 3 4 5 6 
#
# 1 89.1692 43.3933 31.4596 0.0000 -12.2283 0.0000
# 2 43.3933 166.7894 65.9378 0.0000 -13.7222 0.0000
# 3 31.4596 65.9378 124.5722 0.0000 -3.1079 0.0000
# 4 0.0000 0.0000 0.0000 31.9074 0.0000 -5.7057
# 5 -12.2283 -13.7222 -3.1079 0.0000 26.6273 0.0000
# 6 0.0000 0.0000 0.0000 -5.7057 0.0000 31.1734
#
#
#
# Elastic Compliance Matrix: (Units=1/GPa)
#
#
# Indices 1 2 3 4 5 6 
#
# 1 0.013770 -0.002346 -0.002114 0.000000 0.004868 0.000000
# 2 -0.002346 0.008312 -0.003738 0.000000 0.002770 0.000000
# 3 -0.002114 -0.003738 0.010498 0.000000 -0.001672 0.000000
# 4 0.000000 0.000000 0.000000 0.032401 0.000000 0.005930
# 5 0.004868 0.002770 -0.001672 0.000000 0.041023 0.000000
# 6 0.000000 0.000000 0.000000 0.005930 0.000000 0.033164
#
#
# Mechanical properties :
#
#
# Convention : Reuss Voigt Hill
#
# Bulk Modulus (GPa) = 61.79232 73.56801 67.68017
# Shear Modulus (GPa) = 31.06391 33.92429 32.49410
#
# Velocity S-wave (km/s) = 3.95393 4.13196 4.04392
# Velocity P-wave (km/s) = 7.20715 7.73231 7.47434
#
# Compressibility (1/GPa) = 0.01618324
#
# Stress axis : x y z
#
# Youngs Moduli (GPa) = 72.62266 120.31479 95.25495
#
# Poissons Ratio (x) = 0.28228 0.20138
# Poissons Ratio (y) = 0.17039 0.35604
# Poissons Ratio (z) = 0.15353 0.44971
#
# Static dielectric constant tensor:
#      x y z
#    x 3.611130 0.000000 -0.047730 
#    y 0.000000 4.022410 0.000000 
#    z -0.047730 0.000000 3.496350 
# 
# 
# High freq. dielectric constant tensor:
#      x y z
#    x 1.786100 0.000000 -0.009230 
#    y 0.000000 1.796120 0.000000 
#    z -0.009230 0.000000 1.752860 
# 
# From -- ./inp_files/50116.got.cif
#   From: 2010.06.25/outbox.cif.g09.slc.cpg/sg12_26_cif.got.tgz:50116.got - 2010.06.28 00:19:55.
