data_PCOD8114638
_publ_section_title
;
Structure prediction by ZEFSAII (Michael W. Deem and Ramdas Pophale) SiO2 
 PCOD8114638
Probable space group: C 2/M
;
_chemical_formula_sum "Si O2"
_cell_formula_units_Z 40
_cell_length_a 27.290816
_cell_length_b 9.056706
_cell_length_c 11.564560
_cell_angle_alpha 90.000000
_cell_angle_beta 52.703151
_cell_angle_gamma 90.000000
_cell_volume 2273.839490
_symmetry_space_group_name_H-M "C 2/M"
_symmetry_group_IT_number 12
_symmetry_cell_setting 'monoclinic'
loop_
_space_group_symop_operation_xyz
x,y,z
-x,y,-z
-x,-y,-z
x,-y,z
1/2+x,1/2+y,z
1/2-x,1/2+y,-z
1/2-x,1/2-y,-z
1/2+x,1/2-y,z
loop_
_atom_site_type_symbol
_atom_site_label
_atom_site_fract_x
_atom_site_fract_y
_atom_site_fract_z
Si Si1 0.056321 0.826240 0.565349
Si Si2 0.785658 0.327838 0.286846
Si Si3 0.580999 0.325498 0.273268
Si Si4 0.341048 0.326402 0.412687
Si Si5 0.302720 0.824941 0.999233
O O1 0.079730 0.768500 0.407454
O O2 0.098704 0.762108 0.607690
O O3 0.985056 0.787070 0.689833
O O4 0.064715 0.000000 0.548001
O O5 0.797490 0.500000 0.283156
O O6 0.717473 0.283140 0.425356
O O7 0.836476 0.247309 0.293416
O O8 0.793174 0.275650 0.144929
O O9 0.595577 0.500000 0.244317
O O10 0.630919 0.231930 0.133806
O O11 0.345901 0.500000 0.386733
O O12 0.298218 0.000000 0.990833
O O13 0.250000 0.750000 0.000000
#
# Coordination Sequence:
#
# PCOD8114638 Si02
#       5
#     8   8   8   8   8
#     4   8  15  30  53  76  98 129 164 200 243 287
#     4   9  19  33  48  70  99 127 157 198 246 289
#     4   9  17  32  53  75 100 129 163 200 241 290
#     4   9  16  30  52  73  93 123 165 203 235 282
#     4  11  22  35  51  72 100 130 160 198 246 294
#
# _framework density 17.591391999999999
#
# number of rings (size 3 to 8) (size 9 to 14) (size 15 to 20)
#    0.000    2.800    0.000    3.000    0.000    4.800 
#    0.000    9.000    0.000    6.000    0.000    0.000 
#    0.000    0.000    0.000    0.000    0.000    0.000 
#
# Total GULP energy -247959.933942 kJ/mol
# GULP energy per Si atom -12397.996697 kJ/mol
# Density = 1.755135 g / cm^3
# Si number density = 17.591392 Si / 1000 Ang^3
#
#
#
# Elastic Constant Matrix: (Units=GPa)
#
#
# Indices 1 2 3 4 5 6 
#
# 1 186.1024 47.6523 74.5146 0.0000 12.3875 0.0000
# 2 47.6523 41.2918 42.4455 0.0000 5.2497 0.0000
# 3 74.5146 42.4455 114.6122 0.0000 9.8991 0.0000
# 4 0.0000 0.0000 0.0000 29.7714 0.0000 0.6464
# 5 12.3875 5.2497 9.8991 0.0000 25.7485 0.0000
# 6 0.0000 0.0000 0.0000 0.6464 0.0000 26.7147
#
#
#
# Elastic Compliance Matrix: (Units=1/GPa)
#
#
# Indices 1 2 3 4 5 6 
#
# 1 0.008262 -0.006383 -0.002872 0.000000 -0.001569 0.000000
# 2 -0.006383 0.044190 -0.012105 0.000000 -0.001285 0.000000
# 3 -0.002872 -0.012105 0.015249 0.000000 -0.002013 0.000000
# 4 0.000000 0.000000 0.000000 0.033607 0.000000 -0.000813
# 5 -0.001569 -0.001285 -0.002013 0.000000 0.040628 0.000000
# 6 0.000000 0.000000 0.000000 -0.000813 0.000000 0.037452
#
#
# Mechanical properties :
#
#
# Convention : Reuss Voigt Hill
#
# Bulk Modulus (GPa) = 40.02875 74.58126 57.30501
# Shear Modulus (GPa) = 21.69804 28.27320 24.98562
#
# Velocity S-wave (km/s) = 3.51586 4.01336 3.77282
# Velocity P-wave (km/s) = 6.26784 7.99779 7.18507
#
# Compressibility (1/GPa) = 0.02498205
#
# Stress axis : x y z
#
# Youngs Moduli (GPa) = 121.03217 22.62946 65.57748
#
# Poissons Ratio (x) = 0.14444 0.18836
# Poissons Ratio (y) = 0.77254 0.79379
# Poissons Ratio (z) = 0.34764 0.27392
#
# Static dielectric constant tensor:
#      x y z
#    x 3.729470 0.000000 0.035940 
#    y 0.000000 3.024220 0.000000 
#    z 0.035940 0.000000 3.216090 
# 
# 
# High freq. dielectric constant tensor:
#      x y z
#    x 1.693940 0.000000 0.001480 
#    y 0.000000 1.656230 0.000000 
#    z 0.001480 0.000000 1.669080 
# 
# From -- ./inp_files/162351.got.cif
#   From: 2010.06.25/outbox.cif.g09.slc.cpg/sg12_82_cif.got.tgz:162351.got - 2010.06.28 00:19:55.
