data_PCOD8114578
_publ_section_title
;
Structure prediction by ZEFSAII (Michael W. Deem and Ramdas Pophale) SiO2 
 PCOD8114578
Probable space group: C 2/M
;
_chemical_formula_sum "Si O2"
_cell_formula_units_Z 24
_cell_length_a 18.395591
_cell_length_b 11.510580
_cell_length_c 12.961453
_cell_angle_alpha 90.000000
_cell_angle_beta 17.549450
_cell_angle_gamma 90.000000
_cell_volume 827.548493
_symmetry_space_group_name_H-M "C 2/M"
_symmetry_group_IT_number 12
_symmetry_cell_setting 'monoclinic'
loop_
_space_group_symop_operation_xyz
x,y,z
-x,y,-z
-x,-y,-z
x,-y,z
1/2+x,1/2+y,z
1/2-x,1/2+y,-z
1/2-x,1/2-y,-z
1/2+x,1/2-y,z
loop_
_atom_site_type_symbol
_atom_site_label
_atom_site_fract_x
_atom_site_fract_y
_atom_site_fract_z
Si Si1 0.744503 0.131449 0.291924
Si Si2 0.138310 0.500000 0.706322
Si Si3 0.793767 0.000000 0.863068
Si Si4 0.467176 0.317987 0.786855
O O1 0.553207 0.197199 0.622420
O O2 0.645917 0.000000 0.405943
O O3 0.000000 0.124920 0.000000
O O4 0.778818 0.199537 0.136209
O O5 0.302802 0.386095 0.478715
O O6 0.000000 0.500000 0.000000
O O7 0.967587 0.500000 0.838082
O O8 0.000000 0.000000 0.500000
O O9 0.825711 0.886077 0.889432
#
# Coordination Sequence:
#
# PCOD8114578 Si02
#       4
#     8   4   4   8
#     4  11  24  47  80 123 160 208 270 325 402 482
#     4  11  21  44  83 113 151 216 265 318 404 479
#     4  11  23  46  81 117 156 213 271 317 406 490
#     4  11  24  49  83 117 160 213 262 333 404 470
#
# _framework density 29.001321000000001
#
# number of rings (size 3 to 8) (size 9 to 14) (size 15 to 20)
#    0.000    1.000    6.667    2.000    0.000    0.000 
#    6.000    5.000    0.000    3.000    0.000    0.000 
#    0.000    0.000    0.000    0.000    0.000    0.000 
#
# Total GULP energy -148868.775985 kJ/mol
# GULP energy per Si atom -12405.731332 kJ/mol
# Density = 2.893531 g / cm^3
# Si number density = 29.001321 Si / 1000 Ang^3
#
#
#
# Elastic Constant Matrix: (Units=GPa)
#
#
# Indices 1 2 3 4 5 6 
#
# 1 211.8719 69.0981 76.9798 0.0074 0.3999 -0.0085
# 2 69.0981 172.9340 101.2624 0.0004 22.7189 -0.0023
# 3 76.9798 101.2624 137.1898 0.0068 11.3179 -0.0143
# 4 0.0074 0.0004 0.0068 56.4856 -0.0099 2.5236
# 5 0.3999 22.7189 11.3179 -0.0099 91.9137 0.0089
# 6 -0.0085 -0.0023 -0.0143 2.5236 0.0089 66.6427
#
#
#
# Elastic Compliance Matrix: (Units=1/GPa)
#
#
# Indices 1 2 3 4 5 6 
#
# 1 0.006007 -0.000828 -0.002803 0.000000 0.000524 0.000000
# 2 -0.000828 0.010539 -0.007173 0.000001 -0.001718 -0.000001
# 3 -0.002803 -0.007173 0.014153 -0.000001 0.000042 0.000002
# 4 0.000000 0.000001 -0.000001 0.017734 0.000002 -0.000672
# 5 0.000524 -0.001718 0.000042 0.000002 0.011297 -0.000002
# 6 0.000000 -0.000001 0.000002 -0.000672 -0.000002 0.015031
#
#
# Mechanical properties :
#
#
# Convention : Reuss Voigt Hill
#
# Bulk Modulus (GPa) = 109.98688 112.96400 111.47544
# Shear Modulus (GPa) = 50.30246 61.31879 55.81062
#
# Velocity S-wave (km/s) = 4.16924 4.60319 4.39158
# Velocity P-wave (km/s) = 7.82201 8.20295 8.01474
#
# Compressibility (1/GPa) = 0.00909199
#
# Stress axis : x y z
#
# Youngs Moduli (GPa) = 166.46662 94.88419 70.65661
#
# Poissons Ratio (x) = 0.07854 0.19805
# Poissons Ratio (y) = 0.13779 0.50682
# Poissons Ratio (z) = 0.46660 0.68060
#
# Static dielectric constant tensor:
#      x y z
#    x 5.940890 0.000060 0.157160 
#    y 0.000060 7.633900 -0.000280 
#    z 0.157160 -0.000280 5.845810 
# 
# 
# High freq. dielectric constant tensor:
#      x y z
#    x 2.209480 0.000000 0.000520 
#    y 0.000000 2.177410 0.000000 
#    z 0.000520 0.000000 2.206020 
# 
# From -- ./inp_files/232176.got.cif
#   From: 2010.06.25/outbox.cif.g09.slc.cpg/sg12_117_cif.got.tgz:232176.got - 2010.06.28 00:19:55.
