data_PCOD8114134
_publ_section_title
;
Structure prediction by ZEFSAII (Michael W. Deem and Ramdas Pophale) SiO2 
 PCOD8114134
Probable space group: C 2/M
;
_chemical_formula_sum "Si O2"
_cell_formula_units_Z 56
_cell_length_a 21.490288
_cell_length_b 19.807912
_cell_length_c 8.681361
_cell_angle_alpha 90.000000
_cell_angle_beta 58.542464
_cell_angle_gamma 90.000000
_cell_volume 3152.329566
_symmetry_space_group_name_H-M "C 2/M"
_symmetry_group_IT_number 12
_symmetry_cell_setting 'monoclinic'
loop_
_space_group_symop_operation_xyz
x,y,z
-x,y,-z
-x,-y,-z
x,-y,z
1/2+x,1/2+y,z
1/2-x,1/2+y,-z
1/2-x,1/2-y,-z
1/2+x,1/2-y,z
loop_
_atom_site_type_symbol
_atom_site_label
_atom_site_fract_x
_atom_site_fract_y
_atom_site_fract_z
Si Si1 0.684275 0.925500 0.668345
Si Si2 0.276401 0.682504 0.379869
Si Si3 0.537765 0.922667 0.669115
Si Si4 0.700341 0.204674 0.172270
Si Si5 0.935428 0.712982 0.484472
Si Si6 0.925347 0.759654 0.154866
Si Si7 0.887362 0.637690 0.976063
O O1 0.746665 0.879210 0.515989
O O2 0.603928 0.916819 0.702920
O O3 0.672265 0.909260 0.863374
O O4 0.715486 0.000000 0.606968
O O5 0.250000 0.750000 0.500000
O O6 0.250682 0.670836 0.236847
O O7 0.364249 0.683098 0.258420
O O8 0.558477 0.869560 0.506307
O O9 0.531094 0.000000 0.615357
O O10 0.463134 0.900920 0.850825
O O11 0.639601 0.244640 0.352847
O O12 0.750000 0.250000 0.000000
O O13 0.651510 0.153892 0.135496
O O14 0.944154 0.725231 0.292774
O O15 0.000000 0.746955 0.500000
O O16 0.898268 0.704561 0.066162
O O17 0.000000 0.794421 0.000000
#
# Coordination Sequence:
#
# PCOD8114134 Si02
#       7
#     8   8   8   8   8   8   8
#     4  11  22  38  57  81 113 157 198 234 283 341
#     4  12  21  38  59  81 112 150 194 238 288 335
#     4  11  21  33  52  76 115 160 192 218 266 336
#     4  12  22  34  54  83 111 151 190 242 283 325
#     4  12  22  36  51  80 114 150 189 233 277 333
#     4  12  21  37  58  80 112 145 187 233 295 334
#     4  12  20  35  53  80 117 152 190 227 275 343
#
# _framework density 17.76464
#
# number of rings (size 3 to 8) (size 9 to 14) (size 15 to 20)
#    0.000    0.286   10.000    0.857    0.000    1.429 
#    0.000    1.429    0.000    0.429    0.000    0.000 
#    0.000    1.714    0.000    0.000    0.000    0.000 
#
# Total GULP energy -346934.896301 kJ/mol
# GULP energy per Si atom -12390.532011 kJ/mol
# Density = 1.772421 g / cm^3
# Si number density = 17.764640 Si / 1000 Ang^3
#
#
#
# Elastic Constant Matrix: (Units=GPa)
#
#
# Indices 1 2 3 4 5 6 
#
# 1 98.6320 32.8698 45.6278 0.0000 -6.6455 0.0000
# 2 32.8698 73.8427 45.6111 0.0000 -18.5623 0.0000
# 3 45.6278 45.6111 128.5160 0.0000 -23.7788 0.0000
# 4 0.0000 0.0000 0.0000 22.1283 0.0000 -9.6454
# 5 -6.6455 -18.5623 -23.7788 0.0000 46.5650 0.0000
# 6 0.0000 0.0000 0.0000 -9.6454 0.0000 17.9267
#
#
#
# Elastic Compliance Matrix: (Units=1/GPa)
#
#
# Indices 1 2 3 4 5 6 
#
# 1 0.012978 -0.004020 -0.003462 0.000000 -0.001518 0.000000
# 2 -0.004020 0.019353 -0.004550 0.000000 0.004818 0.000000
# 3 -0.003462 -0.004550 0.011262 0.000000 0.003443 0.000000
# 4 0.000000 0.000000 0.000000 0.059037 0.000000 0.031764
# 5 -0.001518 0.004818 0.003443 0.000000 0.024938 0.000000
# 6 0.000000 0.000000 0.000000 0.031764 0.000000 0.072873
#
#
# Mechanical properties :
#
#
# Convention : Reuss Voigt Hill
#
# Bulk Modulus (GPa) = 51.20483 61.02312 56.11397
# Shear Modulus (GPa) = 21.64378 29.11613 25.37995
#
# Velocity S-wave (km/s) = 3.49429 4.05284 3.78389
# Velocity P-wave (km/s) = 6.72062 7.50508 7.12365
#
# Compressibility (1/GPa) = 0.01952941
#
# Stress axis : x y z
#
# Youngs Moduli (GPa) = 77.05629 51.67099 88.79415
#
# Poissons Ratio (x) = 0.20773 0.30737
# Poissons Ratio (y) = 0.30978 0.40400
# Poissons Ratio (z) = 0.26674 0.23510
#
# Static dielectric constant tensor:
#      x y z
#    x 3.515380 0.000000 0.028840 
#    y 0.000000 3.080280 0.000000 
#    z 0.028840 0.000000 3.654750 
# 
# 
# High freq. dielectric constant tensor:
#      x y z
#    x 1.693150 0.000000 0.005830 
#    y 0.000000 1.630190 0.000000 
#    z 0.005830 0.000000 1.711660 
# 
# From -- ./inp_files/89087.got.cif
#   From: 2010.06.25/outbox.cif.g09.slc.cpg/sg12_45_cif.got.tgz:89087.got - 2010.06.28 00:19:55.
