data_PCOD8114785
_publ_section_title
;
Structure prediction by ZEFSAII (Michael W. Deem and Ramdas Pophale) SiO2 
 PCOD8114785
Probable space group: C 2/M
;
_chemical_formula_sum "Si O2"
_cell_formula_units_Z 64
_cell_length_a 21.783128
_cell_length_b 20.195451
_cell_length_c 8.923329
_cell_angle_alpha 90.000000
_cell_angle_beta 55.545427
_cell_angle_gamma 90.000000
_cell_volume 3236.911841
_symmetry_space_group_name_H-M "C 2/M"
_symmetry_group_IT_number 12
_symmetry_cell_setting 'monoclinic'
loop_
_space_group_symop_operation_xyz
x,y,z
-x,y,-z
-x,-y,-z
x,-y,z
1/2+x,1/2+y,z
1/2-x,1/2+y,-z
1/2-x,1/2-y,-z
1/2+x,1/2-y,z
loop_
_atom_site_type_symbol
_atom_site_label
_atom_site_fract_x
_atom_site_fract_y
_atom_site_fract_z
Si Si1 0.701239 0.846059 0.625845
Si Si2 0.653478 0.721992 0.490826
Si Si3 0.492613 0.264744 0.187523
Si Si4 0.860699 0.224888 0.833521
Si Si5 0.326759 0.925942 0.594573
Si Si6 0.873469 0.574939 0.027574
Si Si7 0.777972 0.644475 0.950326
Si Si8 0.986132 0.625340 0.345700
O O1 0.674248 0.785806 0.560827
O O2 0.776600 0.828073 0.611771
O O3 0.719585 0.907555 0.490783
O O4 0.634739 0.870911 0.828132
O O5 0.579537 0.690294 0.669421
O O6 0.628249 0.739587 0.357305
O O7 0.564814 0.290511 0.176732
O O8 0.472273 0.191317 0.270858
O O9 0.500000 0.267852 0.000000
O O10 0.822360 0.290988 0.953357
O O11 0.809557 0.160224 0.929122
O O12 0.303307 0.872272 0.748856
O O13 0.414295 0.921241 0.434680
O O14 0.307148 0.000000 0.673587
O O15 0.876511 0.500000 0.086371
O O16 0.799244 0.583206 0.028112
O O17 0.944551 0.587201 0.823958
O O18 0.000000 0.643099 0.500000
#
# Coordination Sequence:
#
# PCOD8114785 Si02
#       8
#     8   8   8   8   8   8   8   8
#     4  11  24  40  60  90 119 162 208 256 301 349
#     4  11  22  40  63  85 124 159 200 254 310 362
#     4  12  24  37  62  94 123 157 194 252 315 367
#     4  11  22  39  63  88 123 159 198 255 310 360
#     4  12  24  39  59  87 126 171 208 244 295 355
#     4  12  24  40  60  87 126 167 209 249 291 352
#     4  11  22  37  62  89 119 160 210 251 296 358
#     4  12  23  39  56  87 126 169 211 238 287 362
#
# _framework density 19.771930999999999
#
# number of rings (size 3 to 8) (size 9 to 14) (size 15 to 20)
#    0.000    0.500    6.250    3.000    1.750    0.500 
#    0.000    1.250    0.000    0.000    0.000    5.250 
#    0.000    0.000    0.000    0.000    0.000    0.000 
#
# Total GULP energy -396642.779357 kJ/mol
# GULP energy per Si atom -12395.086855 kJ/mol
# Density = 1.972693 g / cm^3
# Si number density = 19.771931 Si / 1000 Ang^3
#
#
#
# Elastic Constant Matrix: (Units=GPa)
#
#
# Indices 1 2 3 4 5 6 
#
# 1 118.8475 23.1374 46.3497 0.0000 2.0040 0.0000
# 2 23.1374 55.7592 35.9624 0.0000 -7.0867 0.0000
# 3 46.3497 35.9624 117.0431 0.0000 0.6829 0.0000
# 4 0.0000 0.0000 0.0000 21.0482 0.0000 1.3790
# 5 2.0040 -7.0867 0.6829 0.0000 38.9890 0.0000
# 6 0.0000 0.0000 0.0000 1.3790 0.0000 19.6894
#
#
#
# Elastic Compliance Matrix: (Units=1/GPa)
#
#
# Indices 1 2 3 4 5 6 
#
# 1 0.010157 -0.002161 -0.003353 0.000000 -0.000856 0.000000
# 2 -0.002161 0.023531 -0.006401 0.000000 0.004500 0.000000
# 3 -0.003353 -0.006401 0.011845 0.000000 -0.001198 0.000000
# 4 0.000000 0.000000 0.000000 0.047729 0.000000 -0.003343
# 5 -0.000856 0.004500 -0.001198 0.000000 0.026531 0.000000
# 6 0.000000 0.000000 0.000000 -0.003343 0.000000 0.051023
#
#
# Mechanical properties :
#
#
# Convention : Reuss Voigt Hill
#
# Bulk Modulus (GPa) = 46.07451 55.83875 50.95663
# Shear Modulus (GPa) = 24.76714 28.35869 26.56291
#
# Velocity S-wave (km/s) = 3.54311 3.79131 3.66931
# Velocity P-wave (km/s) = 6.33180 6.88971 6.61664
#
# Compressibility (1/GPa) = 0.02170398
#
# Stress axis : x y z
#
# Youngs Moduli (GPa) = 98.45424 42.49720 84.42052
#
# Poissons Ratio (x) = 0.09182 0.28309
# Poissons Ratio (y) = 0.21273 0.54035
# Poissons Ratio (z) = 0.33015 0.27201
#
# Static dielectric constant tensor:
#      x y z
#    x 3.857340 0.000000 -0.051730 
#    y 0.000000 3.329320 0.000000 
#    z -0.051730 0.000000 3.849830 
# 
# 
# High freq. dielectric constant tensor:
#      x y z
#    x 1.775210 0.000000 0.013380 
#    y 0.000000 1.723770 0.000000 
#    z 0.013380 0.000000 1.789220 
# 
# From -- ./inp_files/99062.got.cif
#   From: 2010.06.25/outbox.cif.g09.slc.cpg/sg12_50_cif.got.tgz:99062.got - 2010.06.28 00:19:55.
