data_PCOD8114006
_publ_section_title
;
Structure prediction by ZEFSAII (Michael W. Deem and Ramdas Pophale) SiO2 
 PCOD8114006
Probable space group: C 2/M
;
_chemical_formula_sum "Si O2"
_cell_formula_units_Z 64
_cell_length_a 14.357754
_cell_length_b 30.832982
_cell_length_c 11.431580
_cell_angle_alpha 90.000000
_cell_angle_beta 139.862202
_cell_angle_gamma 90.000000
_cell_volume 3262.252222
_symmetry_space_group_name_H-M "C 2/M"
_symmetry_group_IT_number 12
_symmetry_cell_setting 'monoclinic'
loop_
_space_group_symop_operation_xyz
x,y,z
-x,y,-z
-x,-y,-z
x,-y,z
1/2+x,1/2+y,z
1/2-x,1/2+y,-z
1/2-x,1/2-y,-z
1/2+x,1/2-y,z
loop_
_atom_site_type_symbol
_atom_site_label
_atom_site_fract_x
_atom_site_fract_y
_atom_site_fract_z
Si Si1 0.948260 0.654535 0.574319
Si Si2 0.005577 0.837784 0.878343
Si Si3 0.720196 0.143133 0.986289
Si Si4 0.797271 0.122428 0.514684
Si Si5 0.183503 0.452714 0.284590
Si Si6 0.740116 0.731664 0.361658
Si Si7 0.644745 0.950505 0.980499
Si Si8 0.675074 0.683488 0.669774
O O1 0.000000 0.634421 0.500000
O O2 0.827789 0.622280 0.508620
O O3 0.875553 0.700263 0.474315
O O4 0.068442 0.659972 0.790493
O O5 0.947559 0.870251 0.723741
O O6 0.914320 0.792917 0.798076
O O7 0.171166 0.833203 0.999687
O O8 0.000000 0.860023 0.000000
O O9 0.720673 0.089647 0.983877
O O10 0.754965 0.160969 0.149330
O O11 0.805931 0.076342 0.460985
O O12 0.766938 0.158773 0.388388
O O13 0.212024 0.500000 0.361771
O O14 0.209505 0.451195 0.171886
O O15 0.023569 0.437966 0.169261
O O16 0.750000 0.750000 0.500000
O O17 0.758959 0.768201 0.279642
O O18 0.665487 0.000000 0.946578
O O19 0.500000 0.683242 0.500000
#
# Coordination Sequence:
#
# PCOD8114006 Si02
#       8
#     8   8   8   8   8   8   8   8
#     4  11  24  40  61  85 121 170 213 255 303 369
#     4  11  25  42  60  83 122 175 209 252 310 375
#     4  12  22  39  68  95 122 165 214 253 322 382
#     4  11  20  40  63  85 127 157 203 256 312 368
#     4   9  17  33  59  94 128 155 187 247 325 383
#     4  11  22  44  61  83 125 159 207 266 315 354
#     4   9  18  32  59  98 134 153 189 257 319 381
#     4  12  23  40  64  93 123 161 205 268 318 373
#
# _framework density 19.618347
#
# number of rings (size 3 to 8) (size 9 to 14) (size 15 to 20)
#    0.000    1.250    6.250    2.625    0.000    1.500 
#    0.000    3.125    0.000    6.750    0.000    0.000 
#    0.000    0.000    0.000    0.000    0.000    0.000 
#
# Total GULP energy -396507.320070 kJ/mol
# GULP energy per Si atom -12390.853752 kJ/mol
# Density = 1.957369 g / cm^3
# Si number density = 19.618347 Si / 1000 Ang^3
#
#
#
# Elastic Constant Matrix: (Units=GPa)
#
#
# Indices 1 2 3 4 5 6 
#
# 1 77.4333 19.7878 1.0031 0.0000 -1.1446 0.0000
# 2 19.7878 117.0209 25.2760 0.0000 0.6190 0.0000
# 3 1.0031 25.2760 59.3693 0.0000 -10.6244 0.0000
# 4 0.0000 0.0000 0.0000 26.4327 0.0000 0.1901
# 5 -1.1446 0.6190 -10.6244 0.0000 30.8936 0.0000
# 6 0.0000 0.0000 0.0000 0.1901 0.0000 18.8855
#
#
#
# Elastic Compliance Matrix: (Units=1/GPa)
#
#
# Indices 1 2 3 4 5 6 
#
# 1 0.013557 -0.002514 0.001002 0.000000 0.000897 0.000000
# 2 -0.002514 0.009958 -0.004528 0.000000 -0.001850 0.000000
# 3 0.001002 -0.004528 0.020009 0.000000 0.007009 0.000000
# 4 0.000000 0.000000 0.000000 0.037835 0.000000 -0.000381
# 5 0.000897 -0.001850 0.007009 0.000000 0.034850 0.000000
# 6 0.000000 0.000000 0.000000 -0.000381 0.000000 0.052955
#
#
# Mechanical properties :
#
#
# Convention : Reuss Voigt Hill
#
# Bulk Modulus (GPa) = 31.80272 38.43970 35.12121
# Shear Modulus (GPa) = 26.07899 29.09279 27.58589
#
# Velocity S-wave (km/s) = 3.64993 3.85507 3.75390
# Velocity P-wave (km/s) = 5.83169 6.28106 6.06054
#
# Compressibility (1/GPa) = 0.03144386
#
# Stress axis : x y z
#
# Youngs Moduli (GPa) = 73.76292 100.41792 49.97760
#
# Poissons Ratio (x) = 0.25240 -0.05006
# Poissons Ratio (y) = 0.18540 0.22631
# Poissons Ratio (z) = -0.07388 0.45472
#
# Static dielectric constant tensor:
#      x y z
#    x 3.589520 0.000000 -0.018210 
#    y 0.000000 3.778800 0.000000 
#    z -0.018210 0.000000 3.657060 
# 
# 
# High freq. dielectric constant tensor:
#      x y z
#    x 1.759250 0.000000 -0.001180 
#    y 0.000000 1.752270 0.000000 
#    z -0.001180 0.000000 1.764920 
# 
# From -- ./inp_files/150287.got.cif
#   From: 2010.06.25/outbox.cif.g09.slc.cpg/sg12_76_cif.got.tgz:150287.got - 2010.06.28 00:19:55.
