data_PCOD8114396
_publ_section_title
;
Structure prediction by ZEFSAII (Michael W. Deem and Ramdas Pophale) SiO2 
 PCOD8114396
Probable space group: C 2/M
;
_chemical_formula_sum "Si O2"
_cell_formula_units_Z 56
_cell_length_a 14.603575
_cell_length_b 16.543373
_cell_length_c 14.086306
_cell_angle_alpha 90.000000
_cell_angle_beta 63.896644
_cell_angle_gamma 90.000000
_cell_volume 3056.029735
_symmetry_space_group_name_H-M "C 2/M"
_symmetry_group_IT_number 12
_symmetry_cell_setting 'monoclinic'
loop_
_space_group_symop_operation_xyz
x,y,z
-x,y,-z
-x,-y,-z
x,-y,z
1/2+x,1/2+y,z
1/2-x,1/2+y,-z
1/2-x,1/2-y,-z
1/2+x,1/2-y,z
loop_
_atom_site_type_symbol
_atom_site_label
_atom_site_fract_x
_atom_site_fract_y
_atom_site_fract_z
Si Si1 0.661843 0.708323 0.168399
Si Si2 0.119327 0.500000 0.827695
Si Si3 0.255967 0.368263 0.046395
Si Si4 0.073979 0.201879 0.714117
Si Si5 0.881413 0.500000 0.961242
Si Si6 0.222850 0.653259 0.696149
Si Si7 0.099206 0.094780 0.517590
Si Si8 0.580834 0.410093 0.889825
O O1 0.726438 0.782962 0.102610
O O2 0.543310 0.730890 0.235674
O O3 0.709971 0.681461 0.245682
O O4 0.674918 0.639812 0.080984
O O5 0.150393 0.579774 0.757535
O O6 0.000516 0.500000 0.898808
O O7 0.166596 0.500000 0.911181
O O8 0.154738 0.418204 0.071828
O O9 0.314605 0.417447 0.100290
O O10 0.150941 0.277417 0.684477
O O11 0.096311 0.147627 0.613128
O O12 0.094943 0.147629 0.795358
O O13 0.299065 0.620998 0.582127
O O14 0.000000 0.113630 0.500000
O O15 0.103422 0.000000 0.542034
O O16 0.547033 0.500000 0.872017
O O17 0.500000 0.371240 0.000000
#
# Coordination Sequence:
#
# PCOD8114396 Si02
#       8
#     8   4   8   8   4   8   8   8
#     4  11  23  37  60  91 123 162 209 248 305 362
#     4  11  24  40  61  93 123 169 217 252 310 363
#     4  11  21  38  57  86 128 165 203 252 296 367
#     4  12  24  41  63  93 123 165 205 260 309 381
#     4  11  22  38  61  89 123 175 211 248 304 371
#     4  12  23  43  65  88 127 162 206 265 310 366
#     4  11  24  43  69  94 120 154 206 265 321 371
#     4  11  22  36  58  89 125 163 202 247 309 371
#
# _framework density 18.324428999999999
#
# number of rings (size 3 to 8) (size 9 to 14) (size 15 to 20)
#    0.000    0.714    7.143    1.714    0.000    0.000 
#    5.143    0.000    0.000    0.000    0.000    2.500 
#    0.000    0.000    0.000    0.000    0.000    0.000 
#
# Total GULP energy -347188.359939 kJ/mol
# GULP energy per Si atom -12399.584284 kJ/mol
# Density = 1.828272 g / cm^3
# Si number density = 18.324429 Si / 1000 Ang^3
#
#
#
# Elastic Constant Matrix: (Units=GPa)
#
#
# Indices 1 2 3 4 5 6 
#
# 1 96.5878 41.7908 44.0218 0.0000 1.1359 0.0000
# 2 41.7908 97.5023 43.6467 0.0000 6.8538 0.0000
# 3 44.0218 43.6467 110.6156 0.0000 -0.3947 0.0000
# 4 0.0000 0.0000 0.0000 -67.9901 0.0000 -24.3174
# 5 1.1359 6.8538 -0.3947 0.0000 32.4308 0.0000
# 6 0.0000 0.0000 0.0000 -24.3174 0.0000 29.9670
#
#
#
# Elastic Compliance Matrix: (Units=1/GPa)
#
#
# Indices 1 2 3 4 5 6 
#
# 1 0.013963 -0.004280 -0.003867 0.000000 0.000368 0.000000
# 2 -0.004280 0.014008 -0.003834 0.000000 -0.002857 0.000000
# 3 -0.003867 -0.003834 0.012096 0.000000 0.001093 0.000000
# 4 0.000000 0.000000 0.000000 -0.011400 0.000000 -0.009250
# 5 0.000368 -0.002857 0.001093 0.000000 0.031439 0.000000
# 6 0.000000 0.000000 0.000000 -0.009250 0.000000 0.025864
#
#
# Mechanical properties :
#
#
# Convention : Reuss Voigt Hill
#
# Bulk Modulus (GPa) = 62.09132 62.62491 62.35811
# Shear Modulus (GPa) = 43.36520 10.56462 26.96491
#
# Velocity S-wave (km/s) = 4.86997 2.40371 3.84021
# Velocity P-wave (km/s) = 8.09816 6.47716 7.33259
#
# Compressibility (1/GPa) = 0.01610531
#
# Stress axis : x y z
#
# Youngs Moduli (GPa) = 71.61762 71.38942 82.67184
#
# Poissons Ratio (x) = 0.30552 0.31968
# Poissons Ratio (y) = 0.30650 0.31698
# Poissons Ratio (z) = 0.27694 0.27372
#
# Static dielectric constant tensor:
#      x y z
#    x 3.434270 0.000000 0.059230 
#    y 0.000000 3.383440 0.000000 
#    z 0.059230 0.000000 3.488940 
# 
# 
# High freq. dielectric constant tensor:
#      x y z
#    x 1.720430 0.000000 0.000250 
#    y 0.000000 1.717670 0.000000 
#    z 0.000250 0.000000 1.712530 
# 
# From -- ./inp_files/145710.got.cif
#   From: 2010.06.25/outbox.cif.g09.slc.cpg/sg12_73_cif.got.tgz:145710.got - 2010.06.28 00:19:55.
