data_PCOD8114856
_publ_section_title
;
Structure prediction by ZEFSAII (Michael W. Deem and Ramdas Pophale) SiO2 
 PCOD8114856
Probable space group: C 2/M
;
_chemical_formula_sum "Si O2"
_cell_formula_units_Z 56
_cell_length_a 12.151509
_cell_length_b 19.397241
_cell_length_c 13.292216
_cell_angle_alpha 90.000000
_cell_angle_beta 63.164448
_cell_angle_gamma 90.000000
_cell_volume 2795.640466
_symmetry_space_group_name_H-M "C 2/M"
_symmetry_group_IT_number 12
_symmetry_cell_setting 'monoclinic'
loop_
_space_group_symop_operation_xyz
x,y,z
-x,y,-z
-x,-y,-z
x,-y,z
1/2+x,1/2+y,z
1/2-x,1/2+y,-z
1/2-x,1/2-y,-z
1/2+x,1/2-y,z
loop_
_atom_site_type_symbol
_atom_site_label
_atom_site_fract_x
_atom_site_fract_y
_atom_site_fract_z
Si Si1 0.545835 0.921031 0.592958
Si Si2 0.810537 0.193652 0.734083
Si Si3 0.218277 0.173526 0.481270
Si Si4 0.541762 0.778165 0.872663
Si Si5 0.119666 0.921869 0.889442
Si Si6 0.138738 0.341020 0.201214
Si Si7 0.543190 0.647257 0.733541
O O1 0.500000 0.909564 0.500000
O O2 0.660828 0.872985 0.568845
O O3 0.432781 0.900450 0.710400
O O4 0.582704 0.000000 0.598542
O O5 0.836745 0.174449 0.607856
O O6 0.669654 0.178931 0.825500
O O7 0.849629 0.273156 0.734805
O O8 0.897968 0.145122 0.766719
O O9 0.250000 0.250000 0.500000
O O10 0.118447 0.143524 0.599094
O O11 0.432191 0.824689 0.873152
O O12 0.573775 0.715202 0.785914
O O13 0.500000 0.753027 0.000000
O O14 0.226841 0.870239 0.880827
O O15 0.086249 0.916570 0.784465
O O16 0.158870 0.000000 0.896833
O O17 0.000000 0.898837 0.000000
#
# Coordination Sequence:
#
# PCOD8114856 Si02
#       7
#     8   8   8   8   8   8   8
#     4  11  23  38  62  93 124 161 207 257 310 370
#     4  11  22  38  62  95 124 161 196 253 315 371
#     4  12  20  39  59  92 128 160 208 251 312 373
#     4  11  23  38  62  97 122 157 203 257 315 364
#     4  11  24  42  63  88 119 163 213 251 297 364
#     4  11  22  40  65  89 125 160 201 259 309 367
#     4  11  23  37  61  88 127 161 198 251 308 367
#
# _framework density 20.031188
#
# number of rings (size 3 to 8) (size 9 to 14) (size 15 to 20)
#    0.000    0.857    4.286    3.857    2.000    2.857 
#    0.000    0.714    0.000    3.429    0.000    0.000 
#    0.000    0.000    0.000    0.000    0.000    0.000 
#
# Total GULP energy -347270.612644 kJ/mol
# GULP energy per Si atom -12402.521880 kJ/mol
# Density = 1.998560 g / cm^3
# Si number density = 20.031188 Si / 1000 Ang^3
#
#
#
# Elastic Constant Matrix: (Units=GPa)
#
#
# Indices 1 2 3 4 5 6 
#
# 1 134.7654 28.3481 31.6257 0.0000 -5.3608 0.0000
# 2 28.3481 62.3771 5.2376 0.0000 -0.8006 0.0000
# 3 31.6257 5.2376 104.4046 0.0000 -9.8959 0.0000
# 4 0.0000 0.0000 0.0000 24.8804 0.0000 -1.6444
# 5 -5.3608 -0.8006 -9.8959 0.0000 33.5610 0.0000
# 6 0.0000 0.0000 0.0000 -1.6444 0.0000 27.1298
#
#
#
# Elastic Compliance Matrix: (Units=1/GPa)
#
#
# Indices 1 2 3 4 5 6 
#
# 1 0.008810 -0.003793 -0.002421 0.000000 0.000603 0.000000
# 2 -0.003793 0.017733 0.000249 0.000000 -0.000109 0.000000
# 3 -0.002421 0.000249 0.010558 0.000000 0.002732 0.000000
# 4 0.000000 0.000000 0.000000 0.040354 0.000000 0.002446
# 5 0.000603 -0.000109 0.002732 0.000000 0.030696 0.000000
# 6 0.000000 0.000000 0.000000 0.002446 0.000000 0.037008
#
#
# Mechanical properties :
#
#
# Convention : Reuss Voigt Hill
#
# Bulk Modulus (GPa) = 39.72868 47.99664 43.86266
# Shear Modulus (GPa) = 30.21509 32.86995 31.54252
#
# Velocity S-wave (km/s) = 3.88803 4.05524 3.97252
# Velocity P-wave (km/s) = 6.32710 6.77788 6.55636
#
# Compressibility (1/GPa) = 0.02517073
#
# Stress axis : x y z
#
# Youngs Moduli (GPa) = 113.50281 56.39213 94.71413
#
# Poissons Ratio (x) = 0.21389 0.22934
# Poissons Ratio (y) = 0.43051 -0.02358
# Poissons Ratio (z) = 0.27483 -0.01404
#
# Static dielectric constant tensor:
#      x y z
#    x 3.948860 0.000000 0.020510 
#    y 0.000000 3.427750 0.000000 
#    z 0.020510 0.000000 3.862940 
# 
# 
# High freq. dielectric constant tensor:
#      x y z
#    x 1.800600 0.000000 -0.003380 
#    y 0.000000 1.751730 0.000000 
#    z -0.003380 0.000000 1.787380 
# 
# From -- ./inp_files/133874.got.cif
#   From: 2010.06.25/outbox.cif.g09.slc.cpg/sg12_67_cif.got.tgz:133874.got - 2010.06.28 00:19:55.
