data_PCOD8114381
_publ_section_title
;
Structure prediction by ZEFSAII (Michael W. Deem and Ramdas Pophale) SiO2 
 PCOD8114381
Probable space group: C 2/M
;
_chemical_formula_sum "Si O2"
_cell_formula_units_Z 36
_cell_length_a 13.681642
_cell_length_b 21.273651
_cell_length_c 8.065964
_cell_angle_alpha 90.000000
_cell_angle_beta 44.407394
_cell_angle_gamma 90.000000
_cell_volume 1642.793121
_symmetry_space_group_name_H-M "C 2/M"
_symmetry_group_IT_number 12
_symmetry_cell_setting 'monoclinic'
loop_
_space_group_symop_operation_xyz
x,y,z
-x,y,-z
-x,-y,-z
x,-y,z
1/2+x,1/2+y,z
1/2-x,1/2+y,-z
1/2-x,1/2-y,-z
1/2+x,1/2-y,z
loop_
_atom_site_type_symbol
_atom_site_label
_atom_site_fract_x
_atom_site_fract_y
_atom_site_fract_z
Si Si1 0.186482 0.367322 0.511225
Si Si2 0.500000 0.815597 0.000000
Si Si3 0.465360 0.500000 0.794982
Si Si4 0.763482 0.000000 0.310628
Si Si5 0.474922 0.364621 0.351031
Si Si6 0.693299 0.716927 0.905473
O O1 0.173969 0.438358 0.460674
O O2 0.317521 0.358338 0.476407
O O3 0.193321 0.319537 0.346011
O O4 0.043011 0.356665 0.787350
O O5 0.634703 0.773194 0.867047
O O6 0.590203 0.500000 0.773846
O O7 0.479250 0.436627 0.672673
O O8 0.309990 0.500000 0.062650
O O9 0.500000 0.331179 0.500000
O O10 0.572527 0.332905 0.095119
O O11 0.750000 0.750000 0.000000
#
# Coordination Sequence:
#
# PCOD8114381 Si02
#       6
#     8   4   4   4   8   8
#     4  11  23  44  64  94 129 167 218 262 320 382
#     4  12  26  41  62  89 138 174 206 262 314 386
#     4   9  17  34  62  95 123 158 209 270 323 364
#     4   9  18  37  68  90 120 166 212 265 321 371
#     4  11  21  37  64  98 127 163 210 270 321 377
#     4  12  25  40  65  93 129 170 212 261 321 383
#
# _framework density 21.913896999999999
#
# number of rings (size 3 to 8) (size 9 to 14) (size 15 to 20)
#    0.000    1.111    4.444    2.333    3.111    0.444 
#    0.000    0.000    0.000    4.000    0.000    0.000 
#    0.000    0.000    0.000    0.000    0.000    0.000 
#
# Total GULP energy -223140.030816 kJ/mol
# GULP energy per Si atom -12396.668379 kJ/mol
# Density = 2.186402 g / cm^3
# Si number density = 21.913897 Si / 1000 Ang^3
#
#
#
# Elastic Constant Matrix: (Units=GPa)
#
#
# Indices 1 2 3 4 5 6 
#
# 1 54.6557 20.6606 3.9462 0.0000 21.5315 0.0000
# 2 20.6606 133.4885 64.5595 0.0000 6.0582 0.0000
# 3 3.9462 64.5595 154.2437 0.0000 22.8149 0.0000
# 4 0.0000 0.0000 0.0000 27.9254 0.0000 6.2591
# 5 21.5315 6.0582 22.8149 0.0000 28.3438 0.0000
# 6 0.0000 0.0000 0.0000 6.2591 0.0000 22.7912
#
#
#
# Elastic Compliance Matrix: (Units=1/GPa)
#
#
# Indices 1 2 3 4 5 6 
#
# 1 0.030827 -0.006381 0.005840 0.000000 -0.026754 0.000000
# 2 -0.006381 0.010757 -0.005353 0.000000 0.006857 0.000000
# 3 0.005840 -0.005353 0.010286 0.000000 -0.011571 0.000000
# 4 0.000000 0.000000 0.000000 0.038159 0.000000 -0.010479
# 5 -0.026754 0.006857 -0.011571 0.000000 0.063453 0.000000
# 6 0.000000 0.000000 0.000000 -0.010479 0.000000 0.046754
#
#
# Mechanical properties :
#
#
# Convention : Reuss Voigt Hill
#
# Bulk Modulus (GPa) = 24.95044 57.85784 41.40414
# Shear Modulus (GPa) = 22.18419 32.69353 27.43886
#
# Velocity S-wave (km/s) = 3.18517 3.86671 3.54237
# Velocity P-wave (km/s) = 4.99374 6.81138 5.97212
#
# Compressibility (1/GPa) = 0.04007946
#
# Stress axis : x y z
#
# Youngs Moduli (GPa) = 32.43953 92.96466 97.21847
#
# Poissons Ratio (x) = 0.59322 -0.56771
# Poissons Ratio (y) = 0.20700 0.52045
# Poissons Ratio (z) = -0.18943 0.49767
#
# Static dielectric constant tensor:
#      x y z
#    x 3.273990 0.000000 0.097590 
#    y 0.000000 4.212730 0.000000 
#    z 0.097590 0.000000 3.842560 
# 
# 
# High freq. dielectric constant tensor:
#      x y z
#    x 1.830830 0.000000 0.025760 
#    y 0.000000 1.871850 0.000000 
#    z 0.025760 0.000000 1.864820 
# 
# From -- ./inp_files/48446.got.cif
#   From: 2010.06.25/outbox.cif.g09.slc.cpg/sg12_25_cif.got.tgz:48446.got - 2010.06.28 00:19:55.
