data_PCOD8114124
_publ_section_title
;
Structure prediction by ZEFSAII (Michael W. Deem and Ramdas Pophale) SiO2 
 PCOD8114124
Probable space group: C 2/M
;
_chemical_formula_sum "Si O2"
_cell_formula_units_Z 48
_cell_length_a 19.217563
_cell_length_b 8.981066
_cell_length_c 29.678533
_cell_angle_alpha 90.000000
_cell_angle_beta 148.497945
_cell_angle_gamma 90.000000
_cell_volume 2676.573360
_symmetry_space_group_name_H-M "C 2/M"
_symmetry_group_IT_number 12
_symmetry_cell_setting 'monoclinic'
loop_
_space_group_symop_operation_xyz
x,y,z
-x,y,-z
-x,-y,-z
x,-y,z
1/2+x,1/2+y,z
1/2-x,1/2+y,-z
1/2-x,1/2-y,-z
1/2+x,1/2-y,z
loop_
_atom_site_type_symbol
_atom_site_label
_atom_site_fract_x
_atom_site_fract_y
_atom_site_fract_z
Si Si1 0.885518 0.675727 0.971433
Si Si2 0.468271 0.672548 0.872021
Si Si3 0.586331 0.671784 0.259862
Si Si4 0.384799 0.823247 0.405120
Si Si5 0.882740 0.675105 0.209409
Si Si6 0.173975 0.324631 0.723513
O O1 0.870445 0.500000 0.963739
O O2 0.745337 0.743752 0.880609
O O3 0.000000 0.728859 0.000000
O O4 0.920179 0.732530 0.040654
O O5 0.485655 0.500000 0.894633
O O6 0.483954 0.695954 0.827204
O O7 0.324936 0.736365 0.808716
O O8 0.575025 0.500000 0.268147
O O9 0.739890 0.723483 0.343440
O O10 0.514987 0.773480 0.257236
O O11 0.500000 0.751400 0.500000
O O12 0.401623 0.762822 0.362861
O O13 0.397433 0.000000 0.412738
O O14 0.862125 0.500000 0.192332
O O15 0.902488 0.718746 0.273032
O O16 0.187659 0.500000 0.724542
#
# Coordination Sequence:
#
# PCOD8114124 Si02
#       6
#     8   8   8   8   8   8
#     4  11  22  33  49  75 103 129 168 217 254 290
#     4   9  17  33  53  70  95 135 176 210 244 290
#     4   9  19  34  52  76 105 131 165 212 253 293
#     4   8  14  29  55  80  99 126 166 208 248 296
#     4  11  21  33  51  72 102 140 170 204 250 301
#     4   8  15  28  48  73  97 128 171 206 239 293
#
# _framework density 17.933377
#
# number of rings (size 3 to 8) (size 9 to 14) (size 15 to 20)
#    0.000    2.667    1.667    3.000    0.000    2.000 
#    0.000    0.833    0.000    0.500    0.000    0.000 
#    0.000    0.000    0.000    0.000    0.000    0.000 
#
# Total GULP energy -297515.334460 kJ/mol
# GULP energy per Si atom -12396.472269 kJ/mol
# Density = 1.789256 g / cm^3
# Si number density = 17.933377 Si / 1000 Ang^3
#
#
#
# Elastic Constant Matrix: (Units=GPa)
#
#
# Indices 1 2 3 4 5 6 
#
# 1 120.6671 37.4917 64.2918 0.0000 -7.3883 0.0001
# 2 37.4917 44.8510 31.7645 -0.0001 -3.4097 0.0005
# 3 64.2918 31.7645 135.5866 0.0002 -18.5183 0.0000
# 4 0.0000 -0.0001 0.0002 8.0198 0.0000 5.2909
# 5 -7.3883 -3.4097 -18.5183 0.0000 23.8396 0.0000
# 6 0.0001 0.0005 0.0000 5.2909 0.0000 26.9904
#
#
#
# Elastic Compliance Matrix: (Units=1/GPa)
#
#
# Indices 1 2 3 4 5 6 
#
# 1 0.013038 -0.007804 -0.004424 0.000000 -0.000512 0.000000
# 2 -0.007804 0.031432 -0.003780 0.000001 -0.000860 -0.000001
# 3 -0.004424 -0.003780 0.011296 0.000000 0.006863 0.000000
# 4 0.000000 0.000001 0.000000 0.143211 0.000000 -0.028073
# 5 -0.000512 -0.000860 0.006863 0.000000 0.046996 0.000000
# 6 0.000000 -0.000001 0.000000 -0.028073 0.000000 0.042553
#
#
# Mechanical properties :
#
#
# Convention : Reuss Voigt Hill
#
# Bulk Modulus (GPa) = 42.10797 63.13340 52.62068
# Shear Modulus (GPa) = 15.22256 22.94043 19.08149
#
# Velocity S-wave (km/s) = 2.91665 3.58047 3.26547
# Velocity P-wave (km/s) = 5.90539 7.23698 6.60483
#
# Compressibility (1/GPa) = 0.02374847
#
# Stress axis : x y z
#
# Youngs Moduli (GPa) = 76.70036 31.81477 88.52713
#
# Poissons Ratio (x) = 0.24830 0.39162
# Poissons Ratio (y) = 0.59860 0.33467
# Poissons Ratio (z) = 0.33930 0.12027
#
# Static dielectric constant tensor:
#      x y z
#    x 3.465820 0.000000 -0.221950 
#    y 0.000000 2.966750 0.000000 
#    z -0.221950 0.000000 3.428240 
# 
# 
# High freq. dielectric constant tensor:
#      x y z
#    x 1.697130 0.000000 -0.012090 
#    y 0.000000 1.661740 0.000000 
#    z -0.012090 0.000000 1.684360 
# 
# From -- ./inp_files/230459.got.cif
#   From: 2010.06.25/outbox.cif.g09.slc.cpg/sg12_116_cif.got.tgz:230459.got - 2010.06.28 00:19:55.
