data_PCOD8114466
_publ_section_title
;
Structure prediction by ZEFSAII (Michael W. Deem and Ramdas Pophale) SiO2 
 PCOD8114466
Probable space group: C 2/M
;
_chemical_formula_sum "Si O2"
_cell_formula_units_Z 52
_cell_length_a 14.937587
_cell_length_b 29.207044
_cell_length_c 9.079172
_cell_angle_alpha 90.000000
_cell_angle_beta 141.964966
_cell_angle_gamma 90.000000
_cell_volume 2440.596327
_symmetry_space_group_name_H-M "C 2/M"
_symmetry_group_IT_number 12
_symmetry_cell_setting 'monoclinic'
loop_
_space_group_symop_operation_xyz
x,y,z
-x,y,-z
-x,-y,-z
x,-y,z
1/2+x,1/2+y,z
1/2-x,1/2+y,-z
1/2-x,1/2-y,-z
1/2+x,1/2-y,z
loop_
_atom_site_type_symbol
_atom_site_label
_atom_site_fract_x
_atom_site_fract_y
_atom_site_fract_z
Si Si1 0.125499 0.670643 0.545681
Si Si2 0.741697 0.923077 0.050617
Si Si3 0.411549 0.839060 0.016056
Si Si4 0.213579 0.000000 0.366579
Si Si5 0.647707 0.407603 0.118902
Si Si6 0.645760 0.500000 0.606910
Si Si7 0.027126 0.500000 0.702053
Si Si8 0.171962 0.750625 0.238309
O O1 0.218059 0.624005 0.659017
O O2 0.235296 0.711601 0.731619
O O3 0.000000 0.664095 0.500000
O O4 0.041678 0.681354 0.284936
O O5 0.694907 0.872620 0.037264
O O6 0.857454 0.915089 0.066770
O O7 0.606581 0.952036 0.821515
O O8 0.787987 0.951822 0.254012
O O9 0.500000 0.864519 0.000000
O O10 0.311601 0.798224 0.821619
O O11 0.167577 0.043021 0.213410
O O12 0.129787 0.000000 0.412097
O O13 0.385617 0.000000 0.622249
O O14 0.500000 0.386786 0.000000
O O15 0.500000 0.500000 0.500000
O O16 0.000000 0.500000 0.500000
O O17 0.250000 0.750000 0.500000
O O18 0.000000 0.764066 0.000000
#
# Coordination Sequence:
#
# PCOD8114466 Si02
#       8
#     8   8   8   4   8   4   4   8
#     4  12  25  46  73 106 143 185 247 302 362 440
#     4  11  24  43  65 101 143 184 241 302 358 437
#     4  11  24  44  74 103 144 188 236 302 370 435
#     4  12  24  38  72  99 134 193 235 297 364 430
#     4  12  25  44  69 101 143 192 240 293 367 437
#     4  11  26  44  62  95 145 187 243 301 358 429
#     4  11  21  39  66 100 136 186 240 296 351 426
#     4  11  23  48  75 107 145 191 241 304 375 448
#
# _framework density 21.306267999999999
#
# number of rings (size 3 to 8) (size 9 to 14) (size 15 to 20)
#    0.000    0.615    6.154    3.000    4.308    1.231 
#    0.000    0.769    0.000    0.000    0.000    0.000 
#    0.000    0.000    0.000    0.000    0.000    0.000 
#
# Total GULP energy -322102.434345 kJ/mol
# GULP energy per Si atom -12388.555167 kJ/mol
# Density = 2.125777 g / cm^3
# Si number density = 21.306268 Si / 1000 Ang^3
#
#
#
# Elastic Constant Matrix: (Units=GPa)
#
#
# Indices 1 2 3 4 5 6 
#
# 1 164.8813 60.6596 43.7493 0.0000 5.8448 0.0000
# 2 60.6596 151.4797 55.2080 0.0000 1.0202 0.0000
# 3 43.7493 55.2080 103.1032 0.0000 1.8496 0.0000
# 4 0.0000 0.0000 0.0000 44.2416 0.0000 -17.4503
# 5 5.8448 1.0202 1.8496 0.0000 42.1260 0.0000
# 6 0.0000 0.0000 0.0000 -17.4503 0.0000 22.8486
#
#
#
# Elastic Compliance Matrix: (Units=1/GPa)
#
#
# Indices 1 2 3 4 5 6 
#
# 1 0.007444 -0.002273 -0.001925 0.000000 -0.000893 0.000000
# 2 -0.002273 0.008896 -0.003804 0.000000 0.000267 0.000000
# 3 -0.001925 -0.003804 0.012556 0.000000 -0.000192 0.000000
# 4 0.000000 0.000000 0.000000 0.032348 0.000000 0.024705
# 5 -0.000893 0.000267 -0.000192 0.000000 0.023864 0.000000
# 6 0.000000 0.000000 0.000000 0.024705 0.000000 0.062635
#
#
# Mechanical properties :
#
#
# Convention : Reuss Voigt Hill
#
# Bulk Modulus (GPa) = 77.56982 82.07757 79.82370
# Shear Modulus (GPa) = 29.75390 39.16639 34.46015
#
# Velocity S-wave (km/s) = 3.74101 4.29214 4.02602
# Velocity P-wave (km/s) = 7.42606 7.94793 7.69142
#
# Compressibility (1/GPa) = 0.01289161
#
# Stress axis : x y z
#
# Youngs Moduli (GPa) = 134.34028 112.40522 79.64108
#
# Poissons Ratio (x) = 0.25551 0.15334
# Poissons Ratio (y) = 0.30537 0.30295
# Poissons Ratio (z) = 0.25866 0.42758
#
# Static dielectric constant tensor:
#      x y z
#    x 4.161830 0.000000 0.039920 
#    y 0.000000 3.520180 0.000000 
#    z 0.039920 0.000000 4.045340 
# 
# 
# High freq. dielectric constant tensor:
#      x y z
#    x 1.844560 0.000000 -0.001530 
#    y 0.000000 1.843750 0.000000 
#    z -0.001530 0.000000 1.837050 
# 
# From -- ./inp_files/68722.got.cif
#   From: 2010.06.25/outbox.cif.g09.slc.cpg/sg12_35_cif.got.tgz:68722.got - 2010.06.28 00:19:55.
