data_PCOD8114126
_publ_section_title
;
Structure prediction by ZEFSAII (Michael W. Deem and Ramdas Pophale) SiO2 
 PCOD8114126
Probable space group: C 2/M
;
_chemical_formula_sum "Si O2"
_cell_formula_units_Z 64
_cell_length_a 18.887969
_cell_length_b 9.028000
_cell_length_c 35.676028
_cell_angle_alpha 90.000000
_cell_angle_beta 143.549690
_cell_angle_gamma 90.000000
_cell_volume 3614.360259
_symmetry_space_group_name_H-M "C 2/M"
_symmetry_group_IT_number 12
_symmetry_cell_setting 'monoclinic'
loop_
_space_group_symop_operation_xyz
x,y,z
-x,y,-z
-x,-y,-z
x,-y,z
1/2+x,1/2+y,z
1/2-x,1/2+y,-z
1/2-x,1/2-y,-z
1/2+x,1/2-y,z
loop_
_atom_site_type_symbol
_atom_site_label
_atom_site_fract_x
_atom_site_fract_y
_atom_site_fract_z
Si Si1 0.734024 0.671430 0.231158
Si Si2 0.965733 0.326663 0.372795
Si Si3 0.813908 0.675506 0.865868
Si Si4 0.468717 0.331310 0.136057
Si Si5 0.794031 0.670629 0.554972
Si Si6 0.283364 0.826367 0.105345
Si Si7 0.444261 0.327830 0.040091
Si Si8 0.057540 0.825354 0.486603
O O1 0.751117 0.500000 0.226631
O O2 0.839090 0.727221 0.303037
O O3 0.736183 0.770072 0.195045
O O4 0.610203 0.692299 0.200448
O O5 0.963016 0.500000 0.380986
O O6 0.064611 0.292204 0.381747
O O7 0.993278 0.243355 0.423087
O O8 0.814998 0.500000 0.867335
O O9 0.726170 0.737643 0.860157
O O10 0.946688 0.735230 0.930489
O O11 0.432864 0.500000 0.130283
O O12 0.406092 0.220308 0.138009
O O13 0.426934 0.290359 0.076333
O O14 0.777327 0.500000 0.539598
O O15 0.750000 0.750000 0.500000
O O16 0.701085 0.713796 0.548730
O O17 0.285591 0.000000 0.114690
O O18 0.174916 0.781549 0.031986
O O19 0.476472 0.500000 0.048292
O O20 0.000000 0.759064 0.500000
O O21 0.035340 0.000000 0.475212
#
# Coordination Sequence:
#
# PCOD8114126 Si02
#       8
#     8   8   8   8   8   8   8   8
#     4   9  19  37  55  70  95 131 168 208 253 296
#     4   9  17  31  53  74  93 126 168 202 234 284
#     4  11  22  34  51  74  99 128 165 208 248 292
#     4   9  18  33  51  71  98 129 162 204 251 298
#     4   8  14  26  45  69  95 124 159 193 228 273
#     4  11  21  33  51  74 100 129 161 201 253 305
#     4   9  19  35  53  73  99 130 161 199 251 305
#     4   9  17  29  46  72 107 136 156 193 245 284
#
# _framework density 17.707144
#
# number of rings (size 3 to 8) (size 9 to 14) (size 15 to 20)
#    0.000    2.625    0.000    3.000    0.000    5.250 
#    0.000    1.250    0.000    1.500    0.000    0.000 
#    0.000    0.000    0.000    0.000    0.000    0.000 
#
# Total GULP energy -396608.657925 kJ/mol
# GULP energy per Si atom -12394.020560 kJ/mol
# Density = 1.766684 g / cm^3
# Si number density = 17.707144 Si / 1000 Ang^3
#
#
#
# Elastic Constant Matrix: (Units=GPa)
#
#
# Indices 1 2 3 4 5 6 
#
# 1 139.6148 48.6038 54.5295 -0.0001 3.3484 0.0001
# 2 48.6038 65.2755 29.3772 0.0000 0.5307 0.0003
# 3 54.5295 29.3772 91.0717 0.0000 13.5005 0.0000
# 4 -0.0001 0.0000 0.0000 20.8538 0.0000 0.1086
# 5 3.3484 0.5307 13.5005 0.0000 16.7881 0.0000
# 6 0.0001 0.0003 0.0000 0.1086 0.0000 28.7870
#
#
#
# Elastic Compliance Matrix: (Units=1/GPa)
#
#
# Indices 1 2 3 4 5 6 
#
# 1 0.011203 -0.006089 -0.005042 0.000000 0.002013 0.000000
# 2 -0.006089 0.021554 -0.003844 0.000000 0.003624 0.000000
# 3 -0.005042 -0.003844 0.017112 0.000000 -0.012634 0.000000
# 4 0.000000 0.000000 0.000000 0.047954 0.000000 -0.000181
# 5 0.002013 0.003624 -0.012634 0.000000 0.069210 0.000000
# 6 0.000000 0.000000 0.000000 -0.000181 0.000000 0.034739
#
#
# Mechanical properties :
#
#
# Convention : Reuss Voigt Hill
#
# Bulk Modulus (GPa) = 50.20387 62.33145 56.26766
# Shear Modulus (GPa) = 20.97636 24.18254 22.57945
#
# Velocity S-wave (km/s) = 3.44557 3.69954 3.57481
# Velocity P-wave (km/s) = 6.65156 7.31618 6.99177
#
# Compressibility (1/GPa) = 0.01991878
#
# Stress axis : x y z
#
# Youngs Moduli (GPa) = 89.25813 46.39468 58.43717
#
# Poissons Ratio (x) = 0.28250 0.29466
# Poissons Ratio (y) = 0.54350 0.22464
# Poissons Ratio (z) = 0.45007 0.17835
#
# Static dielectric constant tensor:
#      x y z
#    x 3.671460 0.000000 0.324320 
#    y 0.000000 3.252110 0.000000 
#    z 0.324320 0.000000 3.243410 
# 
# 
# High freq. dielectric constant tensor:
#      x y z
#    x 1.692780 0.000000 0.013530 
#    y 0.000000 1.681530 0.000000 
#    z 0.013530 0.000000 1.660490 
# 
# From -- ./inp_files/341949.got.cif
#   From: 2010.06.25/outbox.cif.g09.slc.cpg/sg12_171_cif.got.tgz:341949.got - 2010.06.28 00:19:55.
