data_PCOD8114531
_publ_section_title
;
Structure prediction by ZEFSAII (Michael W. Deem and Ramdas Pophale) SiO2 
 PCOD8114531
Probable space group: C 2/M
;
_chemical_formula_sum "Si O2"
_cell_formula_units_Z 64
_cell_length_a 12.109495
_cell_length_b 17.687922
_cell_length_c 14.537846
_cell_angle_alpha 90.000000
_cell_angle_beta 86.698292
_cell_angle_gamma 90.000000
_cell_volume 3108.718706
_symmetry_space_group_name_H-M "C 2/M"
_symmetry_group_IT_number 12
_symmetry_cell_setting 'monoclinic'
loop_
_space_group_symop_operation_xyz
x,y,z
-x,y,-z
-x,-y,-z
x,-y,z
1/2+x,1/2+y,z
1/2-x,1/2+y,-z
1/2-x,1/2-y,-z
1/2+x,1/2-y,z
loop_
_atom_site_type_symbol
_atom_site_label
_atom_site_fract_x
_atom_site_fract_y
_atom_site_fract_z
Si Si1 0.872179 0.413155 0.013761
Si Si2 0.398565 0.660086 0.679869
Si Si3 0.203680 0.834935 0.507280
Si Si4 0.290068 0.140775 0.829368
Si Si5 0.904075 0.418374 0.433078
Si Si6 0.710425 0.193430 0.826126
Si Si7 0.001195 0.685436 0.723409
Si Si8 0.381479 0.412818 0.311468
O O1 0.870147 0.500000 0.046694
O O2 0.803012 0.363260 0.088631
O O3 0.805994 0.406061 0.921531
O O4 0.000000 0.385287 0.000000
O O5 0.375978 0.644579 0.573726
O O6 0.286867 0.653143 0.745316
O O7 0.443563 0.744679 0.678337
O O8 0.488555 0.601041 0.716008
O O9 0.250000 0.750000 0.500000
O O10 0.303047 0.893205 0.500359
O O11 0.144647 0.851985 0.606930
O O12 0.267208 0.228492 0.855288
O O13 0.405757 0.132207 0.769403
O O14 0.191220 0.104904 0.774857
O O15 0.880174 0.500000 0.388462
O O16 0.926831 0.359157 0.353052
O O17 0.000000 0.425451 0.500000
O O18 0.588114 0.213328 0.795450
O O19 0.363077 0.500000 0.341812
#
# Coordination Sequence:
#
# PCOD8114531 Si02
#       8
#     8   8   8   8   8   8   8   8
#     4  11  24  42  68 102 133 166 211 271 338 389
#     4  11  24  42  65  93 129 174 221 263 320 382
#     4  12  23  41  65  92 129 174 223 274 312 382
#     4  11  23  44  70  96 132 171 217 270 326 391
#     4  11  23  37  56  90 129 166 211 265 327 380
#     4  11  22  44  69  97 128 168 220 270 317 393
#     4  11  21  41  66  93 126 165 219 269 320 378
#     4  12  26  43  64  95 135 177 220 264 327 395
#
# _framework density 20.587260000000001
#
# number of rings (size 3 to 8) (size 9 to 14) (size 15 to 20)
#    0.000    0.750    3.750    5.250    0.000    4.500 
#    0.000    0.625    0.000    1.500    0.000    0.000 
#    0.000    0.000    0.000    0.000    0.000    0.000 
#
# Total GULP energy -396868.951839 kJ/mol
# GULP energy per Si atom -12402.154745 kJ/mol
# Density = 2.054040 g / cm^3
# Si number density = 20.587260 Si / 1000 Ang^3
#
#
#
# Elastic Constant Matrix: (Units=GPa)
#
#
# Indices 1 2 3 4 5 6 
#
# 1 118.4278 23.2940 35.5528 0.0000 12.1129 0.0000
# 2 23.2940 89.1161 30.0517 0.0000 -5.5568 0.0000
# 3 35.5528 30.0517 97.8761 0.0000 9.6219 0.0000
# 4 0.0000 0.0000 0.0000 29.4846 0.0000 -3.4233
# 5 12.1129 -5.5568 9.6219 0.0000 31.3533 0.0000
# 6 0.0000 0.0000 0.0000 -3.4233 0.0000 30.1752
#
#
#
# Elastic Compliance Matrix: (Units=1/GPa)
#
#
# Indices 1 2 3 4 5 6 
#
# 1 0.009975 -0.001903 -0.002709 0.000000 -0.003360 0.000000
# 2 -0.001903 0.013265 -0.003800 0.000000 0.004252 0.000000
# 3 -0.002709 -0.003800 0.012714 0.000000 -0.003529 0.000000
# 4 0.000000 0.000000 0.000000 0.034369 0.000000 0.003899
# 5 -0.003360 0.004252 -0.003529 0.000000 0.035029 0.000000
# 6 0.000000 0.000000 0.000000 0.003899 0.000000 0.033582
#
#
# Mechanical properties :
#
#
# Convention : Reuss Voigt Hill
#
# Bulk Modulus (GPa) = 52.26995 53.69079 52.98037
# Shear Modulus (GPa) = 30.83836 32.63736 31.73786
#
# Velocity S-wave (km/s) = 3.87451 3.98593 3.93061
# Velocity P-wave (km/s) = 6.74243 6.87893 6.81102
#
# Compressibility (1/GPa) = 0.01913145
#
# Stress axis : x y z
#
# Youngs Moduli (GPa) = 100.24880 75.38448 78.65074
#
# Poissons Ratio (x) = 0.14349 0.21304
# Poissons Ratio (y) = 0.19082 0.29884
# Poissons Ratio (z) = 0.27154 0.28643
#
# Static dielectric constant tensor:
#      x y z
#    x 3.962680 0.000000 0.009880 
#    y 0.000000 3.855350 0.000000 
#    z 0.009880 0.000000 3.608260 
# 
# 
# High freq. dielectric constant tensor:
#      x y z
#    x 1.821740 0.000000 0.006890 
#    y 0.000000 1.803730 0.000000 
#    z 0.006890 0.000000 1.796520 
# 
# From -- ./inp_files/206714.got.cif
#   From: 2010.06.25/outbox.cif.g09.slc.cpg/sg12_104_cif.got.tgz:206714.got - 2010.06.28 00:19:55.
