data_PCOD8114894
_publ_section_title
;
Structure prediction by ZEFSAII (Michael W. Deem and Ramdas Pophale) SiO2 
 PCOD8114894
Probable space group: C 2/M
;
_chemical_formula_sum "Si O2"
_cell_formula_units_Z 56
_cell_length_a 25.481662
_cell_length_b 28.472090
_cell_length_c 13.439710
_cell_angle_alpha 90.000000
_cell_angle_beta 161.441110
_cell_angle_gamma 90.000000
_cell_volume 3103.453570
_symmetry_space_group_name_H-M "C 2/M"
_symmetry_group_IT_number 12
_symmetry_cell_setting 'monoclinic'
loop_
_space_group_symop_operation_xyz
x,y,z
-x,y,-z
-x,-y,-z
x,-y,z
1/2+x,1/2+y,z
1/2-x,1/2+y,-z
1/2-x,1/2-y,-z
1/2+x,1/2-y,z
loop_
_atom_site_type_symbol
_atom_site_label
_atom_site_fract_x
_atom_site_fract_y
_atom_site_fract_z
Si Si1 0.781771 0.355938 0.364805
Si Si2 0.815235 0.302011 0.630471
Si Si3 0.242064 0.447100 0.362263
Si Si4 0.378124 0.300150 0.369868
Si Si5 0.583014 0.644057 0.364753
Si Si6 0.491697 0.800133 0.369776
Si Si7 0.879833 0.552901 0.637778
O O1 0.810350 0.328901 0.518248
O O2 0.914132 0.339857 0.521886
O O3 0.806657 0.411577 0.425142
O O4 0.600712 0.345001 0.000021
O O5 0.750000 0.250000 0.500000
O O6 0.707886 0.328900 0.518226
O O7 0.000000 0.300189 0.000000
O O8 0.297810 0.500000 0.435748
O O9 0.381549 0.411582 0.574960
O O10 0.223529 0.441762 0.447071
O O11 0.070055 0.434879 0.000029
O O12 0.500000 0.313760 0.500000
O O13 0.392245 0.339878 0.478118
O O14 0.424126 0.250013 0.500126
O O15 0.195732 0.297277 0.000050
O O16 0.500000 0.813730 0.500000
O O17 0.862071 0.500000 0.564250
#
# Coordination Sequence:
#
# PCOD8114894 Si02
#       7
#     8   8   8   8   8   8   8
#     4  12  23  36  55  83 114 147 185 227 276 332
#     4  12  24  38  53  76 111 148 184 225 277 331
#     4   9  18  34  56  81 111 147 186 228 276 329
#     4  11  22  39  60  83 111 146 188 233 276 326
#     4  12  23  36  55  83 114 147 185 227 276 332
#     4  11  22  39  60  83 111 146 188 233 276 326
#     4   9  18  34  56  81 111 147 186 228 276 329
#
# _framework density 18.044414
#
# number of rings (size 3 to 8) (size 9 to 14) (size 15 to 20)
#    0.000    1.143    1.429    9.000    0.000    0.571 
#    0.000    1.429    0.000    0.857    0.000    0.000 
#    0.000    0.000    0.000    0.000    0.000    0.000 
#
# Total GULP energy -347335.509105 kJ/mol
# GULP energy per Si atom -12404.839611 kJ/mol
# Density = 1.800334 g / cm^3
# Si number density = 18.044414 Si / 1000 Ang^3
#
#
#
# Elastic Constant Matrix: (Units=GPa)
#
#
# Indices 1 2 3 4 5 6 
#
# 1 95.5921 57.6188 49.6353 0.0000 0.6696 0.0000
# 2 57.6188 120.4975 46.9969 0.0000 -0.9366 0.0000
# 3 49.6353 46.9969 157.6537 0.0000 4.9267 0.0000
# 4 0.0000 0.0000 0.0000 34.8825 0.0000 0.6350
# 5 0.6696 -0.9366 4.9267 0.0000 27.0421 0.0000
# 6 0.0000 0.0000 0.0000 0.6350 0.0000 27.8015
#
#
#
# Elastic Compliance Matrix: (Units=1/GPa)
#
#
# Indices 1 2 3 4 5 6 
#
# 1 0.015938 -0.006410 -0.003105 0.000000 -0.000051 0.000000
# 2 -0.006410 0.011988 -0.001582 0.000000 0.000862 0.000000
# 3 -0.003105 -0.001582 0.007836 0.000000 -0.001406 0.000000
# 4 0.000000 0.000000 0.000000 0.028680 0.000000 -0.000655
# 5 -0.000051 0.000862 -0.001406 0.000000 0.037267 0.000000
# 6 0.000000 0.000000 0.000000 -0.000655 0.000000 0.035984
#
#
# Mechanical properties :
#
#
# Convention : Reuss Voigt Hill
#
# Bulk Modulus (GPa) = 73.71294 75.80503 74.75899
# Shear Modulus (GPa) = 30.41170 32.57804 31.49487
#
# Velocity S-wave (km/s) = 4.10979 4.25365 4.18234
# Velocity P-wave (km/s) = 7.96618 8.13795 8.05252
#
# Compressibility (1/GPa) = 0.01356614
#
# Stress axis : x y z
#
# Youngs Moduli (GPa) = 62.74433 83.41650 127.61089
#
# Poissons Ratio (x) = 0.53472 0.39627
# Poissons Ratio (y) = 0.40221 0.20193
# Poissons Ratio (z) = 0.19484 0.13200
#
# Static dielectric constant tensor:
#      x y z
#    x 3.444910 0.000000 0.002890 
#    y 0.000000 3.485540 0.000000 
#    z 0.002890 0.000000 3.476400 
# 
# 
# High freq. dielectric constant tensor:
#      x y z
#    x 1.683590 0.000000 0.002800 
#    y 0.000000 1.703230 0.000000 
#    z 0.002800 0.000000 1.714820 
# 
# From -- ./inp_files/124372.got.cif
#   From: 2010.06.25/outbox.cif.g09.slc.cpg/sg12_63_cif.got.tgz:124372.got - 2010.06.28 00:19:55.
