data_PCOD8114176
_publ_section_title
;
Structure prediction by ZEFSAII (Michael W. Deem and Ramdas Pophale) SiO2 
 PCOD8114176
Probable space group: C 2/M
;
_chemical_formula_sum "Si O2"
_cell_formula_units_Z 64
_cell_length_a 24.450148
_cell_length_b 8.925722
_cell_length_c 23.505871
_cell_angle_alpha 90.000000
_cell_angle_beta 46.647550
_cell_angle_gamma 90.000000
_cell_volume 3730.113120
_symmetry_space_group_name_H-M "C 2/M"
_symmetry_group_IT_number 12
_symmetry_cell_setting 'monoclinic'
loop_
_space_group_symop_operation_xyz
x,y,z
-x,y,-z
-x,-y,-z
x,-y,z
1/2+x,1/2+y,z
1/2-x,1/2+y,-z
1/2-x,1/2-y,-z
1/2+x,1/2-y,z
loop_
_atom_site_type_symbol
_atom_site_label
_atom_site_fract_x
_atom_site_fract_y
_atom_site_fract_z
Si Si1 0.142066 0.325724 0.314720
Si Si2 0.688214 0.172754 0.005888
Si Si3 0.202718 0.827491 0.166098
Si Si4 0.582531 0.325227 0.156535
Si Si5 0.571339 0.677390 0.678016
Si Si6 0.470594 0.824753 0.409333
Si Si7 0.644499 0.674567 0.430545
Si Si8 0.776762 0.674873 0.423146
O O1 0.152818 0.500000 0.320645
O O2 0.198417 0.277213 0.224239
O O3 0.164066 0.229379 0.353659
O O4 0.057724 0.288113 0.355605
O O5 0.714412 0.194856 0.921569
O O6 0.685882 0.000000 0.023699
O O7 0.750000 0.250000 0.000000
O O8 0.607315 0.244308 0.079777
O O9 0.137685 0.778087 0.168443
O O10 0.190288 0.000000 0.192784
O O11 0.587715 0.500000 0.141316
O O12 0.498588 0.274699 0.232618
O O13 0.581283 0.500000 0.668190
O O14 0.560658 0.734063 0.621701
O O15 0.644779 0.752425 0.652939
O O16 0.426599 0.768896 0.496426
O O17 0.456117 0.000000 0.410280
O O18 0.623369 0.500000 0.445462
O O19 0.717053 0.707634 0.416835
O O20 0.788032 0.500000 0.426225
O O21 0.750000 0.750000 0.500000
#
# Coordination Sequence:
#
# PCOD8114176 Si02
#       8
#     8   8   8   8   8   8   8   8
#     4  11  23  35  51  77 105 136 174 215 257 303
#     4   9  17  28  45  70 101 137 171 206 250 302
#     4   9  17  31  48  70 103 139 170 204 248 305
#     4   9  18  31  48  73 104 136 171 209 251 306
#     4  11  21  34  54  78 104 138 175 212 260 309
#     4  11  22  35  52  76 105 135 172 216 258 305
#     4  11  24  39  55  73  98 137 177 214 261 311
#     4  11  23  38  56  77 100 132 174 219 264 308
#
# _framework density 17.157655999999999
#
# number of rings (size 3 to 8) (size 9 to 14) (size 15 to 20)
#    0.000    1.750    2.500    3.375    0.000    8.000 
#    0.000    0.000    0.000    0.000    0.000    0.875 
#    0.000    7.000    0.000    0.000    0.000    0.000 
#
# Total GULP energy -396837.848076 kJ/mol
# GULP energy per Si atom -12401.182752 kJ/mol
# Density = 1.711860 g / cm^3
# Si number density = 17.157656 Si / 1000 Ang^3
#
#
#
# Elastic Constant Matrix: (Units=GPa)
#
#
# Indices 1 2 3 4 5 6 
#
# 1 47.0010 30.9128 34.1543 0.0001 0.7539 0.0002
# 2 30.9128 72.3728 48.1033 -0.0002 -2.6092 0.0008
# 3 34.1543 48.1033 133.0139 0.0001 -8.2154 0.0001
# 4 0.0001 -0.0002 0.0001 35.5522 0.0001 -0.7324
# 5 0.7539 -2.6092 -8.2154 0.0001 18.8031 0.0001
# 6 0.0002 0.0008 0.0001 -0.7324 0.0001 23.9977
#
#
#
# Elastic Compliance Matrix: (Units=1/GPa)
#
#
# Indices 1 2 3 4 5 6 
#
# 1 0.031692 -0.010669 -0.004573 0.000000 -0.004749 0.000000
# 2 -0.010669 0.021783 -0.005062 0.000000 0.001239 -0.000001
# 3 -0.004573 -0.005062 0.010782 0.000000 0.004192 0.000000
# 4 0.000000 0.000000 0.000000 0.028145 0.000000 0.000859
# 5 -0.004749 0.001239 0.004192 0.000000 0.055376 0.000000
# 6 0.000000 -0.000001 0.000000 0.000859 0.000000 0.041697
#
#
# Mechanical properties :
#
#
# Convention : Reuss Voigt Hill
#
# Bulk Modulus (GPa) = 42.28222 53.19204 47.73713
# Shear Modulus (GPa) = 21.01148 24.95177 22.98162
#
# Velocity S-wave (km/s) = 3.50324 3.81762 3.66380
# Velocity P-wave (km/s) = 6.40784 7.10644 6.76617
#
# Compressibility (1/GPa) = 0.02365060
#
# Stress axis : x y z
#
# Youngs Moduli (GPa) = 31.55377 45.90671 92.75048
#
# Poissons Ratio (x) = 0.48976 0.42412
# Poissons Ratio (y) = 0.33663 0.46949
# Poissons Ratio (z) = 0.14429 0.23237
#
# Static dielectric constant tensor:
#      x y z
#    x 3.082640 0.000000 -0.200070 
#    y 0.000000 3.339770 0.000000 
#    z -0.200070 0.000000 3.606730 
# 
# 
# High freq. dielectric constant tensor:
#      x y z
#    x 1.620060 0.000000 -0.008230 
#    y 0.000000 1.677040 0.000000 
#    z -0.008230 0.000000 1.671710 
# 
# From -- ./inp_files/324086.got.cif
#   From: 2010.06.25/outbox.cif.g09.slc.cpg/sg12_163_cif.got.tgz:324086.got - 2010.06.28 00:19:55.
