data_PCOD8114470
_publ_section_title
;
Structure prediction by ZEFSAII (Michael W. Deem and Ramdas Pophale) SiO2 
 PCOD8114470
Probable space group: C 2/M
;
_chemical_formula_sum "Si O2"
_cell_formula_units_Z 40
_cell_length_a 13.709791
_cell_length_b 18.782844
_cell_length_c 12.226510
_cell_angle_alpha 90.000000
_cell_angle_beta 141.202656
_cell_angle_gamma 90.000000
_cell_volume 1972.707450
_symmetry_space_group_name_H-M "C 2/M"
_symmetry_group_IT_number 12
_symmetry_cell_setting 'monoclinic'
loop_
_space_group_symop_operation_xyz
x,y,z
-x,y,-z
-x,-y,-z
x,-y,z
1/2+x,1/2+y,z
1/2-x,1/2+y,-z
1/2-x,1/2-y,-z
1/2+x,1/2-y,z
loop_
_atom_site_type_symbol
_atom_site_label
_atom_site_fract_x
_atom_site_fract_y
_atom_site_fract_z
Si Si1 0.635106 0.240299 0.294762
Si Si2 0.453634 0.500000 0.829784
Si Si3 0.604243 0.639138 0.883090
Si Si4 0.055555 0.356796 0.743497
Si Si5 0.910293 0.500000 0.531244
Si Si6 0.371739 0.718194 0.315146
O O1 0.750000 0.250000 0.500000
O O2 0.518919 0.305932 0.175175
O O3 0.527193 0.171008 0.218440
O O4 0.718006 0.231539 0.251054
O O5 0.519387 0.564448 0.815955
O O6 0.269733 0.500000 0.655647
O O7 0.500000 0.500000 0.000000
O O8 0.662239 0.665723 0.815174
O O9 0.760623 0.630164 0.089349
O O10 0.043339 0.292445 0.645211
O O11 0.960744 0.428193 0.636039
O O12 0.000000 0.500000 0.500000
O O13 0.500000 0.677428 0.500000
#
# Coordination Sequence:
#
# PCOD8114470 Si02
#       6
#     8   4   8   8   4   8
#     4  11  21  39  67  96 131 173 221 267 326 383
#     4  12  28  46  70  96 130 171 214 275 329 392
#     4  11  25  42  63 100 132 169 225 268 328 393
#     4  11  24  41  63  98 134 171 216 268 325 393
#     4  12  26  42  67  91 131 171 212 264 331 389
#     4  11  22  39  68  95 133 172 219 276 323 382
#
# _framework density 20.276700000000002
#
# number of rings (size 3 to 8) (size 9 to 14) (size 15 to 20)
#    0.000    0.800    4.000    6.000    5.600    2.400 
#    0.000    1.500    0.000    2.400    0.000    0.000 
#    0.000    0.000    0.000    0.000    0.000    0.000 
#
# Total GULP energy -247804.836729 kJ/mol
# GULP energy per Si atom -12390.241836 kJ/mol
# Density = 2.023055 g / cm^3
# Si number density = 20.276700 Si / 1000 Ang^3
#
#
#
# Elastic Constant Matrix: (Units=GPa)
#
#
# Indices 1 2 3 4 5 6 
#
# 1 161.8202 64.8666 32.0623 0.0000 19.9931 0.0000
# 2 64.8666 158.0989 46.9674 0.0000 8.7639 0.0000
# 3 32.0623 46.9674 137.4383 0.0000 23.1748 0.0000
# 4 0.0000 0.0000 0.0000 34.7590 0.0000 12.7603
# 5 19.9931 8.7639 23.1748 0.0000 36.6000 0.0000
# 6 0.0000 0.0000 0.0000 12.7603 0.0000 1.9620
#
#
#
# Elastic Compliance Matrix: (Units=1/GPa)
#
#
# Indices 1 2 3 4 5 6 
#
# 1 0.007834 -0.002953 -0.000242 0.000000 -0.003419 0.000000
# 2 -0.002953 0.008154 -0.002284 0.000000 0.001107 0.000000
# 3 -0.000242 -0.002284 0.008955 0.000000 -0.004991 0.000000
# 4 0.000000 0.000000 0.000000 -0.020734 0.000000 0.134848
# 5 -0.003419 0.001107 -0.004991 0.000000 0.032085 0.000000
# 6 0.000000 0.000000 0.000000 0.134848 0.000000 -0.367326
#
#
# Mechanical properties :
#
#
# Convention : Reuss Voigt Hill
#
# Bulk Modulus (GPa) = 71.50860 82.79444 77.15152
# Shear Modulus (GPa) = -15.85220 35.56164 9.85472
#
# Velocity S-wave (km/s) = -2.79909 4.19240 2.20696
# Velocity P-wave (km/s) = 4.98963 8.02222 6.68028
#
# Compressibility (1/GPa) = 0.01398433
#
# Stress axis : x y z
#
# Youngs Moduli (GPa) = 127.65434 122.64130 111.67452
#
# Poissons Ratio (x) = 0.36212 0.02702
# Poissons Ratio (y) = 0.37692 0.25510
# Poissons Ratio (z) = 0.03088 0.28015
#
# Static dielectric constant tensor:
#      x y z
#    x 3.839820 0.000000 0.249500 
#    y 0.000000 3.741420 0.000000 
#    z 0.249500 0.000000 3.789520 
# 
# 
# High freq. dielectric constant tensor:
#      x y z
#    x 1.799950 0.000000 0.020170 
#    y 0.000000 1.780600 0.000000 
#    z 0.020170 0.000000 1.810140 
# 
# From -- ./inp_files/75551.got.cif
#   From: 2010.06.25/outbox.cif.g09.slc.cpg/sg12_38_cif.got.tgz:75551.got - 2010.06.28 00:19:55.
