data_PCOD8114071
_publ_section_title
;
Structure prediction by ZEFSAII (Michael W. Deem and Ramdas Pophale) SiO2 
 PCOD8114071
Probable space group: C 2/M
;
_chemical_formula_sum "Si O2"
_cell_formula_units_Z 64
_cell_length_a 23.518158
_cell_length_b 8.627581
_cell_length_c 18.352361
_cell_angle_alpha 90.000000
_cell_angle_beta 89.538333
_cell_angle_gamma 90.000000
_cell_volume 3723.661496
_symmetry_space_group_name_H-M "C 2/M"
_symmetry_group_IT_number 12
_symmetry_cell_setting 'monoclinic'
loop_
_space_group_symop_operation_xyz
x,y,z
-x,y,-z
-x,-y,-z
x,-y,z
1/2+x,1/2+y,z
1/2-x,1/2+y,-z
1/2-x,1/2-y,-z
1/2+x,1/2-y,z
loop_
_atom_site_type_symbol
_atom_site_label
_atom_site_fract_x
_atom_site_fract_y
_atom_site_fract_z
Si Si1 0.246245 0.683424 0.918983
Si Si2 0.564627 0.181088 0.727750
Si Si3 0.433849 0.327457 0.576742
Si Si4 0.633505 0.316286 0.855750
Si Si5 0.440540 0.314287 0.732326
Si Si6 0.369145 0.682922 0.868224
Si Si7 0.563497 0.684574 0.994761
Si Si8 0.568683 0.674614 0.578970
O O1 0.237641 0.500000 0.924413
O O2 0.196677 0.761523 0.873428
O O3 0.303135 0.727385 0.873767
O O4 0.250000 0.750000 0.000000
O O5 0.613274 0.239105 0.781493
O O6 0.504811 0.261321 0.747695
O O7 0.588018 0.220230 0.646396
O O8 0.555930 0.000000 0.735287
O O9 0.408601 0.500000 0.574913
O O10 0.416578 0.247973 0.654319
O O11 0.412444 0.250199 0.500369
O O12 0.501338 0.334126 0.578587
O O13 0.632497 0.500000 0.847592
O O14 0.591852 0.257613 0.920029
O O15 0.441825 0.500000 0.729750
O O16 0.398132 0.249520 0.794698
O O17 0.377432 0.500000 0.868532
O O18 0.401132 0.753682 0.938018
O O19 0.563517 0.500000 0.997390
O O20 0.500000 0.751511 0.000000
O O21 0.593110 0.500000 0.588189
#
# Coordination Sequence:
#
# PCOD8114071 Si02
#       8
#     8   8   8   8   8   8   8   8
#     4  11  21  36  54  73  96 124 162 207 246 283
#     4  11  21  31  44  70 104 131 159 198 244 289
#     4   7  11  21  42  69  93 121 161 199 227 269
#     4  11  21  35  53  70  92 126 166 203 246 288
#     4   9  16  30  51  72  97 131 165 196 233 284
#     4   9  17  30  50  74  95 123 163 200 235 281
#     4   9  16  27  47  72  93 118 156 193 226 278
#     4   8  13  25  43  64  93 129 163 192 228 280
#
# _framework density 17.187383000000001
#
# number of rings (size 3 to 8) (size 9 to 14) (size 15 to 20)
#    0.000    2.625    1.250    4.125    0.000    2.000 
#    0.000    6.250    0.000    1.500    0.000    0.875 
#    0.000    0.000    0.000    0.000    0.000    0.000 
#
# Total GULP energy -396470.247196 kJ/mol
# GULP energy per Si atom -12389.695225 kJ/mol
# Density = 1.714826 g / cm^3
# Si number density = 17.187383 Si / 1000 Ang^3
#
#
#
# Elastic Constant Matrix: (Units=GPa)
#
#
# Indices 1 2 3 4 5 6 
#
# 1 70.6170 8.7934 50.8884 0.0000 8.7388 0.0000
# 2 8.7934 38.5021 25.2030 0.0000 -0.1085 0.0000
# 3 50.8884 25.2030 165.9460 0.0000 4.2766 0.0000
# 4 0.0000 0.0000 0.0000 13.5769 0.0000 6.1836
# 5 8.7388 -0.1085 4.2766 0.0000 12.4408 0.0000
# 6 0.0000 0.0000 0.0000 6.1836 0.0000 17.4660
#
#
#
# Elastic Compliance Matrix: (Units=1/GPa)
#
#
# Indices 1 2 3 4 5 6 
#
# 1 0.019813 -0.000870 -0.005635 0.000000 -0.011988 0.000000
# 2 -0.000870 0.028917 -0.004184 0.000000 0.002302 0.000000
# 3 -0.005635 -0.004184 0.008362 0.000000 0.001047 0.000000
# 4 0.000000 0.000000 0.000000 0.087814 0.000000 -0.031089
# 5 -0.011988 0.002302 0.001047 0.000000 0.088461 0.000000
# 6 0.000000 0.000000 0.000000 -0.031089 0.000000 0.068261
#
#
# Mechanical properties :
#
#
# Convention : Reuss Voigt Hill
#
# Bulk Modulus (GPa) = 28.00030 49.42608 38.71319
# Shear Modulus (GPa) = 14.92928 21.37543 18.15236
#
# Velocity S-wave (km/s) = 2.95043 3.53040 3.25336
# Velocity P-wave (km/s) = 5.28520 6.74076 6.05686
#
# Compressibility (1/GPa) = 0.03571390
#
# Stress axis : x y z
#
# Youngs Moduli (GPa) = 50.47108 34.58204 119.58194
#
# Poissons Ratio (x) = 0.03010 0.67381
# Poissons Ratio (y) = 0.04393 0.50034
# Poissons Ratio (z) = 0.28439 0.14469
#
# Static dielectric constant tensor:
#      x y z
#    x 3.033400 0.000000 -0.174770 
#    y 0.000000 2.902250 0.000000 
#    z -0.174770 0.000000 3.930880 
# 
# 
# High freq. dielectric constant tensor:
#      x y z
#    x 1.623580 0.000000 -0.003440 
#    y 0.000000 1.629830 0.000000 
#    z -0.003440 0.000000 1.684530 
# 
# From -- ./inp_files/287712.got.cif
#   From: 2010.06.25/outbox.cif.g09.slc.cpg/sg12_144_cif.got.tgz:287712.got - 2010.06.28 00:19:55.
