data_PCOD8114880
_publ_section_title
;
Structure prediction by ZEFSAII (Michael W. Deem and Ramdas Pophale) SiO2 
 PCOD8114880
Probable space group: C 2/M
;
_chemical_formula_sum "Si O2"
_cell_formula_units_Z 52
_cell_length_a 11.377526
_cell_length_b 23.553277
_cell_length_c 12.390080
_cell_angle_alpha 90.000000
_cell_angle_beta 128.537255
_cell_angle_gamma 90.000000
_cell_volume 2597.125195
_symmetry_space_group_name_H-M "C 2/M"
_symmetry_group_IT_number 12
_symmetry_cell_setting 'monoclinic'
loop_
_space_group_symop_operation_xyz
x,y,z
-x,y,-z
-x,-y,-z
x,-y,z
1/2+x,1/2+y,z
1/2-x,1/2+y,-z
1/2-x,1/2-y,-z
1/2+x,1/2-y,z
loop_
_atom_site_type_symbol
_atom_site_label
_atom_site_fract_x
_atom_site_fract_y
_atom_site_fract_z
Si Si1 0.147614 0.102207 0.644463
Si Si2 0.115106 0.813613 0.162620
Si Si3 0.402701 0.000000 0.264894
Si Si4 0.436553 0.397781 0.169647
Si Si5 0.917727 0.682836 0.840118
Si Si6 0.170094 0.622747 0.859825
Si Si7 0.873088 0.000000 0.741872
Si Si8 0.244286 0.500000 0.439055
O O1 0.096240 0.078021 0.730647
O O2 0.259746 0.152416 0.736655
O O3 0.000000 0.126039 0.500000
O O4 0.228733 0.054397 0.620506
O O5 0.131278 0.747971 0.199693
O O6 0.267691 0.845290 0.211619
O O7 0.048908 0.843442 0.232481
O O8 0.000000 0.823420 0.000000
O O9 0.373519 0.057205 0.181215
O O10 0.294634 0.000000 0.306368
O O11 0.578125 0.000000 0.395173
O O12 0.529768 0.446654 0.160301
O O13 0.285102 0.378790 0.024520
O O14 0.027697 0.661354 0.809380
O O15 0.000000 0.670264 0.000000
O O16 0.858824 0.000000 0.603922
#
# Coordination Sequence:
#
# PCOD8114880 Si02
#       8
#     8   8   4   8   8   8   4   4
#     4  12  24  42  64  89 127 169 211 259 315 382
#     4   9  22  38  65  96 127 164 209 260 318 382
#     4  12  24  40  65  94 130 161 209 272 324 377
#     4  11  22  38  65  95 125 163 206 260 321 378
#     4  11  23  41  67  95 126 169 214 263 314 371
#     4  11  22  40  64 100 130 159 208 267 325 378
#     4  12  23  42  65  88 128 170 211 255 323 387
#     4  12  25  43  61  90 118 176 219 253 313 383
#
# _framework density 20.022138000000002
#
# number of rings (size 3 to 8) (size 9 to 14) (size 15 to 20)
#    0.000    0.923    6.154    1.385    2.154    2.462 
#    0.000    2.308    3.385    0.000    0.000    0.000 
#    0.000    0.000    0.000    0.000    0.000    0.000 
#
# Total GULP energy -322269.919494 kJ/mol
# GULP energy per Si atom -12394.996904 kJ/mol
# Density = 1.997657 g / cm^3
# Si number density = 20.022138 Si / 1000 Ang^3
#
#
#
# Elastic Constant Matrix: (Units=GPa)
#
#
# Indices 1 2 3 4 5 6 
#
# 1 113.9917 48.6013 21.8803 0.0000 12.1974 0.0000
# 2 48.6013 141.0075 25.2505 0.0000 14.5755 0.0000
# 3 21.8803 25.2505 55.9494 0.0000 13.8981 0.0000
# 4 0.0000 0.0000 0.0000 9.6525 0.0000 -2.7853
# 5 12.1974 14.5755 13.8981 0.0000 34.3636 0.0000
# 6 0.0000 0.0000 0.0000 -2.7853 0.0000 31.7510
#
#
#
# Elastic Compliance Matrix: (Units=1/GPa)
#
#
# Indices 1 2 3 4 5 6 
#
# 1 0.010723 -0.003107 -0.002416 0.000000 -0.001511 0.000000
# 2 -0.003107 0.008751 -0.002319 0.000000 -0.001671 0.000000
# 3 -0.002416 -0.002319 0.021575 0.000000 -0.006885 0.000000
# 4 0.000000 0.000000 0.000000 0.106290 0.000000 0.009324
# 5 -0.001511 -0.001671 -0.006885 0.000000 0.033130 0.000000
# 6 0.000000 0.000000 0.000000 0.009324 0.000000 0.032313
#
#
# Mechanical properties :
#
#
# Convention : Reuss Voigt Hill
#
# Bulk Modulus (GPa) = 39.42531 55.82363 47.62447
# Shear Modulus (GPa) = 21.10414 29.50120 25.30267
#
# Velocity S-wave (km/s) = 3.25012 3.84269 3.55876
# Velocity P-wave (km/s) = 5.81532 6.90144 6.38153
#
# Compressibility (1/GPa) = 0.02536442
#
# Stress axis : x y z
#
# Youngs Moduli (GPa) = 93.26048 114.27621 46.35020
#
# Poissons Ratio (x) = 0.35506 0.11197
# Poissons Ratio (y) = 0.28976 0.10749
# Poissons Ratio (z) = 0.22529 0.26503
#
# Static dielectric constant tensor:
#      x y z
#    x 3.912870 0.000000 0.061010 
#    y 0.000000 3.704380 0.000000 
#    z 0.061010 0.000000 3.348010 
# 
# 
# High freq. dielectric constant tensor:
#      x y z
#    x 1.804110 0.000000 0.007100 
#    y 0.000000 1.787910 0.000000 
#    z 0.007100 0.000000 1.751530 
# 
# From -- ./inp_files/133366.got.cif
#   From: 2010.06.25/outbox.cif.g09.slc.cpg/sg12_67_cif.got.tgz:133366.got - 2010.06.28 00:19:55.
