data_PCOD8114394
_publ_section_title
;
Structure prediction by ZEFSAII (Michael W. Deem and Ramdas Pophale) SiO2 
 PCOD8114394
Probable space group: C 2/M
;
_chemical_formula_sum "Si O2"
_cell_formula_units_Z 56
_cell_length_a 11.522848
_cell_length_b 17.571613
_cell_length_c 27.070636
_cell_angle_alpha 90.000000
_cell_angle_beta 33.196732
_cell_angle_gamma 90.000000
_cell_volume 3001.002361
_symmetry_space_group_name_H-M "C 2/M"
_symmetry_group_IT_number 12
_symmetry_cell_setting 'monoclinic'
loop_
_space_group_symop_operation_xyz
x,y,z
-x,y,-z
-x,-y,-z
x,-y,z
1/2+x,1/2+y,z
1/2-x,1/2+y,-z
1/2-x,1/2-y,-z
1/2+x,1/2-y,z
loop_
_atom_site_type_symbol
_atom_site_label
_atom_site_fract_x
_atom_site_fract_y
_atom_site_fract_z
Si Si1 0.975889 0.168944 0.800323
Si Si2 0.643385 0.084212 0.300556
Si Si3 0.723878 0.662776 0.022542
Si Si4 0.271635 0.589941 0.600005
Si Si5 0.338091 0.583536 0.122901
Si Si6 0.840223 0.408282 0.162017
Si Si7 0.065022 0.344846 0.768438
O O1 0.854569 0.150110 0.894011
O O2 0.851661 0.126329 0.801227
O O3 0.217973 0.138521 0.714197
O O4 0.996736 0.258137 0.785110
O O5 0.399494 0.112008 0.381653
O O6 0.738125 0.084246 0.212354
O O7 0.651422 0.000000 0.320921
O O8 0.548692 0.634313 0.045793
O O9 0.750000 0.750000 0.000000
O O10 0.938100 0.614618 0.941850
O O11 0.500000 0.617058 0.500000
O O12 0.262372 0.500000 0.613681
O O13 0.221712 0.632124 0.668745
O O14 0.409183 0.500000 0.081380
O O15 0.157885 0.611005 0.149581
O O16 0.820872 0.500000 0.173089
O O17 0.817136 0.365701 0.222796
#
# Coordination Sequence:
#
# PCOD8114394 Si02
#       7
#     8   8   8   8   8   8   8
#     4  11  23  37  58  79 118 159 194 234 291 352
#     4   8  16  33  57  81 106 142 189 228 275 342
#     4  11  21  38  55  80 111 153 202 246 287 335
#     4   9  18  36  65  92 113 143 189 242 292 351
#     4   9  18  33  54  75 103 141 187 237 282 330
#     4  12  25  38  57  86 120 159 201 247 295 347
#     4  11  22  37  59  84 119 149 191 242 300 352
#
# _framework density 18.660432
#
# number of rings (size 3 to 8) (size 9 to 14) (size 15 to 20)
#    0.000    1.857    1.429    4.286    4.000    2.857 
#    0.000    2.143    0.000    0.000    0.000    4.000 
#    0.000    0.000    0.000    0.000    0.000    0.000 
#
# Total GULP energy -347129.504150 kJ/mol
# GULP energy per Si atom -12397.482291 kJ/mol
# Density = 1.861796 g / cm^3
# Si number density = 18.660432 Si / 1000 Ang^3
#
#
#
# Elastic Constant Matrix: (Units=GPa)
#
#
# Indices 1 2 3 4 5 6 
#
# 1 114.9446 41.9278 48.8082 0.0155 -21.6068 -0.0030
# 2 41.9278 115.0812 37.2146 0.0148 -13.4298 -0.0135
# 3 48.8082 37.2146 108.8136 0.0451 -19.7469 -0.0176
# 4 0.0155 0.0148 0.0451 19.3380 -0.0338 -2.0989
# 5 -21.6068 -13.4298 -19.7469 -0.0338 29.1707 -0.0183
# 6 -0.0030 -0.0135 -0.0176 -2.0989 -0.0183 31.3858
#
#
#
# Elastic Compliance Matrix: (Units=1/GPa)
#
#
# Indices 1 2 3 4 5 6 
#
# 1 0.012206 -0.002658 -0.003588 0.000010 0.005388 0.000002
# 2 -0.002658 0.010518 -0.002147 0.000002 0.001420 0.000004
# 3 -0.003588 -0.002147 0.012395 -0.000015 0.004744 0.000007
# 4 0.000010 0.000002 -0.000015 0.052090 0.000061 0.003483
# 5 0.005388 0.001420 0.004744 0.000061 0.042138 0.000032
# 6 0.000002 0.000004 0.000007 0.003483 0.000032 0.032095
#
#
# Mechanical properties :
#
#
# Convention : Reuss Voigt Hill
#
# Bulk Modulus (GPa) = 54.54901 66.08229 60.31565
# Shear Modulus (GPa) = 27.12413 30.03814 28.58113
#
# Velocity S-wave (km/s) = 3.81670 4.01649 3.91787
# Velocity P-wave (km/s) = 6.97989 7.54980 7.27043
#
# Compressibility (1/GPa) = 0.01833214
#
# Stress axis : x y z
#
# Youngs Moduli (GPa) = 81.92840 95.07544 80.67892
#
# Poissons Ratio (x) = 0.25270 0.28948
# Poissons Ratio (y) = 0.21775 0.17324
# Poissons Ratio (z) = 0.29396 0.20416
#
# Static dielectric constant tensor:
#      x y z
#    x 3.565610 -0.008480 -0.313490 
#    y -0.008480 5.162370 0.022900 
#    z -0.313490 0.022900 3.412930 
# 
# 
# High freq. dielectric constant tensor:
#      x y z
#    x 1.727020 0.000000 -0.019800 
#    y 0.000000 1.731520 0.000000 
#    z -0.019800 0.000000 1.701530 
# 
# From -- ./inp_files/263250.got.cif
#   From: 2010.06.25/outbox.cif.g09.slc.cpg/sg12_132_cif.got.tgz:263250.got - 2010.06.28 00:19:55.
