data_PCOD8114265
_publ_section_title
;
Structure prediction by ZEFSAII (Michael W. Deem and Ramdas Pophale) SiO2 
 PCOD8114265
Probable space group: C 2/M
;
_chemical_formula_sum "Si O2"
_cell_formula_units_Z 40
_cell_length_a 7.807653
_cell_length_b 29.391887
_cell_length_c 12.850612
_cell_angle_alpha 90.000000
_cell_angle_beta 143.675182
_cell_angle_gamma 90.000000
_cell_volume 1746.864153
_symmetry_space_group_name_H-M "C 2/M"
_symmetry_group_IT_number 12
_symmetry_cell_setting 'monoclinic'
loop_
_space_group_symop_operation_xyz
x,y,z
-x,y,-z
-x,-y,-z
x,-y,z
1/2+x,1/2+y,z
1/2-x,1/2+y,-z
1/2-x,1/2-y,-z
1/2+x,1/2-y,z
loop_
_atom_site_type_symbol
_atom_site_label
_atom_site_fract_x
_atom_site_fract_y
_atom_site_fract_z
Si Si1 0.665763 0.795807 0.320872
Si Si2 0.968634 0.605627 0.208643
Si Si3 0.214566 0.948694 0.790133
Si Si4 0.635885 0.289535 0.179955
Si Si5 0.425190 0.612590 0.801993
O O1 0.609399 0.845782 0.248161
O O2 0.531500 0.758055 0.176265
O O3 0.486417 0.789135 0.339857
O O4 0.000000 0.786293 0.500000
O O5 0.204568 0.568275 0.287266
O O6 0.880188 0.601657 0.287714
O O7 0.681679 0.597761 0.002606
O O8 0.960058 0.916560 0.713190
O O9 0.096433 0.000000 0.726135
O O10 0.500000 0.945414 0.000000
O O11 0.555915 0.333051 0.213220
O O12 0.500000 0.299204 0.000000
#
# Coordination Sequence:
#
# PCOD8114265 Si02
#       5
#     8   8   8   8   8
#     4  11  23  36  53  83 118 149 192 237 287 335
#     4   9  18  33  52  74 112 148 185 227 285 339
#     4   9  18  30  52  84 109 139 186 240 291 330
#     4  11  21  36  56  80 110 156 196 228 283 341
#     4   9  17  33  51  77 110 144 190 230 278 338
#
# _framework density 22.898174000000001
#
# number of rings (size 3 to 8) (size 9 to 14) (size 15 to 20)
#    0.000    2.200    4.000    1.200    2.800    1.600 
#    0.000    4.000    0.000    0.600    0.000    5.600 
#    0.000    0.000    0.000    0.000    0.000    0.000 
#
# Total GULP energy -247833.298020 kJ/mol
# GULP energy per Si atom -12391.664901 kJ/mol
# Density = 2.284606 g / cm^3
# Si number density = 22.898174 Si / 1000 Ang^3
#
#
#
# Elastic Constant Matrix: (Units=GPa)
#
#
# Indices 1 2 3 4 5 6 
#
# 1 112.5569 86.5324 12.1868 0.0000 31.2581 0.0000
# 2 86.5324 189.5375 11.8302 0.0000 18.4045 0.0000
# 3 12.1868 11.8302 36.7029 0.0000 14.4055 0.0000
# 4 0.0000 0.0000 0.0000 8.7111 0.0000 11.7615
# 5 31.2581 18.4045 14.4055 0.0000 16.5814 0.0000
# 6 0.0000 0.0000 0.0000 11.7615 0.0000 40.9438
#
#
#
# Elastic Compliance Matrix: (Units=1/GPa)
#
#
# Indices 1 2 3 4 5 6 
#
# 1 0.033383 -0.009766 0.018981 0.000000 -0.068582 0.000000
# 2 -0.009766 0.008796 -0.004532 0.000000 0.012585 0.000000
# 3 0.018981 -0.004532 0.052311 0.000000 -0.076198 0.000000
# 4 0.000000 0.000000 0.000000 0.187530 0.000000 -0.053870
# 5 -0.068582 0.012585 -0.076198 0.000000 0.241825 0.000000
# 6 0.000000 0.000000 0.000000 -0.053870 0.000000 0.039898
#
#
# Mechanical properties :
#
#
# Convention : Reuss Voigt Hill
#
# Bulk Modulus (GPa) = 9.62869 62.21067 35.91968
# Shear Modulus (GPa) = 8.48901 28.46379 18.47640
#
# Velocity S-wave (km/s) = 1.92752 3.52953 2.84367
# Velocity P-wave (km/s) = 3.02786 6.62099 5.14808
#
# Compressibility (1/GPa) = 0.10385629
#
# Stress axis : x y z
#
# Youngs Moduli (GPa) = 29.95499 113.69378 19.11639
#
# Poissons Ratio (x) = 1.11036 -0.36285
# Poissons Ratio (y) = 0.29255 0.08663
# Poissons Ratio (z) = -0.56858 0.51523
#
# Static dielectric constant tensor:
#      x y z
#    x 4.523670 0.000000 0.534950 
#    y 0.000000 4.144750 0.000000 
#    z 0.534950 0.000000 3.665420 
# 
# 
# High freq. dielectric constant tensor:
#      x y z
#    x 1.898810 0.000000 0.033840 
#    y 0.000000 1.900290 0.000000 
#    z 0.033840 0.000000 1.865310 
# 
# From -- ./inp_files/201413.got.cif
#   From: 2010.06.25/outbox.cif.g09.slc.cpg/sg12_101_cif.got.tgz:201413.got - 2010.06.28 00:19:55.
