data_PCOD8114356
_publ_section_title
;
Structure prediction by ZEFSAII (Michael W. Deem and Ramdas Pophale) SiO2 
 PCOD8114356
Probable space group: C 2/M
;
_chemical_formula_sum "Si O2"
_cell_formula_units_Z 48
_cell_length_a 25.114829
_cell_length_b 8.411524
_cell_length_c 12.356278
_cell_angle_alpha 90.000000
_cell_angle_beta 70.977800
_cell_angle_gamma 90.000000
_cell_volume 2467.769956
_symmetry_space_group_name_H-M "C 2/M"
_symmetry_group_IT_number 12
_symmetry_cell_setting 'monoclinic'
loop_
_space_group_symop_operation_xyz
x,y,z
-x,y,-z
-x,-y,-z
x,-y,z
1/2+x,1/2+y,z
1/2-x,1/2+y,-z
1/2-x,1/2-y,-z
1/2+x,1/2-y,z
loop_
_atom_site_type_symbol
_atom_site_label
_atom_site_fract_x
_atom_site_fract_y
_atom_site_fract_z
Si Si1 0.691617 0.812684 0.492925
Si Si2 0.618586 0.315212 0.124139
Si Si3 0.499718 0.688280 0.879134
Si Si4 0.879526 0.813645 0.276920
Si Si5 0.316515 0.817232 0.116952
Si Si6 0.301006 0.183913 0.758700
O O1 0.750000 0.750000 0.500000
O O2 0.639965 0.729740 0.589567
O O3 0.685538 0.762842 0.372217
O O4 0.688233 0.000000 0.511727
O O5 0.619531 0.500000 0.154503
O O6 0.554993 0.250522 0.149241
O O7 0.644093 0.214626 0.205488
O O8 0.652917 0.292506 0.990708
O O9 0.496070 0.500000 0.890665
O O10 0.555951 0.742538 0.779458
O O11 0.500000 0.761557 0.000000
O O12 0.839539 0.721265 0.220493
O O13 0.873006 0.000000 0.258797
O O14 0.249939 0.785571 0.158285
O O15 0.327463 0.000000 0.080087
O O16 0.283687 0.000000 0.773646
#
# Coordination Sequence:
#
# PCOD8114356 Si02
#       6
#     8   8   8   8   8   8
#     4  11  23  39  61  86 118 156 197 243 294 350
#     4  11  22  39  62  87 119 157 198 242 292 350
#     4   9  18  36  61  87 117 154 194 238 291 349
#     4  11  21  37  62  90 119 152 196 247 292 343
#     4  12  23  36  58  89 123 155 193 240 297 357
#     4  11  24  41  59  84 120 159 196 240 297 352
#
# _framework density 19.450759000000001
#
# number of rings (size 3 to 8) (size 9 to 14) (size 15 to 20)
#    0.000    1.167    3.333    4.000    0.000    2.000 
#    0.000    5.000    0.000    5.000    0.000    0.000 
#    0.000    0.000    0.000    0.000    0.000    0.000 
#
# Total GULP energy -297736.767899 kJ/mol
# GULP energy per Si atom -12405.698662 kJ/mol
# Density = 1.940649 g / cm^3
# Si number density = 19.450759 Si / 1000 Ang^3
#
#
#
# Elastic Constant Matrix: (Units=GPa)
#
#
# Indices 1 2 3 4 5 6 
#
# 1 145.2591 17.9829 55.9497 0.0000 -9.6736 0.0000
# 2 17.9829 48.6881 13.1822 0.0000 -2.1392 0.0000
# 3 55.9497 13.1822 109.9821 0.0000 -13.6956 0.0000
# 4 0.0000 0.0000 0.0000 31.2480 0.0000 0.9574
# 5 -9.6736 -2.1392 -13.6956 0.0000 35.4350 0.0000
# 6 0.0000 0.0000 0.0000 0.9574 0.0000 24.7927
#
#
#
# Elastic Compliance Matrix: (Units=1/GPa)
#
#
# Indices 1 2 3 4 5 6 
#
# 1 0.008780 -0.002095 -0.004131 0.000000 0.000674 0.000000
# 2 -0.002095 0.021731 -0.001520 0.000000 0.000153 0.000000
# 3 -0.004131 -0.001520 0.011792 0.000000 0.003338 0.000000
# 4 0.000000 0.000000 0.000000 0.032040 0.000000 -0.001237
# 5 0.000674 0.000153 0.003338 0.000000 0.029704 0.000000
# 6 0.000000 0.000000 0.000000 -0.001237 0.000000 0.040382
#
#
# Mechanical properties :
#
#
# Convention : Reuss Voigt Hill
#
# Bulk Modulus (GPa) = 37.29910 53.12874 45.21392
# Shear Modulus (GPa) = 29.61076 32.74945 31.18010
#
# Velocity S-wave (km/s) = 3.90596 4.10776 4.00813
# Velocity P-wave (km/s) = 6.28966 7.06201 6.68699
#
# Compressibility (1/GPa) = 0.02681030
#
# Stress axis : x y z
#
# Youngs Moduli (GPa) = 113.89860 46.01763 84.80342
#
# Poissons Ratio (x) = 0.09639 0.35036
# Poissons Ratio (y) = 0.23857 0.12890
# Poissons Ratio (z) = 0.47057 0.06995
#
# Static dielectric constant tensor:
#      x y z
#    x 3.682640 0.000000 -0.052510 
#    y 0.000000 3.395540 0.000000 
#    z -0.052510 0.000000 3.633650 
# 
# 
# High freq. dielectric constant tensor:
#      x y z
#    x 1.758260 0.000000 -0.002560 
#    y 0.000000 1.752100 0.000000 
#    z -0.002560 0.000000 1.756260 
# 
# From -- ./inp_files/172892.got.cif
#   From: 2010.06.25/outbox.cif.g09.slc.cpg/sg12_87_cif.got.tgz:172892.got - 2010.06.28 00:19:55.
