data_PCOD8114702
_publ_section_title
;
Structure prediction by ZEFSAII (Michael W. Deem and Ramdas Pophale) SiO2 
 PCOD8114702
Probable space group: C 2/M
;
_chemical_formula_sum "Si O2"
_cell_formula_units_Z 56
_cell_length_a 7.665591
_cell_length_b 28.214987
_cell_length_c 14.456268
_cell_angle_alpha 90.000000
_cell_angle_beta 68.158552
_cell_angle_gamma 90.000000
_cell_volume 2902.225654
_symmetry_space_group_name_H-M "C 2/M"
_symmetry_group_IT_number 12
_symmetry_cell_setting 'monoclinic'
loop_
_space_group_symop_operation_xyz
x,y,z
-x,y,-z
-x,-y,-z
x,-y,z
1/2+x,1/2+y,z
1/2-x,1/2+y,-z
1/2-x,1/2-y,-z
1/2+x,1/2-y,z
loop_
_atom_site_type_symbol
_atom_site_label
_atom_site_fract_x
_atom_site_fract_y
_atom_site_fract_z
Si Si1 0.661382 0.275629 0.895061
Si Si2 0.651961 0.702189 0.390554
Si Si3 0.140955 0.385220 0.702113
Si Si4 0.855420 0.391796 0.609886
Si Si5 0.847524 0.798685 0.309051
Si Si6 0.465631 0.823184 0.106410
Si Si7 0.005719 0.944311 0.391041
O O1 0.626635 0.302551 0.805546
O O2 0.688023 0.218956 0.873750
O O3 0.855227 0.293494 0.896999
O O4 0.500000 0.288349 0.000000
O O5 0.500000 0.708658 0.500000
O O6 0.782180 0.656269 0.381857
O O7 0.783800 0.747523 0.358006
O O8 0.550046 0.691780 0.313526
O O9 0.087692 0.364117 0.812192
O O10 0.298159 0.425066 0.688469
O O11 0.958011 0.406794 0.686211
O O12 0.803072 0.336562 0.625135
O O13 0.668011 0.422432 0.631250
O O14 0.000000 0.402512 0.500000
O O15 0.500000 0.847859 0.000000
O O16 0.000000 0.930054 0.500000
O O17 0.998536 0.000000 0.377799
#
# Coordination Sequence:
#
# PCOD8114702 Si02
#       7
#     8   8   8   8   8   8   8
#     4  11  22  36  56  85 121 170 219 257 302 356
#     4  12  23  36  54  82 127 175 209 247 292 363
#     4  12  23  41  63  93 127 162 211 256 314 372
#     4  12  23  39  63  93 129 166 206 254 303 379
#     4  12  22  36  55  86 125 172 212 249 301 356
#     4  11  23  37  59  87 121 169 213 262 309 357
#     4  11  25  45  69  95 123 161 205 260 321 372
#
# _framework density 19.295538000000001
#
# number of rings (size 3 to 8) (size 9 to 14) (size 15 to 20)
#    0.000    0.429    5.714    5.571    2.000    0.857 
#    0.000    0.000    0.000    0.429    0.000    1.000 
#    0.000    0.000    0.000    0.000    0.000    0.000 
#
# Total GULP energy -347247.771132 kJ/mol
# GULP energy per Si atom -12401.706112 kJ/mol
# Density = 1.925162 g / cm^3
# Si number density = 19.295538 Si / 1000 Ang^3
#
#
#
# Elastic Constant Matrix: (Units=GPa)
#
#
# Indices 1 2 3 4 5 6 
#
# 1 123.1015 38.4482 36.3373 0.0000 13.4256 0.0000
# 2 38.4482 69.4978 29.5043 0.0000 1.6795 0.0000
# 3 36.3373 29.5043 112.7639 0.0000 14.6740 0.0000
# 4 0.0000 0.0000 0.0000 1379.0371 0.0000 -852.3143
# 5 13.4256 1.6795 14.6740 0.0000 29.3961 0.0000
# 6 0.0000 0.0000 0.0000 -852.3143 0.0000 555.2205
#
#
#
# Elastic Compliance Matrix: (Units=1/GPa)
#
#
# Indices 1 2 3 4 5 6 
#
# 1 0.010594 -0.005094 -0.001593 0.000000 -0.003752 0.000000
# 2 -0.005094 0.018681 -0.003647 0.000000 0.003080 0.000000
# 3 -0.001593 -0.003647 0.010923 0.000000 -0.004517 0.000000
# 4 0.000000 0.000000 0.000000 0.014153 0.000000 0.021726
# 5 -0.003752 0.003080 -0.004517 0.000000 0.037811 0.000000
# 6 0.000000 0.000000 0.000000 0.021726 0.000000 0.035153
#
#
# Mechanical properties :
#
#
# Convention : Reuss Voigt Hill
#
# Bulk Modulus (GPa) = 51.20158 57.10477 54.15318
# Shear Modulus (GPa) = 32.36420 406.13564 219.24992
#
# Velocity S-wave (km/s) = 4.09992 14.52372 10.67117
# Velocity P-wave (km/s) = 7.00039 17.63265 13.41484
#
# Compressibility (1/GPa) = 0.01953065
#
# Stress axis : x y z
#
# Youngs Moduli (GPa) = 94.39569 53.53043 91.54701
#
# Poissons Ratio (x) = 0.27268 0.14580
# Poissons Ratio (y) = 0.48085 0.33388
# Poissons Ratio (z) = 0.15034 0.19523
#
# Static dielectric constant tensor:
#      x y z
#    x 3.955190 0.000000 0.144510 
#    y 0.000000 3.245140 0.000000 
#    z 0.144510 0.000000 3.657500 
# 
# 
# High freq. dielectric constant tensor:
#      x y z
#    x 1.780040 0.000000 0.003210 
#    y 0.000000 1.707160 0.000000 
#    z 0.003210 0.000000 1.748780 
# 
# From -- ./inp_files/200533.got.cif
#   From: 2010.06.25/outbox.cif.g09.slc.cpg/sg12_101_cif.got.tgz:200533.got - 2010.06.28 00:19:55.
