data_PCOD8114277
_publ_section_title
;
Structure prediction by ZEFSAII (Michael W. Deem and Ramdas Pophale) SiO2 
 PCOD8114277
Probable space group: C 2/M
;
_chemical_formula_sum "Si O2"
_cell_formula_units_Z 56
_cell_length_a 28.779326
_cell_length_b 8.562234
_cell_length_c 14.283030
_cell_angle_alpha 90.000000
_cell_angle_beta 59.792599
_cell_angle_gamma 90.000000
_cell_volume 3041.636114
_symmetry_space_group_name_H-M "C 2/M"
_symmetry_group_IT_number 12
_symmetry_cell_setting 'monoclinic'
loop_
_space_group_symop_operation_xyz
x,y,z
-x,y,-z
-x,-y,-z
x,-y,z
1/2+x,1/2+y,z
1/2-x,1/2+y,-z
1/2-x,1/2-y,-z
1/2+x,1/2-y,z
loop_
_atom_site_type_symbol
_atom_site_label
_atom_site_fract_x
_atom_site_fract_y
_atom_site_fract_z
Si Si1 0.920311 0.819209 0.832623
Si Si2 0.944410 0.684211 0.097891
Si Si3 0.552380 0.682076 0.504932
Si Si4 0.871754 0.681484 0.707771
Si Si5 0.030850 0.680180 0.724286
Si Si6 0.351764 0.184967 0.056309
Si Si7 0.754030 0.683611 0.891328
O O1 0.909171 0.788511 0.735301
O O2 0.969571 0.712722 0.816588
O O3 0.933483 0.000000 0.835779
O O4 0.868249 0.762475 0.941358
O O5 0.947842 0.500000 0.080937
O O6 0.935427 0.724890 0.216695
O O7 0.891995 0.748519 0.096104
O O8 0.000000 0.757837 0.000000
O O9 0.500000 0.740733 0.500000
O O10 0.561532 0.500000 0.479599
O O11 0.605724 0.776568 0.418032
O O12 0.546646 0.712421 0.621240
O O13 0.880404 0.500000 0.722254
O O14 0.809806 0.728366 0.784190
O O15 0.038425 0.500000 0.688859
O O16 0.290801 0.242627 0.132618
O O17 0.353317 0.000000 0.046518
O O18 0.745986 0.500000 0.905809
O O19 0.750000 0.750000 0.000000
#
# Coordination Sequence:
#
# PCOD8114277 Si02
#       7
#     8   8   8   8   8   8   8
#     4  12  22  32  51  82 118 149 184 229 276 327
#     4   9  18  34  56  83 112 146 188 231 272 327
#     4  11  23  37  55  83 117 146 180 231 284 331
#     4  11  23  38  57  80 109 151 192 226 273 333
#     4  11  21  36  58  81 112 151 191 228 273 334
#     4  11  21  36  57  81 113 152 190 227 277 334
#     4  11  23  37  56  83 115 147 187 232 279 331
#
# _framework density 18.411144
#
# number of rings (size 3 to 8) (size 9 to 14) (size 15 to 20)
#    0.000    1.143    4.286    3.429    0.000    2.286 
#    0.000    3.571    0.000    0.857    0.000    0.000 
#    0.000    0.000    0.000    0.000    0.000    0.000 
#
# Total GULP energy -347212.183525 kJ/mol
# GULP energy per Si atom -12400.435126 kJ/mol
# Density = 1.836924 g / cm^3
# Si number density = 18.411144 Si / 1000 Ang^3
#
#
#
# Elastic Constant Matrix: (Units=GPa)
#
#
# Indices 1 2 3 4 5 6 
#
# 1 120.3372 33.1879 45.6943 0.0000 -5.5857 0.0000
# 2 33.1879 54.4135 33.3162 0.0000 2.9490 0.0000
# 3 45.6943 33.3162 98.8782 0.0000 -9.2816 0.0000
# 4 0.0000 0.0000 0.0000 24.1954 0.0000 -5.4825
# 5 -5.5857 2.9490 -9.2816 0.0000 22.5327 0.0000
# 6 0.0000 0.0000 0.0000 -5.4825 0.0000 24.0174
#
#
#
# Elastic Compliance Matrix: (Units=1/GPa)
#
#
# Indices 1 2 3 4 5 6 
#
# 1 0.010965 -0.004799 -0.003262 0.000000 0.002002 0.000000
# 2 -0.004799 0.026206 -0.007329 0.000000 -0.007639 0.000000
# 3 -0.003262 -0.007329 0.014672 0.000000 0.006194 0.000000
# 4 0.000000 0.000000 0.000000 0.043585 0.000000 0.009949
# 5 0.002002 -0.007639 0.006194 0.000000 0.048428 0.000000
# 6 0.000000 0.000000 0.000000 0.009949 0.000000 0.043908
#
#
# Mechanical properties :
#
#
# Convention : Reuss Voigt Hill
#
# Bulk Modulus (GPa) = 47.47809 55.33619 51.40714
# Shear Modulus (GPa) = 22.16651 24.91113 23.53882
#
# Velocity S-wave (km/s) = 3.47359 3.68237 3.57950
# Velocity P-wave (km/s) = 6.47545 6.94268 6.71313
#
# Compressibility (1/GPa) = 0.02106235
#
# Stress axis : x y z
#
# Youngs Moduli (GPa) = 91.19740 38.15872 68.15673
#
# Poissons Ratio (x) = 0.18312 0.22235
# Poissons Ratio (y) = 0.43765 0.49954
# Poissons Ratio (z) = 0.29752 0.27968
#
# Static dielectric constant tensor:
#      x y z
#    x 3.639120 0.000000 -0.118150 
#    y 0.000000 3.234300 0.000000 
#    z -0.118150 0.000000 3.342930 
# 
# 
# High freq. dielectric constant tensor:
#      x y z
#    x 1.702040 0.000000 -0.001690 
#    y 0.000000 1.713050 0.000000 
#    z -0.001690 0.000000 1.703730 
# 
# From -- ./inp_files/248887.got.cif
#   From: 2010.06.25/outbox.cif.g09.slc.cpg/sg12_125_cif.got.tgz:248887.got - 2010.06.28 00:19:55.
