data_PCOD8114367
_publ_section_title
;
Structure prediction by ZEFSAII (Michael W. Deem and Ramdas Pophale) SiO2 
 PCOD8114367
Probable space group: C 2/M
;
_chemical_formula_sum "Si O2"
_cell_formula_units_Z 48
_cell_length_a 25.265584
_cell_length_b 14.795206
_cell_length_c 10.903267
_cell_angle_alpha 90.000000
_cell_angle_beta 144.250168
_cell_angle_gamma 90.000000
_cell_volume 2381.242957
_symmetry_space_group_name_H-M "C 2/M"
_symmetry_group_IT_number 12
_symmetry_cell_setting 'monoclinic'
loop_
_space_group_symop_operation_xyz
x,y,z
-x,y,-z
-x,-y,-z
x,-y,z
1/2+x,1/2+y,z
1/2-x,1/2+y,-z
1/2-x,1/2-y,-z
1/2+x,1/2-y,z
loop_
_atom_site_type_symbol
_atom_site_label
_atom_site_fract_x
_atom_site_fract_y
_atom_site_fract_z
Si Si1 0.865735 0.500000 0.675159
Si Si2 0.353771 0.500000 0.205440
Si Si3 0.888029 0.685577 0.012779
Si Si4 0.547400 0.000000 0.895241
Si Si5 0.007508 0.000000 0.314989
Si Si6 0.341492 0.802085 0.652938
Si Si7 0.212817 0.182359 0.831123
Si Si8 0.050354 0.803164 0.351575
O O1 0.812888 0.404696 0.557651
O O2 0.940545 0.500000 0.710577
O O3 0.903832 0.500000 0.882748
O O4 0.401997 0.500000 0.161460
O O5 0.432009 0.500000 0.451665
O O6 0.289534 0.586280 0.104776
O O7 0.898085 0.695738 0.885280
O O8 0.782611 0.688910 0.849362
O O9 0.924619 0.588646 0.127256
O O10 0.951505 0.760995 0.196570
O O11 0.032800 0.909353 0.285441
O O12 0.250000 0.750000 0.500000
O O13 0.405226 0.750879 0.676683
O O14 0.113857 0.206682 0.591146
O O15 0.250000 0.250000 0.000000
#
# Coordination Sequence:
#
# PCOD8114367 Si02
#       8
#     4   4   8   4   4   8   8   8
#     4   9  18  33  56  87 120 156 190 240 287 364
#     4   9  19  40  61  86 116 154 206 256 294 361
#     4  11  21  37  63  88 121 157 200 246 299 358
#     4   9  17  32  58  86 112 154 194 234 291 352
#     4   9  20  37  62  85 117 162 203 245 304 357
#     4  11  21  38  60  91 126 160 201 245 299 359
#     4  11  23  39  62  88 117 155 204 250 302 354
#     4  11  22  39  62  88 121 159 200 249 298 366
#
# _framework density 20.157540000000001
#
# number of rings (size 3 to 8) (size 9 to 14) (size 15 to 20)
#    0.000    1.667    3.333    2.000    0.000    2.667 
#    0.000    4.167    0.000    2.000    0.000    0.000 
#    0.000    0.000    0.000    0.000    0.000    0.000 
#
# Total GULP energy -297435.033282 kJ/mol
# GULP energy per Si atom -12393.126387 kJ/mol
# Density = 2.011166 g / cm^3
# Si number density = 20.157540 Si / 1000 Ang^3
#
#
#
# Elastic Constant Matrix: (Units=GPa)
#
#
# Indices 1 2 3 4 5 6 
#
# 1 74.1724 47.2979 15.2748 0.0000 7.0725 0.0000
# 2 47.2979 191.5671 57.2500 0.0000 6.0857 0.0000
# 3 15.2748 57.2500 74.7231 0.0000 11.3768 0.0000
# 4 0.0000 0.0000 0.0000 34.7316 0.0000 7.9983
# 5 7.0725 6.0857 11.3768 0.0000 29.4165 0.0000
# 6 0.0000 0.0000 0.0000 7.9983 0.0000 36.5091
#
#
#
# Elastic Compliance Matrix: (Units=1/GPa)
#
#
# Indices 1 2 3 4 5 6 
#
# 1 0.016280 -0.003980 0.000204 0.000000 -0.003170 0.000000
# 2 -0.003980 0.007755 -0.005344 0.000000 0.001419 0.000000
# 3 0.000204 -0.005344 0.018355 0.000000 -0.006042 0.000000
# 4 0.000000 0.000000 0.000000 0.030322 0.000000 -0.006643
# 5 -0.003170 0.001419 -0.006042 0.000000 0.036800 0.000000
# 6 0.000000 0.000000 0.000000 -0.006643 0.000000 0.028846
#
#
# Mechanical properties :
#
#
# Convention : Reuss Voigt Hill
#
# Bulk Modulus (GPa) = 41.40719 64.45645 52.93182
# Shear Modulus (GPa) = 30.36788 34.84076 32.60432
#
# Velocity S-wave (km/s) = 3.88561 4.16194 4.02615
# Velocity P-wave (km/s) = 6.38099 7.42573 6.92309
#
# Compressibility (1/GPa) = 0.02415040
#
# Stress axis : x y z
#
# Youngs Moduli (GPa) = 61.42437 128.95511 54.48011
#
# Poissons Ratio (x) = 0.51321 -0.01110
# Poissons Ratio (y) = 0.24446 0.29113
# Poissons Ratio (z) = -0.01252 0.68912
#
# Static dielectric constant tensor:
#      x y z
#    x 3.827400 0.000000 0.332430 
#    y 0.000000 4.239950 0.000000 
#    z 0.332430 0.000000 3.469010 
# 
# 
# High freq. dielectric constant tensor:
#      x y z
#    x 1.777700 0.000000 0.023810 
#    y 0.000000 1.808380 0.000000 
#    z 0.023810 0.000000 1.756800 
# 
# From -- ./inp_files/142943.got.cif
#   From: 2010.06.25/outbox.cif.g09.slc.cpg/sg12_72_cif.got.tgz:142943.got - 2010.06.28 00:19:55.
