data_PCOD8114668
_publ_section_title
;
Structure prediction by ZEFSAII (Michael W. Deem and Ramdas Pophale) SiO2 
 PCOD8114668
Probable space group: C 2/M
;
_chemical_formula_sum "Si O2"
_cell_formula_units_Z 48
_cell_length_a 29.220748
_cell_length_b 8.565215
_cell_length_c 16.172225
_cell_angle_alpha 90.000000
_cell_angle_beta 37.215022
_cell_angle_gamma 90.000000
_cell_volume 2448.030646
_symmetry_space_group_name_H-M "C 2/M"
_symmetry_group_IT_number 12
_symmetry_cell_setting 'monoclinic'
loop_
_space_group_symop_operation_xyz
x,y,z
-x,y,-z
-x,-y,-z
x,-y,z
1/2+x,1/2+y,z
1/2-x,1/2+y,-z
1/2-x,1/2-y,-z
1/2+x,1/2-y,z
loop_
_atom_site_type_symbol
_atom_site_label
_atom_site_fract_x
_atom_site_fract_y
_atom_site_fract_z
Si Si1 0.028614 0.316214 0.867986
Si Si2 0.100626 0.185571 0.061045
Si Si3 0.810038 0.816083 0.350106
Si Si4 0.267732 0.814694 0.233886
Si Si5 0.947696 0.814758 0.691295
Si Si6 0.607510 0.314394 0.403127
O O1 0.037858 0.500000 0.843191
O O2 0.107877 0.233581 0.736117
O O3 0.969924 0.249247 0.887718
O O4 0.000000 0.272593 0.000000
O O5 0.090882 0.245045 0.169281
O O6 0.103439 0.000000 0.049728
O O7 0.178186 0.258014 0.917077
O O8 0.750000 0.750000 0.500000
O O9 0.796364 0.750445 0.278967
O O10 0.803532 0.000000 0.357104
O O11 0.183885 0.748845 0.334876
O O12 0.269923 0.000000 0.235444
O O13 0.899640 0.754423 0.681521
O O14 0.034669 0.754246 0.559532
O O15 0.950076 0.000000 0.686962
O O16 0.610627 0.500000 0.398918
#
# Coordination Sequence:
#
# PCOD8114668 Si02
#       6
#     8   8   8   8   8   8
#     4  11  23  41  63  86 118 157 197 243 292 351
#     4  11  22  35  58  88 118 155 198 244 294 352
#     4  12  26  43  63  88 120 156 196 242 293 351
#     4  11  22  37  58  86 119 156 196 242 294 348
#     4   8  16  33  56  85 113 147 196 244 292 349
#     4   8  16  33  57  82 114 151 193 244 293 345
#
# _framework density 19.607597999999999
#
# number of rings (size 3 to 8) (size 9 to 14) (size 15 to 20)
#    0.000    1.833    1.667    4.000    2.333    1.333 
#    0.000    0.000    0.000    3.000    0.000    9.333 
#    0.000    0.000    0.000    0.000    0.000    0.000 
#
# Total GULP energy -297608.602864 kJ/mol
# GULP energy per Si atom -12400.358453 kJ/mol
# Density = 1.956297 g / cm^3
# Si number density = 19.607598 Si / 1000 Ang^3
#
#
#
# Elastic Constant Matrix: (Units=GPa)
#
#
# Indices 1 2 3 4 5 6 
#
# 1 60.7034 8.8876 22.8907 -0.0045 -9.7649 -0.0014
# 2 8.8876 71.3595 27.7250 -0.0037 -1.2247 -0.0015
# 3 22.8907 27.7250 124.5857 -0.0027 2.1687 -0.0012
# 4 -0.0045 -0.0037 -0.0027 32.1073 -0.0010 -0.6246
# 5 -9.7649 -1.2247 2.1687 -0.0010 44.2284 0.0021
# 6 -0.0014 -0.0015 -0.0012 -0.6246 0.0021 -4.4551
#
#
#
# Elastic Compliance Matrix: (Units=1/GPa)
#
#
# Indices 1 2 3 4 5 6 
#
# 1 0.018525 -0.000967 -0.003262 0.000002 0.004223 -0.000003
# 2 -0.000967 0.015406 -0.003257 0.000001 0.000373 -0.000004
# 3 -0.003262 -0.003257 0.009373 0.000000 -0.001270 -0.000001
# 4 0.000002 0.000001 0.000000 0.031061 0.000001 -0.004354
# 5 0.004223 0.000373 -0.001270 0.000001 0.023615 0.000010
# 6 -0.000003 -0.000004 -0.000001 -0.004354 0.000010 -0.223849
#
#
# Mechanical properties :
#
#
# Convention : Reuss Voigt Hill
#
# Bulk Modulus (GPa) = 35.29754 41.73947 38.51850
# Shear Modulus (GPa) = -49.28361 27.51912 -10.88225
#
# Velocity S-wave (km/s) = -5.01892 3.75039 -2.35840
# Velocity P-wave (km/s) = 3.94271 6.33147 3.50303
#
# Compressibility (1/GPa) = 0.02833059
#
# Stress axis : x y z
#
# Youngs Moduli (GPa) = 53.98250 64.91013 106.69103
#
# Poissons Ratio (x) = 0.06279 0.34801
# Poissons Ratio (y) = 0.05222 0.34751
# Poissons Ratio (z) = 0.17608 0.21142
#
# Static dielectric constant tensor:
#      x y z
#    x 3.871200 0.000000 0.014230 
#    y 0.000000 3.415520 0.000000 
#    z 0.014230 0.000000 3.930430 
# 
# 
# High freq. dielectric constant tensor:
#      x y z
#    x 1.773780 0.000000 -0.001810 
#    y 0.000000 1.743690 0.000000 
#    z -0.001810 0.000000 1.777750 
# 
# From -- ./inp_files/244698.got.cif
#   From: 2010.06.25/outbox.cif.g09.slc.cpg/sg12_123_cif.got.tgz:244698.got - 2010.06.28 00:19:55.
