data_PCOD8114207
_publ_section_title
;
Structure prediction by ZEFSAII (Michael W. Deem and Ramdas Pophale) SiO2 
 PCOD8114207
Probable space group: C 2/M
;
_chemical_formula_sum "Si O2"
_cell_formula_units_Z 56
_cell_length_a 8.910803
_cell_length_b 24.467358
_cell_length_c 17.437060
_cell_angle_alpha 90.000000
_cell_angle_beta 137.476328
_cell_angle_gamma 90.000000
_cell_volume 2569.545190
_symmetry_space_group_name_H-M "C 2/M"
_symmetry_group_IT_number 12
_symmetry_cell_setting 'monoclinic'
loop_
_space_group_symop_operation_xyz
x,y,z
-x,y,-z
-x,-y,-z
x,-y,z
1/2+x,1/2+y,z
1/2-x,1/2+y,-z
1/2-x,1/2-y,-z
1/2+x,1/2-y,z
loop_
_atom_site_type_symbol
_atom_site_label
_atom_site_fract_x
_atom_site_fract_y
_atom_site_fract_z
Si Si1 0.489631 0.906454 0.776195
Si Si2 0.109792 0.307739 0.619399
Si Si3 0.203237 0.597571 0.020210
Si Si4 0.250499 0.500000 0.617073
Si Si5 0.171670 0.910015 0.234729
Si Si6 0.124825 0.000000 0.627595
Si Si7 0.420463 0.213335 0.704913
Si Si8 0.250000 0.216434 0.924514
O O1 0.622937 0.914345 0.904853
O O2 0.656644 0.919492 0.770109
O O3 0.407831 0.843584 0.746156
O O4 0.277510 0.946084 0.693022
O O5 0.303487 0.347194 0.725178
O O6 0.199971 0.247108 0.637667
O O7 0.000000 0.331261 0.500000
O O8 0.927798 0.300277 0.617514
O O9 0.430273 0.564674 0.120417
O O10 0.327099 0.655649 0.083204
O O11 0.000000 0.582463 0.000000
O O12 0.264847 0.444853 0.669081
O O13 0.433481 0.500000 0.618972
O O14 0.000000 0.500000 0.500000
O O15 0.000000 0.000000 0.500000
O O16 0.627836 0.251264 0.810014
O O17 0.500000 0.205498 0.000000
O O18 0.250000 0.250000 0.000000
#
# Coordination Sequence:
#
# PCOD8114207 Si02
#       8
#     8   8   8   4   8   4   8   8
#     4  11  25  43  70 103 139 181 230 287 346 418
#     4  11  24  40  61  92 135 179 230 285 341 414
#     4  11  23  39  64 102 139 180 224 284 347 411
#     4  12  26  49  78  99 128 180 234 284 346 410
#     4  11  24  44  69  98 137 181 232 287 352 411
#     4  12  28  51  76 105 138 176 234 290 344 414
#     4  11  23  39  63  96 134 181 229 278 347 410
#     4  11  21  34  61  94 136 181 224 273 336 414
#
# _framework density 21.793741000000001
#
# number of rings (size 3 to 8) (size 9 to 14) (size 15 to 20)
#    0.000    0.857    2.857    4.286    4.000    3.429 
#    0.000    2.857    0.000    0.000    0.000    0.000 
#    0.000    0.000    0.000    0.000    0.000    0.000 
#
# Total GULP energy -346944.758229 kJ/mol
# GULP energy per Si atom -12390.884222 kJ/mol
# Density = 2.174414 g / cm^3
# Si number density = 21.793741 Si / 1000 Ang^3
#
#
#
# Elastic Constant Matrix: (Units=GPa)
#
#
# Indices 1 2 3 4 5 6 
#
# 1 134.9016 34.6821 68.1473 -0.0001 -7.1922 0.0000
# 2 34.6821 93.7788 40.6283 0.0000 4.8113 0.0000
# 3 68.1473 40.6283 164.8136 -0.0004 -4.8597 -0.0003
# 4 -0.0001 0.0000 -0.0004 72.7635 -0.0002 7.4760
# 5 -7.1922 4.8113 -4.8597 -0.0002 45.0208 -0.0001
# 6 0.0000 0.0000 -0.0003 7.4760 -0.0001 31.4148
#
#
#
# Elastic Compliance Matrix: (Units=1/GPa)
#
#
# Indices 1 2 3 4 5 6 
#
# 1 0.009807 -0.002196 -0.003472 0.000000 0.001427 0.000000
# 2 -0.002196 0.012546 -0.002242 0.000000 -0.001934 0.000000
# 3 -0.003472 -0.002242 0.008072 0.000000 0.000556 0.000000
# 4 0.000000 0.000000 0.000000 0.014088 0.000000 -0.003353
# 5 0.001427 -0.001934 0.000556 0.000000 0.022707 0.000000
# 6 0.000000 0.000000 0.000000 -0.003353 0.000000 0.032630
#
#
# Mechanical properties :
#
#
# Convention : Reuss Voigt Hill
#
# Bulk Modulus (GPa) = 68.46419 75.60104 72.03261
# Shear Modulus (GPa) = 41.48105 46.50889 43.99497
#
# Velocity S-wave (km/s) = 4.36747 4.62459 4.49787
# Velocity P-wave (km/s) = 7.54426 7.95490 7.75230
#
# Compressibility (1/GPa) = 0.01460618
#
# Stress axis : x y z
#
# Youngs Moduli (GPa) = 101.96551 79.70691 123.88618
#
# Poissons Ratio (x) = 0.17505 0.43009
# Poissons Ratio (y) = 0.22393 0.27771
# Poissons Ratio (z) = 0.35399 0.17868
#
# Static dielectric constant tensor:
#      x y z
#    x 3.789900 0.000020 -0.065600 
#    y 0.000020 -44.097790 -0.000100 
#    z -0.065600 -0.000100 3.931230 
# 
# 
# High freq. dielectric constant tensor:
#      x y z
#    x 1.862780 0.000000 -0.003640 
#    y 0.000000 1.860930 0.000000 
#    z -0.003640 0.000000 1.869980 
# 
# From -- ./inp_files/259897.got.cif
#   From: 2010.06.25/outbox.cif.g09.slc.cpg/sg12_130_cif.got.tgz:259897.got - 2010.06.28 00:19:55.
