data_PCOD8114987
_publ_section_title
;
Structure prediction by ZEFSAII (Michael W. Deem and Ramdas Pophale) SiO2 
 PCOD8114987
Probable space group: C 2/M
;
_chemical_formula_sum "Si O2"
_cell_formula_units_Z 60
_cell_length_a 22.099679
_cell_length_b 23.612139
_cell_length_c 19.212355
_cell_angle_alpha 90.000000
_cell_angle_beta 161.936891
_cell_angle_gamma 90.000000
_cell_volume 3108.520568
_symmetry_space_group_name_H-M "C 2/M"
_symmetry_group_IT_number 12
_symmetry_cell_setting 'monoclinic'
loop_
_space_group_symop_operation_xyz
x,y,z
-x,y,-z
-x,-y,-z
x,-y,z
1/2+x,1/2+y,z
1/2-x,1/2+y,-z
1/2-x,1/2-y,-z
1/2+x,1/2-y,z
loop_
_atom_site_type_symbol
_atom_site_label
_atom_site_fract_x
_atom_site_fract_y
_atom_site_fract_z
Si Si1 0.000000 0.874486 0.000000
Si Si2 0.375146 0.317487 0.571956
Si Si3 0.980036 0.937017 0.234093
Si Si4 0.430007 0.275701 0.350008
Si Si5 0.103277 0.380916 0.807897
Si Si6 0.294249 0.563060 0.654975
Si Si7 0.340572 0.152178 0.279501
Si Si8 0.953651 0.280653 0.154336
O O1 0.139854 0.913431 0.198891
O O2 0.136952 0.837169 0.098530
O O3 0.399888 0.385262 0.601111
O O4 0.422488 0.297758 0.546387
O O5 0.150658 0.304618 0.338317
O O6 0.510764 0.283165 0.776529
O O7 0.025434 0.936011 0.201197
O O8 0.036705 0.000000 0.325470
O O9 0.752148 0.926358 0.004424
O O10 0.500000 0.304334 0.500000
O O11 0.456688 0.208944 0.386445
O O12 0.204090 0.284622 0.080267
O O13 0.193260 0.380199 0.828908
O O14 0.880328 0.399942 0.568245
O O15 0.121837 0.319775 0.864807
O O16 0.214853 0.500000 0.580427
O O17 0.500000 0.117515 0.500000
#
# Coordination Sequence:
#
# PCOD8114987 Si02
#       8
#     4   8   8   8   8   8   8   8
#     4  12  23  38  56  76 126 174 207 250 292 352
#     4  11  22  40  65  94 126 157 201 255 309 363
#     4  11  23  38  61  90 119 158 206 257 305 357
#     4  11  24  39  60  91 128 156 192 245 306 379
#     4  12  20  39  62  88 117 157 210 258 304 354
#     4  11  24  38  55  86 120 162 214 257 295 350
#     4  11  23  36  56  86 120 163 205 246 296 360
#     4  11  23  37  68  95 121 160 200 256 315 364
#
# _framework density 19.301787000000001
#
# number of rings (size 3 to 8) (size 9 to 14) (size 15 to 20)
#    0.000    0.800    6.667    1.800    0.000    2.667 
#    0.000    0.667    0.000    0.400    0.000    0.933 
#    0.000    0.000    0.000    0.000    0.000    0.000 
#
# Total GULP energy -371770.010059 kJ/mol
# GULP energy per Si atom -12392.333669 kJ/mol
# Density = 1.925785 g / cm^3
# Si number density = 19.301787 Si / 1000 Ang^3
#
#
#
# Elastic Constant Matrix: (Units=GPa)
#
#
# Indices 1 2 3 4 5 6 
#
# 1 92.6089 24.3449 37.5018 -0.0005 4.7393 -0.0007
# 2 24.3449 101.6061 21.7315 -0.0009 0.5425 -0.0008
# 3 37.5018 21.7315 113.8623 0.0062 -1.6824 0.0007
# 4 -0.0005 -0.0009 0.0062 20.7355 0.0020 3.2346
# 5 4.7393 0.5425 -1.6824 0.0020 35.1347 0.0003
# 6 -0.0007 -0.0008 0.0007 3.2346 0.0003 18.8204
#
#
#
# Elastic Compliance Matrix: (Units=1/GPa)
#
#
# Indices 1 2 3 4 5 6 
#
# 1 0.013076 -0.002289 -0.003898 0.000002 -0.001915 0.000000
# 2 -0.002289 0.010664 -0.001280 0.000001 0.000083 0.000000
# 3 -0.003898 -0.001280 0.010326 -0.000003 0.001040 0.000000
# 4 0.000002 0.000001 -0.000003 0.049555 -0.000003 -0.008517
# 5 -0.001915 0.000083 0.001040 -0.000003 0.028769 0.000000
# 6 0.000000 0.000000 0.000000 -0.008517 0.000000 0.054598
#
#
# Mechanical properties :
#
#
# Convention : Reuss Voigt Hill
#
# Bulk Modulus (GPa) = 52.27013 52.80374 52.53693
# Shear Modulus (GPa) = 26.55335 29.90471 28.22903
#
# Velocity S-wave (km/s) = 3.71306 3.94041 3.82842
# Velocity P-wave (km/s) = 6.74697 6.93677 6.84253
#
# Compressibility (1/GPa) = 0.01913138
#
# Stress axis : x y z
#
# Youngs Moduli (GPa) = 76.47318 93.77561 96.84139
#
# Poissons Ratio (x) = 0.21467 0.37752
# Poissons Ratio (y) = 0.17506 0.12397
# Poissons Ratio (z) = 0.29811 0.12004
#
# Static dielectric constant tensor:
#      x y z
#    x 3.607320 0.000000 0.003200 
#    y 0.000000 3.482720 0.000000 
#    z 0.003200 0.000000 3.619820 
# 
# 
# High freq. dielectric constant tensor:
#      x y z
#    x 1.743910 0.000000 0.019650 
#    y 0.000000 1.732050 0.000000 
#    z 0.019650 0.000000 1.756840 
# 
# From -- ./inp_files/286445.got.cif
#   From: 2010.06.25/outbox.cif.g09.slc.cpg/sg12_144_cif.got.tgz:286445.got - 2010.06.28 00:19:55.
