data_PCOD8114023
_publ_section_title
;
Structure prediction by ZEFSAII (Michael W. Deem and Ramdas Pophale) SiO2 
 PCOD8114023
Probable space group: C 2/M
;
_chemical_formula_sum "Si O2"
_cell_formula_units_Z 56
_cell_length_a 13.025561
_cell_length_b 27.946187
_cell_length_c 10.252683
_cell_angle_alpha 90.000000
_cell_angle_beta 134.808917
_cell_angle_gamma 90.000000
_cell_volume 2647.799490
_symmetry_space_group_name_H-M "C 2/M"
_symmetry_group_IT_number 12
_symmetry_cell_setting 'monoclinic'
loop_
_space_group_symop_operation_xyz
x,y,z
-x,y,-z
-x,-y,-z
x,-y,z
1/2+x,1/2+y,z
1/2-x,1/2+y,-z
1/2-x,1/2-y,-z
1/2+x,1/2-y,z
loop_
_atom_site_type_symbol
_atom_site_label
_atom_site_fract_x
_atom_site_fract_y
_atom_site_fract_z
Si Si1 0.896035 0.717522 0.710464
Si Si2 0.834521 0.054115 0.347177
Si Si3 0.396362 0.086139 0.020300
Si Si4 0.261319 0.374844 0.495518
Si Si5 0.007994 0.804458 0.351368
Si Si6 0.929046 0.446266 0.575581
Si Si7 0.814421 0.304434 0.921458
O O1 0.856419 0.667791 0.605960
O O2 0.876998 0.763386 0.595524
O O3 0.809601 0.718243 0.770687
O O4 0.068541 0.723678 0.888054
O O5 0.759969 0.059127 0.137523
O O6 0.742875 0.091993 0.350835
O O7 0.000000 0.070993 0.500000
O O8 0.823872 0.000000 0.391128
O O9 0.371611 0.141904 0.971575
O O10 0.500000 0.065031 0.000000
O O11 0.458512 0.075568 0.218918
O O12 0.423742 0.353541 0.646778
O O13 0.214233 0.412111 0.566351
O O14 0.000000 0.806443 0.500000
O O15 0.843617 0.799977 0.153710
O O16 0.884125 0.500000 0.576186
O O17 0.000000 0.446484 0.500000
#
# Coordination Sequence:
#
# PCOD8114023 Si02
#       7
#     8   8   8   8   8   8   8
#     4  11  22  40  59  88 123 165 210 263 320 387
#     4  11  22  35  61 102 132 159 211 277 335 383
#     4  12  19  39  70  96 127 168 220 267 326 377
#     4  12  21  41  62  91 124 168 214 266 324 382
#     4  12  25  38  63  92 128 167 213 271 334 390
#     4  11  25  43  65  99 138 175 219 270 328 396
#     4  11  20  41  61  87 126 163 207 273 321 375
#
# _framework density 21.149637999999999
#
# number of rings (size 3 to 8) (size 9 to 14) (size 15 to 20)
#    0.000    0.571    7.143    3.000    0.000    1.143 
#    0.000    1.429    0.000    2.571    0.000   10.000 
#    0.000    0.000    0.000    0.000    0.000    0.000 
#
# Total GULP energy -346875.758754 kJ/mol
# GULP energy per Si atom -12388.419956 kJ/mol
# Density = 2.110150 g / cm^3
# Si number density = 21.149638 Si / 1000 Ang^3
#
#
#
# Elastic Constant Matrix: (Units=GPa)
#
#
# Indices 1 2 3 4 5 6 
#
# 1 91.1874 52.8031 36.3836 0.0000 17.1251 0.0000
# 2 52.8031 129.5920 16.1775 0.0000 2.7598 0.0000
# 3 36.3836 16.1775 54.2510 0.0000 8.9660 0.0000
# 4 0.0000 0.0000 0.0000 10.9682 0.0000 -1.4061
# 5 17.1251 2.7598 8.9660 0.0000 31.6312 0.0000
# 6 0.0000 0.0000 0.0000 -1.4061 0.0000 34.9277
#
#
#
# Elastic Compliance Matrix: (Units=1/GPa)
#
#
# Indices 1 2 3 4 5 6 
#
# 1 0.020574 -0.006913 -0.010487 0.000000 -0.007563 0.000000
# 2 -0.006913 0.010338 0.001137 0.000000 0.002518 0.000000
# 3 -0.010487 0.001137 0.025394 0.000000 -0.001620 0.000000
# 4 0.000000 0.000000 0.000000 0.091646 0.000000 0.003689
# 5 -0.007563 0.002518 -0.001620 0.000000 0.035948 0.000000
# 6 0.000000 0.000000 0.000000 0.003689 0.000000 0.028779
#
#
# Mechanical properties :
#
#
# Convention : Reuss Voigt Hill
#
# Bulk Modulus (GPa) = 42.04956 53.97318 48.01137
# Shear Modulus (GPa) = 19.75267 26.81650 23.28459
#
# Velocity S-wave (km/s) = 3.05937 3.56468 3.32165
# Velocity P-wave (km/s) = 5.69252 6.52056 6.12056
#
# Compressibility (1/GPa) = 0.02378146
#
# Stress axis : x y z
#
# Youngs Moduli (GPa) = 48.60537 96.73428 39.37894
#
# Poissons Ratio (x) = 0.66871 0.41295
# Poissons Ratio (y) = 0.33600 -0.04478
# Poissons Ratio (z) = 0.50970 -0.11001
#
# Static dielectric constant tensor:
#      x y z
#    x 3.860470 0.000000 0.427680 
#    y 0.000000 4.122500 0.000000 
#    z 0.427680 0.000000 4.080700 
# 
# 
# High freq. dielectric constant tensor:
#      x y z
#    x 1.810290 0.000000 0.032920 
#    y 0.000000 1.842600 0.000000 
#    z 0.032920 0.000000 1.822940 
# 
# From -- ./inp_files/137012.got.cif
#   From: 2010.06.25/outbox.cif.g09.slc.cpg/sg12_69_cif.got.tgz:137012.got - 2010.06.28 00:19:55.
