data_PCOD8114795
_publ_section_title
;
Structure prediction by ZEFSAII (Michael W. Deem and Ramdas Pophale) SiO2 
 PCOD8114795
Probable space group: C 2/M
;
_chemical_formula_sum "Si O2"
_cell_formula_units_Z 56
_cell_length_a 14.192459
_cell_length_b 17.838296
_cell_length_c 12.037544
_cell_angle_alpha 90.000000
_cell_angle_beta 121.397808
_cell_angle_gamma 90.000000
_cell_volume 2601.287870
_symmetry_space_group_name_H-M "C 2/M"
_symmetry_group_IT_number 12
_symmetry_cell_setting 'monoclinic'
loop_
_space_group_symop_operation_xyz
x,y,z
-x,y,-z
-x,-y,-z
x,-y,z
1/2+x,1/2+y,z
1/2-x,1/2+y,-z
1/2-x,1/2-y,-z
1/2+x,1/2-y,z
loop_
_atom_site_type_symbol
_atom_site_label
_atom_site_fract_x
_atom_site_fract_y
_atom_site_fract_z
Si Si1 0.657679 0.192303 0.485600
Si Si2 0.096359 0.803219 0.145975
Si Si3 0.127187 0.638207 0.881845
Si Si4 0.726846 0.914572 0.729146
Si Si5 0.466972 0.276806 0.283848
Si Si6 0.245099 0.661970 0.175499
Si Si7 0.607339 0.084575 0.256552
O O1 0.750000 0.250000 0.500000
O O2 0.681926 0.147661 0.614130
O O3 0.541735 0.238062 0.425490
O O4 0.644169 0.129409 0.385951
O O5 0.153073 0.883936 0.160030
O O6 0.184903 0.736469 0.185721
O O7 0.050998 0.808025 0.243344
O O8 0.000000 0.789207 0.000000
O O9 0.154256 0.582303 0.796606
O O10 0.119195 0.720977 0.827584
O O11 0.010031 0.614228 0.862643
O O12 0.221591 0.642154 0.032718
O O13 0.732455 0.000000 0.684899
O O14 0.378457 0.336368 0.278473
O O15 0.198868 0.592359 0.217351
O O16 0.596735 0.000000 0.287890
#
# Coordination Sequence:
#
# PCOD8114795 Si02
#       7
#     8   8   8   8   8   8   8
#     4  11  23  46  69  93 125 174 230 276 321 386
#     4  12  21  41  68  98 130 171 225 275 327 388
#     4  11  22  39  67  99 134 171 216 271 328 389
#     4  12  26  43  65  98 139 176 215 271 341 405
#     4  11  22  37  67 101 122 163 222 281 319 377
#     4  12  21  41  69 100 132 171 222 277 326 388
#     4  11  24  41  64  98 137 175 217 271 333 392
#
# _framework density 21.527798000000001
#
# number of rings (size 3 to 8) (size 9 to 14) (size 15 to 20)
#    0.000    0.571    7.143    2.571    0.000    4.286 
#    0.000    4.286    0.000    0.857    0.000    0.000 
#    0.000    0.000    0.000    0.000    0.000    0.000 
#
# Total GULP energy -347068.445358 kJ/mol
# GULP energy per Si atom -12395.301620 kJ/mol
# Density = 2.147880 g / cm^3
# Si number density = 21.527798 Si / 1000 Ang^3
#
#
#
# Elastic Constant Matrix: (Units=GPa)
#
#
# Indices 1 2 3 4 5 6 
#
# 1 117.9598 26.0036 35.4221 0.0000 -6.9992 0.0000
# 2 26.0036 77.7629 23.8505 0.0000 -2.5982 0.0000
# 3 35.4221 23.8505 75.1083 0.0000 4.2007 0.0000
# 4 0.0000 0.0000 0.0000 14.1282 0.0000 -5.3634
# 5 -6.9992 -2.5982 4.2007 0.0000 24.2051 0.0000
# 6 0.0000 0.0000 0.0000 -5.3634 0.0000 24.9564
#
#
#
# Elastic Compliance Matrix: (Units=1/GPa)
#
#
# Indices 1 2 3 4 5 6 
#
# 1 0.010487 -0.002003 -0.004511 0.000000 0.003600 0.000000
# 2 -0.002003 0.014762 -0.003836 0.000000 0.001671 0.000000
# 3 -0.004511 -0.003836 0.016920 0.000000 -0.004653 0.000000
# 4 0.000000 0.000000 0.000000 0.077068 0.000000 0.016563
# 5 0.003600 0.001671 -0.004653 0.000000 0.043341 0.000000
# 6 0.000000 0.000000 0.000000 0.016563 0.000000 0.043629
#
#
# Mechanical properties :
#
#
# Convention : Reuss Voigt Hill
#
# Bulk Modulus (GPa) = 46.58102 49.04258 47.81180
# Shear Modulus (GPa) = 21.36152 25.02828 23.19490
#
# Velocity S-wave (km/s) = 3.15346 3.41340 3.28600
# Velocity P-wave (km/s) = 5.91132 6.19399 6.05430
#
# Compressibility (1/GPa) = 0.02146797
#
# Stress axis : x y z
#
# Youngs Moduli (GPa) = 95.35310 67.74204 59.10107
#
# Poissons Ratio (x) = 0.13569 0.26662
# Poissons Ratio (y) = 0.19099 0.22674
# Poissons Ratio (z) = 0.43017 0.25989
#
# Static dielectric constant tensor:
#      x y z
#    x 4.556650 0.000000 -0.011220 
#    y 0.000000 3.820680 0.000000 
#    z -0.011220 0.000000 3.947010 
# 
# 
# High freq. dielectric constant tensor:
#      x y z
#    x 1.858000 0.000000 -0.002600 
#    y 0.000000 1.816310 0.000000 
#    z -0.002600 0.000000 1.845410 
# 
# From -- ./inp_files/146238.got.cif
#   From: 2010.06.25/outbox.cif.g09.slc.cpg/sg12_74_cif.got.tgz:146238.got - 2010.06.28 00:19:55.
