data_PCOD8114671
_publ_section_title
;
Structure prediction by ZEFSAII (Michael W. Deem and Ramdas Pophale) SiO2 
 PCOD8114671
Probable space group: C 2/M
;
_chemical_formula_sum "Si O2"
_cell_formula_units_Z 64
_cell_length_a 29.646359
_cell_length_b 19.862497
_cell_length_c 19.968300
_cell_angle_alpha 90.000000
_cell_angle_beta 16.766863
_cell_angle_gamma 90.000000
_cell_volume 3392.025625
_symmetry_space_group_name_H-M "C 2/M"
_symmetry_group_IT_number 12
_symmetry_cell_setting 'monoclinic'
loop_
_space_group_symop_operation_xyz
x,y,z
-x,y,-z
-x,-y,-z
x,-y,z
1/2+x,1/2+y,z
1/2-x,1/2+y,-z
1/2-x,1/2-y,-z
1/2+x,1/2-y,z
loop_
_atom_site_type_symbol
_atom_site_label
_atom_site_fract_x
_atom_site_fract_y
_atom_site_fract_z
Si Si1 0.460958 0.773086 0.369295
Si Si2 0.609910 0.367860 0.178075
Si Si3 0.146006 0.215037 0.744899
Si Si4 0.243472 0.671900 0.897258
Si Si5 0.813063 0.650479 0.387983
Si Si6 0.634036 0.920919 0.939998
Si Si7 0.313546 0.425674 0.552887
Si Si8 0.106991 0.685358 0.293162
O O1 0.503742 0.697644 0.325651
O O2 0.280786 0.773771 0.607467
O O3 0.500526 0.815280 0.378758
O O4 0.564095 0.804816 0.162874
O O5 0.690219 0.374059 0.136494
O O6 0.490552 0.427882 0.331243
O O7 0.742845 0.361356 0.932404
O O8 0.111479 0.280301 0.747808
O O9 0.204578 0.158538 0.608507
O O10 0.000000 0.193983 0.000000
O O11 0.245791 0.624815 0.828572
O O12 0.345988 0.739888 0.746984
O O13 0.698637 0.623286 0.492960
O O14 0.952578 0.598768 0.205501
O O15 0.688541 0.904975 0.787274
O O16 0.654923 0.000000 0.928131
O O17 0.273046 0.500000 0.585006
O O18 0.000000 0.649244 0.500000
#
# Coordination Sequence:
#
# PCOD8114671 Si02
#       8
#     8   8   8   8   8   8   8   8
#     4   9  17  36  50  77 117 142 174 221 290 336
#     4   9  19  35  53  79 113 142 182 228 278 336
#     4  11  22  35  60  91 112 145 181 231 291 339
#     4   9  19  34  54  79 111 145 181 228 276 331
#     4  11  23  38  56  83 118 147 185 235 280 335
#     4  11  23  37  57  79 109 157 197 226 275 337
#     4  11  23  37  56  80 112 154 191 233 279 329
#     4   9  19  30  57  85 106 147 176 222 291 345
#
# _framework density 18.867782999999999
#
# number of rings (size 3 to 8) (size 9 to 14) (size 15 to 20)
#    0.000    2.000    2.500    3.000    3.500    2.500 
#    0.000    1.250    0.000    1.875    0.000    0.000 
#    0.000    0.000    0.000    0.000    0.000    0.000 
#
# Total GULP energy -396599.499439 kJ/mol
# GULP energy per Si atom -12393.734357 kJ/mol
# Density = 1.882484 g / cm^3
# Si number density = 18.867783 Si / 1000 Ang^3
#
#
#
# Elastic Constant Matrix: (Units=GPa)
#
#
# Indices 1 2 3 4 5 6 
#
# 1 77.6289 26.3686 41.8007 -0.0140 4.0128 0.0120
# 2 26.3686 46.9557 16.7611 -0.0009 10.2531 0.0086
# 3 41.8007 16.7611 121.2321 -0.0086 13.9986 0.0244
# 4 -0.0140 -0.0009 -0.0086 21.7073 0.0176 0.5948
# 5 4.0128 10.2531 13.9986 0.0176 35.7232 -0.0183
# 6 0.0120 0.0086 0.0244 0.5948 -0.0183 21.4212
#
#
#
# Elastic Compliance Matrix: (Units=1/GPa)
#
#
# Indices 1 2 3 4 5 6 
#
# 1 0.018848 -0.009195 -0.005538 0.000007 0.002692 0.000002
# 2 -0.009195 0.027955 0.000118 0.000001 -0.007037 -0.000012
# 3 -0.005538 0.000118 0.010551 0.000004 -0.003547 -0.000012
# 4 0.000007 0.000001 0.000004 0.046103 -0.000026 -0.001280
# 5 0.002692 -0.007037 -0.003547 -0.000026 0.031100 0.000033
# 6 0.000002 -0.000012 -0.000012 -0.001280 0.000033 0.046718
#
#
# Mechanical properties :
#
#
# Convention : Reuss Voigt Hill
#
# Bulk Modulus (GPa) = 35.55771 46.18638 40.87204
# Shear Modulus (GPa) = 22.73952 26.49610 24.61781
#
# Velocity S-wave (km/s) = 3.47537 3.75147 3.61606
# Velocity P-wave (km/s) = 5.91531 6.58003 6.25650
#
# Compressibility (1/GPa) = 0.02812330
#
# Stress axis : x y z
#
# Youngs Moduli (GPa) = 53.05493 35.77189 94.77356
#
# Poissons Ratio (x) = 0.32894 0.52490
# Poissons Ratio (y) = 0.48787 -0.01120
# Poissons Ratio (z) = 0.29384 -0.00423
#
# Static dielectric constant tensor:
#      x y z
#    x 3.711140 -0.000010 -0.133650 
#    y -0.000010 3.178320 0.000020 
#    z -0.133650 0.000020 3.530980 
# 
# 
# High freq. dielectric constant tensor:
#      x y z
#    x 1.743020 0.000000 -0.006870 
#    y 0.000000 1.692650 0.000000 
#    z -0.006870 0.000000 1.734070 
# 
# From -- ./inp_files/294155.got.cif
#   From: 2010.06.25/outbox.cif.g09.slc.cpg/sg12_148_cif.got.tgz:294155.got - 2010.06.28 00:19:55.
