data_PCOD8114182
_publ_section_title
;
Structure prediction by ZEFSAII (Michael W. Deem and Ramdas Pophale) SiO2 
 PCOD8114182
Probable space group: C 2/M
;
_chemical_formula_sum "Si O2"
_cell_formula_units_Z 48
_cell_length_a 8.831715
_cell_length_b 24.729385
_cell_length_c 20.497816
_cell_angle_alpha 90.000000
_cell_angle_beta 29.905098
_cell_angle_gamma 90.000000
_cell_volume 2231.966271
_symmetry_space_group_name_H-M "C 2/M"
_symmetry_group_IT_number 12
_symmetry_cell_setting 'monoclinic'
loop_
_space_group_symop_operation_xyz
x,y,z
-x,y,-z
-x,-y,-z
x,-y,z
1/2+x,1/2+y,z
1/2-x,1/2+y,-z
1/2-x,1/2-y,-z
1/2+x,1/2-y,z
loop_
_atom_site_type_symbol
_atom_site_label
_atom_site_fract_x
_atom_site_fract_y
_atom_site_fract_z
Si Si1 0.656693 0.637696 0.132740
Si Si2 0.165418 0.099137 0.616529
Si Si3 0.597984 0.717245 0.612594
Si Si4 0.510702 0.242099 0.214950
Si Si5 0.792888 0.060968 0.638564
Si Si6 0.197275 0.867963 0.866499
O O1 0.501931 0.608150 0.252020
O O2 0.668994 0.702768 0.132578
O O3 0.476002 0.620379 0.135835
O O4 0.000000 0.616138 0.000000
O O5 0.500000 0.072882 0.500000
O O6 0.213169 0.156375 0.562798
O O7 0.974162 0.061647 0.639310
O O8 0.693715 0.743654 0.645308
O O9 0.750000 0.750000 0.500000
O O10 0.228335 0.719389 0.748715
O O11 0.757909 0.196249 0.138779
O O12 0.518150 0.102568 0.744575
O O13 0.000000 0.078562 0.500000
O O14 0.671847 0.000000 0.673228
O O15 0.000000 0.891432 0.000000
#
# Coordination Sequence:
#
# PCOD8114182 Si02
#       6
#     8   8   8   8   8   8
#     4  11  24  41  62  96 137 175 218 258 316 392
#     4  11  23  41  65  95 132 168 212 266 321 382
#     4  11  21  34  54  94 131 176 211 256 313 379
#     4  11  22  35  58  90 134 177 216 257 311 386
#     4  11  26  47  72  98 126 166 217 275 334 390
#     4  12  25  42  68  95 130 177 219 273 327 384
#
# _framework density 21.505700999999998
#
# number of rings (size 3 to 8) (size 9 to 14) (size 15 to 20)
#    0.000    0.833    3.333    5.000    4.667    2.000 
#    0.000    0.833    0.000    2.000    0.000    0.000 
#    0.000    0.000    0.000    0.000    0.000    0.000 
#
# Total GULP energy -297659.959598 kJ/mol
# GULP energy per Si atom -12402.498317 kJ/mol
# Density = 2.145675 g / cm^3
# Si number density = 21.505701 Si / 1000 Ang^3
#
#
#
# Elastic Constant Matrix: (Units=GPa)
#
#
# Indices 1 2 3 4 5 6 
#
# 1 141.8498 17.1059 49.3683 -0.0066 -2.5545 0.0005
# 2 17.1059 54.7216 29.4012 0.0122 8.6130 0.0012
# 3 49.3683 29.4012 127.7970 0.0985 4.8655 0.0216
# 4 -0.0066 0.0122 0.0985 8.8881 -0.0065 1.7581
# 5 -2.5545 8.6130 4.8655 -0.0065 43.2187 -0.0050
# 6 0.0005 0.0012 0.0216 1.7581 -0.0050 19.3193
#
#
#
# Elastic Compliance Matrix: (Units=1/GPa)
#
#
# Indices 1 2 3 4 5 6 
#
# 1 0.008237 -0.001151 -0.002957 0.000041 0.001049 0.000000
# 2 -0.001151 0.021596 -0.004376 0.000015 -0.003879 0.000001
# 3 -0.002957 -0.004376 0.009990 -0.000107 -0.000427 -0.000001
# 4 0.000041 0.000015 -0.000107 0.114574 0.000028 -0.010426
# 5 0.001049 -0.003879 -0.000427 0.000028 0.024021 0.000004
# 6 0.000000 0.000001 -0.000001 -0.010426 0.000004 0.052711
#
#
# Mechanical properties :
#
#
# Convention : Reuss Voigt Hill
#
# Bulk Modulus (GPa) = 43.75499 57.34655 50.55077
# Shear Modulus (GPa) = 19.55302 29.51808 24.53555
#
# Velocity S-wave (km/s) = 3.01857 3.70884 3.38136
# Velocity P-wave (km/s) = 5.70429 6.71299 6.22909
#
# Compressibility (1/GPa) = 0.02285454
#
# Stress axis : x y z
#
# Youngs Moduli (GPa) = 121.41036 46.30506 100.09719
#
# Poissons Ratio (x) = 0.05330 0.29598
# Poissons Ratio (y) = 0.13976 0.43803
# Poissons Ratio (z) = 0.35900 0.20263
#
# Static dielectric constant tensor:
#      x y z
#    x 4.279860 0.000260 -0.048450 
#    y 0.000260 3.702830 0.000030 
#    z -0.048450 0.000030 3.975690 
# 
# 
# High freq. dielectric constant tensor:
#      x y z
#    x 1.866960 0.000000 -0.000910 
#    y 0.000000 1.810820 0.000000 
#    z -0.000910 0.000000 1.849000 
# 
# From -- ./inp_files/302711.got.cif
#   From: 2010.06.25/outbox.cif.g09.slc.cpg/sg12_152_cif.got.tgz:302711.got - 2010.06.28 00:19:55.
