data_PCOD8114048
_publ_section_title
;
Structure prediction by ZEFSAII (Michael W. Deem and Ramdas Pophale) SiO2 
 PCOD8114048
Probable space group: C 2/M
;
_chemical_formula_sum "Si O2"
_cell_formula_units_Z 56
_cell_length_a 11.086359
_cell_length_b 29.977103
_cell_length_c 9.464864
_cell_angle_alpha 90.000000
_cell_angle_beta 118.129285
_cell_angle_gamma 90.000000
_cell_volume 2773.993428
_symmetry_space_group_name_H-M "C 2/M"
_symmetry_group_IT_number 12
_symmetry_cell_setting 'monoclinic'
loop_
_space_group_symop_operation_xyz
x,y,z
-x,y,-z
-x,-y,-z
x,-y,z
1/2+x,1/2+y,z
1/2-x,1/2+y,-z
1/2-x,1/2-y,-z
1/2+x,1/2-y,z
loop_
_atom_site_type_symbol
_atom_site_label
_atom_site_fract_x
_atom_site_fract_y
_atom_site_fract_z
Si Si1 0.075608 0.189568 0.307822
Si Si2 0.146022 0.875358 0.832892
Si Si3 0.230972 0.657344 0.821810
Si Si4 0.990073 0.711559 0.663653
Si Si5 0.774766 0.639569 0.617062
Si Si6 0.348365 0.081741 0.414453
Si Si7 0.447067 0.549739 0.813398
O O1 0.137689 0.173501 0.193000
O O2 0.075577 0.242614 0.319548
O O3 0.147835 0.166785 0.481543
O O4 0.920343 0.173358 0.220878
O O5 0.247681 0.880108 0.757722
O O6 0.028430 0.913898 0.763840
O O7 0.229662 0.873790 0.024654
O O8 0.135413 0.626740 0.668794
O O9 0.141682 0.701400 0.809731
O O10 0.900593 0.673011 0.683575
O O11 0.000000 0.711430 0.500000
O O12 0.808392 0.594555 0.551164
O O13 0.500000 0.057758 0.500000
O O14 0.218978 0.053769 0.282686
O O15 0.485450 0.500000 0.781964
O O16 0.500000 0.557446 0.000000
#
# Coordination Sequence:
#
# PCOD8114048 Si02
#       7
#     8   8   8   8   8   8   8
#     4  11  23  37  61  82 119 167 213 261 301 364
#     4  12  23  40  60  91 124 160 203 261 320 368
#     4  11  22  40  59  84 124 168 207 259 306 364
#     4  12  22  39  59  87 121 168 220 257 299 366
#     4  11  22  37  61  89 120 168 207 253 315 366
#     4  11  20  42  67  92 124 163 208 251 314 374
#     4  11  23  42  72  99 122 159 207 256 316 385
#
# _framework density 20.187503
#
# number of rings (size 3 to 8) (size 9 to 14) (size 15 to 20)
#    0.000    0.714    8.571    2.143    2.000    1.429 
#    2.571    1.429    0.000    0.000    0.000    3.000 
#    0.000    0.000    0.000    0.000    0.000    0.000 
#
# Total GULP energy -347028.651116 kJ/mol
# GULP energy per Si atom -12393.880397 kJ/mol
# Density = 2.014156 g / cm^3
# Si number density = 20.187503 Si / 1000 Ang^3
#
#
#
# Elastic Constant Matrix: (Units=GPa)
#
#
# Indices 1 2 3 4 5 6 
#
# 1 107.4326 33.6026 61.8438 0.0000 -7.7070 0.0000
# 2 33.6026 80.1900 26.9107 0.0000 -4.9644 0.0000
# 3 61.8438 26.9107 93.4817 0.0000 -6.3067 0.0000
# 4 0.0000 0.0000 0.0000 12.5349 0.0000 1.2819
# 5 -7.7070 -4.9644 -6.3067 0.0000 32.9431 0.0000
# 6 0.0000 0.0000 0.0000 1.2819 0.0000 16.8915
#
#
#
# Elastic Compliance Matrix: (Units=1/GPa)
#
#
# Indices 1 2 3 4 5 6 
#
# 1 0.015918 -0.003411 -0.009454 0.000000 0.001400 0.000000
# 2 -0.003411 0.014593 -0.001874 0.000000 0.001042 0.000000
# 3 -0.009454 -0.001874 0.017550 0.000000 0.000866 0.000000
# 4 0.000000 0.000000 0.000000 0.080402 0.000000 -0.006102
# 5 0.001400 0.001042 0.000866 0.000000 0.031006 0.000000
# 6 0.000000 0.000000 0.000000 -0.006102 0.000000 0.059665
#
#
# Mechanical properties :
#
#
# Convention : Reuss Voigt Hill
#
# Bulk Modulus (GPa) = 53.81484 58.42427 56.11956
# Shear Modulus (GPa) = 19.62286 23.05704 21.33995
#
# Velocity S-wave (km/s) = 3.12112 3.38323 3.25481
# Velocity P-wave (km/s) = 6.30110 6.65322 6.47955
#
# Compressibility (1/GPa) = 0.01858223
#
# Stress axis : x y z
#
# Youngs Moduli (GPa) = 62.82285 68.52556 56.98077
#
# Poissons Ratio (x) = 0.23372 0.53871
# Poissons Ratio (y) = 0.21427 0.10679
# Poissons Ratio (z) = 0.59394 0.12843
#
# Static dielectric constant tensor:
#      x y z
#    x 3.696700 0.000000 0.090530 
#    y 0.000000 3.547650 0.000000 
#    z 0.090530 0.000000 3.602440 
# 
# 
# High freq. dielectric constant tensor:
#      x y z
#    x 1.792750 0.000000 0.008910 
#    y 0.000000 1.766200 0.000000 
#    z 0.008910 0.000000 1.779520 
# 
# From -- ./inp_files/54815.got.cif
#   From: 2010.06.25/outbox.cif.g09.slc.cpg/sg12_28_cif.got.tgz:54815.got - 2010.06.28 00:19:55.
