data_PCOD8114557
_publ_section_title
;
Structure prediction by ZEFSAII (Michael W. Deem and Ramdas Pophale) SiO2 
 PCOD8114557
Probable space group: C 2/M
;
_chemical_formula_sum "Si O2"
_cell_formula_units_Z 56
_cell_length_a 26.626389
_cell_length_b 18.157454
_cell_length_c 8.732629
_cell_angle_alpha 90.000000
_cell_angle_beta 37.716576
_cell_angle_gamma 90.000000
_cell_volume 2582.797848
_symmetry_space_group_name_H-M "C 2/M"
_symmetry_group_IT_number 12
_symmetry_cell_setting 'monoclinic'
loop_
_space_group_symop_operation_xyz
x,y,z
-x,y,-z
-x,-y,-z
x,-y,z
1/2+x,1/2+y,z
1/2-x,1/2+y,-z
1/2-x,1/2-y,-z
1/2+x,1/2-y,z
loop_
_atom_site_type_symbol
_atom_site_label
_atom_site_fract_x
_atom_site_fract_y
_atom_site_fract_z
Si Si1 0.871544 0.416030 0.485882
Si Si2 0.417090 0.692744 0.921444
Si Si3 0.475621 0.848811 0.727828
Si Si4 0.826667 0.416354 0.246482
Si Si5 0.327879 0.676402 0.445863
Si Si6 0.252344 0.705103 0.150429
Si Si7 0.538329 0.418018 0.740342
O O1 0.862790 0.500000 0.564134
O O2 0.866406 0.411007 0.316566
O O3 0.800451 0.369225 0.741394
O O4 0.960735 0.384375 0.308591
O O5 0.476689 0.760606 0.737890
O O6 0.472755 0.619255 0.783333
O O7 0.383123 0.706602 0.174310
O O8 0.345526 0.684128 0.968463
O O9 0.500000 0.874394 0.500000
O O10 0.383978 0.876816 0.983687
O O11 0.814147 0.500000 0.224692
O O12 0.738531 0.378428 0.465119
O O13 0.286061 0.747156 0.620699
O O14 0.380252 0.632282 0.446923
O O15 0.250000 0.750000 0.000000
O O16 0.559358 0.500000 0.628190
O O17 0.500000 0.424055 0.000000
#
# Coordination Sequence:
#
# PCOD8114557 Si02
#       7
#     8   8   8   8   8   8   8
#     4  11  25  43  65  95 133 172 220 275 330 394
#     4  11  22  41  69  94 130 174 219 274 325 390
#     4  12  25  43  63  97 134 177 225 270 332 401
#     4  11  23  41  68  98 133 174 219 276 334 395
#     4  11  21  42  67  99 129 168 224 276 326 397
#     4  12  24  42  65  96 131 171 221 267 330 392
#     4   9  20  37  64  99 129 163 211 272 333 388
#
# _framework density 21.681913999999999
#
# number of rings (size 3 to 8) (size 9 to 14) (size 15 to 20)
#    0.000    1.000    2.857    4.286    0.000    5.714 
#    0.000    0.714    0.000    3.000    0.000    0.000 
#    0.000    0.000    0.000    0.000    0.000    0.000 
#
# Total GULP energy -347392.217523 kJ/mol
# GULP energy per Si atom -12406.864912 kJ/mol
# Density = 2.163257 g / cm^3
# Si number density = 21.681914 Si / 1000 Ang^3
#
#
#
# Elastic Constant Matrix: (Units=GPa)
#
#
# Indices 1 2 3 4 5 6 
#
# 1 110.9983 34.7646 25.0301 0.0000 -26.5679 0.0000
# 2 34.7646 121.8710 21.0951 0.0000 -18.3952 0.0000
# 3 25.0301 21.0951 60.3590 0.0000 -3.1901 0.0000
# 4 0.0000 0.0000 0.0000 18.7907 0.0000 1.2367
# 5 -26.5679 -18.3952 -3.1901 0.0000 34.9656 0.0000
# 6 0.0000 0.0000 0.0000 1.2367 0.0000 25.2382
#
#
#
# Elastic Compliance Matrix: (Units=1/GPa)
#
#
# Indices 1 2 3 4 5 6 
#
# 1 0.012409 -0.001579 -0.004159 0.000000 0.008218 0.000000
# 2 -0.001579 0.009642 -0.002523 0.000000 0.003643 0.000000
# 3 -0.004159 -0.002523 0.019029 0.000000 -0.002752 0.000000
# 4 0.000000 0.000000 0.000000 0.053390 0.000000 -0.002616
# 5 0.008218 0.003643 -0.002752 0.000000 0.036509 0.000000
# 6 0.000000 0.000000 0.000000 -0.002616 0.000000 0.039751
#
#
# Mechanical properties :
#
#
# Convention : Reuss Voigt Hill
#
# Bulk Modulus (GPa) = 40.72122 50.55644 45.63883
# Shear Modulus (GPa) = 25.58356 29.95481 27.76918
#
# Velocity S-wave (km/s) = 3.43877 3.72096 3.58264
# Velocity P-wave (km/s) = 5.88122 6.46751 6.18132
#
# Compressibility (1/GPa) = 0.02455722
#
# Stress axis : x y z
#
# Youngs Moduli (GPa) = 80.58799 103.70915 52.55251
#
# Poissons Ratio (x) = 0.16378 0.21859
# Poissons Ratio (y) = 0.12727 0.13256
# Poissons Ratio (z) = 0.33520 0.26161
#
# Static dielectric constant tensor:
#      x y z
#    x 3.939030 0.000000 -0.212340 
#    y 0.000000 4.172910 0.000000 
#    z -0.212340 0.000000 3.746830 
# 
# 
# High freq. dielectric constant tensor:
#      x y z
#    x 1.855040 0.000000 -0.015980 
#    y 0.000000 1.861950 0.000000 
#    z -0.015980 0.000000 1.839140 
# 
# From -- ./inp_files/105940.got.cif
#   From: 2010.06.25/outbox.cif.g09.slc.cpg/sg12_53_cif.got.tgz:105940.got - 2010.06.28 00:19:55.
