data_PCOD8114033
_publ_section_title
;
Structure prediction by ZEFSAII (Michael W. Deem and Ramdas Pophale) SiO2 
 PCOD8114033
Probable space group: C 2/M
;
_chemical_formula_sum "Si O2"
_cell_formula_units_Z 56
_cell_length_a 12.062476
_cell_length_b 26.721331
_cell_length_c 9.750327
_cell_angle_alpha 90.000000
_cell_angle_beta 55.694168
_cell_angle_gamma 90.000000
_cell_volume 2596.063416
_symmetry_space_group_name_H-M "C 2/M"
_symmetry_group_IT_number 12
_symmetry_cell_setting 'monoclinic'
loop_
_space_group_symop_operation_xyz
x,y,z
-x,y,-z
-x,-y,-z
x,-y,z
1/2+x,1/2+y,z
1/2-x,1/2+y,-z
1/2-x,1/2-y,-z
1/2+x,1/2-y,z
loop_
_atom_site_type_symbol
_atom_site_label
_atom_site_fract_x
_atom_site_fract_y
_atom_site_fract_z
Si Si1 0.782534 0.795258 0.078064
Si Si2 0.857654 0.220965 0.331890
Si Si3 0.003452 0.304150 0.341918
Si Si4 0.576618 0.614846 0.586947
Si Si5 0.400395 0.602987 0.947908
Si Si6 0.358199 0.058028 0.750607
Si Si7 0.139693 0.596627 0.554815
O O1 0.827511 0.774055 0.192778
O O2 0.646518 0.827575 0.200611
O O3 0.750000 0.750000 0.000000
O O4 0.886940 0.836206 0.947657
O O5 0.750000 0.250000 0.500000
O O6 0.991054 0.254252 0.257621
O O7 0.878436 0.164659 0.365715
O O8 0.886930 0.344648 0.400020
O O9 0.000000 0.285558 0.500000
O O10 0.500000 0.625741 0.500000
O O11 0.471577 0.585187 0.757370
O O12 0.717434 0.583645 0.470415
O O13 0.500000 0.587392 0.000000
O O14 0.256857 0.575750 0.063364
O O15 0.510809 0.065880 0.702849
O O16 0.344577 0.088595 0.618943
O O17 0.337129 0.000000 0.733597
#
# Coordination Sequence:
#
# PCOD8114033 Si02
#       7
#     8   8   8   8   8   8   8
#     4  12  26  40  59  94 137 182 229 283 335 391
#     4  12  23  36  58  91 131 186 234 273 320 404
#     4  12  20  35  61  84 127 178 224 269 331 393
#     4  12  26  43  67  99 141 188 232 277 349 413
#     4  12  23  45  67  99 142 177 224 296 346 397
#     4  11  23  43  76 107 130 172 230 291 358 425
#     4  11  20  41  66 100 136 168 223 282 344 408
#
# _framework density 21.571121999999999
#
# number of rings (size 3 to 8) (size 9 to 14) (size 15 to 20)
#    0.000    0.286    8.571    2.143    2.000    0.286 
#    0.000    0.714    0.000    4.714    0.000    0.000 
#    0.000    0.000    0.000    0.000    0.000    0.000 
#
# Total GULP energy -347025.934373 kJ/mol
# GULP energy per Si atom -12393.783370 kJ/mol
# Density = 2.152203 g / cm^3
# Si number density = 21.571122 Si / 1000 Ang^3
#
#
#
# Elastic Constant Matrix: (Units=GPa)
#
#
# Indices 1 2 3 4 5 6 
#
# 1 132.8149 18.2134 65.9163 0.0000 -11.8004 0.0000
# 2 18.2134 62.3869 13.6985 0.0000 -3.3691 0.0000
# 3 65.9163 13.6985 104.6260 0.0000 -12.4928 0.0000
# 4 0.0000 0.0000 0.0000 9.3298 0.0000 -3.7946
# 5 -11.8004 -3.3691 -12.4928 0.0000 48.0912 0.0000
# 6 0.0000 0.0000 0.0000 -3.7946 0.0000 16.0422
#
#
#
# Elastic Compliance Matrix: (Units=1/GPa)
#
#
# Indices 1 2 3 4 5 6 
#
# 1 0.011175 -0.001742 -0.006708 0.000000 0.000878 0.000000
# 2 -0.001742 0.016793 -0.001044 0.000000 0.000478 0.000000
# 3 -0.006708 -0.001044 0.014154 0.000000 0.001958 0.000000
# 4 0.000000 0.000000 0.000000 0.118592 0.000000 0.028052
# 5 0.000878 0.000478 0.001958 0.000000 0.021551 0.000000
# 6 0.000000 0.000000 0.000000 0.028052 0.000000 0.068971
#
#
# Mechanical properties :
#
#
# Convention : Reuss Voigt Hill
#
# Bulk Modulus (GPa) = 43.22577 55.05381 49.13979
# Shear Modulus (GPa) = 17.98979 28.15930 23.07454
#
# Velocity S-wave (km/s) = 2.89100 3.61697 3.27417
# Velocity P-wave (km/s) = 5.58803 6.55902 6.09290
#
# Compressibility (1/GPa) = 0.02313435
#
# Stress axis : x y z
#
# Youngs Moduli (GPa) = 89.48375 59.54981 70.65008
#
# Poissons Ratio (x) = 0.10375 0.47390
# Poissons Ratio (y) = 0.15591 0.07375
# Poissons Ratio (z) = 0.60023 0.06217
#
# Static dielectric constant tensor:
#      x y z
#    x 4.450340 0.000000 -0.646000 
#    y 0.000000 3.741790 0.000000 
#    z -0.646000 0.000000 4.053940 
# 
# 
# High freq. dielectric constant tensor:
#      x y z
#    x 1.853840 0.000000 -0.042890 
#    y 0.000000 1.821590 0.000000 
#    z -0.042890 0.000000 1.846280 
# 
# From -- ./inp_files/54577.got.cif
#   From: 2010.06.25/outbox.cif.g09.slc.cpg/sg12_28_cif.got.tgz:54577.got - 2010.06.28 00:19:55.
