data_PCOD8114454
_publ_section_title
;
Structure prediction by ZEFSAII (Michael W. Deem and Ramdas Pophale) SiO2 
 PCOD8114454
Probable space group: C 2/M
;
_chemical_formula_sum "Si O2"
_cell_formula_units_Z 56
_cell_length_a 18.663635
_cell_length_b 17.787045
_cell_length_c 8.824979
_cell_angle_alpha 90.000000
_cell_angle_beta 111.027862
_cell_angle_gamma 90.000000
_cell_volume 2734.540295
_symmetry_space_group_name_H-M "C 2/M"
_symmetry_group_IT_number 12
_symmetry_cell_setting 'monoclinic'
loop_
_space_group_symop_operation_xyz
x,y,z
-x,y,-z
-x,-y,-z
x,-y,z
1/2+x,1/2+y,z
1/2-x,1/2+y,-z
1/2-x,1/2-y,-z
1/2+x,1/2-y,z
loop_
_atom_site_type_symbol
_atom_site_label
_atom_site_fract_x
_atom_site_fract_y
_atom_site_fract_z
Si Si1 0.024673 0.635477 0.348693
Si Si2 0.765985 0.912248 0.851904
Si Si3 0.127942 0.352864 0.931844
Si Si4 0.220737 0.165292 0.452740
Si Si5 0.897821 0.189294 0.045094
Si Si6 0.558675 0.296574 0.262123
Si Si7 0.339284 0.084017 0.728678
O O1 0.954239 0.616894 0.184696
O O2 0.000000 0.616322 0.500000
O O3 0.050759 0.721385 0.353132
O O4 0.097748 0.585093 0.358202
O O5 0.692369 0.902113 0.900279
O O6 0.751795 0.865094 0.689121
O O7 0.780032 0.000000 0.826857
O O8 0.839298 0.880054 0.999800
O O9 0.137160 0.263735 0.899660
O O10 0.131742 0.363901 0.114145
O O11 0.250000 0.250000 0.500000
O O12 0.127769 0.157076 0.394170
O O13 0.257046 0.113583 0.609355
O O14 0.975455 0.161970 0.192255
O O15 0.916627 0.219132 0.891347
O O16 0.327162 0.000000 0.778392
#
# Coordination Sequence:
#
# PCOD8114454 Si02
#       7
#     8   8   8   8   8   8   8
#     4  11  22  38  61  89 119 154 201 258 303 355
#     4  11  23  39  59  93 128 159 203 259 311 360
#     4  11  22  39  63  86 125 165 206 247 300 365
#     4  11  21  39  64  84 119 159 203 253 298 358
#     4   9  18  37  64  89 116 157 208 251 296 361
#     4   9  18  37  61  89 114 150 207 254 296 359
#     4  12  24  39  58  87 124 165 199 241 307 372
#
# _framework density 20.478760999999999
#
# number of rings (size 3 to 8) (size 9 to 14) (size 15 to 20)
#    0.000    1.429    2.857    3.429    0.000    2.000 
#    2.571    6.429    0.000    0.000    0.000    2.000 
#    0.000    0.000    0.000    0.000    0.000    0.000 
#
# Total GULP energy -347141.088160 kJ/mol
# GULP energy per Si atom -12397.896006 kJ/mol
# Density = 2.043215 g / cm^3
# Si number density = 20.478761 Si / 1000 Ang^3
#
#
#
# Elastic Constant Matrix: (Units=GPa)
#
#
# Indices 1 2 3 4 5 6 
#
# 1 98.9336 46.8299 53.9240 0.0000 26.6557 0.0000
# 2 46.8299 99.9698 27.4096 0.0000 16.0137 0.0000
# 3 53.9240 27.4096 110.0311 0.0000 29.8639 0.0000
# 4 0.0000 0.0000 0.0000 18.3415 0.0000 -1.9107
# 5 26.6557 16.0137 29.8639 0.0000 43.5439 0.0000
# 6 0.0000 0.0000 0.0000 -1.9107 0.0000 18.0762
#
#
#
# Elastic Compliance Matrix: (Units=1/GPa)
#
#
# Indices 1 2 3 4 5 6 
#
# 1 0.017176 -0.005750 -0.005781 0.000000 -0.004434 0.000000
# 2 -0.005750 0.012906 -0.000079 0.000000 -0.001172 0.000000
# 3 -0.005781 -0.000079 0.013483 0.000000 -0.005679 0.000000
# 4 0.000000 0.000000 0.000000 0.055128 0.000000 0.005827
# 5 -0.004434 -0.001172 -0.005679 0.000000 0.030006 0.000000
# 6 0.000000 0.000000 0.000000 0.005827 0.000000 0.055937
#
#
# Mechanical properties :
#
#
# Convention : Reuss Voigt Hill
#
# Bulk Modulus (GPa) = 49.15615 62.80684 55.98149
# Shear Modulus (GPa) = 23.29512 28.04372 25.66942
#
# Velocity S-wave (km/s) = 3.37638 3.70456 3.54427
# Velocity P-wave (km/s) = 6.26542 7.00244 6.64416
#
# Compressibility (1/GPa) = 0.02034334
#
# Stress axis : x y z
#
# Youngs Moduli (GPa) = 58.22223 77.48306 74.16967
#
# Poissons Ratio (x) = 0.44555 0.42881
# Poissons Ratio (y) = 0.33479 0.00584
# Poissons Ratio (z) = 0.33661 0.00610
#
# Static dielectric constant tensor:
#      x y z
#    x 3.917890 0.000000 0.361340 
#    y 0.000000 3.442430 0.000000 
#    z 0.361340 0.000000 3.813040 
# 
# 
# High freq. dielectric constant tensor:
#      x y z
#    x 1.802120 0.000000 0.020800 
#    y 0.000000 1.774620 0.000000 
#    z 0.020800 0.000000 1.802240 
# 
# From -- ./inp_files/75972.got.cif
#   From: 2010.06.25/outbox.cif.g09.slc.cpg/sg12_38_cif.got.tgz:75972.got - 2010.06.28 00:19:55.
