data_PCOD8114233
_publ_section_title
;
Structure prediction by ZEFSAII (Michael W. Deem and Ramdas Pophale) SiO2 
 PCOD8114233
Probable space group: C 2/M
;
_chemical_formula_sum "Si O2"
_cell_formula_units_Z 56
_cell_length_a 21.232561
_cell_length_b 29.920132
_cell_length_c 9.375331
_cell_angle_alpha 90.000000
_cell_angle_beta 151.445057
_cell_angle_gamma 90.000000
_cell_volume 2846.961185
_symmetry_space_group_name_H-M "C 2/M"
_symmetry_group_IT_number 12
_symmetry_cell_setting 'monoclinic'
loop_
_space_group_symop_operation_xyz
x,y,z
-x,y,-z
-x,-y,-z
x,-y,z
1/2+x,1/2+y,z
1/2-x,1/2+y,-z
1/2-x,1/2-y,-z
1/2+x,1/2-y,z
loop_
_atom_site_type_symbol
_atom_site_label
_atom_site_fract_x
_atom_site_fract_y
_atom_site_fract_z
Si Si1 0.774464 0.362145 0.738411
Si Si2 0.790317 0.951206 0.509509
Si Si3 0.369030 0.198958 0.150979
Si Si4 0.075673 0.049118 0.938473
Si Si5 0.150577 0.710377 0.335334
Si Si6 0.786604 0.208891 0.884260
Si Si7 0.491056 0.361571 0.317176
O O1 0.801421 0.413676 0.747720
O O2 0.800228 0.333494 0.648616
O O3 0.626463 0.357382 0.501022
O O4 0.871549 0.345864 0.058865
O O5 0.934218 0.950983 0.729478
O O6 0.723893 0.000000 0.353554
O O7 0.809933 0.941860 0.717069
O O8 0.500000 0.206108 0.500000
O O9 0.251287 0.195818 0.030144
O O10 0.342416 0.240378 0.991101
O O11 0.076850 0.089268 0.826797
O O12 0.099789 0.000000 0.914721
O O13 0.250000 0.750000 0.500000
O O14 0.162943 0.702781 0.530921
O O15 0.000000 0.722589 0.000000
O O16 0.900564 0.175319 0.060438
O O17 0.500000 0.349215 0.500000
#
# Coordination Sequence:
#
# PCOD8114233 Si02
#       7
#     8   8   8   8   8   8   8
#     4  11  22  38  61  86 118 159 200 247 299 350
#     4   8  15  31  55  84 113 152 197 239 296 355
#     4  11  23  38  57  78 112 163 198 239 294 355
#     4   8  15  29  51  82 122 154 184 238 301 356
#     4  12  27  42  61  91 122 157 203 254 298 351
#     4  11  24  38  58  81 120 154 201 241 291 352
#     4  11  21  35  56  89 120 158 201 241 293 362
#
# _framework density 19.670096999999998
#
# number of rings (size 3 to 8) (size 9 to 14) (size 15 to 20)
#    0.000    1.714    2.857    3.000    4.000    1.429 
#    0.000    0.000    0.000    0.857    0.000    2.000 
#    0.000    0.000    0.000    0.000    0.000    0.000 
#
# Total GULP energy -347052.455674 kJ/mol
# GULP energy per Si atom -12394.730560 kJ/mol
# Density = 1.962533 g / cm^3
# Si number density = 19.670097 Si / 1000 Ang^3
#
#
#
# Elastic Constant Matrix: (Units=GPa)
#
#
# Indices 1 2 3 4 5 6 
#
# 1 45.9443 36.5223 30.2526 0.0000 -5.6066 0.0000
# 2 36.5223 126.6593 59.3453 0.0000 -8.2646 0.0000
# 3 30.2526 59.3453 116.0910 0.0000 -16.0563 0.0000
# 4 0.0000 0.0000 0.0000 31.9140 0.0000 -5.8712
# 5 -5.6066 -8.2646 -16.0563 0.0000 28.8258 0.0000
# 6 0.0000 0.0000 0.0000 -5.8712 0.0000 25.0002
#
#
#
# Elastic Compliance Matrix: (Units=1/GPa)
#
#
# Indices 1 2 3 4 5 6 
#
# 1 0.029956 -0.006548 -0.004240 0.000000 0.001588 0.000000
# 2 -0.006548 0.011813 -0.004377 0.000000 -0.000325 0.000000
# 3 -0.004240 -0.004377 0.012643 0.000000 0.004963 0.000000
# 4 0.000000 0.000000 0.000000 0.032749 0.000000 0.007691
# 5 0.001588 -0.000325 0.004963 0.000000 0.037671 0.000000
# 6 0.000000 0.000000 0.000000 0.007691 0.000000 0.041806
#
#
# Mechanical properties :
#
#
# Convention : Reuss Voigt Hill
#
# Bulk Modulus (GPa) = 41.52443 60.10389 50.81416
# Shear Modulus (GPa) = 24.39092 27.98630 26.18861
#
# Velocity S-wave (km/s) = 3.52518 3.77607 3.65278
# Velocity P-wave (km/s) = 6.14211 7.04514 6.60906
#
# Compressibility (1/GPa) = 0.02408221
#
# Stress axis : x y z
#
# Youngs Moduli (GPa) = 33.38255 84.65209 79.09634
#
# Poissons Ratio (x) = 0.55428 0.33533
# Poissons Ratio (y) = 0.21858 0.34624
# Poissons Ratio (z) = 0.14153 0.37056
#
# Static dielectric constant tensor:
#      x y z
#    x 3.537450 0.000000 -0.257390 
#    y 0.000000 3.999980 0.000000 
#    z -0.257390 0.000000 3.506880 
# 
# 
# High freq. dielectric constant tensor:
#      x y z
#    x 1.750720 0.000000 -0.020700 
#    y 0.000000 1.769710 0.000000 
#    z -0.020700 0.000000 1.748740 
# 
# From -- ./inp_files/91639.got.cif
#   From: 2010.06.25/outbox.cif.g09.slc.cpg/sg12_46_cif.got.tgz:91639.got - 2010.06.28 00:19:55.
