data_PCOD8114401
_publ_section_title
;
Structure prediction by ZEFSAII (Michael W. Deem and Ramdas Pophale) SiO2 
 PCOD8114401
Probable space group: C 2/M
;
_chemical_formula_sum "Si O2"
_cell_formula_units_Z 40
_cell_length_a 18.022663
_cell_length_b 24.955190
_cell_length_c 8.129656
_cell_angle_alpha 90.000000
_cell_angle_beta 31.442697
_cell_angle_gamma 90.000000
_cell_volume 1907.337396
_symmetry_space_group_name_H-M "C 2/M"
_symmetry_group_IT_number 12
_symmetry_cell_setting 'monoclinic'
loop_
_space_group_symop_operation_xyz
x,y,z
-x,y,-z
-x,-y,-z
x,-y,z
1/2+x,1/2+y,z
1/2-x,1/2+y,-z
1/2-x,1/2-y,-z
1/2+x,1/2-y,z
loop_
_atom_site_type_symbol
_atom_site_label
_atom_site_fract_x
_atom_site_fract_y
_atom_site_fract_z
Si Si1 0.187455 0.096637 0.295349
Si Si2 0.879528 0.904718 0.950500
Si Si3 0.872046 0.500000 0.941115
Si Si4 0.214779 0.218424 0.235486
Si Si5 0.811513 0.500000 0.666892
Si Si6 0.429457 0.291846 0.958765
O O1 0.138648 0.082385 0.205581
O O2 0.255933 0.155816 0.158109
O O3 0.048191 0.091360 0.676185
O O4 0.301083 0.053982 0.147711
O O5 0.837841 0.844205 0.078416
O O6 0.778121 0.948479 0.228952
O O7 0.849017 0.500000 0.789023
O O8 0.032342 0.500000 0.708265
O O9 0.047985 0.222603 0.596549
O O10 0.250000 0.250000 0.000000
O O11 0.314831 0.244244 0.186392
O O12 0.500000 0.301581 0.000000
#
# Coordination Sequence:
#
# PCOD8114401 Si02
#       6
#     8   8   4   8   4   8
#     4   9  17  31  53  78 109 143 185 229 281 333
#     4   9  17  32  52  75 107 148 186 227 276 337
#     4   9  17  29  47  84 113 132 174 240 295 324
#     4  11  21  38  59  85 112 153 196 237 283 339
#     4   9  17  29  48  78 112 142 179 232 284 333
#     4  11  23  38  56  84 118 152 192 238 288 342
#
# _framework density 20.971641999999999
#
# number of rings (size 3 to 8) (size 9 to 14) (size 15 to 20)
#    0.000    2.200    2.000    1.800    0.000    4.000 
#    7.200    0.500    0.000    0.000    0.000    6.300 
#    0.000    0.000    0.000    0.000    0.000    0.000 
#
# Total GULP energy -247820.835268 kJ/mol
# GULP energy per Si atom -12391.041763 kJ/mol
# Density = 2.092391 g / cm^3
# Si number density = 20.971642 Si / 1000 Ang^3
#
#
#
# Elastic Constant Matrix: (Units=GPa)
#
#
# Indices 1 2 3 4 5 6 
#
# 1 38.9956 27.2295 24.7698 0.0000 -9.7720 0.0000
# 2 27.2295 195.0023 93.7882 0.0000 -36.3704 0.0000
# 3 24.7698 93.7882 99.4999 -0.0001 -26.7343 0.0000
# 4 0.0000 0.0000 -0.0001 33.0181 0.0000 -19.2642
# 5 -9.7720 -36.3704 -26.7343 0.0000 26.3766 0.0000
# 6 0.0000 0.0000 0.0000 -19.2642 0.0000 19.9596
#
#
#
# Elastic Compliance Matrix: (Units=1/GPa)
#
#
# Indices 1 2 3 4 5 6 
#
# 1 0.030978 -0.000640 -0.005857 0.000000 0.004658 0.000000
# 2 -0.000640 0.010004 -0.007734 0.000000 0.005718 0.000000
# 3 -0.005857 -0.007734 0.021094 0.000000 0.008547 0.000000
# 4 0.000000 0.000000 0.000000 0.069324 0.000000 0.066909
# 5 0.004658 0.005718 0.008547 0.000000 0.056186 0.000000
# 6 0.000000 0.000000 0.000000 0.066909 0.000000 0.114679
#
#
# Mechanical properties :
#
#
# Convention : Reuss Voigt Hill
#
# Bulk Modulus (GPa) = 29.74850 69.45251 49.60050
# Shear Modulus (GPa) = 14.62282 28.38488 21.50385
#
# Velocity S-wave (km/s) = 2.64344 3.68297 3.20563
# Velocity P-wave (km/s) = 4.85108 7.16065 6.11588
#
# Compressibility (1/GPa) = 0.03361514
#
# Stress axis : x y z
#
# Youngs Moduli (GPa) = 32.28047 99.96407 47.40583
#
# Poissons Ratio (x) = 0.06397 0.27766
# Poissons Ratio (y) = 0.02066 0.36662
# Poissons Ratio (z) = 0.18907 0.77309
#
# Static dielectric constant tensor:
#      x y z
#    x 3.346560 0.000000 -0.279910 
#    y 0.000000 3.964990 0.000000 
#    z -0.279910 0.000000 4.024510 
# 
# 
# High freq. dielectric constant tensor:
#      x y z
#    x 1.781690 0.000000 -0.016250 
#    y 0.000000 1.832430 0.000000 
#    z -0.016250 0.000000 1.811290 
# 
# From -- ./inp_files/79783.got.cif
#   From: 2010.06.25/outbox.cif.g09.slc.cpg/sg12_40_cif.got.tgz:79783.got - 2010.06.28 00:19:55.
