data_PCOD8114891
_publ_section_title
;
Structure prediction by ZEFSAII (Michael W. Deem and Ramdas Pophale) SiO2 
 PCOD8114891
Probable space group: C 2/M
;
_chemical_formula_sum "Si O2"
_cell_formula_units_Z 40
_cell_length_a 13.094805
_cell_length_b 15.937730
_cell_length_c 19.183055
_cell_angle_alpha 90.000000
_cell_angle_beta 29.502459
_cell_angle_gamma 90.000000
_cell_volume 1971.582882
_symmetry_space_group_name_H-M "C 2/M"
_symmetry_group_IT_number 12
_symmetry_cell_setting 'monoclinic'
loop_
_space_group_symop_operation_xyz
x,y,z
-x,y,-z
-x,-y,-z
x,-y,z
1/2+x,1/2+y,z
1/2-x,1/2+y,-z
1/2-x,1/2-y,-z
1/2+x,1/2-y,z
loop_
_atom_site_type_symbol
_atom_site_label
_atom_site_fract_x
_atom_site_fract_y
_atom_site_fract_z
Si Si1 0.819846 0.000000 0.275387
Si Si2 0.445773 0.821417 0.193931
Si Si3 0.270930 0.215749 0.160398
Si Si4 0.365073 0.354950 0.898355
Si Si5 0.887357 0.675985 0.384662
Si Si6 0.588654 0.000000 0.557719
O O1 0.962129 0.920107 0.184652
O O2 0.702196 0.000000 0.417546
O O3 0.658235 0.000000 0.307573
O O4 0.279482 0.832618 0.229974
O O5 0.544575 0.730081 0.123817
O O6 0.332878 0.832681 0.334853
O O7 0.646323 0.882045 0.064699
O O8 0.169117 0.152215 0.164929
O O9 0.128331 0.298810 0.250830
O O10 0.500000 0.243722 0.000000
O O11 0.750000 0.750000 0.500000
O O12 0.843288 0.584900 0.443091
#
# Coordination Sequence:
#
# PCOD8114891 Si02
#       6
#     4   8   8   8   8   4
#     4  11  22  39  57  82 118 146 190 251 296 342
#     4   9  18  35  57  82 110 148 194 235 285 346
#     4   9  18  36  60  84 110 153 204 242 288 348
#     4   9  18  34  58  81 108 146 190 242 291 337
#     4  11  23  38  58  86 123 158 194 240 292 350
#     4  11  24  37  56  86 115 155 199 233 293 365
#
# _framework density 20.288267000000001
#
# number of rings (size 3 to 8) (size 9 to 14) (size 15 to 20)
#    0.000    2.200    0.000    4.800    0.000    3.200 
#    0.000    7.000    0.000    2.400    0.000    0.000 
#    0.000    0.000    0.000    0.000    0.000    0.000 
#
# Total GULP energy -247879.868007 kJ/mol
# GULP energy per Si atom -12393.993400 kJ/mol
# Density = 2.024209 g / cm^3
# Si number density = 20.288267 Si / 1000 Ang^3
#
#
#
# Elastic Constant Matrix: (Units=GPa)
#
#
# Indices 1 2 3 4 5 6 
#
# 1 108.3883 23.5635 34.1552 -0.0021 17.5290 -0.0003
# 2 23.5635 96.5450 36.0157 -0.0102 -3.0769 0.0034
# 3 34.1552 36.0157 79.5950 -0.0181 10.7926 0.0101
# 4 -0.0021 -0.0102 -0.0181 36.6757 0.0078 -9.7370
# 5 17.5290 -3.0769 10.7926 0.0078 36.5040 -0.0049
# 6 -0.0003 0.0034 0.0101 -9.7370 -0.0049 26.2922
#
#
#
# Elastic Compliance Matrix: (Units=1/GPa)
#
#
# Indices 1 2 3 4 5 6 
#
# 1 0.011438 -0.001610 -0.003559 0.000000 -0.004576 0.000001
# 2 -0.001610 0.012975 -0.005660 0.000000 0.003540 0.000001
# 3 -0.003559 -0.005660 0.017174 0.000006 -0.003845 -0.000004
# 4 0.000000 0.000000 0.000006 0.030239 -0.000007 0.011199
# 5 -0.004576 0.003540 -0.003845 -0.000007 0.031027 0.000004
# 6 0.000001 0.000001 -0.000004 0.011199 0.000004 0.042181
#
#
# Mechanical properties :
#
#
# Convention : Reuss Voigt Hill
#
# Bulk Modulus (GPa) = 50.18114 52.44412 51.31263
# Shear Modulus (GPa) = 28.84594 32.61398 30.72996
#
# Velocity S-wave (km/s) = 3.77477 4.01375 3.89609
# Velocity P-wave (km/s) = 6.61712 6.88374 6.75175
#
# Compressibility (1/GPa) = 0.01992781
#
# Stress axis : x y z
#
# Youngs Moduli (GPa) = 87.43097 77.07061 58.22889
#
# Poissons Ratio (x) = 0.12405 0.20725
# Poissons Ratio (y) = 0.14073 0.32960
# Poissons Ratio (z) = 0.31119 0.43625
#
# Static dielectric constant tensor:
#      x y z
#    x 3.982320 0.000040 -0.017800 
#    y 0.000040 3.456830 0.000000 
#    z -0.017800 0.000000 3.815470 
# 
# 
# High freq. dielectric constant tensor:
#      x y z
#    x 1.805690 0.000000 0.004160 
#    y 0.000000 1.753910 0.000000 
#    z 0.004160 0.000000 1.796730 
# 
# From -- ./inp_files/310487.got.cif
#   From: 2010.06.25/outbox.cif.g09.slc.cpg/sg12_156_cif.got.tgz:310487.got - 2010.06.28 00:19:55.
