data_PCOD8114882
_publ_section_title
;
Structure prediction by ZEFSAII (Michael W. Deem and Ramdas Pophale) SiO2 
 PCOD8114882
Probable space group: C 2/M
;
_chemical_formula_sum "Si O2"
_cell_formula_units_Z 64
_cell_length_a 14.152616
_cell_length_b 17.843551
_cell_length_c 11.742091
_cell_angle_alpha 90.000000
_cell_angle_beta 95.566679
_cell_angle_gamma 90.000000
_cell_volume 2951.280349
_symmetry_space_group_name_H-M "C 2/M"
_symmetry_group_IT_number 12
_symmetry_cell_setting 'monoclinic'
loop_
_space_group_symop_operation_xyz
x,y,z
-x,y,-z
-x,-y,-z
x,-y,z
1/2+x,1/2+y,z
1/2-x,1/2+y,-z
1/2-x,1/2-y,-z
1/2+x,1/2-y,z
loop_
_atom_site_type_symbol
_atom_site_label
_atom_site_fract_x
_atom_site_fract_y
_atom_site_fract_z
Si Si1 0.301569 0.687306 0.090548
Si Si2 0.445624 0.358570 0.379903
Si Si3 0.135994 0.315346 0.233362
Si Si4 0.429753 0.208641 0.251975
Si Si5 0.240481 0.412163 0.417983
Si Si6 0.525046 0.415712 0.848912
Si Si7 0.336388 0.661210 0.844111
Si Si8 0.302514 0.084713 0.328368
O O1 0.202687 0.658655 0.135706
O O2 0.349334 0.759546 0.157800
O O3 0.373210 0.618023 0.109652
O O4 0.287985 0.700072 0.951817
O O5 0.500000 0.378163 0.500000
O O6 0.457953 0.271842 0.347190
O O7 0.335798 0.378780 0.377114
O O8 0.491949 0.411213 0.288885
O O9 0.156846 0.364059 0.348619
O O10 0.157027 0.226165 0.251266
O O11 0.023062 0.319931 0.194010
O O12 0.391163 0.138218 0.317106
O O13 0.229060 0.500000 0.387004
O O14 0.240311 0.398086 0.552668
O O15 0.521347 0.500000 0.893019
O O16 0.438734 0.369837 0.897375
O O17 0.275973 0.595054 0.780170
O O18 0.339784 0.000000 0.326300
#
# Coordination Sequence:
#
# PCOD8114882 Si02
#       8
#     8   8   8   8   8   8   8   8
#     4  11  24  44  67  98 133 173 214 276 331 388
#     4  11  22  38  65  99 131 171 216 272 331 396
#     4  12  24  43  69  97 128 175 227 272 325 398
#     4  11  25  43  67  99 129 173 226 276 326 393
#     4  11  25  44  67  95 136 177 216 274 335 394
#     4  11  23  40  63 101 136 166 212 265 336 400
#     4  12  23  42  71  99 131 173 220 271 332 393
#     4  11  26  45  65  96 136 177 221 273 330 392
#
# _framework density 21.685504000000002
#
# number of rings (size 3 to 8) (size 9 to 14) (size 15 to 20)
#    0.000    0.750    6.250    2.250    1.750    5.000 
#    0.000    1.250    0.000    0.750    0.000    0.000 
#    0.000    0.000    0.000    0.000    0.000    0.000 
#
# Total GULP energy -396788.705222 kJ/mol
# GULP energy per Si atom -12399.647038 kJ/mol
# Density = 2.163615 g / cm^3
# Si number density = 21.685504 Si / 1000 Ang^3
#
#
#
# Elastic Constant Matrix: (Units=GPa)
#
#
# Indices 1 2 3 4 5 6 
#
# 1 119.1718 31.6302 22.9324 0.0000 -25.1489 0.0000
# 2 31.6302 119.8225 24.7805 0.0000 -14.7361 0.0000
# 3 22.9324 24.7805 96.3936 0.0000 -14.3133 0.0000
# 4 0.0000 0.0000 0.0000 13.9678 0.0000 1.4393
# 5 -25.1489 -14.7361 -14.3133 0.0000 36.0396 0.0000
# 6 0.0000 0.0000 0.0000 1.4393 0.0000 26.4968
#
#
#
# Elastic Compliance Matrix: (Units=1/GPa)
#
#
# Indices 1 2 3 4 5 6 
#
# 1 0.010351 -0.001757 -0.001110 0.000000 0.006064 0.000000
# 2 -0.001757 0.009402 -0.001711 0.000000 0.001939 0.000000
# 3 -0.001110 -0.001711 0.011540 0.000000 0.003109 0.000000
# 4 0.000000 0.000000 0.000000 0.071996 0.000000 -0.003911
# 5 0.006064 0.001939 0.003109 0.000000 0.034006 0.000000
# 6 0.000000 0.000000 0.000000 -0.003911 0.000000 0.037953
#
#
# Mechanical properties :
#
#
# Convention : Reuss Voigt Hill
#
# Bulk Modulus (GPa) = 45.17683 54.89714 50.03698
# Shear Modulus (GPa) = 26.07118 32.37050 29.22084
#
# Velocity S-wave (km/s) = 3.47109 3.86777 3.67479
# Velocity P-wave (km/s) = 6.07804 6.73174 6.41323
#
# Compressibility (1/GPa) = 0.02213524
#
# Stress axis : x y z
#
# Youngs Moduli (GPa) = 96.61031 106.36290 86.65672
#
# Poissons Ratio (x) = 0.18688 0.09623
# Poissons Ratio (y) = 0.16975 0.14828
# Poissons Ratio (z) = 0.10728 0.18200
#
# Static dielectric constant tensor:
#      x y z
#    x 4.053520 0.000000 -0.152510 
#    y 0.000000 3.841840 0.000000 
#    z -0.152510 0.000000 4.047630 
# 
# 
# High freq. dielectric constant tensor:
#      x y z
#    x 1.862380 0.000000 -0.009900 
#    y 0.000000 1.847140 0.000000 
#    z -0.009900 0.000000 1.854290 
# 
# From -- ./inp_files/146156.got.cif
#   From: 2010.06.25/outbox.cif.g09.slc.cpg/sg12_74_cif.got.tgz:146156.got - 2010.06.28 00:19:55.
