data_PCOD8114824
_publ_section_title
;
Structure prediction by ZEFSAII (Michael W. Deem and Ramdas Pophale) SiO2 
 PCOD8114824
Probable space group: C 2/M
;
_chemical_formula_sum "Si O2"
_cell_formula_units_Z 56
_cell_length_a 14.540539
_cell_length_b 8.451595
_cell_length_c 26.212606
_cell_angle_alpha 90.000000
_cell_angle_beta 65.482597
_cell_angle_gamma 90.000000
_cell_volume 2930.840277
_symmetry_space_group_name_H-M "C 2/M"
_symmetry_group_IT_number 12
_symmetry_cell_setting 'monoclinic'
loop_
_space_group_symop_operation_xyz
x,y,z
-x,y,-z
-x,-y,-z
x,-y,z
1/2+x,1/2+y,z
1/2-x,1/2+y,-z
1/2-x,1/2-y,-z
1/2+x,1/2-y,z
loop_
_atom_site_type_symbol
_atom_site_label
_atom_site_fract_x
_atom_site_fract_y
_atom_site_fract_z
Si Si1 0.671009 0.315666 0.558555
Si Si2 0.735840 0.315453 0.363712
Si Si3 0.026571 0.683616 0.436475
Si Si4 0.035513 0.686776 0.150084
Si Si5 0.952913 0.311748 0.062490
Si Si6 0.322120 0.812209 0.237214
Si Si7 0.240432 0.812981 0.150248
O O1 0.652446 0.500000 0.552220
O O2 0.750000 0.250000 0.500000
O O3 0.711084 0.290640 0.605992
O O4 0.568385 0.217372 0.577511
O O5 0.761724 0.500000 0.365398
O O6 0.616219 0.291178 0.394563
O O7 0.775162 0.248817 0.300562
O O8 0.057380 0.500000 0.427134
O O9 0.000000 0.735507 0.500000
O O10 0.042738 0.500000 0.150232
O O11 0.020231 0.745069 0.095221
O O12 0.938416 0.745615 0.205076
O O13 0.137205 0.754344 0.149980
O O14 0.954407 0.500000 0.059948
O O15 0.836902 0.253048 0.095085
O O16 0.000000 0.238248 0.000000
O O17 0.254881 0.749563 0.204994
O O18 0.319718 0.000000 0.236999
O O19 0.238804 0.000000 0.150978
#
# Coordination Sequence:
#
# PCOD8114824 Si02
#       7
#     8   8   8   8   8   8   8
#     4  12  24  39  59  83 110 141 176 214 264 321
#     4  11  22  38  60  83 109 140 178 224 272 323
#     4  11  23  39  59  82 110 141 175 215 262 321
#     4   9  17  32  53  75 103 139 178 219 263 311
#     4   8  15  29  49  73 104 144 182 213 256 317
#     4   8  18  36  54  74 103 140 176 213 262 320
#     4   9  17  32  53  75 103 138 178 220 262 310
#
# _framework density 19.107147999999999
#
# number of rings (size 3 to 8) (size 9 to 14) (size 15 to 20)
#    0.000    2.286    1.429    3.857    0.000    2.286 
#    0.000    8.571    0.000    0.857    0.000    0.000 
#    0.000    0.000    0.000    0.000    0.000    0.000 
#
# Total GULP energy -347148.311630 kJ/mol
# GULP energy per Si atom -12398.153987 kJ/mol
# Density = 1.906366 g / cm^3
# Si number density = 19.107148 Si / 1000 Ang^3
#
#
#
# Elastic Constant Matrix: (Units=GPa)
#
#
# Indices 1 2 3 4 5 6 
#
# 1 158.2601 6.7750 76.5561 0.0000 -1.9024 0.0000
# 2 6.7750 34.0002 21.8923 0.0000 0.8275 -0.0001
# 3 76.5561 21.8923 176.6159 0.0000 3.7891 0.0000
# 4 0.0000 0.0000 0.0000 16.2835 0.0000 -0.1329
# 5 -1.9024 0.8275 3.7891 0.0000 22.1723 0.0000
# 6 0.0000 -0.0001 0.0000 -0.1329 0.0000 34.7409
#
#
#
# Elastic Compliance Matrix: (Units=1/GPa)
#
#
# Indices 1 2 3 4 5 6 
#
# 1 0.008046 0.000683 -0.003600 0.000000 0.001280 0.000000
# 2 0.000683 0.032027 -0.004257 0.000000 -0.000409 0.000000
# 3 -0.003600 -0.004257 0.007782 0.000000 -0.001480 0.000000
# 4 0.000000 0.000000 0.000000 0.061414 0.000000 0.000235
# 5 0.001280 -0.000409 -0.001480 0.000000 0.045479 0.000000
# 6 0.000000 0.000000 0.000000 0.000235 0.000000 0.028785
#
#
# Mechanical properties :
#
#
# Convention : Reuss Voigt Hill
#
# Bulk Modulus (GPa) = 29.84431 64.36922 47.10677
# Shear Modulus (GPa) = 23.91774 32.21619 28.06696
#
# Velocity S-wave (km/s) = 3.54187 4.11065 3.83681
# Velocity P-wave (km/s) = 5.69033 7.50277 6.65851
#
# Compressibility (1/GPa) = 0.03350723
#
# Stress axis : x y z
#
# Youngs Moduli (GPa) = 124.28151 31.22404 128.50351
#
# Poissons Ratio (x) = -0.02134 0.46260
# Poissons Ratio (y) = -0.08494 0.54708
# Poissons Ratio (z) = 0.44740 0.13293
#
# Static dielectric constant tensor:
#      x y z
#    x 4.330770 0.000000 0.046760 
#    y 0.000000 3.222980 0.000000 
#    z 0.046760 0.000000 3.978120 
# 
# 
# High freq. dielectric constant tensor:
#      x y z
#    x 1.751430 0.000000 -0.000180 
#    y 0.000000 1.716410 0.000000 
#    z -0.000180 0.000000 1.746130 
# 
# From -- ./inp_files/359659.got.cif
#   From: 2010.06.25/outbox.cif.g09.slc.cpg/sg12_180_cif.got.tgz:359659.got - 2010.06.28 00:19:55.
