data_PCOD8114175
_publ_section_title
;
Structure prediction by ZEFSAII (Michael W. Deem and Ramdas Pophale) SiO2 
 PCOD8114175
Probable space group: C 2/M
;
_chemical_formula_sum "Si O2"
_cell_formula_units_Z 56
_cell_length_a 23.885674
_cell_length_b 8.479821
_cell_length_c 14.965322
_cell_angle_alpha 90.000000
_cell_angle_beta 109.251709
_cell_angle_gamma 90.000000
_cell_volume 2861.664224
_symmetry_space_group_name_H-M "C 2/M"
_symmetry_group_IT_number 12
_symmetry_cell_setting 'monoclinic'
loop_
_space_group_symop_operation_xyz
x,y,z
-x,y,-z
-x,-y,-z
x,-y,z
1/2+x,1/2+y,z
1/2-x,1/2+y,-z
1/2-x,1/2-y,-z
1/2+x,1/2-y,z
loop_
_atom_site_type_symbol
_atom_site_label
_atom_site_fract_x
_atom_site_fract_y
_atom_site_fract_z
Si Si1 0.182560 0.687405 0.301474
Si Si2 0.554519 0.814603 0.919339
Si Si3 0.594106 0.183898 0.750812
Si Si4 0.137762 0.682706 0.465914
Si Si5 0.187002 0.815530 0.671384
Si Si6 0.423246 0.187780 0.874368
Si Si7 0.485078 0.682231 0.592089
O O1 0.179648 0.500000 0.296417
O O2 0.176268 0.740705 0.401380
O O3 0.245740 0.748243 0.298614
O O4 0.129985 0.761057 0.213016
O O5 0.595877 0.769831 0.856863
O O6 0.486927 0.751495 0.870624
O O7 0.548841 0.000000 0.927127
O O8 0.583478 0.750386 0.026587
O O9 0.656372 0.225621 0.737641
O O10 0.542282 0.286617 0.681402
O O11 0.580029 0.000000 0.730213
O O12 0.148675 0.500000 0.493523
O O13 0.153760 0.784833 0.560755
O O14 0.069365 0.710895 0.403371
O O15 0.184437 0.000000 0.690203
O O16 0.419011 0.000000 0.867344
O O17 0.500000 0.733595 0.500000
O O18 0.466956 0.500000 0.588722
#
# Coordination Sequence:
#
# PCOD8114175 Si02
#       7
#     8   8   8   8   8   8   8
#     4   9  19  33  52  76 104 138 178 218 259 308
#     4   8  15  27  51  82 107 128 161 214 267 309
#     4  11  21  34  53  79 107 138 176 217 258 303
#     4  11  21  35  56  80 102 133 177 223 263 303
#     4  11  22  36  50  71 106 146 180 213 257 312
#     4   8  13  28  51  78 106 130 162 212 267 312
#     4  11  22  35  52  76 107 138 169 207 257 314
#
# _framework density 19.569032
#
# number of rings (size 3 to 8) (size 9 to 14) (size 15 to 20)
#    0.000    2.143    1.429    3.857    0.000    2.857 
#    0.000    2.857    0.000    0.000    0.000   24.000 
#    0.000    0.000    0.000    0.000    0.000    0.000 
#
# Total GULP energy -347152.029846 kJ/mol
# GULP energy per Si atom -12398.286780 kJ/mol
# Density = 1.952449 g / cm^3
# Si number density = 19.569032 Si / 1000 Ang^3
#
#
#
# Elastic Constant Matrix: (Units=GPa)
#
#
# Indices 1 2 3 4 5 6 
#
# 1 134.5881 12.6911 58.2419 0.0000 -19.4281 0.0000
# 2 12.6911 25.1634 15.1520 0.0000 -5.2780 0.0000
# 3 58.2419 15.1520 96.5221 0.0000 -23.6071 0.0000
# 4 0.0000 0.0000 0.0000 3.1074 0.0000 -0.5411
# 5 -19.4281 -5.2780 -23.6071 0.0000 34.3843 0.0000
# 6 0.0000 0.0000 0.0000 -0.5411 0.0000 23.3592
#
#
#
# Elastic Compliance Matrix: (Units=1/GPa)
#
#
# Indices 1 2 3 4 5 6 
#
# 1 0.010200 -0.001467 -0.005492 0.000000 0.001767 0.000000
# 2 -0.001467 0.044267 -0.005534 0.000000 0.002167 0.000000
# 3 -0.005492 -0.005534 0.016316 0.000000 0.007249 0.000000
# 4 0.000000 0.000000 0.000000 0.323119 0.000000 0.007485
# 5 0.001767 0.002167 0.007249 0.000000 0.035392 0.000000
# 6 0.000000 0.000000 0.000000 0.007485 0.000000 0.042983
#
#
# Mechanical properties :
#
#
# Convention : Reuss Voigt Hill
#
# Bulk Modulus (GPa) = 21.83543 47.60484 34.72014
# Shear Modulus (GPa) = 9.75555 23.51608 16.63582
#
# Velocity S-wave (km/s) = 2.23518 3.47031 2.91883
# Velocity P-wave (km/s) = 4.22419 6.35900 5.39818
#
# Compressibility (1/GPa) = 0.04579713
#
# Stress axis : x y z
#
# Youngs Moduli (GPa) = 98.03644 22.59033 61.28864
#
# Poissons Ratio (x) = 0.03313 0.33662
# Poissons Ratio (y) = 0.14377 0.33918
# Poissons Ratio (z) = 0.53846 0.12502
#
# Static dielectric constant tensor:
#      x y z
#    x 3.803670 0.000000 -0.145950 
#    y 0.000000 3.125540 0.000000 
#    z -0.145950 0.000000 3.793210 
# 
# 
# High freq. dielectric constant tensor:
#      x y z
#    x 1.764610 0.000000 -0.011080 
#    y 0.000000 1.725470 0.000000 
#    z -0.011080 0.000000 1.759880 
# 
# From -- ./inp_files/237805.got.cif
#   From: 2010.06.25/outbox.cif.g09.slc.cpg/sg12_119_cif.got.tgz:237805.got - 2010.06.28 00:19:55.
