data_PCOD8114558
_publ_section_title
;
Structure prediction by ZEFSAII (Michael W. Deem and Ramdas Pophale) SiO2 
 PCOD8114558
Probable space group: C 2/M
;
_chemical_formula_sum "Si O2"
_cell_formula_units_Z 40
_cell_length_a 26.199663
_cell_length_b 9.656126
_cell_length_c 13.312150
_cell_angle_alpha 90.000000
_cell_angle_beta 34.467980
_cell_angle_gamma 90.000000
_cell_volume 1905.993897
_symmetry_space_group_name_H-M "C 2/M"
_symmetry_group_IT_number 12
_symmetry_cell_setting 'monoclinic'
loop_
_space_group_symop_operation_xyz
x,y,z
-x,y,-z
-x,-y,-z
x,-y,z
1/2+x,1/2+y,z
1/2-x,1/2+y,-z
1/2-x,1/2-y,-z
1/2+x,1/2-y,z
loop_
_atom_site_type_symbol
_atom_site_label
_atom_site_fract_x
_atom_site_fract_y
_atom_site_fract_z
Si Si1 0.865571 0.500000 0.511158
Si Si2 0.839776 0.500000 0.873796
Si Si3 0.600702 0.209220 0.373965
Si Si4 0.954916 0.500000 0.865078
Si Si5 0.169260 0.000000 0.737339
Si Si6 0.095505 0.293569 0.894055
Si Si7 0.179448 0.000000 0.289462
Si Si8 0.256499 0.000000 0.388243
O O1 0.881287 0.639124 0.548412
O O2 0.766143 0.500000 0.629725
O O3 0.936126 0.500000 0.303526
O O4 0.833205 0.636856 0.814906
O O5 0.934764 0.500000 0.778972
O O6 0.766511 0.500000 0.079165
O O7 0.500000 0.184100 0.500000
O O8 0.619181 0.369867 0.357491
O O9 0.910678 0.361781 0.985408
O O10 0.111611 0.130025 0.870169
O O11 0.179933 0.000000 0.598999
O O12 0.180354 0.364494 0.700060
O O13 0.000000 0.330929 0.000000
O O14 0.205624 0.000000 0.364015
#
# Coordination Sequence:
#
# PCOD8114558 Si02
#       8
#     4   4   8   4   4   8   4   4
#     4  11  22  42  69  90 127 176 219 250 312 392
#     4  11  21  44  66  88 131 165 215 260 309 390
#     4  11  23  43  65  97 126 172 213 265 316 379
#     4  11  21  42  68  89 123 175 218 249 311 392
#     4  12  25  42  63 100 134 160 213 274 319 366
#     4  11  23  41  64  90 128 169 215 261 316 374
#     4  12  24  40  66  99 132 159 213 275 323 363
#     4  11  23  43  66  92 129 176 216 249 317 395
#
# _framework density 20.986426000000002
#
# number of rings (size 3 to 8) (size 9 to 14) (size 15 to 20)
#    0.000    0.800    4.000    6.000    0.000    1.600 
#    0.000    1.000    0.000    0.000    0.000    0.000 
#    0.000    0.000    0.000    0.000    0.000    0.000 
#
# Total GULP energy -248002.358721 kJ/mol
# GULP energy per Si atom -12400.117936 kJ/mol
# Density = 2.093866 g / cm^3
# Si number density = 20.986426 Si / 1000 Ang^3
#
#
#
# Elastic Constant Matrix: (Units=GPa)
#
#
# Indices 1 2 3 4 5 6 
#
# 1 88.9182 36.0599 38.2359 0.0000 11.5747 0.0000
# 2 36.0599 166.9338 33.4328 0.0000 20.7844 0.0000
# 3 38.2359 33.4328 86.2040 0.0000 20.8011 0.0000
# 4 0.0000 0.0000 0.0000 14.9218 0.0000 -6.3614
# 5 11.5747 20.7844 20.8011 0.0000 28.9221 0.0000
# 6 0.0000 0.0000 0.0000 -6.3614 0.0000 24.8798
#
#
#
# Elastic Compliance Matrix: (Units=1/GPa)
#
#
# Indices 1 2 3 4 5 6 
#
# 1 0.014489 -0.001967 -0.005573 0.000000 -0.000377 0.000000
# 2 -0.001967 0.007060 -0.001006 0.000000 -0.003563 0.000000
# 3 -0.005573 -0.001006 0.016637 0.000000 -0.009012 0.000000
# 4 0.000000 0.000000 0.000000 0.075215 0.000000 0.019231
# 5 -0.000377 -0.003563 -0.009012 0.000000 0.043769 0.000000
# 6 0.000000 0.000000 0.000000 0.019231 0.000000 0.045110
#
#
# Mechanical properties :
#
#
# Convention : Reuss Voigt Hill
#
# Bulk Modulus (GPa) = 47.40422 61.94591 54.67506
# Shear Modulus (GPa) = 22.08434 29.36657 25.72546
#
# Velocity S-wave (km/s) = 3.24746 3.74480 3.50496
# Velocity P-wave (km/s) = 6.05792 6.94832 6.51834
#
# Compressibility (1/GPa) = 0.02109517
#
# Stress axis : x y z
#
# Youngs Moduli (GPa) = 69.01561 141.63538 60.10632
#
# Poissons Ratio (x) = 0.27857 0.33497
# Poissons Ratio (y) = 0.13574 0.06047
# Poissons Ratio (z) = 0.38463 0.14250
#
# Static dielectric constant tensor:
#      x y z
#    x 3.814450 0.000000 0.018860 
#    y 0.000000 3.816160 0.000000 
#    z 0.018860 0.000000 3.746610 
# 
# 
# High freq. dielectric constant tensor:
#      x y z
#    x 1.826990 0.000000 -0.001260 
#    y 0.000000 1.824120 0.000000 
#    z -0.001260 0.000000 1.822630 
# 
# From -- ./inp_files/249568.got.cif
#   From: 2010.06.25/outbox.cif.g09.slc.cpg/sg12_125_cif.got.tgz:249568.got - 2010.06.28 00:19:55.
