data_PCOD8114918
_publ_section_title
;
Structure prediction by ZEFSAII (Michael W. Deem and Ramdas Pophale) SiO2 
 PCOD8114918
Probable space group: C 2/M
;
_chemical_formula_sum "Si O2"
_cell_formula_units_Z 32
_cell_length_a 16.070657
_cell_length_b 12.742970
_cell_length_c 12.555975
_cell_angle_alpha 90.000000
_cell_angle_beta 38.634714
_cell_angle_gamma 90.000000
_cell_volume 1605.406168
_symmetry_space_group_name_H-M "C 2/M"
_symmetry_group_IT_number 12
_symmetry_cell_setting 'monoclinic'
loop_
_space_group_symop_operation_xyz
x,y,z
-x,y,-z
-x,-y,-z
x,-y,z
1/2+x,1/2+y,z
1/2-x,1/2+y,-z
1/2-x,1/2-y,-z
1/2+x,1/2-y,z
loop_
_atom_site_type_symbol
_atom_site_label
_atom_site_fract_x
_atom_site_fract_y
_atom_site_fract_z
Si Si1 0.858880 0.500000 0.696854
Si Si2 0.351467 0.223594 0.807341
Si Si3 0.108907 0.000000 0.797144
Si Si4 0.343930 0.609974 0.648313
Si Si5 0.872301 0.824203 0.396816
O O1 0.845222 0.601160 0.785731
O O2 0.752464 0.500000 0.708338
O O3 0.000000 0.500000 0.500000
O O4 0.295050 0.288662 0.762066
O O5 0.498854 0.257016 0.696492
O O6 0.250000 0.250000 0.000000
O O7 0.091735 0.897079 0.740260
O O8 0.000000 0.000000 0.000000
O O9 0.500000 0.606644 0.500000
O O10 0.283750 0.500000 0.755404
O O11 0.312830 0.610144 0.554412
O O12 0.750000 0.750000 0.500000
#
# Coordination Sequence:
#
# PCOD8114918 Si02
#       5
#     4   8   4   8   8
#     4  12  24  44  63  93 133 171 206 260 332 391
#     4  11  24  39  65  93 126 163 209 264 319 380
#     4  12  24  40  66  97 127 165 219 274 311 371
#     4   9  18  36  61  85 114 159 210 244 294 378
#     4  11  22  39  63  93 123 166 212 256 317 380
#
# _framework density 19.932649999999999
#
# number of rings (size 3 to 8) (size 9 to 14) (size 15 to 20)
#    0.000    1.250    1.250    6.750    3.500    0.000 
#    0.000    0.000    0.000    1.500    0.000    0.000 
#    0.000    0.000    0.000    0.000    0.000    0.000 
#
# Total GULP energy -198232.289553 kJ/mol
# GULP energy per Si atom -12389.518097 kJ/mol
# Density = 1.988728 g / cm^3
# Si number density = 19.932650 Si / 1000 Ang^3
#
#
#
# Elastic Constant Matrix: (Units=GPa)
#
#
# Indices 1 2 3 4 5 6 
#
# 1 114.9727 53.4210 41.6415 0.0000 13.9862 0.0000
# 2 53.4210 189.9785 67.2668 0.0000 24.6328 0.0000
# 3 41.6415 67.2668 129.3146 0.0000 26.1865 0.0000
# 4 0.0000 0.0000 0.0000 34.5251 0.0000 13.5911
# 5 13.9862 24.6328 26.1865 0.0000 33.3896 0.0000
# 6 0.0000 0.0000 0.0000 13.5911 0.0000 -11.1562
#
#
#
# Elastic Compliance Matrix: (Units=1/GPa)
#
#
# Indices 1 2 3 4 5 6 
#
# 1 0.010564 -0.002074 -0.002065 0.000000 -0.001276 0.000000
# 2 -0.002074 0.007044 -0.002520 0.000000 -0.002351 0.000000
# 3 -0.002065 -0.002520 0.010886 0.000000 -0.005814 0.000000
# 4 0.000000 0.000000 0.000000 0.019576 0.000000 0.023849
# 5 -0.001276 -0.002351 -0.005814 0.000000 0.036778 0.000000
# 6 0.000000 0.000000 0.000000 0.023849 0.000000 -0.060582
#
#
# Mechanical properties :
#
#
# Convention : Reuss Voigt Hill
#
# Bulk Modulus (GPa) = 65.88992 84.32493 75.10742
# Shear Modulus (GPa) = 117.25018 29.48078 73.36548
#
# Velocity S-wave (km/s) = 7.67795 3.84997 6.07343
# Velocity P-wave (km/s) = 10.57020 7.88415 9.32440
#
# Compressibility (1/GPa) = 0.01517683
#
# Stress axis : x y z
#
# Youngs Moduli (GPa) = 94.65698 141.96005 91.85997
#
# Poissons Ratio (x) = 0.29446 0.18966
# Poissons Ratio (y) = 0.19634 0.23150
# Poissons Ratio (z) = 0.19543 0.35776
#
# Static dielectric constant tensor:
#      x y z
#    x 3.558240 0.000000 0.106490 
#    y 0.000000 4.311370 0.000000 
#    z 0.106490 0.000000 3.372210 
# 
# 
# High freq. dielectric constant tensor:
#      x y z
#    x 1.782990 0.000000 0.017960 
#    y 0.000000 1.798070 0.000000 
#    z 0.017960 0.000000 1.767860 
# 
# From -- ./inp_files/140005.got.cif
#   From: 2010.06.25/outbox.cif.g09.slc.cpg/sg12_71_cif.got.tgz:140005.got - 2010.06.28 00:19:55.
