data_PCOD8114724
_publ_section_title
;
Structure prediction by ZEFSAII (Michael W. Deem and Ramdas Pophale) SiO2 
 PCOD8114724
Probable space group: C 2/M
;
_chemical_formula_sum "Si O2"
_cell_formula_units_Z 52
_cell_length_a 10.736455
_cell_length_b 21.383074
_cell_length_c 12.020722
_cell_angle_alpha 90.000000
_cell_angle_beta 109.417070
_cell_angle_gamma 90.000000
_cell_volume 2602.736717
_symmetry_space_group_name_H-M "C 2/M"
_symmetry_group_IT_number 12
_symmetry_cell_setting 'monoclinic'
loop_
_space_group_symop_operation_xyz
x,y,z
-x,y,-z
-x,-y,-z
x,-y,z
1/2+x,1/2+y,z
1/2-x,1/2+y,-z
1/2-x,1/2-y,-z
1/2+x,1/2-y,z
loop_
_atom_site_type_symbol
_atom_site_label
_atom_site_fract_x
_atom_site_fract_y
_atom_site_fract_z
Si Si1 0.187152 0.360368 0.028311
Si Si2 0.000000 0.749574 0.000000
Si Si3 0.760000 0.928914 0.845474
Si Si4 0.503727 0.358596 0.841385
Si Si5 0.970225 0.572276 0.372780
Si Si6 0.648037 0.071309 0.232832
Si Si7 0.955785 0.927930 0.363160
O O1 0.131399 0.289998 0.010611
O O2 0.343580 0.368047 0.088297
O O3 0.112660 0.393415 0.108186
O O4 0.162738 0.393945 0.903648
O O5 0.967136 0.789574 0.877679
O O6 0.684567 0.920858 0.704800
O O7 0.908807 0.903731 0.884260
O O8 0.768543 0.000000 0.886958
O O9 0.480363 0.377261 0.704410
O O10 0.012206 0.500000 0.394061
O O11 0.000000 0.605414 0.500000
O O12 0.063666 0.602981 0.306658
O O13 0.799564 0.077706 0.311290
O O14 0.605541 0.000000 0.201714
O O15 0.000000 0.909319 0.500000
O O16 0.999300 0.000000 0.347185
#
# Coordination Sequence:
#
# PCOD8114724 Si02
#       7
#     8   4   8   8   8   8   8
#     4  11  22  39  61  87 118 160 205 249 299 361
#     4  12  24  42  62  82 120 168 212 248 292 354
#     4  11  22  36  60  93 125 156 193 254 322 366
#     4  11  23  38  58  90 123 157 200 252 295 364
#     4   9  19  33  51  81 121 159 193 231 290 368
#     4   9  18  34  56  86 120 154 195 252 305 355
#     4   9  19  35  60  90 122 159 196 243 308 368
#
# _framework density 19.978971000000001
#
# number of rings (size 3 to 8) (size 9 to 14) (size 15 to 20)
#    0.000    1.846    1.538    2.308    2.154    2.462 
#    0.000    3.077    0.000    7.385    0.000    0.000 
#    0.000    0.000    0.000    0.000    0.000    0.000 
#
# Total GULP energy -322156.200658 kJ/mol
# GULP energy per Si atom -12390.623102 kJ/mol
# Density = 1.993350 g / cm^3
# Si number density = 19.978971 Si / 1000 Ang^3
#
#
#
# Elastic Constant Matrix: (Units=GPa)
#
#
# Indices 1 2 3 4 5 6 
#
# 1 101.1305 45.5172 41.3516 0.0000 -23.3440 0.0000
# 2 45.5172 102.9530 62.3261 0.0000 -13.4033 0.0000
# 3 41.3516 62.3261 137.2403 0.0000 -23.9778 0.0000
# 4 0.0000 0.0000 0.0000 11.9985 0.0000 -1.8339
# 5 -23.3440 -13.4033 -23.9778 0.0000 29.3239 0.0000
# 6 0.0000 0.0000 0.0000 -1.8339 0.0000 37.4229
#
#
#
# Elastic Compliance Matrix: (Units=1/GPa)
#
#
# Indices 1 2 3 4 5 6 
#
# 1 0.014317 -0.004835 -0.000598 0.000000 0.008698 0.000000
# 2 -0.004835 0.015074 -0.005667 0.000000 -0.001593 0.000000
# 3 -0.000598 -0.005667 0.011089 0.000000 0.006001 0.000000
# 4 0.000000 0.000000 0.000000 0.083973 0.000000 0.004115
# 5 0.008698 -0.001593 0.006001 0.000000 0.045205 0.000000
# 6 0.000000 0.000000 0.000000 0.004115 0.000000 0.026923
#
#
# Mechanical properties :
#
#
# Convention : Reuss Voigt Hill
#
# Bulk Modulus (GPa) = 54.70876 71.07928 62.89402
# Shear Modulus (GPa) = 22.23458 28.55764 25.39611
#
# Velocity S-wave (km/s) = 3.33963 3.78482 3.56918
# Velocity P-wave (km/s) = 6.50488 7.39960 6.96662
#
# Compressibility (1/GPa) = 0.01827861
#
# Stress axis : x y z
#
# Youngs Moduli (GPa) = 69.84787 66.33775 90.18041
#
# Poissons Ratio (x) = 0.32075 0.05395
# Poissons Ratio (y) = 0.33772 0.51108
# Poissons Ratio (z) = 0.04179 0.37596
#
# Static dielectric constant tensor:
#      x y z
#    x 3.795410 0.000000 -0.248310 
#    y 0.000000 3.407180 0.000000 
#    z -0.248310 0.000000 3.955490 
# 
# 
# High freq. dielectric constant tensor:
#      x y z
#    x 1.801120 0.000000 -0.005600 
#    y 0.000000 1.736600 0.000000 
#    z -0.005600 0.000000 1.781540 
# 
# From -- ./inp_files/133337.got.cif
#   From: 2010.06.25/outbox.cif.g09.slc.cpg/sg12_67_cif.got.tgz:133337.got - 2010.06.28 00:19:55.
