data_PCOD8114834
_publ_section_title
;
Structure prediction by ZEFSAII (Michael W. Deem and Ramdas Pophale) SiO2 
 PCOD8114834
Probable space group: C 2/M
;
_chemical_formula_sum "Si O2"
_cell_formula_units_Z 56
_cell_length_a 10.942889
_cell_length_b 28.839262
_cell_length_c 11.312873
_cell_angle_alpha 90.000000
_cell_angle_beta 52.038413
_cell_angle_gamma 90.000000
_cell_volume 2814.806327
_symmetry_space_group_name_H-M "C 2/M"
_symmetry_group_IT_number 12
_symmetry_cell_setting 'monoclinic'
loop_
_space_group_symop_operation_xyz
x,y,z
-x,y,-z
-x,-y,-z
x,-y,z
1/2+x,1/2+y,z
1/2-x,1/2+y,-z
1/2-x,1/2-y,-z
1/2+x,1/2-y,z
loop_
_atom_site_type_symbol
_atom_site_label
_atom_site_fract_x
_atom_site_fract_y
_atom_site_fract_z
Si Si1 0.709236 0.203830 0.096996
Si Si2 0.751897 0.285505 0.652567
Si Si3 0.128407 0.689332 0.653606
Si Si4 0.169534 0.447632 0.905047
Si Si5 0.662265 0.379145 0.347021
Si Si6 0.051726 0.051774 0.104464
Si Si7 0.043563 0.150958 0.184920
O O1 0.700177 0.211592 0.241368
O O2 0.533315 0.187529 0.177621
O O3 0.750000 0.250000 0.000000
O O4 0.834946 0.164165 0.991926
O O5 0.881256 0.306209 0.484524
O O6 0.731067 0.231703 0.638217
O O7 0.592293 0.312480 0.727995
O O8 0.221657 0.642706 0.627192
O O9 0.143927 0.500000 0.883901
O O10 0.271019 0.427177 0.739437
O O11 0.262415 0.442856 0.976242
O O12 0.000000 0.422950 0.000000
O O13 0.500000 0.391756 0.500000
O O14 0.638501 0.344309 0.250320
O O15 0.000439 0.000000 0.183947
O O16 0.976696 0.098026 0.208247
O O17 0.000000 0.053588 0.000000
#
# Coordination Sequence:
#
# PCOD8114834 Si02
#       7
#     8   8   8   8   8   8   8
#     4  12  24  38  58  88 115 153 204 252 297 355
#     4  11  23  41  58  80 120 157 197 244 301 357
#     4  11  25  38  60  82 117 161 196 244 299 363
#     4   9  20  38  62  93 125 155 199 259 315 364
#     4  11  23  40  60  86 120 160 207 241 301 366
#     4   9  18  34  58  88 120 155 195 244 307 366
#     4  11  22  38  61  87 118 154 197 258 292 351
#
# _framework density 19.894794999999998
#
# number of rings (size 3 to 8) (size 9 to 14) (size 15 to 20)
#    0.000    1.429    2.857    2.571    4.000    1.429 
#    0.000    0.000    0.000    0.000    0.000    0.000 
#    0.000   17.143    0.000    0.000    0.000    0.000 
#
# Total GULP energy -346865.574047 kJ/mol
# GULP energy per Si atom -12388.056216 kJ/mol
# Density = 1.984951 g / cm^3
# Si number density = 19.894795 Si / 1000 Ang^3
#
#
#
# Elastic Constant Matrix: (Units=GPa)
#
#
# Indices 1 2 3 4 5 6 
#
# 1 78.9767 27.0077 36.0310 0.0000 3.7548 0.0000
# 2 27.0077 78.4515 33.7514 0.0000 0.1703 0.0000
# 3 36.0310 33.7514 126.5325 0.0000 -10.6680 0.0000
# 4 0.0000 0.0000 0.0000 7.2986 0.0000 2.4382
# 5 3.7548 0.1703 -10.6680 0.0000 41.6628 0.0000
# 6 0.0000 0.0000 0.0000 2.4382 0.0000 24.1052
#
#
#
# Elastic Compliance Matrix: (Units=1/GPa)
#
#
# Indices 1 2 3 4 5 6 
#
# 1 0.015758 -0.003846 -0.003659 0.000000 -0.002341 0.000000
# 2 -0.003846 0.015384 -0.003050 0.000000 -0.000497 0.000000
# 3 -0.003659 -0.003050 0.010003 0.000000 0.002904 0.000000
# 4 0.000000 0.000000 0.000000 0.141805 0.000000 -0.014344
# 5 -0.002341 -0.000497 0.002904 0.000000 0.024959 0.000000
# 6 0.000000 0.000000 0.000000 -0.014344 0.000000 0.042936
#
#
# Mechanical properties :
#
#
# Convention : Reuss Voigt Hill
#
# Bulk Modulus (GPa) = 49.91111 53.06009 51.48560
# Shear Modulus (GPa) = 17.94479 27.09135 22.51807
#
# Velocity S-wave (km/s) = 3.00656 3.69417 3.36796
# Velocity P-wave (km/s) = 6.09873 6.70254 6.40775
#
# Compressibility (1/GPa) = 0.02003562
#
# Stress axis : x y z
#
# Youngs Moduli (GPa) = 63.46180 65.00244 99.96571
#
# Poissons Ratio (x) = 0.24997 0.36574
# Poissons Ratio (y) = 0.24405 0.30494
# Poissons Ratio (z) = 0.23219 0.19829
#
# Static dielectric constant tensor:
#      x y z
#    x 3.810830 0.000000 0.024340 
#    y 0.000000 3.721970 0.000000 
#    z 0.024340 0.000000 3.725760 
# 
# 
# High freq. dielectric constant tensor:
#      x y z
#    x 1.784880 0.000000 0.004330 
#    y 0.000000 1.775450 0.000000 
#    z 0.004330 0.000000 1.760730 
# 
# From -- ./inp_files/136943.got.cif
#   From: 2010.06.25/outbox.cif.g09.slc.cpg/sg12_69_cif.got.tgz:136943.got - 2010.06.28 00:19:55.
