data_PCOD8114798
_publ_section_title
;
Structure prediction by ZEFSAII (Michael W. Deem and Ramdas Pophale) SiO2 
 PCOD8114798
Probable space group: C 2/M
;
_chemical_formula_sum "Si O2"
_cell_formula_units_Z 40
_cell_length_a 13.327749
_cell_length_b 14.698413
_cell_length_c 9.936414
_cell_angle_alpha 90.000000
_cell_angle_beta 96.090449
_cell_angle_gamma 90.000000
_cell_volume 1935.524498
_symmetry_space_group_name_H-M "C 2/M"
_symmetry_group_IT_number 12
_symmetry_cell_setting 'monoclinic'
loop_
_space_group_symop_operation_xyz
x,y,z
-x,y,-z
-x,-y,-z
x,-y,z
1/2+x,1/2+y,z
1/2-x,1/2+y,-z
1/2-x,1/2-y,-z
1/2+x,1/2-y,z
loop_
_atom_site_type_symbol
_atom_site_label
_atom_site_fract_x
_atom_site_fract_y
_atom_site_fract_z
Si Si1 0.952076 0.500000 0.849102
Si Si2 0.211569 0.000000 0.823676
Si Si3 0.020184 0.685159 0.721309
Si Si4 0.042951 0.000000 0.355822
Si Si5 0.549100 0.633760 0.864448
Si Si6 0.262241 0.500000 0.467842
Si Si7 0.156985 0.683633 0.495436
O O1 0.831466 0.500000 0.851931
O O2 0.991521 0.588524 0.778560
O O3 0.000000 0.500000 0.000000
O O4 0.162418 0.091022 0.882874
O O5 0.174485 0.000000 0.662633
O O6 0.928007 0.721473 0.617322
O O7 0.047902 0.757794 0.841333
O O8 0.118708 0.676285 0.642635
O O9 0.164503 0.000000 0.392812
O O10 0.000000 0.000000 0.500000
O O11 0.013464 0.088948 0.266697
O O12 0.500000 0.610310 0.000000
O O13 0.187708 0.584462 0.452232
O O14 0.250000 0.750000 0.500000
#
# Coordination Sequence:
#
# PCOD8114798 Si02
#       7
#     4   4   8   4   8   4   8
#     4  12  26  49  66  96 137 187 229 274 339 414
#     4  11  22  44  72  93 135 177 226 283 341 400
#     4  11  24  43  68  97 136 178 227 280 338 398
#     4  11  22  37  70 101 134 171 222 282 338 397
#     4  11  24  45  68 101 141 178 224 284 343 402
#     4  12  20  39  66  97 133 172 221 281 343 396
#     4  11  23  39  66  99 135 170 224 282 342 397
#
# _framework density 20.666232000000001
#
# number of rings (size 3 to 8) (size 9 to 14) (size 15 to 20)
#    0.000    0.800    4.000    4.800    2.800    1.600 
#   10.800    2.000    0.000    0.000    0.000    0.000 
#    0.000    0.000    0.000    0.000    0.000    0.000 
#
# Total GULP energy -247998.431562 kJ/mol
# GULP energy per Si atom -12399.921578 kJ/mol
# Density = 2.061920 g / cm^3
# Si number density = 20.666232 Si / 1000 Ang^3
#
#
#
# Elastic Constant Matrix: (Units=GPa)
#
#
# Indices 1 2 3 4 5 6 
#
# 1 139.4059 66.4066 60.6322 0.0000 -21.3295 0.0000
# 2 66.4066 157.3467 44.6985 0.0000 -17.6554 0.0000
# 3 60.6322 44.6985 136.1020 0.0000 -21.0460 0.0000
# 4 0.0000 0.0000 0.0000 13.6620 0.0000 14.5981
# 5 -21.3295 -17.6554 -21.0460 0.0000 36.4107 0.0000
# 6 0.0000 0.0000 0.0000 14.5981 0.0000 0.7805
#
#
#
# Elastic Compliance Matrix: (Units=1/GPa)
#
#
# Indices 1 2 3 4 5 6 
#
# 1 0.010523 -0.003222 -0.003204 0.000000 0.002750 0.000000
# 2 -0.003222 0.008171 -0.001018 0.000000 0.001486 0.000000
# 3 -0.003204 -0.001018 0.009601 0.000000 0.003179 0.000000
# 4 0.000000 0.000000 0.000000 -0.003856 0.000000 0.072111
# 5 0.002750 0.001486 0.003179 0.000000 0.031633 0.000000
# 6 0.000000 0.000000 0.000000 0.072111 0.000000 -0.067486
#
#
# Mechanical properties :
#
#
# Convention : Reuss Voigt Hill
#
# Bulk Modulus (GPa) = 74.59860 86.25879 80.42870
# Shear Modulus (GPa) = 629.42162 27.57846 328.50004
#
# Velocity S-wave (km/s) = 17.47073 3.65700 12.62141
# Velocity P-wave (km/s) = 21.05098 7.72406 15.85568
#
# Compressibility (1/GPa) = 0.01340508
#
# Stress axis : x y z
#
# Youngs Moduli (GPa) = 95.03426 122.37944 104.15704
#
# Poissons Ratio (x) = 0.39432 0.33375
# Poissons Ratio (y) = 0.30621 0.10607
# Poissons Ratio (z) = 0.30452 0.12463
#
# Static dielectric constant tensor:
#      x y z
#    x 3.830230 0.000000 -0.064630 
#    y 0.000000 3.589100 0.000000 
#    z -0.064630 0.000000 3.831260 
# 
# 
# High freq. dielectric constant tensor:
#      x y z
#    x 1.815180 0.000000 -0.010230 
#    y 0.000000 1.817180 0.000000 
#    z -0.010230 0.000000 1.809090 
# 
# From -- ./inp_files/59156.got.cif
#   From: 2010.06.25/outbox.cif.g09.slc.cpg/sg12_30_cif.got.tgz:59156.got - 2010.06.28 00:19:55.
