data_PCOD8114429
_publ_section_title
;
Structure prediction by ZEFSAII (Michael W. Deem and Ramdas Pophale) SiO2 
 PCOD8114429
Probable space group: C 2/M
;
_chemical_formula_sum "Si O2"
_cell_formula_units_Z 40
_cell_length_a 17.617269
_cell_length_b 21.268127
_cell_length_c 11.028447
_cell_angle_alpha 90.000000
_cell_angle_beta 31.059822
_cell_angle_gamma 90.000000
_cell_volume 2131.941539
_symmetry_space_group_name_H-M "C 2/M"
_symmetry_group_IT_number 12
_symmetry_cell_setting 'monoclinic'
loop_
_space_group_symop_operation_xyz
x,y,z
-x,y,-z
-x,-y,-z
x,-y,z
1/2+x,1/2+y,z
1/2-x,1/2+y,-z
1/2-x,1/2-y,-z
1/2+x,1/2-y,z
loop_
_atom_site_type_symbol
_atom_site_label
_atom_site_fract_x
_atom_site_fract_y
_atom_site_fract_z
Si Si1 0.731095 0.000000 0.648999
Si Si2 0.796258 0.867778 0.472033
Si Si3 0.000000 0.286772 0.500000
Si Si4 0.230053 0.285486 0.785737
Si Si5 0.558037 0.000000 0.115703
Si Si6 0.000000 0.811961 0.000000
Si Si7 0.987249 0.634726 0.760651
O O1 0.821265 0.062331 0.490020
O O2 0.579246 0.000000 0.785732
O O3 0.702702 0.000000 0.832504
O O4 0.806421 0.816594 0.564565
O O5 0.929004 0.856561 0.198180
O O6 0.639927 0.858386 0.621856
O O7 0.856798 0.242808 0.697340
O O8 0.997533 0.330708 0.619991
O O9 0.123936 0.229691 0.892115
O O10 0.140772 0.337748 0.980481
O O11 0.553004 0.938364 0.207427
#
# Coordination Sequence:
#
# PCOD8114429 Si02
#       7
#     4   8   4   8   4   4   8
#     4   9  18  35  62  92 112 147 204 255 293 340
#     4  11  21  38  64  91 119 155 204 252 292 348
#     4  12  26  37  56  95 130 158 190 240 314 360
#     4  12  22  40  63  87 124 160 200 245 294 358
#     4   9  18  35  64  88 112 153 202 251 291 344
#     4  12  22  35  62  89 124 158 192 246 306 344
#     4  11  21  39  62  91 121 156 203 248 292 355
#
# _framework density 18.762239000000001
#
# number of rings (size 3 to 8) (size 9 to 14) (size 15 to 20)
#    0.000    1.000    6.000    2.400    0.000    0.800 
#    0.000    0.000    0.000    4.800    0.000    0.000 
#    0.000    0.000    0.000    0.000    0.000    0.000 
#
# Total GULP energy -248071.772595 kJ/mol
# GULP energy per Si atom -12403.588630 kJ/mol
# Density = 1.871954 g / cm^3
# Si number density = 18.762239 Si / 1000 Ang^3
#
#
#
# Elastic Constant Matrix: (Units=GPa)
#
#
# Indices 1 2 3 4 5 6 
#
# 1 48.8369 25.3433 1.1485 0.0106 -2.0714 -0.0180
# 2 25.3433 128.0291 43.4295 -0.0009 0.6404 -0.0041
# 3 1.1485 43.4295 86.7005 0.0033 10.7039 -0.0375
# 4 0.0106 -0.0009 0.0033 138.7648 -0.0062 -104.8345
# 5 -2.0714 0.6404 10.7039 -0.0062 29.2844 0.0176
# 6 -0.0180 -0.0041 -0.0375 -104.8345 0.0176 181.2407
#
#
#
# Elastic Compliance Matrix: (Units=1/GPa)
#
#
# Indices 1 2 3 4 5 6 
#
# 1 0.023253 -0.005378 0.002271 0.000000 0.000932 0.000003
# 2 -0.005378 0.010724 -0.005472 -0.000001 0.001385 -0.000002
# 3 0.002271 -0.005472 0.014882 0.000004 -0.005159 0.000006
# 4 0.000000 -0.000001 0.000004 0.012800 -0.000003 0.007404
# 5 0.000932 0.001385 -0.005159 -0.000003 0.036069 -0.000006
# 6 0.000003 -0.000002 0.000006 0.007404 -0.000006 0.009800
#
#
# Mechanical properties :
#
#
# Convention : Reuss Voigt Hill
#
# Bulk Modulus (GPa) = 31.54427 44.82324 38.18375
# Shear Modulus (GPa) = 36.96752 82.76767 59.86759
#
# Velocity S-wave (km/s) = 4.44364 6.64904 5.65489
# Velocity P-wave (km/s) = 6.57092 9.10430 7.93931
#
# Compressibility (1/GPa) = 0.03170148
#
# Stress axis : x y z
#
# Youngs Moduli (GPa) = 43.00474 93.24469 67.19651
#
# Poissons Ratio (x) = 0.50146 -0.15258
# Poissons Ratio (y) = 0.23128 0.36769
# Poissons Ratio (z) = -0.09765 0.51022
#
# Static dielectric constant tensor:
#      x y z
#    x 3.092560 0.000020 -0.238320 
#    y 0.000020 3.747720 0.000030 
#    z -0.238320 0.000030 3.140590 
# 
# 
# High freq. dielectric constant tensor:
#      x y z
#    x 1.707150 0.000000 0.014000 
#    y 0.000000 1.743940 0.000000 
#    z 0.014000 0.000000 1.730700 
# 
# From -- ./inp_files/51028.got.cif
#   From: 2010.06.25/outbox.cif.g09.slc.cpg/sg12_26_cif.got.tgz:51028.got - 2010.06.28 00:19:55.
