data_PCOD8114942
_publ_section_title
;
Structure prediction by ZEFSAII (Michael W. Deem and Ramdas Pophale) SiO2 
 PCOD8114942
Probable space group: C 2/M
;
_chemical_formula_sum "Si O2"
_cell_formula_units_Z 56
_cell_length_a 18.789430
_cell_length_b 8.608277
_cell_length_c 16.308372
_cell_angle_alpha 90.000000
_cell_angle_beta 89.149972
_cell_angle_gamma 90.000000
_cell_volume 2637.501117
_symmetry_space_group_name_H-M "C 2/M"
_symmetry_group_IT_number 12
_symmetry_cell_setting 'monoclinic'
loop_
_space_group_symop_operation_xyz
x,y,z
-x,y,-z
-x,-y,-z
x,-y,z
1/2+x,1/2+y,z
1/2-x,1/2+y,-z
1/2-x,1/2-y,-z
1/2+x,1/2-y,z
loop_
_atom_site_type_symbol
_atom_site_label
_atom_site_fract_x
_atom_site_fract_y
_atom_site_fract_z
Si Si1 0.671975 0.817546 0.654121
Si Si2 0.105467 0.819827 0.815279
Si Si3 0.642382 0.675578 0.177104
Si Si4 0.282167 0.176200 0.079565
Si Si5 0.328334 0.183500 0.653789
Si Si6 0.080348 0.684356 0.501953
Si Si7 0.481054 0.818402 0.908993
O O1 0.633051 0.781796 0.739649
O O2 0.746721 0.731223 0.644257
O O3 0.619922 0.757575 0.583177
O O4 0.686890 0.000000 0.647817
O O5 0.150841 0.779055 0.895378
O O6 0.025177 0.773913 0.838985
O O7 0.111619 0.000000 0.792895
O O8 0.613354 0.500000 0.174405
O O9 0.725486 0.681091 0.153936
O O10 0.634084 0.742092 0.268062
O O11 0.600619 0.779160 0.110738
O O12 0.307204 0.000000 0.061478
O O13 0.250000 0.250000 0.000000
O O14 0.374053 0.244175 0.576034
O O15 0.332129 0.000000 0.663250
O O16 0.076619 0.500000 0.501473
O O17 0.000000 0.753152 0.500000
O O18 0.496591 0.000000 0.900536
O O19 0.500000 0.759821 0.000000
#
# Coordination Sequence:
#
# PCOD8114942 Si02
#       7
#     8   8   8   8   8   8   8
#     4  11  22  40  66  93 129 169 211 263 319 377
#     4  12  25  41  64  94 130 168 215 265 319 381
#     4  11  24  41  63  93 130 169 211 261 320 377
#     4  11  23  40  64  93 128 167 212 263 318 374
#     4  11  22  39  66  95 127 168 214 260 316 381
#     4   9  21  40  64  96 127 164 210 260 316 379
#     4  11  25  44  66  92 126 169 217 265 322 386
#
# _framework density 21.232219000000001
#
# number of rings (size 3 to 8) (size 9 to 14) (size 15 to 20)
#    0.000    1.143    1.429    4.714    2.000    5.143 
#    0.000    2.143    0.000    3.429    0.000    0.000 
#    0.000    0.000    0.000    0.000    0.000    0.000 
#
# Total GULP energy -347369.900315 kJ/mol
# GULP energy per Si atom -12406.067868 kJ/mol
# Density = 2.118389 g / cm^3
# Si number density = 21.232219 Si / 1000 Ang^3
#
#
#
# Elastic Constant Matrix: (Units=GPa)
#
#
# Indices 1 2 3 4 5 6 
#
# 1 90.8829 12.9747 28.1264 0.0000 2.4488 0.0000
# 2 12.9747 64.1571 22.6455 0.0000 -0.7024 0.0000
# 3 28.1264 22.6455 109.0232 0.0000 7.3254 0.0000
# 4 0.0000 0.0000 0.0000 29.1815 0.0000 3.1579
# 5 2.4488 -0.7024 7.3254 0.0000 43.8221 0.0000
# 6 0.0000 0.0000 0.0000 3.1579 0.0000 33.6255
#
#
#
# Elastic Compliance Matrix: (Units=1/GPa)
#
#
# Indices 1 2 3 4 5 6 
#
# 1 0.012084 -0.001458 -0.002799 0.000000 -0.000231 0.000000
# 2 -0.001458 0.017028 -0.003221 0.000000 0.000893 0.000000
# 3 -0.002799 -0.003221 0.010676 0.000000 -0.001680 0.000000
# 4 0.000000 0.000000 0.000000 0.034620 0.000000 -0.003251
# 5 -0.000231 0.000893 -0.001680 0.000000 0.023128 0.000000
# 6 0.000000 0.000000 0.000000 -0.003251 0.000000 0.030045
#
#
# Mechanical properties :
#
#
# Convention : Reuss Voigt Hill
#
# Bulk Modulus (GPa) = 40.27025 43.50626 41.88825
# Shear Modulus (GPa) = 33.15335 34.68027 33.91681
#
# Velocity S-wave (km/s) = 3.95582 4.04589 4.00111
# Velocity P-wave (km/s) = 6.31446 6.50852 6.41223
#
# Compressibility (1/GPa) = 0.02483223
#
# Stress axis : x y z
#
# Youngs Moduli (GPa) = 82.75531 58.72596 93.66505
#
# Poissons Ratio (x) = 0.08564 0.26217
# Poissons Ratio (y) = 0.12068 0.30167
# Poissons Ratio (z) = 0.23164 0.18914
#
# Static dielectric constant tensor:
#      x y z
#    x 4.045220 0.000000 -0.039730 
#    y 0.000000 3.716780 0.000000 
#    z -0.039730 0.000000 3.921580 
# 
# 
# High freq. dielectric constant tensor:
#      x y z
#    x 1.842720 0.000000 0.001580 
#    y 0.000000 1.824850 0.000000 
#    z 0.001580 0.000000 1.843140 
# 
# From -- ./inp_files/230999.got.cif
#   From: 2010.06.25/outbox.cif.g09.slc.cpg/sg12_116_cif.got.tgz:230999.got - 2010.06.28 00:19:55.
