data_PCOD8114764
_publ_section_title
;
Structure prediction by ZEFSAII (Michael W. Deem and Ramdas Pophale) SiO2 
 PCOD8114764
Probable space group: C 2/M
;
_chemical_formula_sum "Si O2"
_cell_formula_units_Z 40
_cell_length_a 10.474402
_cell_length_b 15.063705
_cell_length_c 24.228019
_cell_angle_alpha 90.000000
_cell_angle_beta 31.690571
_cell_angle_gamma 90.000000
_cell_volume 2008.225579
_symmetry_space_group_name_H-M "C 2/M"
_symmetry_group_IT_number 12
_symmetry_cell_setting 'monoclinic'
loop_
_space_group_symop_operation_xyz
x,y,z
-x,y,-z
-x,-y,-z
x,-y,z
1/2+x,1/2+y,z
1/2-x,1/2+y,-z
1/2-x,1/2-y,-z
1/2+x,1/2-y,z
loop_
_atom_site_type_symbol
_atom_site_label
_atom_site_fract_x
_atom_site_fract_y
_atom_site_fract_z
Si Si1 0.752551 0.241032 0.933454
Si Si2 0.754865 0.159777 0.250816
Si Si3 0.071235 0.398796 0.202904
Si Si4 0.066768 0.818276 0.376047
Si Si5 0.557491 0.138665 0.537626
O O1 0.811291 0.337835 0.887140
O O2 0.957422 0.168356 0.841893
O O3 0.500000 0.206726 0.000000
O O4 0.750000 0.250000 0.000000
O O5 0.714821 0.115221 0.206912
O O6 0.646461 0.261178 0.291990
O O7 0.621550 0.101695 0.348130
O O8 0.100904 0.500000 0.172695
O O9 0.787544 0.377359 0.317246
O O10 0.839384 0.882552 0.447163
O O11 0.984028 0.745586 0.452238
O O12 0.500000 0.093474 0.500000
#
# Coordination Sequence:
#
# PCOD8114764 Si02
#       5
#     8   8   8   8   8
#     4  11  22  39  64  91 112 157 208 256 295 365
#     4   9  19  33  55  84 118 151 202 244 295 346
#     4  11  22  37  59  91 123 152 192 257 314 361
#     4   8  18  29  55  83 113 150 200 239 283 354
#     4   9  16  29  57  82 111 152 210 240 281 344
#
# _framework density 19.918081000000001
#
# number of rings (size 3 to 8) (size 9 to 14) (size 15 to 20)
#    1.200    1.200    2.000    1.200    0.000    0.400 
#    0.000    2.000    0.000    7.200    0.000    0.000 
#    0.000    0.000    0.000    0.000    0.000    0.000 
#
# Total GULP energy -247768.269953 kJ/mol
# GULP energy per Si atom -12388.413498 kJ/mol
# Density = 1.987275 g / cm^3
# Si number density = 19.918081 Si / 1000 Ang^3
#
#
#
# Elastic Constant Matrix: (Units=GPa)
#
#
# Indices 1 2 3 4 5 6 
#
# 1 129.0907 24.6589 67.6437 0.0094 -6.5336 0.0000
# 2 24.6589 56.7514 14.6078 -0.0258 -4.0338 0.0062
# 3 67.6437 14.6078 119.3695 -0.0049 -15.3148 0.0016
# 4 0.0094 -0.0258 -0.0049 5.5781 -0.0305 1.0610
# 5 -6.5336 -4.0338 -15.3148 -0.0305 52.7580 0.0082
# 6 0.0000 0.0062 0.0016 1.0610 0.0082 8.5893
#
#
#
# Elastic Compliance Matrix: (Units=1/GPa)
#
#
# Indices 1 2 3 4 5 6 
#
# 1 0.011665 -0.003502 -0.006264 -0.000047 -0.000642 0.000010
# 2 -0.003502 0.019276 -0.000250 0.000105 0.000968 -0.000028
# 3 -0.006264 -0.000250 0.012314 0.000037 0.002780 -0.000009
# 4 -0.000047 0.000105 0.000037 0.183588 0.000123 -0.022677
# 5 -0.000642 0.000968 0.002780 0.000123 0.019756 -0.000035
# 6 0.000010 -0.000028 -0.000009 -0.022677 -0.000035 0.119225
#
#
# Mechanical properties :
#
#
# Convention : Reuss Voigt Hill
#
# Bulk Modulus (GPa) = 43.06165 57.67028 50.36597
# Shear Modulus (GPa) = 12.70334 26.60517 19.65425
#
# Velocity S-wave (km/s) = 2.52817 3.65873 3.14467
# Velocity P-wave (km/s) = 5.49441 6.84580 6.20699
#
# Compressibility (1/GPa) = 0.02322252
#
# Stress axis : x y z
#
# Youngs Moduli (GPa) = 85.72319 51.87915 81.20558
#
# Poissons Ratio (x) = 0.18168 0.50869
# Poissons Ratio (y) = 0.30020 0.02032
# Poissons Ratio (z) = 0.53699 0.01298
#
# Static dielectric constant tensor:
#      x y z
#    x 3.488490 0.000010 -0.202840 
#    y 0.000010 3.060240 -0.000010 
#    z -0.202840 -0.000010 3.794690 
# 
# 
# High freq. dielectric constant tensor:
#      x y z
#    x 1.772960 0.000000 -0.011330 
#    y 0.000000 1.719790 0.000000 
#    z -0.011330 0.000000 1.788300 
# 
# From -- ./inp_files/300583.got.cif
#   From: 2010.06.25/outbox.cif.g09.slc.cpg/sg12_151_cif.got.tgz:300583.got - 2010.06.28 00:19:55.
