data_PCOD8114322
_publ_section_title
;
Structure prediction by ZEFSAII (Michael W. Deem and Ramdas Pophale) SiO2 
 PCOD8114322
Probable space group: C 2/M
;
_chemical_formula_sum "Si O2"
_cell_formula_units_Z 36
_cell_length_a 13.161675
_cell_length_b 18.605322
_cell_length_c 7.643108
_cell_angle_alpha 90.000000
_cell_angle_beta 63.204380
_cell_angle_gamma 90.000000
_cell_volume 1670.648561
_symmetry_space_group_name_H-M "C 2/M"
_symmetry_group_IT_number 12
_symmetry_cell_setting 'monoclinic'
loop_
_space_group_symop_operation_xyz
x,y,z
-x,y,-z
-x,-y,-z
x,-y,z
1/2+x,1/2+y,z
1/2-x,1/2+y,-z
1/2-x,1/2-y,-z
1/2+x,1/2-y,z
loop_
_atom_site_type_symbol
_atom_site_label
_atom_site_fract_x
_atom_site_fract_y
_atom_site_fract_z
Si Si1 0.706234 0.617549 0.597324
Si Si2 0.021628 0.000000 0.690254
Si Si3 0.125572 0.789443 0.960287
Si Si4 0.864545 0.500000 0.586690
Si Si5 0.736584 0.500000 0.051684
Si Si6 0.256756 0.652996 0.811000
O O1 0.592373 0.569649 0.692566
O O2 0.710023 0.671155 0.759013
O O3 0.821812 0.570334 0.515777
O O4 0.706538 0.663216 0.418282
O O5 0.000000 0.000000 0.500000
O O6 0.899406 0.000000 0.882045
O O7 0.150066 0.704087 0.940141
O O8 0.140190 0.822451 0.142539
O O9 0.000000 0.805010 0.000000
O O10 0.000000 0.500000 0.500000
O O11 0.803036 0.500000 0.820522
O O12 0.773584 0.569549 0.134406
#
# Coordination Sequence:
#
# PCOD8114322 Si02
#       6
#     8   4   8   4   4   8
#     4  11  23  43  69 102 138 175 227 283 343 396
#     4  11  21  36  74 109 129 168 228 285 342 398
#     4  11  25  42  68  99 138 181 225 278 344 398
#     4  11  26  44  67 100 141 186 230 272 338 415
#     4  12  21  43  70  97 139 171 225 290 337 390
#     4  11  24  44  66 100 138 174 229 279 331 426
#
# _framework density 21.548517
#
# number of rings (size 3 to 8) (size 9 to 14) (size 15 to 20)
#    0.000    0.889    4.444    2.667    0.000    2.667 
#    0.000    1.667    0.000    0.000    0.000    0.000 
#    0.000    0.000    0.000    0.000    0.000    0.000 
#
# Total GULP energy -223248.016533 kJ/mol
# GULP energy per Si atom -12402.667585 kJ/mol
# Density = 2.149947 g / cm^3
# Si number density = 21.548517 Si / 1000 Ang^3
#
#
#
# Elastic Constant Matrix: (Units=GPa)
#
#
# Indices 1 2 3 4 5 6 
#
# 1 131.5231 39.6733 60.7480 0.0000 -0.8245 0.0000
# 2 39.6733 124.4765 15.9858 0.0000 -3.7362 0.0000
# 3 60.7480 15.9858 99.4908 0.0000 1.9571 0.0000
# 4 0.0000 0.0000 0.0000 22.1987 0.0000 6.0609
# 5 -0.8245 -3.7362 1.9571 0.0000 35.0374 0.0000
# 6 0.0000 0.0000 0.0000 6.0609 0.0000 23.3277
#
#
#
# Elastic Compliance Matrix: (Units=1/GPa)
#
#
# Indices 1 2 3 4 5 6 
#
# 1 0.011486 -0.002807 -0.006569 0.000000 0.000338 0.000000
# 2 -0.002807 0.008921 0.000264 0.000000 0.000870 0.000000
# 3 -0.006569 0.000264 0.014038 0.000000 -0.000911 0.000000
# 4 0.000000 0.000000 0.000000 0.048487 0.000000 -0.012598
# 5 0.000338 0.000870 -0.000911 0.000000 0.028693 0.000000
# 6 0.000000 0.000000 0.000000 -0.012598 0.000000 0.046141
#
#
# Mechanical properties :
#
#
# Convention : Reuss Voigt Hill
#
# Bulk Modulus (GPa) = 61.65448 65.36716 63.51082
# Shear Modulus (GPa) = 27.56392 32.05164 29.80778
#
# Velocity S-wave (km/s) = 3.58041 3.86089 3.72329
# Velocity P-wave (km/s) = 6.76509 7.09056 6.92974
#
# Compressibility (1/GPa) = 0.01621942
#
# Stress axis : x y z
#
# Youngs Moduli (GPa) = 87.06129 112.09984 71.23692
#
# Poissons Ratio (x) = 0.31468 0.46795
# Poissons Ratio (y) = 0.24439 -0.01877
# Poissons Ratio (z) = 0.57190 -0.02954
#
# Static dielectric constant tensor:
#      x y z
#    x 4.019700 0.000000 0.240620 
#    y 0.000000 4.113180 0.000000 
#    z 0.240620 0.000000 3.789990 
# 
# 
# High freq. dielectric constant tensor:
#      x y z
#    x 1.840420 0.000000 0.027390 
#    y 0.000000 1.857840 0.000000 
#    z 0.027390 0.000000 1.838070 
# 
# From -- ./inp_files/48459.got.cif
#   From: 2010.06.25/outbox.cif.g09.slc.cpg/sg12_25_cif.got.tgz:48459.got - 2010.06.28 00:19:55.
