data_PCOD8114713
_publ_section_title
;
Structure prediction by ZEFSAII (Michael W. Deem and Ramdas Pophale) SiO2 
 PCOD8114713
Probable space group: C 2/M
;
_chemical_formula_sum "Si O2"
_cell_formula_units_Z 56
_cell_length_a 18.408288
_cell_length_b 8.871003
_cell_length_c 18.303701
_cell_angle_alpha 90.000000
_cell_angle_beta 104.962725
_cell_angle_gamma 90.000000
_cell_volume 2887.649149
_symmetry_space_group_name_H-M "C 2/M"
_symmetry_group_IT_number 12
_symmetry_cell_setting 'monoclinic'
loop_
_space_group_symop_operation_xyz
x,y,z
-x,y,-z
-x,-y,-z
x,-y,z
1/2+x,1/2+y,z
1/2-x,1/2+y,-z
1/2-x,1/2-y,-z
1/2+x,1/2-y,z
loop_
_atom_site_type_symbol
_atom_site_label
_atom_site_fract_x
_atom_site_fract_y
_atom_site_fract_z
Si Si1 0.172443 0.825511 0.002129
Si Si2 0.439106 0.670816 0.428111
Si Si3 0.227562 0.832196 0.566825
Si Si4 0.457429 0.673533 0.147513
Si Si5 0.894319 0.677575 0.872254
Si Si6 0.241454 0.322341 0.267100
Si Si7 0.105372 0.677765 0.728788
O O1 0.138819 0.736691 0.061228
O O2 0.185195 0.000000 0.026273
O O3 0.250000 0.750000 0.000000
O O4 0.116539 0.809074 0.920111
O O5 0.500000 0.737593 0.500000
O O6 0.459774 0.500000 0.409685
O O7 0.361527 0.673140 0.451047
O O8 0.436282 0.774809 0.356238
O O9 0.250000 0.750000 0.500000
O O10 0.263116 0.761340 0.650462
O O11 0.258837 0.000000 0.567071
O O12 0.473831 0.500000 0.170128
O O13 0.527649 0.740437 0.122143
O O14 0.446166 0.764689 0.218845
O O15 0.908018 0.500000 0.881755
O O16 0.836106 0.716968 0.792489
O O17 0.259436 0.500000 0.272100
O O18 0.310917 0.245856 0.243064
O O19 0.111684 0.500000 0.734335
#
# Coordination Sequence:
#
# PCOD8114713 Si02
#       7
#     8   8   8   8   8   8   8
#     4  11  24  41  62  87 115 151 191 232 281 337
#     4   9  19  37  58  79 108 149 191 231 282 340
#     4   9  18  33  53  77 107 141 179 224 272 326
#     4  11  24  41  59  82 117 155 188 228 282 341
#     4  11  23  39  61  88 116 147 187 237 287 335
#     4   9  20  39  58  79 112 151 187 228 283 342
#     4  11  22  36  58  86 113 146 192 240 282 331
#
# _framework density 19.392938999999998
#
# number of rings (size 3 to 8) (size 9 to 14) (size 15 to 20)
#    0.000    1.857    0.000    4.714    0.000   12.286 
#    0.000    2.857    0.000    0.000    0.000    0.000 
#    0.000    0.000    0.000    0.000    0.000    0.000 
#
# Total GULP energy -347270.457479 kJ/mol
# GULP energy per Si atom -12402.516339 kJ/mol
# Density = 1.934880 g / cm^3
# Si number density = 19.392939 Si / 1000 Ang^3
#
#
#
# Elastic Constant Matrix: (Units=GPa)
#
#
# Indices 1 2 3 4 5 6 
#
# 1 95.9842 40.0656 42.4279 0.0000 -7.2035 0.0000
# 2 40.0656 93.4294 42.3903 0.0000 1.3207 0.0000
# 3 42.4279 42.3903 87.9249 0.0000 -7.2437 0.0000
# 4 0.0000 0.0000 0.0000 32.6994 0.0000 -7.5993
# 5 -7.2035 1.3207 -7.2437 0.0000 39.4933 0.0000
# 6 0.0000 0.0000 0.0000 -7.5993 0.0000 32.3773
#
#
#
# Elastic Compliance Matrix: (Units=1/GPa)
#
#
# Indices 1 2 3 4 5 6 
#
# 1 0.014369 -0.003983 -0.004860 0.000000 0.001863 0.000000
# 2 -0.003983 0.014917 -0.005453 0.000000 -0.002226 0.000000
# 3 -0.004860 -0.005453 0.016539 0.000000 0.002330 0.000000
# 4 0.000000 0.000000 0.000000 0.032346 0.000000 0.007592
# 5 0.001863 -0.002226 0.002330 0.000000 0.026162 0.000000
# 6 0.000000 0.000000 0.000000 0.007592 0.000000 0.032668
#
#
# Mechanical properties :
#
#
# Convention : Reuss Voigt Hill
#
# Bulk Modulus (GPa) = 58.02775 58.56735 58.29755
# Shear Modulus (GPa) = 29.18208 31.07766 30.12987
#
# Velocity S-wave (km/s) = 3.88336 4.00750 3.94591
# Velocity P-wave (km/s) = 7.07773 7.18883 7.13350
#
# Compressibility (1/GPa) = 0.01723313
#
# Stress axis : x y z
#
# Youngs Moduli (GPa) = 69.59389 67.03762 60.46173
#
# Poissons Ratio (x) = 0.26703 0.29384
# Poissons Ratio (y) = 0.27721 0.32970
# Poissons Ratio (z) = 0.33822 0.36556
#
# Static dielectric constant tensor:
#      x y z
#    x 3.493870 0.000000 0.142690 
#    y 0.000000 3.586110 0.000000 
#    z 0.142690 0.000000 3.737480 
# 
# 
# High freq. dielectric constant tensor:
#      x y z
#    x 1.755740 0.000000 -0.000040 
#    y 0.000000 1.756720 0.000000 
#    z -0.000040 0.000000 1.768920 
# 
# From -- ./inp_files/275598.got.cif
#   From: 2010.06.25/outbox.cif.g09.slc.cpg/sg12_138_cif.got.tgz:275598.got - 2010.06.28 00:19:55.
