data_PCOD8114947
_publ_section_title
;
Structure prediction by ZEFSAII (Michael W. Deem and Ramdas Pophale) SiO2 
 PCOD8114947
Probable space group: C 2/M
;
_chemical_formula_sum "Si O2"
_cell_formula_units_Z 64
_cell_length_a 22.529073
_cell_length_b 14.606233
_cell_length_c 17.087597
_cell_angle_alpha 90.000000
_cell_angle_beta 32.788083
_cell_angle_gamma 90.000000
_cell_volume 3045.003258
_symmetry_space_group_name_H-M "C 2/M"
_symmetry_group_IT_number 12
_symmetry_cell_setting 'monoclinic'
loop_
_space_group_symop_operation_xyz
x,y,z
-x,y,-z
-x,-y,-z
x,-y,z
1/2+x,1/2+y,z
1/2-x,1/2+y,-z
1/2-x,1/2-y,-z
1/2+x,1/2-y,z
loop_
_atom_site_type_symbol
_atom_site_label
_atom_site_fract_x
_atom_site_fract_y
_atom_site_fract_z
Si Si1 0.387788 0.897303 0.961494
Si Si2 0.830591 0.677676 0.869514
Si Si3 0.498588 0.604513 0.159970
Si Si4 0.295394 0.729626 0.642480
Si Si5 0.847427 0.896761 0.716305
Si Si6 0.999024 0.178171 0.333084
Si Si7 0.270677 0.604431 0.174149
Si Si8 0.937219 0.272368 0.148403
O O1 0.377557 0.895381 0.879387
O O2 0.489260 0.836074 0.877510
O O3 0.410654 0.000000 0.965251
O O4 0.270006 0.860031 0.121246
O O5 0.784548 0.622314 0.847833
O O6 0.932413 0.732268 0.723873
O O7 0.750000 0.750000 0.000000
O O8 0.455110 0.500000 0.206179
O O9 0.522275 0.633758 0.222683
O O10 0.410794 0.675725 0.221452
O O11 0.601548 0.617494 0.987623
O O12 0.367580 0.668204 0.620855
O O13 0.375266 0.718173 0.478887
O O14 0.271238 0.829071 0.709070
O O15 0.180661 0.683891 0.742092
O O16 0.950143 0.895217 0.662013
O O17 0.834015 0.000000 0.701911
O O18 0.246520 0.500000 0.227568
O O19 0.000000 0.253372 0.000000
#
# Coordination Sequence:
#
# PCOD8114947 Si02
#       8
#     8   8   8   8   8   8   8   8
#     4  11  22  39  66  98 124 164 218 270 320 379
#     4  12  19  38  67  95 126 168 211 269 325 384
#     4  11  23  42  71  99 125 167 225 282 322 375
#     4  12  26  42  63  96 136 179 209 265 327 390
#     4  11  22  39  66  97 128 162 209 267 323 385
#     4  12  24  40  67  95 133 164 214 264 340 382
#     4  11  22  40  68 102 132 170 219 270 326 387
#     4  12  23  43  67  93 129 172 223 265 318 392
#
# _framework density 21.018039999999999
#
# number of rings (size 3 to 8) (size 9 to 14) (size 15 to 20)
#    0.000    0.500    7.500    1.125    0.000    5.500 
#    0.000    1.875    0.000    0.000    0.000    0.000 
#    0.000    0.000    0.000    0.000    0.000    0.000 
#
# Total GULP energy -396454.991974 kJ/mol
# GULP energy per Si atom -12389.218499 kJ/mol
# Density = 2.097020 g / cm^3
# Si number density = 21.018040 Si / 1000 Ang^3
#
#
#
# Elastic Constant Matrix: (Units=GPa)
#
#
# Indices 1 2 3 4 5 6 
#
# 1 40.3525 -0.6572 9.6408 0.0000 -24.0498 0.0000
# 2 -0.6572 81.7682 33.7410 0.0000 -3.5354 0.0000
# 3 9.6408 33.7410 84.8821 0.0000 -19.9367 0.0000
# 4 0.0000 0.0000 0.0000 15.7146 0.0000 1.1776
# 5 -24.0498 -3.5354 -19.9367 0.0000 19.4201 0.0000
# 6 0.0000 0.0000 0.0000 1.1776 0.0000 15.7998
#
#
#
# Elastic Compliance Matrix: (Units=1/GPa)
#
#
# Indices 1 2 3 4 5 6 
#
# 1 0.142983 -0.004263 0.035397 0.000000 0.212632 0.000000
# 2 -0.004263 0.015042 -0.008027 0.000000 -0.010782 0.000000
# 3 0.035397 -0.008027 0.027546 0.000000 0.070653 0.000000
# 4 0.000000 0.000000 0.000000 0.063992 0.000000 -0.004769
# 5 0.212632 -0.010782 0.070653 0.000000 0.385386 0.000000
# 6 0.000000 0.000000 0.000000 -0.004769 0.000000 0.063647
#
#
# Mechanical properties :
#
#
# Convention : Reuss Voigt Hill
#
# Bulk Modulus (GPa) = 4.31438 32.49465 18.40452
# Shear Modulus (GPa) = 6.85265 21.13879 13.99572
#
# Velocity S-wave (km/s) = 1.80761 3.17479 2.58329
# Velocity P-wave (km/s) = 2.53254 5.37894 4.20397
#
# Compressibility (1/GPa) = 0.23178281
#
# Stress axis : x y z
#
# Youngs Moduli (GPa) = 6.99386 66.48201 36.30258
#
# Poissons Ratio (x) = 0.28343 -1.28500
# Poissons Ratio (y) = 0.02982 0.29141
# Poissons Ratio (z) = -0.24756 0.53368
#
# Static dielectric constant tensor:
#      x y z
#    x 4.261070 0.000000 -0.228430 
#    y 0.000000 3.927540 0.000000 
#    z -0.228430 0.000000 3.955570 
# 
# 
# High freq. dielectric constant tensor:
#      x y z
#    x 1.830580 0.000000 0.002170 
#    y 0.000000 1.821610 0.000000 
#    z 0.002170 0.000000 1.804510 
# 
# From -- ./inp_files/290070.got.cif
#   From: 2010.06.25/outbox.cif.g09.slc.cpg/sg12_146_cif.got.tgz:290070.got - 2010.06.28 00:19:55.
