data_PCOD8114447
_publ_section_title
;
Structure prediction by ZEFSAII (Michael W. Deem and Ramdas Pophale) SiO2 
 PCOD8114447
Probable space group: C 2/M
;
_chemical_formula_sum "Si O2"
_cell_formula_units_Z 64
_cell_length_a 17.263474
_cell_length_b 32.668638
_cell_length_c 11.412022
_cell_angle_alpha 90.000000
_cell_angle_beta 149.646151
_cell_angle_gamma 90.000000
_cell_volume 3252.404229
_symmetry_space_group_name_H-M "C 2/M"
_symmetry_group_IT_number 12
_symmetry_cell_setting 'monoclinic'
loop_
_space_group_symop_operation_xyz
x,y,z
-x,y,-z
-x,-y,-z
x,-y,z
1/2+x,1/2+y,z
1/2-x,1/2+y,-z
1/2-x,1/2-y,-z
1/2+x,1/2-y,z
loop_
_atom_site_type_symbol
_atom_site_label
_atom_site_fract_x
_atom_site_fract_y
_atom_site_fract_z
Si Si1 0.175756 0.670502 0.448550
Si Si2 0.433675 0.391490 0.796002
Si Si3 0.136512 0.168375 0.918552
Si Si4 0.174654 0.812732 0.598459
Si Si5 0.449686 0.455068 0.621309
Si Si6 0.754398 0.045885 0.137497
Si Si7 0.845615 0.633093 0.000527
Si Si8 0.333285 0.776347 0.333365
O O1 0.278734 0.632511 0.624345
O O2 0.243785 0.690786 0.420592
O O3 0.175742 0.704356 0.549507
O O4 0.008361 0.654146 0.200245
O O5 0.563584 0.361283 0.918688
O O6 0.393161 0.425289 0.648200
O O7 0.500000 0.412290 0.000000
O O8 0.008366 0.182802 0.657947
O O9 0.272127 0.145393 0.028197
O O10 0.204896 0.206798 0.077653
O O11 0.205339 0.771638 0.710903
O O12 0.238332 0.851815 0.753007
O O13 0.462403 0.500000 0.693473
O O14 0.614326 0.442394 0.784557
O O15 0.323524 0.455013 0.356460
O O16 0.685112 0.000000 0.020441
O O17 0.633638 0.083380 0.975353
O O18 0.500000 0.785525 0.500000
#
# Coordination Sequence:
#
# PCOD8114447 Si02
#       8
#     8   8   8   8   8   8   8   8
#     4  11  25  42  59  90 124 165 199 253 311 363
#     4  11  21  39  60  87 120 161 205 246 302 362
#     4  11  23  40  65  87 116 164 211 255 291 370
#     4  11  27  40  62  89 124 162 204 256 310 362
#     4   9  18  33  59  91 121 153 198 250 298 359
#     4   9  18  34  62  94 120 151 198 253 303 358
#     4  12  22  41  65  91 125 160 201 253 312 366
#     4  12  24  43  63  88 120 163 216 255 302 354
#
# _framework density 19.67775
#
# number of rings (size 3 to 8) (size 9 to 14) (size 15 to 20)
#    0.000    1.250    3.750    4.125    3.500    1.250 
#    4.500    0.625    0.000    3.000    0.000    2.625 
#    0.000    0.000    0.000    0.000    0.000    0.000 
#
# Total GULP energy -396833.664577 kJ/mol
# GULP energy per Si atom -12401.052018 kJ/mol
# Density = 1.963296 g / cm^3
# Si number density = 19.677750 Si / 1000 Ang^3
#
#
#
# Elastic Constant Matrix: (Units=GPa)
#
#
# Indices 1 2 3 4 5 6 
#
# 1 65.1844 25.3107 18.7182 0.0000 -0.1588 0.0000
# 2 25.3107 101.7597 14.0758 0.0000 -7.1567 0.0000
# 3 18.7182 14.0758 66.6941 0.0000 1.3031 0.0000
# 4 0.0000 0.0000 0.0000 23.3478 0.0000 -12.3290
# 5 -0.1588 -7.1567 1.3031 0.0000 30.0609 0.0000
# 6 0.0000 0.0000 0.0000 -12.3290 0.0000 5.0421
#
#
#
# Elastic Compliance Matrix: (Units=1/GPa)
#
#
# Indices 1 2 3 4 5 6 
#
# 1 0.018092 -0.003962 -0.004229 0.000000 -0.000664 0.000000
# 2 -0.003962 0.011182 -0.001301 0.000000 0.002698 0.000000
# 3 -0.004229 -0.001301 0.016476 0.000000 -0.001046 0.000000
# 4 0.000000 0.000000 0.000000 -0.147069 0.000000 -0.359617
# 5 -0.000664 0.002698 -0.001046 0.000000 0.033950 -0.000001
# 6 0.000000 0.000000 0.000000 -0.359617 -0.000001 -0.681015
#
#
# Mechanical properties :
#
#
# Convention : Reuss Voigt Hill
#
# Bulk Modulus (GPa) = 37.35883 38.87198 38.11541
# Shear Modulus (GPa) = -6.93983 23.39237 8.22627
#
# Velocity S-wave (km/s) = -1.88000 3.45160 2.04684
# Velocity P-wave (km/s) = 3.78339 5.97343 4.99979
#
# Compressibility (1/GPa) = 0.02676743
#
# Stress axis : x y z
#
# Youngs Moduli (GPa) = 55.27273 89.42815 60.69591
#
# Poissons Ratio (x) = 0.35430 0.25666
# Poissons Ratio (y) = 0.21898 0.07895
# Poissons Ratio (z) = 0.23372 0.11633
#
# Static dielectric constant tensor:
#      x y z
#    x 3.638420 0.000000 0.006400 
#    y 0.000000 3.809590 0.000000 
#    z 0.006400 0.000000 3.436450 
# 
# 
# High freq. dielectric constant tensor:
#      x y z
#    x 1.775300 0.000000 -0.005430 
#    y 0.000000 1.770160 0.000000 
#    z -0.005430 0.000000 1.749250 
# 
# From -- ./inp_files/161256.got.cif
#   From: 2010.06.25/outbox.cif.g09.slc.cpg/sg12_81_cif.got.tgz:161256.got - 2010.06.28 00:19:55.
