data_PCOD8114159
_publ_section_title
;
Structure prediction by ZEFSAII (Michael W. Deem and Ramdas Pophale) SiO2 
 PCOD8114159
Probable space group: C 2/M
;
_chemical_formula_sum "Si O2"
_cell_formula_units_Z 56
_cell_length_a 9.246220
_cell_length_b 26.374898
_cell_length_c 14.649874
_cell_angle_alpha 90.000000
_cell_angle_beta 62.515724
_cell_angle_gamma 90.000000
_cell_volume 3169.420395
_symmetry_space_group_name_H-M "C 2/M"
_symmetry_group_IT_number 12
_symmetry_cell_setting 'monoclinic'
loop_
_space_group_symop_operation_xyz
x,y,z
-x,y,-z
-x,-y,-z
x,-y,z
1/2+x,1/2+y,z
1/2-x,1/2+y,-z
1/2-x,1/2-y,-z
1/2+x,1/2-y,z
loop_
_atom_site_type_symbol
_atom_site_label
_atom_site_fract_x
_atom_site_fract_y
_atom_site_fract_z
Si Si1 0.172278 0.848100 0.416335
Si Si2 0.323803 0.942273 0.668954
Si Si3 0.203722 0.156878 0.773398
Si Si4 0.485662 0.210074 0.398005
Si Si5 0.411833 0.304186 0.739421
Si Si6 0.319960 0.260719 0.076195
Si Si7 0.701993 0.942825 0.533854
O O1 0.318908 0.818467 0.422428
O O2 0.171369 0.843346 0.306912
O O3 0.184146 0.907075 0.438674
O O4 0.000000 0.825749 0.500000
O O5 0.229833 0.904220 0.766210
O O6 0.517034 0.935254 0.620447
O O7 0.274280 0.929151 0.579470
O O8 0.274339 0.000000 0.708430
O O9 0.356390 0.177267 0.672065
O O10 0.200594 0.182092 0.875805
O O11 0.030537 0.168694 0.776511
O O12 0.500000 0.222232 0.500000
O O13 0.481100 0.262067 0.343319
O O14 0.255750 0.278776 0.831240
O O15 0.500000 0.246104 0.000000
O O16 0.250000 0.250000 0.000000
O O17 0.758532 0.000000 0.535532
#
# Coordination Sequence:
#
# PCOD8114159 Si02
#       7
#     8   8   8   8   8   8   8
#     4  12  23  33  50  79 114 150 189 225 271 320
#     4   9  17  32  56  81 108 146 191 228 266 320
#     4  11  21  36  58  80 108 144 186 224 274 328
#     4  11  21  34  50  73 112 152 184 219 260 328
#     4  11  24  36  53  80 111 144 181 225 277 333
#     4  11  23  41  61  84 108 139 182 232 284 335
#     4   9  18  33  52  77 111 152 190 226 266 316
#
# _framework density 17.668845000000001
#
# number of rings (size 3 to 8) (size 9 to 14) (size 15 to 20)
#    0.000    1.429    2.857    5.571    2.000    2.000 
#    0.000    0.714    0.000    0.429    0.000    0.000 
#    0.000    4.000    0.000    0.000    0.000    0.000 
#
# Total GULP energy -347023.506332 kJ/mol
# GULP energy per Si atom -12393.696655 kJ/mol
# Density = 1.762863 g / cm^3
# Si number density = 17.668845 Si / 1000 Ang^3
#
#
#
# Elastic Constant Matrix: (Units=GPa)
#
#
# Indices 1 2 3 4 5 6 
#
# 1 96.9624 49.0041 47.5702 0.0000 1.8129 0.0000
# 2 49.0041 105.9505 45.1224 0.0000 8.2448 0.0000
# 3 47.5702 45.1224 96.7258 0.0000 5.4487 0.0000
# 4 0.0000 0.0000 0.0000 26.5220 0.0000 2.9082
# 5 1.8129 8.2448 5.4487 0.0000 34.9116 0.0000
# 6 0.0000 0.0000 0.0000 2.9082 0.0000 25.7937
#
#
#
# Elastic Compliance Matrix: (Units=1/GPa)
#
#
# Indices 1 2 3 4 5 6 
#
# 1 0.015410 -0.004947 -0.005339 0.000000 0.001201 0.000000
# 2 -0.004947 0.013499 -0.003732 0.000000 -0.002349 0.000000
# 3 -0.005339 -0.003732 0.014769 0.000000 -0.001147 0.000000
# 4 0.000000 0.000000 0.000000 0.038176 0.000000 -0.004304
# 5 0.001201 -0.002349 -0.001147 0.000000 0.029315 0.000000
# 6 0.000000 0.000000 0.000000 -0.004304 0.000000 0.039254
#
#
# Mechanical properties :
#
#
# Convention : Reuss Voigt Hill
#
# Bulk Modulus (GPa) = 63.92589 64.78136 64.35362
# Shear Modulus (GPa) = 27.22213 27.97493 27.59853
#
# Velocity S-wave (km/s) = 3.92941 3.98338 3.95649
# Velocity P-wave (km/s) = 7.53960 7.60921 7.57449
#
# Compressibility (1/GPa) = 0.01564312
#
# Stress axis : x y z
#
# Youngs Moduli (GPa) = 64.89142 74.08152 67.70741
#
# Poissons Ratio (x) = 0.36652 0.36146
# Poissons Ratio (y) = 0.32105 0.25266
# Poissons Ratio (z) = 0.34643 0.27644
#
# Static dielectric constant tensor:
#      x y z
#    x 3.281200 0.000000 -0.208190 
#    y 0.000000 3.393880 0.000000 
#    z -0.208190 0.000000 2.253340 
# 
# 
# High freq. dielectric constant tensor:
#      x y z
#    x 1.693990 0.000000 -0.004140 
#    y 0.000000 1.677550 0.000000 
#    z -0.004140 0.000000 1.656870 
# 
# From -- ./inp_files/199317.got.cif
#   From: 2010.06.25/outbox.cif.g09.slc.cpg/sg12_100_cif.got.tgz:199317.got - 2010.06.28 00:19:55.
