data_PCOD8114247
_publ_section_title
;
Structure prediction by ZEFSAII (Michael W. Deem and Ramdas Pophale) SiO2 
 PCOD8114247
Probable space group: C 2/M
;
_chemical_formula_sum "Si O2"
_cell_formula_units_Z 64
_cell_length_a 18.513665
_cell_length_b 8.614244
_cell_length_c 29.480011
_cell_angle_alpha 90.000000
_cell_angle_beta 136.878024
_cell_angle_gamma 90.000000
_cell_volume 3213.733800
_symmetry_space_group_name_H-M "C 2/M"
_symmetry_group_IT_number 12
_symmetry_cell_setting 'monoclinic'
loop_
_space_group_symop_operation_xyz
x,y,z
-x,y,-z
-x,-y,-z
x,-y,z
1/2+x,1/2+y,z
1/2-x,1/2+y,-z
1/2-x,1/2-y,-z
1/2+x,1/2-y,z
loop_
_atom_site_type_symbol
_atom_site_label
_atom_site_fract_x
_atom_site_fract_y
_atom_site_fract_z
Si Si1 0.674876 0.318303 0.369849
Si Si2 0.893628 0.817834 0.475985
Si Si3 0.676893 0.678970 0.836856
Si Si4 0.644767 0.824733 0.728532
Si Si5 0.424030 0.819632 0.586489
Si Si6 0.972072 0.321735 0.772923
Si Si7 0.896485 0.182466 0.926560
Si Si8 0.376758 0.324161 0.813749
O O1 0.672788 0.500000 0.378596
O O2 0.791609 0.265790 0.407217
O O3 0.645910 0.229377 0.402730
O O4 0.591624 0.281219 0.292300
O O5 0.893618 0.781091 0.529260
O O6 0.000000 0.755559 0.500000
O O7 0.881962 0.000000 0.462783
O O8 0.666075 0.500000 0.844358
O O9 0.647251 0.704541 0.770802
O O10 0.595055 0.775759 0.829689
O O11 0.795343 0.734431 0.902162
O O12 0.547096 0.785113 0.651759
O O13 0.751101 0.810307 0.748040
O O14 0.634964 0.000000 0.744160
O O15 0.402959 0.000000 0.566508
O O16 0.957154 0.500000 0.752572
O O17 0.931977 0.294298 0.805313
O O18 0.906961 0.226023 0.878544
O O19 0.879873 0.000000 0.924932
O O20 0.000000 0.242566 0.000000
O O21 0.414698 0.500000 0.821388
#
# Coordination Sequence:
#
# PCOD8114247 Si02
#       8
#     8   8   8   8   8   8   8   8
#     4  12  25  42  64  88 116 155 201 249 304 361
#     4  11  26  45  62  86 120 156 199 250 302 360
#     4  11  21  35  59  90 122 156 198 245 290 344
#     4   9  19  36  59  86 117 154 195 242 293 353
#     4  11  22  39  64  90 118 155 199 245 300 361
#     4  12  24  39  59  87 123 159 199 247 302 355
#     4   9  19  39  66  92 123 163 201 240 291 351
#     4   9  19  36  58  89 123 155 196 242 293 348
#
# _framework density 19.914529999999999
#
# number of rings (size 3 to 8) (size 9 to 14) (size 15 to 20)
#    0.000    1.500    1.250    5.250    1.750    3.750 
#    0.000    0.625    0.000    0.000    0.000    0.000 
#    0.000    0.000    0.000    0.000    0.000    0.000 
#
# Total GULP energy -396941.879207 kJ/mol
# GULP energy per Si atom -12404.433725 kJ/mol
# Density = 1.986920 g / cm^3
# Si number density = 19.914530 Si / 1000 Ang^3
#
#
#
# Elastic Constant Matrix: (Units=GPa)
#
#
# Indices 1 2 3 4 5 6 
#
# 1 107.4902 24.0229 39.6347 0.0000 13.7613 0.0000
# 2 24.0229 70.3156 25.1756 0.0000 9.5068 0.0000
# 3 39.6347 25.1756 102.9614 0.0000 22.0361 0.0000
# 4 0.0000 0.0000 0.0000 25.3201 0.0000 1.1048
# 5 13.7613 9.5068 22.0361 0.0000 26.5790 0.0000
# 6 0.0000 0.0000 0.0000 1.1048 0.0000 32.1402
#
#
#
# Elastic Compliance Matrix: (Units=1/GPa)
#
#
# Indices 1 2 3 4 5 6 
#
# 1 0.011344 -0.002387 -0.003293 0.000000 -0.002289 0.000000
# 2 -0.002387 0.016279 -0.002529 0.000000 -0.002490 0.000000
# 3 -0.003293 -0.002529 0.013421 0.000000 -0.008518 0.000000
# 4 0.000000 0.000000 0.000000 0.039554 0.000000 -0.001360
# 5 -0.002289 -0.002490 -0.008518 0.000000 0.046762 0.000000
# 6 0.000000 0.000000 0.000000 -0.001360 0.000000 0.031160
#
#
# Mechanical properties :
#
#
# Convention : Reuss Voigt Hill
#
# Bulk Modulus (GPa) = 40.60606 50.93705 45.77156
# Shear Modulus (GPa) = 27.30050 29.60349 28.45199
#
# Velocity S-wave (km/s) = 3.70656 3.85973 3.78392
# Velocity P-wave (km/s) = 6.22516 6.74513 6.49035
#
# Compressibility (1/GPa) = 0.02462686
#
# Stress axis : x y z
#
# Youngs Moduli (GPa) = 88.15208 61.42826 74.50788
#
# Poissons Ratio (x) = 0.14663 0.24537
# Poissons Ratio (y) = 0.21042 0.18840
# Poissons Ratio (z) = 0.29031 0.15533
#
# Static dielectric constant tensor:
#      x y z
#    x 3.671280 0.000000 0.292930 
#    y 0.000000 3.525690 0.000000 
#    z 0.292930 0.000000 3.684400 
# 
# 
# High freq. dielectric constant tensor:
#      x y z
#    x 1.777160 0.000000 0.018530 
#    y 0.000000 1.776770 0.000000 
#    z 0.018530 0.000000 1.769580 
# 
# From -- ./inp_files/378438.got.cif
#   From: 2010.06.25/outbox.cif.g09.slc.cpg/sg12_190_cif.got.tgz:378438.got - 2010.06.28 00:19:55.
