data_PCOD8114517
_publ_section_title
;
Structure prediction by ZEFSAII (Michael W. Deem and Ramdas Pophale) SiO2 
 PCOD8114517
Probable space group: C 2/M
;
_chemical_formula_sum "Si O2"
_cell_formula_units_Z 64
_cell_length_a 16.052283
_cell_length_b 17.060751
_cell_length_c 17.638335
_cell_angle_alpha 90.000000
_cell_angle_beta 139.351174
_cell_angle_gamma 90.000000
_cell_volume 3146.692480
_symmetry_space_group_name_H-M "C 2/M"
_symmetry_group_IT_number 12
_symmetry_cell_setting 'monoclinic'
loop_
_space_group_symop_operation_xyz
x,y,z
-x,y,-z
-x,-y,-z
x,-y,z
1/2+x,1/2+y,z
1/2-x,1/2+y,-z
1/2-x,1/2-y,-z
1/2+x,1/2-y,z
loop_
_atom_site_type_symbol
_atom_site_label
_atom_site_fract_x
_atom_site_fract_y
_atom_site_fract_z
Si Si1 0.470612 0.667563 0.609850
Si Si2 0.376373 0.193024 0.269211
Si Si3 0.079107 0.313744 0.176680
Si Si4 0.477845 0.914368 0.724718
Si Si5 0.734000 0.593397 0.802383
Si Si6 0.194817 0.723208 0.043176
Si Si7 0.184476 0.274698 0.605307
Si Si8 0.249596 0.588067 0.539599
O O1 0.519958 0.743443 0.690832
O O2 0.595944 0.617359 0.670574
O O3 0.385570 0.699449 0.480576
O O4 0.390357 0.614359 0.611884
O O5 0.420905 0.108653 0.271190
O O6 0.238950 0.216329 0.140062
O O7 0.387151 0.199575 0.367450
O O8 0.007184 0.359545 0.193483
O O9 0.154683 0.374795 0.175877
O O10 0.171232 0.248002 0.274491
O O11 0.958398 0.272174 0.053646
O O12 0.334117 0.912308 0.594153
O O13 0.516783 0.000000 0.778586
O O14 0.745088 0.500000 0.818888
O O15 0.753229 0.635962 0.897563
O O16 0.250000 0.750000 0.000000
O O17 0.186359 0.351045 0.553816
O O18 0.255650 0.500000 0.579006
#
# Coordination Sequence:
#
# PCOD8114517 Si02
#       8
#     8   8   8   8   8   8   8   8
#     4  11  21  41  62  94 129 170 210 250 322 388
#     4  11  23  41  63  92 122 164 217 260 322 380
#     4  12  23  41  66  94 124 169 216 261 318 382
#     4  11  23  38  60  93 130 165 209 264 321 379
#     4  11  26  43  66  99 134 168 208 268 326 380
#     4  11  24  43  66  89 123 165 220 261 309 381
#     4  12  23  38  69  92 129 172 213 266 313 389
#     4  11  24  38  60  95 134 174 212 259 319 383
#
# _framework density 20.338816000000001
#
# number of rings (size 3 to 8) (size 9 to 14) (size 15 to 20)
#    0.000    0.750    6.250    2.625    1.750    2.000 
#    0.000    1.875    0.000    0.750    0.000    1.750 
#    0.000    0.000    0.000    0.000    0.000    0.000 
#
# Total GULP energy -396659.304859 kJ/mol
# GULP energy per Si atom -12395.603277 kJ/mol
# Density = 2.029252 g / cm^3
# Si number density = 20.338816 Si / 1000 Ang^3
#
#
#
# Elastic Constant Matrix: (Units=GPa)
#
#
# Indices 1 2 3 4 5 6 
#
# 1 96.1424 45.2356 24.7605 -0.0001 -0.0430 0.0000
# 2 45.2356 91.2772 22.8518 -0.0001 1.1631 -0.0001
# 3 24.7605 22.8518 98.1823 -0.0004 12.4051 -0.0002
# 4 -0.0001 -0.0001 -0.0004 20.3058 -0.0003 -1.5707
# 5 -0.0430 1.1631 12.4051 -0.0003 38.7487 -0.0001
# 6 0.0000 -0.0001 -0.0002 -1.5707 -0.0001 28.1879
#
#
#
# Elastic Compliance Matrix: (Units=1/GPa)
#
#
# Indices 1 2 3 4 5 6 
#
# 1 0.013963 -0.006394 -0.002146 0.000000 0.000894 0.000000
# 2 -0.006394 0.014572 -0.001796 0.000000 0.000130 0.000000
# 3 -0.002146 -0.001796 0.011607 0.000000 -0.003664 0.000000
# 4 0.000000 0.000000 0.000000 0.049460 0.000000 0.002756
# 5 0.000894 0.000130 -0.003664 0.000000 0.026978 0.000000
# 6 0.000000 0.000000 0.000000 0.002756 0.000000 0.035630
#
#
# Mechanical properties :
#
#
# Convention : Reuss Voigt Hill
#
# Bulk Modulus (GPa) = 51.35839 52.36639 51.86239
# Shear Modulus (GPa) = 27.87518 30.29877 29.08697
#
# Velocity S-wave (km/s) = 3.70610 3.86385 3.78580
# Velocity P-wave (km/s) = 6.60453 6.76082 6.68313
#
# Compressibility (1/GPa) = 0.01947101
#
# Stress axis : x y z
#
# Youngs Moduli (GPa) = 71.61963 68.62380 86.15271
#
# Poissons Ratio (x) = 0.43877 0.18489
# Poissons Ratio (y) = 0.45792 0.15470
# Poissons Ratio (z) = 0.15370 0.12323
#
# Static dielectric constant tensor:
#      x y z
#    x 3.617100 0.000000 0.040570 
#    y 0.000000 3.699150 0.000000 
#    z 0.040570 0.000000 3.872190 
# 
# 
# High freq. dielectric constant tensor:
#      x y z
#    x 1.791530 0.000000 0.007250 
#    y 0.000000 1.778190 0.000000 
#    z 0.007250 0.000000 1.804770 
# 
# From -- ./inp_files/271753.got.cif
#   From: 2010.06.25/outbox.cif.g09.slc.cpg/sg12_136_cif.got.tgz:271753.got - 2010.06.28 00:19:55.
