data_PCOD8114519
_publ_section_title
;
Structure prediction by ZEFSAII (Michael W. Deem and Ramdas Pophale) SiO2 
 PCOD8114519
Probable space group: C 2/M
;
_chemical_formula_sum "Si O2"
_cell_formula_units_Z 48
_cell_length_a 19.989999
_cell_length_b 12.998789
_cell_length_c 25.024499
_cell_angle_alpha 90.000000
_cell_angle_beta 21.064570
_cell_angle_gamma 90.000000
_cell_volume 2337.131188
_symmetry_space_group_name_H-M "C 2/M"
_symmetry_group_IT_number 12
_symmetry_cell_setting 'monoclinic'
loop_
_space_group_symop_operation_xyz
x,y,z
-x,y,-z
-x,-y,-z
x,-y,z
1/2+x,1/2+y,z
1/2-x,1/2+y,-z
1/2-x,1/2-y,-z
1/2+x,1/2-y,z
loop_
_atom_site_type_symbol
_atom_site_label
_atom_site_fract_x
_atom_site_fract_y
_atom_site_fract_z
Si Si1 0.893199 0.379791 0.525140
Si Si2 0.124046 0.613069 0.828440
Si Si3 0.973217 0.223628 0.176537
Si Si4 0.347093 0.881485 0.874664
Si Si5 0.950492 0.289507 0.368231
Si Si6 0.216559 0.111805 0.179178
O O1 0.924708 0.500000 0.492233
O O2 0.671961 0.357823 0.691183
O O3 0.970384 0.320572 0.415348
O O4 0.000000 0.345238 0.500000
O O5 0.150035 0.500000 0.782057
O O6 0.157277 0.707591 0.764506
O O7 0.270623 0.624436 0.766721
O O8 0.915759 0.624260 0.004574
O O9 0.054374 0.305176 0.157641
O O10 0.134557 0.158804 0.026391
O O11 0.465770 0.880402 0.731152
O O12 0.344262 0.000000 0.897271
O O13 0.750000 0.250000 0.500000
O O14 0.080006 0.193903 0.256438
O O15 0.133181 0.000000 0.227420
#
# Coordination Sequence:
#
# PCOD8114519 Si02
#       6
#     8   8   8   8   8   8
#     4  11  25  44  65  91 127 168 208 256 316 378
#     4   9  17  34  62  90 118 150 193 255 308 359
#     4  11  21  41  63  89 123 160 207 253 309 371
#     4  11  24  40  62  91 122 160 210 260 305 364
#     4  12  23  43  61  89 127 170 207 256 311 369
#     4   9  19  35  59  91 118 151 200 247 306 368
#
# _framework density 20.538001000000001
#
# number of rings (size 3 to 8) (size 9 to 14) (size 15 to 20)
#    0.000    1.500    3.333    3.500    0.000    1.333 
#    0.000    0.000    0.000    7.500    0.000    0.000 
#    0.000    0.000    0.000    0.000    0.000    0.000 
#
# Total GULP energy -297443.059635 kJ/mol
# GULP energy per Si atom -12393.460818 kJ/mol
# Density = 2.049126 g / cm^3
# Si number density = 20.538001 Si / 1000 Ang^3
#
#
#
# Elastic Constant Matrix: (Units=GPa)
#
#
# Indices 1 2 3 4 5 6 
#
# 1 65.2007 27.6169 9.8593 -0.0186 10.6835 0.0010
# 2 27.6169 94.3830 25.0954 0.0485 -8.1216 -0.0010
# 3 9.8593 25.0954 75.6480 -0.0357 3.3902 0.0016
# 4 -0.0186 0.0485 -0.0357 21.6727 0.0107 -2.1732
# 5 10.6835 -8.1216 3.3902 0.0107 31.6389 -0.0061
# 6 0.0010 -0.0010 0.0016 -2.1732 -0.0061 31.6606
#
#
#
# Elastic Compliance Matrix: (Units=1/GPa)
#
#
# Indices 1 2 3 4 5 6 
#
# 1 0.019377 -0.006360 -0.000049 0.000035 -0.008170 0.000000
# 2 -0.006360 0.014086 -0.004122 -0.000047 0.006205 -0.000001
# 3 -0.000049 -0.004122 0.014710 0.000035 -0.002618 0.000001
# 4 0.000035 -0.000047 0.000035 0.046461 -0.000043 0.003189
# 5 -0.008170 0.006205 -0.002618 -0.000043 0.036239 0.000005
# 6 0.000000 -0.000001 0.000001 0.003189 0.000005 0.031804
#
#
# Mechanical properties :
#
#
# Convention : Reuss Voigt Hill
#
# Bulk Modulus (GPa) = 36.88555 40.04166 38.46361
# Shear Modulus (GPa) = 25.93666 28.50512 27.22089
#
# Velocity S-wave (km/s) = 3.55753 3.72952 3.64454
# Velocity P-wave (km/s) = 5.90537 6.17126 6.03978
#
# Compressibility (1/GPa) = 0.02711088
#
# Stress axis : x y z
#
# Youngs Moduli (GPa) = 51.60677 70.99225 67.97928
#
# Poissons Ratio (x) = 0.45150 0.00336
# Poissons Ratio (y) = 0.32821 0.28022
# Poissons Ratio (z) = 0.00255 0.29264
#
# Static dielectric constant tensor:
#      x y z
#    x 3.902200 -0.002220 -0.027610 
#    y -0.002220 8.512460 0.004200 
#    z -0.027610 0.004200 3.734580 
# 
# 
# High freq. dielectric constant tensor:
#      x y z
#    x 1.799600 0.000000 -0.000500 
#    y 0.000000 1.812980 0.000020 
#    z -0.000500 0.000020 1.794100 
# 
# From -- ./inp_files/94988.got.cif
#   From: 2010.06.25/outbox.cif.g09.slc.cpg/sg12_48_cif.got.tgz:94988.got - 2010.06.28 00:19:55.
