data_PCOD8114661
_publ_section_title
;
Structure prediction by ZEFSAII (Michael W. Deem and Ramdas Pophale) SiO2 
 PCOD8114661
Probable space group: C 2/M
;
_chemical_formula_sum "Si O2"
_cell_formula_units_Z 48
_cell_length_a 20.262256
_cell_length_b 8.914254
_cell_length_c 27.077626
_cell_angle_alpha 90.000000
_cell_angle_beta 32.255418
_cell_angle_gamma 90.000000
_cell_volume 2610.213941
_symmetry_space_group_name_H-M "C 2/M"
_symmetry_group_IT_number 12
_symmetry_cell_setting 'monoclinic'
loop_
_space_group_symop_operation_xyz
x,y,z
-x,y,-z
-x,-y,-z
x,-y,z
1/2+x,1/2+y,z
1/2-x,1/2+y,-z
1/2-x,1/2-y,-z
1/2+x,1/2-y,z
loop_
_atom_site_type_symbol
_atom_site_label
_atom_site_fract_x
_atom_site_fract_y
_atom_site_fract_z
Si Si1 0.092452 0.173450 0.239489
Si Si2 0.880144 0.677602 0.430373
Si Si3 0.015832 0.825126 0.434078
Si Si4 0.261141 0.170861 0.223773
Si Si5 0.005457 0.172409 0.054368
Si Si6 0.236787 0.324625 0.955975
O O1 0.204199 0.205857 0.206288
O O2 0.142665 0.215031 0.153407
O O3 0.975640 0.276012 0.326754
O O4 0.051231 0.000000 0.269794
O O5 0.867237 0.500000 0.439707
O O6 0.750000 0.750000 0.500000
O O7 0.925754 0.733743 0.455003
O O8 0.158434 0.796400 0.330199
O O9 0.000000 0.768348 0.500000
O O10 0.981569 0.000000 0.450033
O O11 0.376040 0.279772 0.161022
O O12 0.307960 0.000000 0.196871
O O13 0.031060 0.000000 0.050753
O O14 0.000000 0.203890 0.000000
O O15 0.113263 0.271070 0.008209
O O16 0.226462 0.500000 0.970067
O O17 0.250000 0.250000 0.000000
#
# Coordination Sequence:
#
# PCOD8114661 Si02
#       6
#     8   8   8   8   8   8
#     4   9  19  37  60  83 111 148 189 234 283 337
#     4  11  22  37  60  86 114 149 191 235 280 337
#     4   9  19  38  61  85 116 149 184 231 287 340
#     4   9  17  33  58  85 110 145 189 231 279 332
#     4  11  22  35  56  85 115 148 190 234 274 330
#     4  11  23  40  60  83 116 152 188 233 287 339
#
# _framework density 18.389296999999999
#
# number of rings (size 3 to 8) (size 9 to 14) (size 15 to 20)
#    0.000    2.000    1.667    3.500    0.000    5.000 
#    3.000    0.000    0.000    0.000    0.000    0.000 
#    0.000    0.000    0.000    0.000    0.000    0.000 
#
# Total GULP energy -297650.920309 kJ/mol
# GULP energy per Si atom -12402.121680 kJ/mol
# Density = 1.834744 g / cm^3
# Si number density = 18.389297 Si / 1000 Ang^3
#
#
#
# Elastic Constant Matrix: (Units=GPa)
#
#
# Indices 1 2 3 4 5 6 
#
# 1 89.6023 67.6951 75.2422 0.0038 8.1137 -0.0024
# 2 67.6951 107.2821 76.5301 0.0014 1.6597 0.0063
# 3 75.2422 76.5301 129.0589 0.0043 4.6179 -0.0040
# 4 0.0038 0.0014 0.0043 31.7895 -0.0005 -3.0415
# 5 8.1137 1.6597 4.6179 -0.0005 34.9498 0.0025
# 6 -0.0024 0.0063 -0.0040 -3.0415 0.0025 33.4388
#
#
#
# Elastic Compliance Matrix: (Units=1/GPa)
#
#
# Indices 1 2 3 4 5 6 
#
# 1 0.027658 -0.010392 -0.009797 -0.000001 -0.004633 0.000003
# 2 -0.010392 0.020068 -0.005922 0.000001 0.002242 -0.000005
# 3 -0.009797 -0.005922 0.016960 -0.000001 0.000315 0.000002
# 4 -0.000001 0.000001 -0.000001 0.031733 0.000001 0.002886
# 5 -0.004633 0.002242 0.000315 0.000001 0.029540 -0.000003
# 6 0.000003 -0.000005 0.000002 0.002886 -0.000003 0.030168
#
#
# Mechanical properties :
#
#
# Convention : Reuss Voigt Hill
#
# Bulk Modulus (GPa) = 80.22206 84.98646 82.60426
# Shear Modulus (GPa) = 23.52912 27.13400 25.33156
#
# Velocity S-wave (km/s) = 3.58089 3.84543 3.71552
# Velocity P-wave (km/s) = 7.79847 8.12601 7.96392
#
# Compressibility (1/GPa) = 0.01246540
#
# Stress axis : x y z
#
# Youngs Moduli (GPa) = 36.15645 49.83011 58.96172
#
# Poissons Ratio (x) = 0.51783 0.57762
# Poissons Ratio (y) = 0.37573 0.34916
# Poissons Ratio (z) = 0.35421 0.29508
#
# Static dielectric constant tensor:
#      x y z
#    x 3.198260 0.000010 0.125880 
#    y 0.000010 3.378800 0.000010 
#    z 0.125880 0.000010 3.617090 
# 
# 
# High freq. dielectric constant tensor:
#      x y z
#    x 1.698330 0.000000 0.000810 
#    y 0.000000 1.715490 0.000000 
#    z 0.000810 0.000000 1.723570 
# 
# From -- ./inp_files/365363.got.cif
#   From: 2010.06.25/outbox.cif.g09.slc.cpg/sg12_183_cif.got.tgz:365363.got - 2010.06.28 00:19:55.
