data_PCOD8114767
_publ_section_title
;
Structure prediction by ZEFSAII (Michael W. Deem and Ramdas Pophale) SiO2 
 PCOD8114767
Probable space group: C 2/M
;
_chemical_formula_sum "Si O2"
_cell_formula_units_Z 56
_cell_length_a 9.672999
_cell_length_b 32.908124
_cell_length_c 9.693278
_cell_angle_alpha 90.000000
_cell_angle_beta 60.320838
_cell_angle_gamma 90.000000
_cell_volume 2680.776283
_symmetry_space_group_name_H-M "C 2/M"
_symmetry_group_IT_number 12
_symmetry_cell_setting 'monoclinic'
loop_
_space_group_symop_operation_xyz
x,y,z
-x,y,-z
-x,-y,-z
x,-y,z
1/2+x,1/2+y,z
1/2-x,1/2+y,-z
1/2-x,1/2-y,-z
1/2+x,1/2-y,z
loop_
_atom_site_type_symbol
_atom_site_label
_atom_site_fract_x
_atom_site_fract_y
_atom_site_fract_z
Si Si1 0.251128 0.500000 0.687829
Si Si2 0.565844 0.926283 0.685616
Si Si3 0.247272 0.427256 0.308077
Si Si4 0.148965 0.801842 0.159472
Si Si5 0.379095 0.209138 0.793552
Si Si6 0.183960 0.339313 0.676456
Si Si7 0.181184 0.161593 0.687819
Si Si8 0.436243 0.500000 0.308853
O O1 0.139447 0.460104 0.751457
O O2 0.345855 0.500000 0.498300
O O3 0.374275 0.500000 0.755461
O O4 0.652572 0.928048 0.497102
O O5 0.378097 0.935100 0.754399
O O6 0.590360 0.881825 0.739319
O O7 0.329795 0.383804 0.246740
O O8 0.386094 0.460938 0.242780
O O9 0.136489 0.756791 0.228298
O O10 0.201191 0.833553 0.250462
O O11 0.977347 0.815110 0.189108
O O12 0.270719 0.804215 0.974314
O O13 0.560650 0.198055 0.737598
O O14 0.330708 0.184768 0.680546
O O15 0.295333 0.338808 0.487599
#
# Coordination Sequence:
#
# PCOD8114767 Si02
#       8
#     4   8   8   8   8   8   8   4
#     4   9  17  27  47  79 116 151 182 228 289 342
#     4   9  17  31  50  77 114 152 188 230 284 345
#     4   9  17  31  50  77 114 152 188 230 284 345
#     4  11  25  39  59  84 117 154 196 247 295 345
#     4  11  23  43  59  80 115 160 200 235 291 363
#     4  11  22  37  60  89 118 150 195 247 294 342
#     4  11  22  37  60  89 118 150 195 247 294 342
#     4   9  17  27  47  79 116 151 182 228 289 342
#
# _framework density 20.889474
#
# number of rings (size 3 to 8) (size 9 to 14) (size 15 to 20)
#    0.000    1.857    1.429    3.000    2.000    7.429 
#    0.000    0.000    0.000    0.000    0.000    6.000 
#    0.000    0.000    0.000    0.000    0.000    0.000 
#
# Total GULP energy -347298.684913 kJ/mol
# GULP energy per Si atom -12403.524461 kJ/mol
# Density = 2.084193 g / cm^3
# Si number density = 20.889474 Si / 1000 Ang^3
#
#
#
# Elastic Constant Matrix: (Units=GPa)
#
#
# Indices 1 2 3 4 5 6 
#
# 1 118.3025 60.8614 18.5535 0.0000 -3.3031 0.0000
# 2 60.8614 136.7380 21.5207 0.0000 1.8555 0.0000
# 3 18.5535 21.5207 22.3770 0.0000 -5.4714 0.0000
# 4 0.0000 0.0000 0.0000 7.0658 0.0000 -4.6465
# 5 -3.3031 1.8555 -5.4714 0.0000 21.7873 0.0000
# 6 0.0000 0.0000 0.0000 -4.6465 0.0000 41.8002
#
#
#
# Elastic Compliance Matrix: (Units=1/GPa)
#
#
# Indices 1 2 3 4 5 6 
#
# 1 0.011511 -0.004317 -0.005195 0.000000 0.000808 0.000000
# 2 -0.004317 0.010425 -0.007270 0.000000 -0.003368 0.000000
# 3 -0.005195 -0.007270 0.059606 0.000000 0.014800 0.000000
# 4 0.000000 0.000000 0.000000 0.152688 0.000000 0.016973
# 5 0.000808 -0.003368 0.014800 0.000000 0.050025 0.000000
# 6 0.000000 0.000000 0.000000 0.016973 0.000000 0.025810
#
#
# Mechanical properties :
#
#
# Convention : Reuss Voigt Hill
#
# Bulk Modulus (GPa) = 20.84254 53.25431 37.04842
# Shear Modulus (GPa) = 13.90355 25.89612 19.89984
#
# Velocity S-wave (km/s) = 2.58268 3.52472 3.08981
# Velocity P-wave (km/s) = 4.34659 6.48950 5.52297
#
# Compressibility (1/GPa) = 0.04797880
#
# Stress axis : x y z
#
# Youngs Moduli (GPa) = 86.87316 95.92747 16.77671
#
# Poissons Ratio (x) = 0.41411 0.08715
# Poissons Ratio (y) = 0.37502 0.12196
# Poissons Ratio (z) = 0.45130 0.69738
#
# Static dielectric constant tensor:
#      x y z
#    x 3.888890 0.000000 -0.043540 
#    y 0.000000 3.938400 0.000000 
#    z -0.043540 0.000000 3.210130 
# 
# 
# High freq. dielectric constant tensor:
#      x y z
#    x 1.831530 0.000000 -0.004920 
#    y 0.000000 1.827580 0.000000 
#    z -0.004920 0.000000 1.771370 
# 
# From -- ./inp_files/125684.got.cif
#   From: 2010.06.25/outbox.cif.g09.slc.cpg/sg12_63_cif.got.tgz:125684.got - 2010.06.28 00:19:55.
