data_PCOD8114639
_publ_section_title
;
Structure prediction by ZEFSAII (Michael W. Deem and Ramdas Pophale) SiO2 
 PCOD8114639
Probable space group: C 2/M
;
_chemical_formula_sum "Si O2"
_cell_formula_units_Z 64
_cell_length_a 27.458332
_cell_length_b 28.455370
_cell_length_c 6.893245
_cell_angle_alpha 90.000000
_cell_angle_beta 138.863304
_cell_angle_gamma 90.000000
_cell_volume 3543.187163
_symmetry_space_group_name_H-M "C 2/M"
_symmetry_group_IT_number 12
_symmetry_cell_setting 'monoclinic'
loop_
_space_group_symop_operation_xyz
x,y,z
-x,y,-z
-x,-y,-z
x,-y,z
1/2+x,1/2+y,z
1/2-x,1/2+y,-z
1/2-x,1/2-y,-z
1/2+x,1/2-y,z
loop_
_atom_site_type_symbol
_atom_site_label
_atom_site_fract_x
_atom_site_fract_y
_atom_site_fract_z
Si Si1 0.663990 0.553546 0.242334
Si Si2 0.665505 0.874034 0.576413
Si Si3 0.087085 0.876206 0.281536
Si Si4 0.164370 0.303479 0.238196
Si Si5 0.834483 0.125967 0.083375
Si Si6 0.912917 0.376204 0.259062
Si Si7 0.164369 0.803479 0.247993
Si Si8 0.663985 0.946454 0.241566
O O1 0.638166 0.500000 0.139035
O O2 0.619580 0.576437 0.285936
O O3 0.750002 0.557472 0.554335
O O4 0.647627 0.580532 0.993621
O O5 0.652173 0.826880 0.411590
O O6 0.608297 0.874217 0.579726
O O7 0.647618 0.919469 0.392086
O O8 0.749992 0.875811 0.906536
O O9 0.108314 0.874217 0.570065
O O10 0.117775 0.829790 0.271166
O O11 0.000000 0.877213 0.000000
O O12 0.136697 0.250000 0.160074
O O13 0.250002 0.306866 0.433494
O O14 0.117786 0.329789 0.935465
O O15 0.847818 0.173122 0.998564
O O16 0.000000 0.377206 0.500000
O O17 0.880420 0.423562 0.068492
O O18 0.638159 0.000000 0.189900
#
# Coordination Sequence:
#
# PCOD8114639 Si02
#       8
#     8   8   8   8   8   8   8   8
#     4   9  19  36  57  80 106 140 186 232 266 312
#     4   9  18  35  58  78 102 139 183 228 272 318
#     4  11  22  35  51  81 115 147 174 218 277 337
#     4   9  19  37  57  78 103 137 186 235 272 317
#     4   9  18  35  58  78 102 139 183 228 272 318
#     4  11  22  35  51  81 115 147 174 218 277 337
#     4   9  19  37  57  78 103 137 186 235 272 317
#     4   9  19  36  57  80 106 140 186 232 266 312
#
# _framework density 18.062833000000001
#
# number of rings (size 3 to 8) (size 9 to 14) (size 15 to 20)
#    0.000    2.500    0.000    3.750    0.000    6.500 
#    4.500    7.500    0.000    0.000    0.000    0.000 
#    0.000    0.000    0.000    0.000    0.000    0.000 
#
# Total GULP energy -396894.224125 kJ/mol
# GULP energy per Si atom -12402.944504 kJ/mol
# Density = 1.802172 g / cm^3
# Si number density = 18.062833 Si / 1000 Ang^3
#
#
#
# Elastic Constant Matrix: (Units=GPa)
#
#
# Indices 1 2 3 4 5 6 
#
# 1 98.3960 61.8636 72.2919 0.0000 -6.4893 0.0000
# 2 61.8636 175.6675 61.7287 0.0000 -4.1784 0.0000
# 3 72.2919 61.7287 97.9829 0.0000 -6.2655 0.0000
# 4 0.0000 0.0000 0.0000 15.4863 0.0000 0.6917
# 5 -6.4893 -4.1784 -6.2655 0.0000 21.8875 0.0000
# 6 0.0000 0.0000 0.0000 0.6917 0.0000 15.4697
#
#
#
# Elastic Compliance Matrix: (Units=1/GPa)
#
#
# Indices 1 2 3 4 5 6 
#
# 1 0.023281 -0.002774 -0.015301 0.000000 0.001993 0.000000
# 2 -0.002774 0.007642 -0.002778 0.000000 -0.000159 0.000000
# 3 -0.015301 -0.002778 0.023348 0.000000 0.001617 0.000000
# 4 0.000000 0.000000 0.000000 0.064702 0.000000 -0.002893
# 5 0.001993 -0.000159 0.001617 0.000000 0.046711 0.000000
# 6 0.000000 0.000000 0.000000 -0.002893 0.000000 0.064772
#
#
# Mechanical properties :
#
#
# Convention : Reuss Voigt Hill
#
# Bulk Modulus (GPa) = 79.58909 84.86834 82.22872
# Shear Modulus (GPa) = 18.09294 22.31285 20.20289
#
# Velocity S-wave (km/s) = 3.16835 3.51848 3.34799
# Velocity P-wave (km/s) = 7.58568 7.97454 7.78254
#
# Compressibility (1/GPa) = 0.01256454
#
# Stress axis : x y z
#
# Youngs Moduli (GPa) = 42.95427 130.85849 42.82968
#
# Poissons Ratio (x) = 0.36305 0.65534
# Poissons Ratio (y) = 0.11917 0.11896
# Poissons Ratio (z) = 0.65725 0.36346
#
# Static dielectric constant tensor:
#      x y z
#    x 3.199020 0.000000 0.000210 
#    y 0.000000 3.629770 0.000000 
#    z 0.000210 0.000000 3.199040 
# 
# 
# High freq. dielectric constant tensor:
#      x y z
#    x 1.692570 0.000000 -0.005120 
#    y 0.000000 1.707030 0.000000 
#    z -0.005120 0.000000 1.692430 
# 
# From -- ./inp_files/29884.got.cif
#   From: 2010.06.25/outbox.cif.g09.slc.cpg/sg12_15_cif.got.tgz:29884.got - 2010.06.28 00:19:55.
