data_PCOD8114127
_publ_section_title
;
Structure prediction by ZEFSAII (Michael W. Deem and Ramdas Pophale) SiO2 
 PCOD8114127
Probable space group: C 2/M
;
_chemical_formula_sum "Si O2"
_cell_formula_units_Z 64
_cell_length_a 18.790276
_cell_length_b 9.017632
_cell_length_c 22.991086
_cell_angle_alpha 90.000000
_cell_angle_beta 66.935772
_cell_angle_gamma 90.000000
_cell_volume 3584.299262
_symmetry_space_group_name_H-M "C 2/M"
_symmetry_group_IT_number 12
_symmetry_cell_setting 'monoclinic'
loop_
_space_group_symop_operation_xyz
x,y,z
-x,y,-z
-x,-y,-z
x,-y,z
1/2+x,1/2+y,z
1/2-x,1/2+y,-z
1/2-x,1/2-y,-z
1/2+x,1/2-y,z
loop_
_atom_site_type_symbol
_atom_site_label
_atom_site_fract_x
_atom_site_fract_y
_atom_site_fract_z
Si Si1 0.196636 0.331295 0.637096
Si Si2 0.135085 0.172106 0.460019
Si Si3 0.273173 0.670238 0.731074
Si Si4 0.685286 0.826467 0.058919
Si Si5 0.073324 0.826193 0.605077
Si Si6 0.583239 0.173363 0.989139
Si Si7 0.232676 0.326170 0.873079
Si Si8 0.581610 0.175168 0.365096
O O1 0.170881 0.500000 0.632698
O O2 0.274615 0.293621 0.576936
O O3 0.209244 0.305122 0.701687
O O4 0.131087 0.218421 0.638008
O O5 0.110845 0.222255 0.531850
O O6 0.085365 0.263911 0.429596
O O7 0.117130 0.000000 0.454047
O O8 0.302180 0.500000 0.720561
O O9 0.233871 0.711974 0.804625
O O10 0.346105 0.774709 0.696767
O O11 0.692619 0.752887 0.120456
O O12 0.701608 0.000000 0.058873
O O13 0.750000 0.750000 0.000000
O O14 0.603940 0.797555 0.050935
O O15 0.994499 0.738607 0.641121
O O16 0.057176 0.000000 0.612883
O O17 0.651829 0.236155 0.925559
O O18 0.577667 0.000000 0.978051
O O19 0.500000 0.247565 0.000000
O O20 0.240733 0.500000 0.882744
O O21 0.578222 0.000000 0.367960
#
# Coordination Sequence:
#
# PCOD8114127 Si02
#       8
#     8   8   8   8   8   8   8   8
#     4   9  18  33  51  72  99 129 165 209 250 294
#     4   9  19  35  53  73  99 131 164 200 250 310
#     4   9  19  37  55  70  95 133 173 209 250 302
#     4   9  16  27  46  72 100 129 163 202 238 277
#     4  11  21  33  51  74 101 132 163 201 255 310
#     4   8  14  26  46  74 104 130 158 193 234 280
#     4   9  17  31  53  74  95 131 169 199 239 292
#     4  11  22  34  51  74  98 126 165 213 257 298
#
# _framework density 17.855651999999999
#
# number of rings (size 3 to 8) (size 9 to 14) (size 15 to 20)
#    0.000    2.625    0.000    4.125    0.000    5.000 
#    0.000    1.250    0.000   12.375    0.000    0.000 
#    0.000    0.000    0.000    0.000    0.000    0.000 
#
# Total GULP energy -396710.906174 kJ/mol
# GULP energy per Si atom -12397.215818 kJ/mol
# Density = 1.781501 g / cm^3
# Si number density = 17.855652 Si / 1000 Ang^3
#
#
#
# Elastic Constant Matrix: (Units=GPa)
#
#
# Indices 1 2 3 4 5 6 
#
# 1 122.5745 48.4797 47.5272 0.0000 15.0643 0.0000
# 2 48.4797 75.7354 30.9695 -0.0001 7.5366 0.0000
# 3 47.5272 30.9695 98.7850 0.0000 13.0854 0.0000
# 4 0.0000 -0.0001 0.0000 21.6842 0.0000 6.7783
# 5 15.0643 7.5366 13.0854 0.0000 15.5194 0.0000
# 6 0.0000 0.0000 0.0000 6.7783 0.0000 29.1005
#
#
#
# Elastic Compliance Matrix: (Units=1/GPa)
#
#
# Indices 1 2 3 4 5 6 
#
# 1 0.012657 -0.006097 -0.003313 0.000000 -0.006532 0.000000
# 2 -0.006097 0.018282 -0.002708 0.000000 -0.000676 0.000000
# 3 -0.003313 -0.002708 0.013470 0.000000 -0.006827 0.000000
# 4 0.000000 0.000000 0.000000 0.049738 0.000000 -0.011585
# 5 -0.006532 -0.000676 -0.006827 0.000000 0.076860 0.000000
# 6 0.000000 0.000000 0.000000 -0.011585 0.000000 0.037062
#
#
# Mechanical properties :
#
#
# Convention : Reuss Voigt Hill
#
# Bulk Modulus (GPa) = 49.57364 61.22753 55.40059
# Shear Modulus (GPa) = 20.91784 24.60204 22.75994
#
# Velocity S-wave (km/s) = 3.42643 3.71594 3.57412
# Velocity P-wave (km/s) = 6.59376 7.26469 6.93734
#
# Compressibility (1/GPa) = 0.02017201
#
# Stress axis : x y z
#
# Youngs Moduli (GPa) = 79.00661 54.69961 74.23796
#
# Poissons Ratio (x) = 0.33353 0.24593
# Poissons Ratio (y) = 0.48174 0.20106
# Poissons Ratio (z) = 0.26173 0.14814
#
# Static dielectric constant tensor:
#      x y z
#    x 3.490610 0.000000 0.179720 
#    y 0.000000 3.241950 0.000000 
#    z 0.179720 0.000000 3.256170 
# 
# 
# High freq. dielectric constant tensor:
#      x y z
#    x 1.688630 0.000000 0.015800 
#    y 0.000000 1.679240 0.000000 
#    z 0.015800 0.000000 1.675170 
# 
# From -- ./inp_files/341964.got.cif
#   From: 2010.06.25/outbox.cif.g09.slc.cpg/sg12_171_cif.got.tgz:341964.got - 2010.06.28 00:19:55.
