data_PCOD8114035
_publ_section_title
;
Structure prediction by ZEFSAII (Michael W. Deem and Ramdas Pophale) SiO2 
 PCOD8114035
Probable space group: C 2/M
;
_chemical_formula_sum "Si O2"
_cell_formula_units_Z 32
_cell_length_a 21.078754
_cell_length_b 12.707147
_cell_length_c 9.405015
_cell_angle_alpha 90.000000
_cell_angle_beta 35.428564
_cell_angle_gamma 90.000000
_cell_volume 1460.314494
_symmetry_space_group_name_H-M "C 2/M"
_symmetry_group_IT_number 12
_symmetry_cell_setting 'monoclinic'
loop_
_space_group_symop_operation_xyz
x,y,z
-x,y,-z
-x,-y,-z
x,-y,z
1/2+x,1/2+y,z
1/2-x,1/2+y,-z
1/2-x,1/2-y,-z
1/2+x,1/2-y,z
loop_
_atom_site_type_symbol
_atom_site_label
_atom_site_fract_x
_atom_site_fract_y
_atom_site_fract_z
Si Si1 0.500000 0.821976 0.000000
Si Si2 0.387976 0.000000 0.068943
Si Si3 0.500000 0.181295 0.500000
Si Si4 0.482988 0.672971 0.783254
Si Si5 0.903272 0.500000 0.515628
Si Si6 0.852246 0.000000 0.494880
Si Si7 0.329904 0.500000 0.194321
O O1 0.396353 0.896295 0.152392
O O2 0.533216 0.751633 0.806993
O O3 0.483691 0.000000 0.778747
O O4 0.268461 0.000000 0.216984
O O5 0.555192 0.257294 0.281128
O O6 0.404846 0.105825 0.609023
O O7 0.585312 0.600219 0.555416
O O8 0.383170 0.604347 0.027977
O O9 0.798657 0.500000 0.604507
O O10 0.852026 0.000000 0.322705
#
# Coordination Sequence:
#
# PCOD8114035 Si02
#       7
#     4   4   4   8   4   4   4
#     4  11  20  41  66  94 134 167 224 267 318 388
#     4  11  24  40  64 100 131 168 221 269 324 381
#     4  11  26  47  64  94 140 179 218 261 332 398
#     4  11  23  45  67 100 132 174 219 269 332 390
#     4  11  25  47  63  96 138 176 218 272 322 393
#     4  11  24  41  70 104 132 164 219 285 325 380
#     4  11  23  43  73  98 132 166 223 283 322 380
#
# _framework density 21.913088999999999
#
# number of rings (size 3 to 8) (size 9 to 14) (size 15 to 20)
#    0.000    1.000    5.000    2.250    0.000    6.000 
#    9.000    0.000    0.000    0.000    0.000    0.000 
#    0.000    0.000    0.000    0.000    0.000    0.000 
#
# Total GULP energy -198352.155831 kJ/mol
# GULP energy per Si atom -12397.009739 kJ/mol
# Density = 2.186321 g / cm^3
# Si number density = 21.913089 Si / 1000 Ang^3
#
#
#
# Elastic Constant Matrix: (Units=GPa)
#
#
# Indices 1 2 3 4 5 6 
#
# 1 89.0094 49.1128 36.1672 0.0000 7.3172 0.0000
# 2 49.1128 155.2209 41.7708 0.0000 5.4081 0.0000
# 3 36.1672 41.7708 113.0493 0.0000 -17.1079 0.0000
# 4 0.0000 0.0000 0.0000 -7.2631 0.0000 6.8899
# 5 7.3172 5.4081 -17.1079 0.0000 41.2386 0.0000
# 6 0.0000 0.0000 0.0000 6.8899 0.0000 20.6253
#
#
#
# Elastic Compliance Matrix: (Units=1/GPa)
#
#
# Indices 1 2 3 4 5 6 
#
# 1 0.015209 -0.003558 -0.004149 0.000000 -0.003953 0.000000
# 2 -0.003558 0.008173 -0.002079 0.000000 -0.001303 0.000000
# 3 -0.004149 -0.002079 0.011837 0.000000 0.005919 0.000000
# 4 0.000000 0.000000 0.000000 -0.104551 0.000000 0.034926
# 5 -0.003953 -0.001303 0.005919 0.000000 0.027577 0.000000
# 6 0.000000 0.000000 0.000000 0.034926 0.000000 0.036817
#
#
# Mechanical properties :
#
#
# Convention : Reuss Voigt Hill
#
# Bulk Modulus (GPa) = 63.91015 67.93124 65.92069
# Shear Modulus (GPa) = 251.89034 26.26874 139.07954
#
# Velocity S-wave (km/s) = 10.73309 3.46608 7.97537
# Velocity P-wave (km/s) = 13.52138 6.86192 10.72179
#
# Compressibility (1/GPa) = 0.01564697
#
# Stress axis : x y z
#
# Youngs Moduli (GPa) = 65.75101 122.35484 84.48027
#
# Poissons Ratio (x) = 0.43532 0.35054
# Poissons Ratio (y) = 0.23393 0.17562
# Poissons Ratio (z) = 0.27283 0.25435
#
# Static dielectric constant tensor:
#      x y z
#    x 4.115200 0.000000 0.135710 
#    y 0.000000 4.520710 0.000000 
#    z 0.135710 0.000000 3.574360 
# 
# 
# High freq. dielectric constant tensor:
#      x y z
#    x 1.861900 0.000000 0.010290 
#    y 0.000000 1.890400 0.000000 
#    z 0.010290 0.000000 1.827210 
# 
# From -- ./inp_files/127376.got.cif
#   From: 2010.06.25/outbox.cif.g09.slc.cpg/sg12_64_cif.got.tgz:127376.got - 2010.06.28 00:19:55.
