data_PCOD8114377
_publ_section_title
;
Structure prediction by ZEFSAII (Michael W. Deem and Ramdas Pophale) SiO2 
 PCOD8114377
Probable space group: C 2/M
;
_chemical_formula_sum "Si O2"
_cell_formula_units_Z 48
_cell_length_a 28.851199
_cell_length_b 15.057095
_cell_length_c 14.389125
_cell_angle_alpha 90.000000
_cell_angle_beta 159.021405
_cell_angle_gamma 90.000000
_cell_volume 2237.925886
_symmetry_space_group_name_H-M "C 2/M"
_symmetry_group_IT_number 12
_symmetry_cell_setting 'monoclinic'
loop_
_space_group_symop_operation_xyz
x,y,z
-x,y,-z
-x,-y,-z
x,-y,z
1/2+x,1/2+y,z
1/2-x,1/2+y,-z
1/2-x,1/2-y,-z
1/2+x,1/2-y,z
loop_
_atom_site_type_symbol
_atom_site_label
_atom_site_fract_x
_atom_site_fract_y
_atom_site_fract_z
Si Si1 0.552410 0.648555 0.968816
Si Si2 0.015519 0.897735 0.359314
Si Si3 0.086097 0.655467 0.078947
Si Si4 0.818066 0.400729 0.932685
Si Si5 0.197583 0.097500 0.403832
Si Si6 0.393679 0.763634 0.229415
O O1 0.562697 0.621309 0.881551
O O2 0.441874 0.591392 0.809783
O O3 0.523712 0.752487 0.929194
O O4 0.685935 0.625017 0.273197
O O5 0.948766 0.833836 0.308710
O O6 0.167716 0.874504 0.634633
O O7 0.995334 0.000000 0.351868
O O8 0.106913 0.597128 0.025443
O O9 0.222805 0.668994 0.387038
O O10 0.000000 0.610241 0.000000
O O11 0.827419 0.500000 0.992790
O O12 0.886205 0.330304 0.128224
O O13 0.262367 0.000000 0.532318
O O14 0.500000 0.804782 0.500000
O O15 0.250000 0.750000 0.000000
#
# Coordination Sequence:
#
# PCOD8114377 Si02
#       6
#     8   8   8   8   8   8
#     4  11  21  37  64  92 125 177 230 279 330 394
#     4  11  23  44  74 102 134 180 234 287 351 430
#     4  12  24  39  65  95 139 188 236 282 344 406
#     4  11  25  46  72 100 141 190 236 288 354 426
#     4  11  22  37  58  90 128 173 230 280 331 394
#     4  12  26  48  78 108 139 177 230 299 366 428
#
# _framework density 21.448430999999999
#
# number of rings (size 3 to 8) (size 9 to 14) (size 15 to 20)
#    0.000    0.667    6.667    3.000    0.000    2.667 
#    3.000    0.000    0.000    0.000    0.000    0.000 
#    0.000    0.000    0.000    0.000    0.000    0.000 
#
# Total GULP energy -297424.355697 kJ/mol
# GULP energy per Si atom -12392.681487 kJ/mol
# Density = 2.139961 g / cm^3
# Si number density = 21.448431 Si / 1000 Ang^3
#
#
#
# Elastic Constant Matrix: (Units=GPa)
#
#
# Indices 1 2 3 4 5 6 
#
# 1 119.6826 40.7324 52.8449 0.0000 -3.1053 0.0000
# 2 40.7324 110.1886 45.1688 0.0000 -0.2034 0.0000
# 3 52.8449 45.1688 101.4672 0.0000 -17.7032 0.0000
# 4 0.0000 0.0000 0.0000 37.3572 0.0000 13.0653
# 5 -3.1053 -0.2034 -17.7032 0.0000 41.7962 0.0000
# 6 0.0000 0.0000 0.0000 13.0653 0.0000 34.0853
#
#
#
# Elastic Compliance Matrix: (Units=1/GPa)
#
#
# Indices 1 2 3 4 5 6 
#
# 1 0.011324 -0.002045 -0.005229 0.000000 -0.001383 0.000000
# 2 -0.002045 0.011661 -0.004473 0.000000 -0.001990 0.000000
# 3 -0.005229 -0.004473 0.015655 0.000000 0.006221 0.000000
# 4 0.000000 0.000000 0.000000 0.030913 0.000000 -0.011849
# 5 -0.001383 -0.001990 0.006221 0.000000 0.026448 0.000000
# 6 0.000000 0.000000 0.000000 -0.011849 0.000000 0.033880
#
#
# Mechanical properties :
#
#
# Convention : Reuss Voigt Hill
#
# Bulk Modulus (GPa) = 66.02127 67.64784 66.83456
# Shear Modulus (GPa) = 31.56075 35.48722 33.52398
#
# Velocity S-wave (km/s) = 3.84014 4.07201 3.95777
# Velocity P-wave (km/s) = 7.10707 7.32916 7.21897
#
# Compressibility (1/GPa) = 0.01514663
#
# Stress axis : x y z
#
# Youngs Moduli (GPa) = 88.30557 85.75311 63.87719
#
# Poissons Ratio (x) = 0.17540 0.33399
# Poissons Ratio (y) = 0.18062 0.28573
# Poissons Ratio (z) = 0.46171 0.38358
#
# Static dielectric constant tensor:
#      x y z
#    x 3.865790 0.000000 -0.302630 
#    y 0.000000 3.767560 0.000000 
#    z -0.302630 0.000000 4.244620 
# 
# 
# High freq. dielectric constant tensor:
#      x y z
#    x 1.832160 0.000000 -0.018180 
#    y 0.000000 1.843690 0.000000 
#    z -0.018180 0.000000 1.841670 
# 
# From -- ./inp_files/251393.got.cif
#   From: 2010.06.25/outbox.cif.g09.slc.cpg/sg12_126_cif.got.tgz:251393.got - 2010.06.28 00:19:55.
