data_PCOD8114365
_publ_section_title
;
Structure prediction by ZEFSAII (Michael W. Deem and Ramdas Pophale) SiO2 
 PCOD8114365
Probable space group: C 2/M
;
_chemical_formula_sum "Si O2"
_cell_formula_units_Z 48
_cell_length_a 21.640211
_cell_length_b 25.013663
_cell_length_c 10.990015
_cell_angle_alpha 90.000000
_cell_angle_beta 25.676929
_cell_angle_gamma 90.000000
_cell_volume 2577.638254
_symmetry_space_group_name_H-M "C 2/M"
_symmetry_group_IT_number 12
_symmetry_cell_setting 'monoclinic'
loop_
_space_group_symop_operation_xyz
x,y,z
-x,y,-z
-x,-y,-z
x,-y,z
1/2+x,1/2+y,z
1/2-x,1/2+y,-z
1/2-x,1/2-y,-z
1/2+x,1/2-y,z
loop_
_atom_site_type_symbol
_atom_site_label
_atom_site_fract_x
_atom_site_fract_y
_atom_site_fract_z
Si Si1 0.365101 0.000000 0.654590
Si Si2 0.230391 0.584106 0.770611
Si Si3 0.891572 0.704312 0.361732
Si Si4 0.907905 0.410203 0.386408
Si Si5 0.149133 0.059592 0.692064
Si Si6 0.833983 0.000000 0.775026
Si Si7 0.703059 0.200851 0.738138
O O1 0.500000 0.000000 0.500000
O O2 0.366133 0.946221 0.574081
O O3 0.224657 0.000000 0.984292
O O4 0.329516 0.558520 0.490654
O O5 0.282547 0.554853 0.800809
O O6 0.251656 0.648338 0.727900
O O7 0.060628 0.572278 0.058663
O O8 0.906193 0.652657 0.424520
O O9 0.816246 0.752616 0.566400
O O10 0.803574 0.688662 0.395014
O O11 0.050508 0.723364 0.048929
O O12 0.789046 0.412519 0.494043
O O13 0.144507 0.000000 0.753981
O O14 0.000000 0.087795 0.000000
O O15 0.000000 0.000000 0.500000
#
# Coordination Sequence:
#
# PCOD8114365 Si02
#       7
#     4   8   8   8   8   4   8
#     4  12  24  43  60  87 107 154 207 244 288 336
#     4  11  21  39  61  84 116 158 191 237 290 354
#     4   9  18  33  53  88 117 154 179 234 281 350
#     4  11  21  37  63  84 118 151 198 238 284 353
#     4  11  23  33  52  89 122 151 184 235 300 352
#     4  12  28  43  60  83 119 154 197 248 296 338
#     4   9  18  33  55  84 121 145 192 222 290 350
#
# _framework density 18.621697999999999
#
# number of rings (size 3 to 8) (size 9 to 14) (size 15 to 20)
#    0.000    1.500    5.000    0.500    2.333    2.000 
#    0.000    0.000    0.000    2.000    0.000    0.000 
#    0.000    0.000    0.000    0.000    0.000    0.000 
#
# Total GULP energy -297449.569630 kJ/mol
# GULP energy per Si atom -12393.732068 kJ/mol
# Density = 1.857931 g / cm^3
# Si number density = 18.621698 Si / 1000 Ang^3
#
#
#
# Elastic Constant Matrix: (Units=GPa)
#
#
# Indices 1 2 3 4 5 6 
#
# 1 48.3038 38.1026 42.8645 -0.0013 3.2052 -0.0003
# 2 38.1026 135.2473 59.5929 -0.0057 2.3743 0.0027
# 3 42.8645 59.5929 148.3027 -0.0077 1.6052 0.0062
# 4 -0.0013 -0.0057 -0.0077 30.1314 0.0047 -1.3526
# 5 3.2052 2.3743 1.6052 0.0047 33.5899 0.0001
# 6 -0.0003 0.0027 0.0062 -1.3526 0.0001 14.3059
#
#
#
# Elastic Compliance Matrix: (Units=1/GPa)
#
#
# Indices 1 2 3 4 5 6 
#
# 1 0.031423 -0.005859 -0.006703 -0.000001 -0.002264 0.000005
# 2 -0.005859 0.010084 -0.002358 0.000001 -0.000041 -0.000001
# 3 -0.006703 -0.002358 0.009624 0.000002 0.000346 -0.000004
# 4 -0.000001 0.000001 0.000002 0.033329 -0.000005 0.003151
# 5 -0.002264 -0.000041 0.000346 -0.000005 0.029973 -0.000001
# 6 0.000005 -0.000001 -0.000004 0.003151 -0.000001 0.070199
#
#
# Mechanical properties :
#
#
# Convention : Reuss Voigt Hill
#
# Bulk Modulus (GPa) = 46.97063 68.10820 57.53942
# Shear Modulus (GPa) = 22.56606 28.35837 25.46222
#
# Velocity S-wave (km/s) = 3.48489 3.90663 3.70177
# Velocity P-wave (km/s) = 6.43980 7.55003 7.01691
#
# Compressibility (1/GPa) = 0.02128990
#
# Stress axis : x y z
#
# Youngs Moduli (GPa) = 31.82395 99.16318 103.90336
#
# Poissons Ratio (x) = 0.58102 0.69650
# Poissons Ratio (y) = 0.18646 0.24503
# Poissons Ratio (z) = 0.21333 0.23385
#
# Static dielectric constant tensor:
#      x y z
#    x 1.821230 -0.000080 -0.829580 
#    y -0.000080 3.494350 -0.000010 
#    z -0.829580 -0.000010 3.104850 
# 
# 
# High freq. dielectric constant tensor:
#      x y z
#    x 1.673950 0.000000 -0.006990 
#    y 0.000000 1.727080 0.000010 
#    z -0.006990 0.000010 1.738250 
# 
# From -- ./inp_files/178598.got.cif
#   From: 2010.06.25/outbox.cif.g09.slc.cpg/sg12_90_cif.got.tgz:178598.got - 2010.06.28 00:19:55.
