data_PCOD8114945
_publ_section_title
;
Structure prediction by ZEFSAII (Michael W. Deem and Ramdas Pophale) SiO2 
 PCOD8114945
Probable space group: C 2/M
;
_chemical_formula_sum "Si O2"
_cell_formula_units_Z 48
_cell_length_a 16.935369
_cell_length_b 17.531627
_cell_length_c 13.056752
_cell_angle_alpha 90.000000
_cell_angle_beta 37.048184
_cell_angle_gamma 90.000000
_cell_volume 2335.604572
_symmetry_space_group_name_H-M "C 2/M"
_symmetry_group_IT_number 12
_symmetry_cell_setting 'monoclinic'
loop_
_space_group_symop_operation_xyz
x,y,z
-x,y,-z
-x,-y,-z
x,-y,z
1/2+x,1/2+y,z
1/2-x,1/2+y,-z
1/2-x,1/2-y,-z
1/2+x,1/2-y,z
loop_
_atom_site_type_symbol
_atom_site_label
_atom_site_fract_x
_atom_site_fract_y
_atom_site_fract_z
Si Si1 0.651894 0.088415 0.372888
Si Si2 0.904694 0.917150 0.504515
Si Si3 0.209057 0.777205 0.879757
Si Si4 0.630070 0.849966 0.815775
Si Si5 0.649093 0.183571 0.571234
Si Si6 0.563753 0.292788 0.234329
O O1 0.500000 0.093836 0.500000
O O2 0.729240 0.141431 0.212487
O O3 0.692215 0.119380 0.444791
O O4 0.698142 0.000000 0.317382
O O5 0.764163 0.894562 0.696305
O O6 0.000000 0.917063 0.500000
O O7 0.967578 0.864050 0.352888
O O8 0.892838 0.000000 0.465793
O O9 0.146616 0.735910 0.845065
O O10 0.310416 0.715127 0.822928
O O11 0.098900 0.795044 0.078102
O O12 0.603134 0.855094 0.723209
O O13 0.500000 0.888402 0.000000
O O14 0.750000 0.250000 0.500000
O O15 0.522759 0.219578 0.648044
#
# Coordination Sequence:
#
# PCOD8114945 Si02
#       6
#     8   8   8   8   8   8
#     4  11  24  42  64  94 133 173 215 273 343 398
#     4  11  24  42  64  91 130 179 219 263 328 398
#     4  11  22  39  68  95 128 166 220 278 322 387
#     4  12  24  40  66  99 129 166 218 277 328 385
#     4  12  22  37  67  94 122 165 217 265 319 392
#     4  11  22  39  66  97 121 168 228 267 315 393
#
# _framework density 20.551423
#
# number of rings (size 3 to 8) (size 9 to 14) (size 15 to 20)
#    0.000    0.667    8.333    0.000    0.000    1.667 
#    0.000    0.000    0.000    1.500    0.000    0.000 
#    0.000    0.000    0.000    0.000    0.000    0.000 
#
# Total GULP energy -297393.352906 kJ/mol
# GULP energy per Si atom -12391.389704 kJ/mol
# Density = 2.050465 g / cm^3
# Si number density = 20.551423 Si / 1000 Ang^3
#
#
#
# Elastic Constant Matrix: (Units=GPa)
#
#
# Indices 1 2 3 4 5 6 
#
# 1 66.6263 32.8741 25.1450 -0.0004 -0.6074 0.0004
# 2 32.8741 124.0004 58.4792 -0.0002 -1.1597 0.0002
# 3 25.1450 58.4792 118.3683 -0.0005 -10.5269 0.0006
# 4 -0.0004 -0.0002 -0.0005 19.1972 0.0004 13.8589
# 5 -0.6074 -1.1597 -10.5269 0.0004 41.2537 -0.0004
# 6 0.0004 0.0002 0.0006 13.8589 -0.0004 33.2631
#
#
#
# Elastic Compliance Matrix: (Units=1/GPa)
#
#
# Indices 1 2 3 4 5 6 
#
# 1 0.017583 -0.003767 -0.001904 0.000001 -0.000333 0.000000
# 2 -0.003767 0.011366 -0.004903 0.000000 -0.000987 0.000000
# 3 -0.001904 -0.004903 0.011522 0.000000 0.002774 0.000000
# 4 0.000001 0.000000 0.000000 0.074499 -0.000001 -0.031040
# 5 -0.000333 -0.000987 0.002774 -0.000001 0.024916 0.000001
# 6 0.000000 0.000000 0.000000 -0.031040 0.000001 0.042996
#
#
# Mechanical properties :
#
#
# Convention : Reuss Voigt Hill
#
# Bulk Modulus (GPa) = 51.74978 60.22127 55.98552
# Shear Modulus (GPa) = 23.75635 31.57591 27.66613
#
# Velocity S-wave (km/s) = 3.40361 3.92399 3.67303
# Velocity P-wave (km/s) = 6.37820 7.06375 6.72971
#
# Compressibility (1/GPa) = 0.01932375
#
# Stress axis : x y z
#
# Youngs Moduli (GPa) = 56.87271 87.98055 86.79314
#
# Poissons Ratio (x) = 0.33140 0.16524
# Poissons Ratio (y) = 0.21423 0.42555
# Poissons Ratio (z) = 0.10828 0.43137
#
# Static dielectric constant tensor:
#      x y z
#    x 3.818240 0.000000 -0.011500 
#    y 0.000000 3.983460 0.000000 
#    z -0.011500 0.000000 3.979050 
# 
# 
# High freq. dielectric constant tensor:
#      x y z
#    x 1.812620 0.000000 -0.002040 
#    y 0.000000 1.782530 0.000000 
#    z -0.002040 0.000000 1.809880 
# 
# From -- ./inp_files/159118.got.cif
#   From: 2010.06.25/outbox.cif.g09.slc.cpg/sg12_80_cif.got.tgz:159118.got - 2010.06.28 00:19:55.
