data_PCOD8114598
_publ_section_title
;
Structure prediction by ZEFSAII (Michael W. Deem and Ramdas Pophale) SiO2 
 PCOD8114598
Probable space group: C 2/M
;
_chemical_formula_sum "Si O2"
_cell_formula_units_Z 64
_cell_length_a 14.098440
_cell_length_b 27.763109
_cell_length_c 10.986694
_cell_angle_alpha 90.000000
_cell_angle_beta 129.912333
_cell_angle_gamma 90.000000
_cell_volume 3298.502926
_symmetry_space_group_name_H-M "C 2/M"
_symmetry_group_IT_number 12
_symmetry_cell_setting 'monoclinic'
loop_
_space_group_symop_operation_xyz
x,y,z
-x,y,-z
-x,-y,-z
x,-y,z
1/2+x,1/2+y,z
1/2-x,1/2+y,-z
1/2-x,1/2-y,-z
1/2+x,1/2-y,z
loop_
_atom_site_type_symbol
_atom_site_label
_atom_site_fract_x
_atom_site_fract_y
_atom_site_fract_z
Si Si1 0.396592 0.701883 0.580795
Si Si2 0.771737 0.116813 0.333561
Si Si3 0.684203 0.798117 0.580795
Si Si4 0.115571 0.864538 0.818227
Si Si5 0.702656 0.864538 0.818227
Si Si6 0.422229 0.445736 0.620112
Si Si7 0.697883 0.054264 0.620112
Si Si8 0.438176 0.883187 0.666439
O O1 0.323608 0.662569 0.445539
O O2 0.398513 0.750000 0.500000
O O3 0.324425 0.711607 0.648849
O O4 0.534986 0.683055 0.721407
O O5 0.778175 0.126672 0.195422
O O6 0.861863 0.072148 0.443024
O O7 0.630098 0.107083 0.260195
O O8 0.686421 0.816945 0.721407
O O9 0.621931 0.837431 0.445539
O O10 0.033020 0.912270 0.756602
O O11 0.179694 0.855923 1.000000
O O12 0.723582 0.912270 0.756602
O O13 0.582754 0.873328 0.804578
O O14 0.470962 0.500000 0.642796
O O15 0.319046 0.442306 0.638091
O O16 0.581160 0.072148 0.443024
O O17 0.671835 0.000000 0.642796
#
# Coordination Sequence:
#
# PCOD8114598 Si02
#       8
#     8   8   8   8   8   8   8   8
#     4   9  18  35  58  78  99 133 175 217 261 314
#     4   9  19  35  53  74 102 140 185 222 251 299
#     4   9  18  35  58  78  99 133 175 217 261 314
#     4  11  22  33  51  81 113 141 170 216 275 324
#     4  11  22  33  51  81 113 141 170 216 275 324
#     4   9  18  34  57  81 104 137 181 223 262 311
#     4   9  18  34  57  81 104 137 181 223 262 311
#     4   9  19  35  53  74 102 140 185 222 251 299
#
# _framework density 19.402740999999999
#
# number of rings (size 3 to 8) (size 9 to 14) (size 15 to 20)
#    0.000    2.500    0.000    5.250    0.000    7.000 
#    0.000    3.750    0.000    4.500    0.000    5.250 
#    0.000    0.000    0.000    0.000    0.000    0.000 
#
# Total GULP energy -396693.466185 kJ/mol
# GULP energy per Si atom -12396.670818 kJ/mol
# Density = 1.935858 g / cm^3
# Si number density = 19.402741 Si / 1000 Ang^3
#
#
#
# Elastic Constant Matrix: (Units=GPa)
#
#
# Indices 1 2 3 4 5 6 
#
# 1 76.9665 32.5010 39.5131 0.0000 0.3341 0.0000
# 2 32.5010 132.4489 51.9312 0.0000 -1.9922 0.0000
# 3 39.5131 51.9312 83.0309 0.0000 -0.9560 0.0000
# 4 0.0000 0.0000 0.0000 13.1620 0.0000 -39.5400
# 5 0.3341 -1.9922 -0.9560 0.0000 17.2296 0.0000
# 6 0.0000 0.0000 0.0000 -39.5400 0.0000 -372.4920
#
#
#
# Elastic Compliance Matrix: (Units=1/GPa)
#
#
# Indices 1 2 3 4 5 6 
#
# 1 0.017388 -0.001367 -0.007430 0.000000 -0.000908 0.000000
# 2 -0.001367 0.010122 -0.005670 0.000000 0.000882 0.000000
# 3 -0.007430 -0.005670 0.019132 0.000000 0.000550 0.000000
# 4 0.000000 0.000000 0.000000 0.057606 0.000000 -0.006115
# 5 -0.000908 0.000882 0.000550 0.000000 0.058190 0.000000
# 6 0.000000 0.000000 0.000000 -0.006115 0.000000 -0.002036
#
#
# Mechanical properties :
#
#
# Convention : Reuss Voigt Hill
#
# Bulk Modulus (GPa) = 56.47209 60.03744 58.25476
# Shear Modulus (GPa) = 25.60944 -57.18668 -15.78862
#
# Velocity S-wave (km/s) = 3.63697 -5.43484 -2.85569
# Velocity P-wave (km/s) = 6.84143 2.89368 4.38359
#
# Compressibility (1/GPa) = 0.01770786
#
# Stress axis : x y z
#
# Youngs Moduli (GPa) = 57.50934 98.79537 52.26798
#
# Poissons Ratio (x) = 0.13508 0.38836
# Poissons Ratio (y) = 0.07863 0.29635
# Poissons Ratio (z) = 0.42731 0.56016
#
# Static dielectric constant tensor:
#      x y z
#    x 3.916290 0.000000 0.082190 
#    y 0.000000 3.883450 0.000000 
#    z 0.082190 0.000000 3.114630 
# 
# 
# High freq. dielectric constant tensor:
#      x y z
#    x 1.772940 0.000000 0.006690 
#    y 0.000000 1.757470 0.000000 
#    z 0.006690 0.000000 1.707650 
# 
# From -- ./inp_files/149809.got.cif
#   From: 2010.06.25/outbox.cif.g09.slc.cpg/sg12_75_cif.got.tgz:149809.got - 2010.06.28 00:19:55.
