data_PCOD8114158
_publ_section_title
;
Structure prediction by ZEFSAII (Michael W. Deem and Ramdas Pophale) SiO2 
 PCOD8114158
Probable space group: C 2/M
;
_chemical_formula_sum "Si O2"
_cell_formula_units_Z 64
_cell_length_a 24.361170
_cell_length_b 9.013115
_cell_length_c 16.786984
_cell_angle_alpha 90.000000
_cell_angle_beta 86.022447
_cell_angle_gamma 90.000000
_cell_volume 3677.040263
_symmetry_space_group_name_H-M "C 2/M"
_symmetry_group_IT_number 12
_symmetry_cell_setting 'monoclinic'
loop_
_space_group_symop_operation_xyz
x,y,z
-x,y,-z
-x,-y,-z
x,-y,z
1/2+x,1/2+y,z
1/2-x,1/2+y,-z
1/2-x,1/2-y,-z
1/2+x,1/2-y,z
loop_
_atom_site_type_symbol
_atom_site_label
_atom_site_fract_x
_atom_site_fract_y
_atom_site_fract_z
Si Si1 0.421568 0.674931 0.063264
Si Si2 0.144651 0.675439 0.545591
Si Si3 0.560942 0.323438 0.280273
Si Si4 0.728243 0.174116 0.669049
Si Si5 0.549710 0.174682 0.668251
Si Si6 0.539684 0.675555 0.106072
Si Si7 0.841239 0.323481 0.635046
Si Si8 0.366637 0.170850 0.202725
O O1 0.417685 0.500000 0.070882
O O2 0.478544 0.736632 0.094919
O O3 0.371230 0.742677 0.118611
O O4 0.419407 0.724186 0.970202
O O5 0.147962 0.500000 0.548196
O O6 0.194930 0.733718 0.595093
O O7 0.085660 0.723029 0.587644
O O8 0.150650 0.736586 0.455817
O O9 0.564837 0.500000 0.286285
O O10 0.505946 0.268570 0.329664
O O11 0.561188 0.265982 0.188695
O O12 0.612957 0.249422 0.315238
O O13 0.782662 0.270721 0.673255
O O14 0.692000 0.204855 0.751284
O O15 0.742554 0.000000 0.659960
O O16 0.584348 0.218567 0.742880
O O17 0.535992 0.000000 0.667920
O O18 0.535694 0.500000 0.108101
O O19 0.845803 0.500000 0.638946
O O20 0.371977 0.000000 0.181778
#
# Coordination Sequence:
#
# PCOD8114158 Si02
#       8
#     8   8   8   8   8   8   8   8
#     4   9  15  28  50  74  99 128 163 198 237 291
#     4   8  17  34  55  74  97 128 162 204 252 294
#     4  11  21  34  50  70 101 137 167 199 241 293
#     4   9  18  35  55  74  98 129 163 203 249 295
#     4   9  17  32  51  72  99 132 164 196 241 295
#     4   8  16  29  47  71 100 132 162 196 239 289
#     4  11  22  35  51  73  97 129 171 209 245 288
#     4   9  17  29  49  77 105 127 154 199 252 293
#
# _framework density 17.405303
#
# number of rings (size 3 to 8) (size 9 to 14) (size 15 to 20)
#    0.000    2.750    1.250    3.375    0.000    1.000 
#    0.000    8.750    0.000    0.750    0.000    0.000 
#    0.000    0.000    0.000    0.000    0.000    0.000 
#
# Total GULP energy -396670.295123 kJ/mol
# GULP energy per Si atom -12395.946723 kJ/mol
# Density = 1.736569 g / cm^3
# Si number density = 17.405303 Si / 1000 Ang^3
#
#
#
# Elastic Constant Matrix: (Units=GPa)
#
#
# Indices 1 2 3 4 5 6 
#
# 1 114.7186 38.8446 62.1950 0.0000 -2.8124 0.0000
# 2 38.8446 46.7699 33.3029 0.0000 -5.6164 0.0000
# 3 62.1950 33.3029 95.8062 0.0000 -25.7778 0.0000
# 4 0.0000 0.0000 0.0000 25.6447 0.0000 -4.1950
# 5 -2.8124 -5.6164 -25.7778 0.0000 13.8560 0.0000
# 6 0.0000 0.0000 0.0000 -4.1950 0.0000 29.9858
#
#
#
# Elastic Compliance Matrix: (Units=1/GPa)
#
#
# Indices 1 2 3 4 5 6 
#
# 1 0.023227 -0.007262 -0.024182 0.000000 -0.043218 0.000000
# 2 -0.007262 0.032052 -0.006664 0.000000 -0.000880 0.000000
# 3 -0.024182 -0.006664 0.052870 0.000000 0.090750 0.000000
# 4 0.000000 0.000000 0.000000 0.039908 0.000000 0.005583
# 5 -0.043218 -0.000880 0.090750 0.000000 0.231873 0.000000
# 6 0.000000 0.000000 0.000000 0.005583 0.000000 0.034130
#
#
# Mechanical properties :
#
#
# Convention : Reuss Voigt Hill
#
# Bulk Modulus (GPa) = 31.31593 58.44218 44.87905
# Shear Modulus (GPa) = 9.98163 22.09413 16.03788
#
# Velocity S-wave (km/s) = 2.39735 3.56672 3.03881
# Velocity P-wave (km/s) = 5.06895 7.11422 6.17683
#
# Compressibility (1/GPa) = 0.03193263
#
# Stress axis : x y z
#
# Youngs Moduli (GPa) = 43.05375 31.19927 18.91427
#
# Poissons Ratio (x) = 0.22656 0.45739
# Poissons Ratio (y) = 0.31264 0.12605
# Poissons Ratio (z) = 1.04114 0.20792
#
# Static dielectric constant tensor:
#      x y z
#    x 3.053690 0.000000 -0.090400 
#    y 0.000000 2.960860 0.000000 
#    z -0.090400 0.000000 3.604060 
# 
# 
# High freq. dielectric constant tensor:
#      x y z
#    x 1.651740 0.000000 -0.015880 
#    y 0.000000 1.650790 0.000000 
#    z -0.015880 0.000000 1.679190 
# 
# From -- ./inp_files/287502.got.cif
#   From: 2010.06.25/outbox.cif.g09.slc.cpg/sg12_144_cif.got.tgz:287502.got - 2010.06.28 00:19:55.
