data_PCOD8114285
_publ_section_title
;
Structure prediction by ZEFSAII (Michael W. Deem and Ramdas Pophale) SiO2 
 PCOD8114285
Probable space group: C 2/M
;
_chemical_formula_sum "Si O2"
_cell_formula_units_Z 48
_cell_length_a 9.127850
_cell_length_b 21.060933
_cell_length_c 14.487928
_cell_angle_alpha 90.000000
_cell_angle_beta 116.894636
_cell_angle_gamma 90.000000
_cell_volume 2483.929526
_symmetry_space_group_name_H-M "C 2/M"
_symmetry_group_IT_number 12
_symmetry_cell_setting 'monoclinic'
loop_
_space_group_symop_operation_xyz
x,y,z
-x,y,-z
-x,-y,-z
x,-y,z
1/2+x,1/2+y,z
1/2-x,1/2+y,-z
1/2-x,1/2-y,-z
1/2+x,1/2-y,z
loop_
_atom_site_type_symbol
_atom_site_label
_atom_site_fract_x
_atom_site_fract_y
_atom_site_fract_z
Si Si1 0.787405 0.366265 0.765203
Si Si2 0.681799 0.761435 0.078964
Si Si3 0.596014 0.175252 0.741957
Si Si4 0.709075 0.500000 0.471354
Si Si5 0.512245 0.292547 0.398294
Si Si6 0.672827 0.500000 0.678549
Si Si7 0.822675 0.628790 0.421934
O O1 0.787341 0.330913 0.865176
O O2 0.644971 0.337176 0.661510
O O3 0.743210 0.440676 0.757229
O O4 0.969514 0.360340 0.773389
O O5 0.748404 0.705727 0.163033
O O6 0.500000 0.748841 0.000000
O O7 0.750000 0.750000 0.000000
O O8 0.489760 0.230944 0.665733
O O9 0.678427 0.128238 0.690282
O O10 0.730027 0.500000 0.588072
O O11 0.524021 0.500000 0.380708
O O12 0.803941 0.559465 0.457679
O O13 0.500000 0.271554 0.500000
O O14 0.681971 0.327174 0.424057
O O15 0.000000 0.656443 0.500000
#
# Coordination Sequence:
#
# PCOD8114285 Si02
#       7
#     8   8   8   4   8   4   8
#     4  11  23  40  63  92 121 166 208 251 311 373
#     4  11  23  43  70  94 122 158 205 265 324 380
#     4  11  24  38  61  94 124 157 205 262 318 372
#     4  11  23  40  60  87 125 184 211 249 296 364
#     4  11  21  36  57  86 127 164 203 250 311 373
#     4  11  22  40  65  87 128 169 218 251 298 371
#     4  12  24  37  58  89 128 170 212 253 298 369
#
# _framework density 19.324221000000001
#
# number of rings (size 3 to 8) (size 9 to 14) (size 15 to 20)
#    0.000    0.833    3.333    5.750    2.333    2.667 
#    0.000    0.417    0.000    0.000    0.000    2.917 
#    0.000    0.000    0.000    0.000    0.000    0.000 
#
# Total GULP energy -297424.556090 kJ/mol
# GULP energy per Si atom -12392.689837 kJ/mol
# Density = 1.928024 g / cm^3
# Si number density = 19.324221 Si / 1000 Ang^3
#
#
#
# Elastic Constant Matrix: (Units=GPa)
#
#
# Indices 1 2 3 4 5 6 
#
# 1 115.9911 44.0713 56.4228 0.0000 3.8581 0.0000
# 2 44.0713 73.1879 33.4807 0.0000 -1.8090 0.0000
# 3 56.4228 33.4807 122.9627 0.0000 -2.3157 0.0000
# 4 0.0000 0.0000 0.0000 27.3679 0.0000 -8.3901
# 5 3.8581 -1.8090 -2.3157 0.0000 44.2021 0.0000
# 6 0.0000 0.0000 0.0000 -8.3901 0.0000 31.7205
#
#
#
# Elastic Compliance Matrix: (Units=1/GPa)
#
#
# Indices 1 2 3 4 5 6 
#
# 1 0.013061 -0.005882 -0.004422 0.000000 -0.001612 0.000000
# 2 -0.005882 0.018264 -0.002253 0.000000 0.001143 0.000000
# 3 -0.004422 -0.002253 0.010791 0.000000 0.000859 0.000000
# 4 0.000000 0.000000 0.000000 0.039763 0.000000 0.010517
# 5 -0.001612 0.001143 0.000859 0.000000 0.022856 0.000000
# 6 0.000000 0.000000 0.000000 0.010517 0.000000 0.034307
#
#
# Mechanical properties :
#
#
# Convention : Reuss Voigt Hill
#
# Bulk Modulus (GPa) = 58.81184 64.45458 61.63321
# Shear Modulus (GPa) = 29.44247 32.53590 30.98919
#
# Velocity S-wave (km/s) = 3.90757 4.10772 4.00890
# Velocity P-wave (km/s) = 7.13156 7.47827 7.30697
#
# Compressibility (1/GPa) = 0.01700338
#
# Stress axis : x y z
#
# Youngs Moduli (GPa) = 76.56501 54.75267 92.66879
#
# Poissons Ratio (x) = 0.32204 0.40978
# Poissons Ratio (y) = 0.45034 0.20874
# Poissons Ratio (z) = 0.33857 0.12333
#
# Static dielectric constant tensor:
#      x y z
#    x 3.731090 0.000000 0.050140 
#    y 0.000000 3.567560 0.000000 
#    z 0.050140 0.000000 3.405110 
# 
# 
# High freq. dielectric constant tensor:
#      x y z
#    x 1.775330 0.000000 0.002280 
#    y 0.000000 1.742980 0.000000 
#    z 0.002280 0.000000 1.742400 
# 
# From -- ./inp_files/196956.got.cif
#   From: 2010.06.25/outbox.cif.g09.slc.cpg/sg12_99_cif.got.tgz:196956.got - 2010.06.28 00:19:55.
