data_PCOD8114205
_publ_section_title
;
Structure prediction by ZEFSAII (Michael W. Deem and Ramdas Pophale) SiO2 
 PCOD8114205
Probable space group: C 2/M
;
_chemical_formula_sum "Si O2"
_cell_formula_units_Z 64
_cell_length_a 29.433598
_cell_length_b 14.076801
_cell_length_c 11.606714
_cell_angle_alpha 90.000000
_cell_angle_beta 136.680660
_cell_angle_gamma 90.000000
_cell_volume 3299.295549
_symmetry_space_group_name_H-M "C 2/M"
_symmetry_group_IT_number 12
_symmetry_cell_setting 'monoclinic'
loop_
_space_group_symop_operation_xyz
x,y,z
-x,y,-z
-x,-y,-z
x,-y,z
1/2+x,1/2+y,z
1/2-x,1/2+y,-z
1/2-x,1/2-y,-z
1/2+x,1/2-y,z
loop_
_atom_site_type_symbol
_atom_site_label
_atom_site_fract_x
_atom_site_fract_y
_atom_site_fract_z
Si Si1 0.864260 0.302084 0.813209
Si Si2 0.680068 0.146323 0.511641
Si Si3 0.784784 0.107494 0.109110
Si Si4 0.562493 0.112699 0.859922
Si Si5 0.352570 0.204730 0.175190
Si Si6 0.776196 0.846000 0.352540
Si Si7 0.422341 0.897270 0.499969
Si Si8 0.679047 0.601281 0.319897
O O1 0.865028 0.330999 0.681912
O O2 0.801111 0.347358 0.760264
O O3 0.862221 0.186686 0.813729
O O4 0.928585 0.347061 0.993511
O O5 0.698762 0.239386 0.618646
O O6 0.635577 0.084373 0.514147
O O7 0.746997 0.096149 0.595207
O O8 0.838290 0.181853 0.155342
O O9 0.788306 0.101332 0.254540
O O10 0.798096 0.000000 0.087424
O O11 0.713825 0.142859 0.932478
O O12 0.614429 0.175784 0.883780
O O13 0.488614 0.137917 0.684993
O O14 0.577577 0.000000 0.880068
O O15 0.404173 0.179364 0.370795
O O16 0.816581 0.891140 0.533225
O O17 0.434812 0.000000 0.463216
O O18 0.644664 0.500000 0.227343
#
# Coordination Sequence:
#
# PCOD8114205 Si02
#       8
#     8   8   8   8   8   8   8   8
#     4   9  19  33  53  79 112 141 182 219 264 319
#     4   9  18  33  51  83 114 139 169 224 274 314
#     4  11  21  34  60  87 108 140 179 221 274 327
#     4  11  23  38  57  76 102 152 194 219 261 324
#     4  11  23  38  55  81 115 137 179 229 274 311
#     4   9  16  32  53  80 112 145 177 209 266 333
#     4  11  22  36  56  79 107 146 186 222 271 323
#     4   9  17  29  53  84 116 146 169 211 275 333
#
# _framework density 19.39808
#
# number of rings (size 3 to 8) (size 9 to 14) (size 15 to 20)
#    0.000    2.000    2.500    3.750    0.000    4.000 
#    0.000    3.125    0.000    2.250    0.000    1.750 
#    0.000    0.000    0.000    0.000    0.000    0.000 
#
# Total GULP energy -396601.984100 kJ/mol
# GULP energy per Si atom -12393.812003 kJ/mol
# Density = 1.935393 g / cm^3
# Si number density = 19.398080 Si / 1000 Ang^3
#
#
#
# Elastic Constant Matrix: (Units=GPa)
#
#
# Indices 1 2 3 4 5 6 
#
# 1 28.8834 9.6546 1.4508 0.0000 -5.5518 0.0000
# 2 9.6546 130.8472 31.6580 0.0000 -0.9003 0.0000
# 3 1.4508 31.6580 96.6646 0.0000 -2.3201 0.0000
# 4 0.0000 0.0000 0.0000 24.5027 0.0000 0.2436
# 5 -5.5518 -0.9003 -2.3201 0.0000 19.6339 0.0000
# 6 0.0000 0.0000 0.0000 0.2436 0.0000 15.6688
#
#
#
# Elastic Compliance Matrix: (Units=1/GPa)
#
#
# Indices 1 2 3 4 5 6 
#
# 1 0.037575 -0.002851 0.000623 0.000000 0.010568 0.000000
# 2 -0.002851 0.008517 -0.002764 0.000000 -0.000742 0.000000
# 3 0.000623 -0.002764 0.011274 0.000000 0.001382 0.000000
# 4 0.000000 0.000000 0.000000 0.040818 0.000000 -0.000635
# 5 0.010568 -0.000742 0.001382 0.000000 0.054050 0.000000
# 6 0.000000 0.000000 0.000000 -0.000635 0.000000 0.063831
#
#
# Mechanical properties :
#
#
# Convention : Reuss Voigt Hill
#
# Bulk Modulus (GPa) = 21.10487 37.99134 29.54810
# Shear Modulus (GPa) = 20.67472 26.20321 23.43896
#
# Velocity S-wave (km/s) = 3.26822 3.67933 3.47985
# Velocity P-wave (km/s) = 5.01450 6.13821 5.60459
#
# Compressibility (1/GPa) = 0.04738244
#
# Stress axis : x y z
#
# Youngs Moduli (GPa) = 26.61360 117.41888 88.69844
#
# Poissons Ratio (x) = 0.33471 -0.05528
# Poissons Ratio (y) = 0.07586 0.24518
# Poissons Ratio (z) = -0.01659 0.32457
#
# Static dielectric constant tensor:
#      x y z
#    x 3.339750 0.000000 -0.179080 
#    y 0.000000 3.561990 0.000000 
#    z -0.179080 0.000000 3.455240 
# 
# 
# High freq. dielectric constant tensor:
#      x y z
#    x 1.730790 0.000000 -0.024750 
#    y 0.000000 1.754860 0.000000 
#    z -0.024750 0.000000 1.744750 
# 
# From -- ./inp_files/189479.got.cif
#   From: 2010.06.25/outbox.cif.g09.slc.cpg/sg12_95_cif.got.tgz:189479.got - 2010.06.28 00:19:55.
