data_PCOD8114555
_publ_section_title
;
Structure prediction by ZEFSAII (Michael W. Deem and Ramdas Pophale) SiO2 
 PCOD8114555
Probable space group: C 2/M
;
_chemical_formula_sum "Si O2"
_cell_formula_units_Z 40
_cell_length_a 15.744506
_cell_length_b 22.978465
_cell_length_c 9.327838
_cell_angle_alpha 90.000000
_cell_angle_beta 143.971815
_cell_angle_gamma 90.000000
_cell_volume 1984.922840
_symmetry_space_group_name_H-M "C 2/M"
_symmetry_group_IT_number 12
_symmetry_cell_setting 'monoclinic'
loop_
_space_group_symop_operation_xyz
x,y,z
-x,y,-z
-x,-y,-z
x,-y,z
1/2+x,1/2+y,z
1/2-x,1/2+y,-z
1/2-x,1/2-y,-z
1/2+x,1/2-y,z
loop_
_atom_site_type_symbol
_atom_site_label
_atom_site_fract_x
_atom_site_fract_y
_atom_site_fract_z
Si Si1 0.098563 0.277338 0.256932
Si Si2 0.640065 0.402116 0.772066
Si Si3 0.353352 0.500000 0.994810
Si Si4 0.812540 0.000000 0.616895
Si Si5 0.910789 0.771250 0.239245
Si Si6 0.157642 0.595279 0.224395
O O1 0.250000 0.250000 0.500000
O O2 0.132933 0.343131 0.264549
O O3 0.998392 0.269273 0.253878
O O4 0.000000 0.246637 0.000000
O O5 0.500000 0.428764 0.500000
O O6 0.689270 0.443813 0.968581
O O7 0.592570 0.341206 0.780544
O O8 0.769644 0.396480 0.833204
O O9 0.518629 0.500000 0.177407
O O10 0.268819 0.500000 0.726559
O O11 0.754953 0.057723 0.462478
O O12 0.000000 0.754677 0.500000
O O13 0.750000 0.750000 0.000000
O O14 0.000000 0.564857 0.000000
#
# Coordination Sequence:
#
# PCOD8114555 Si02
#       6
#     8   8   4   4   8   8
#     4  11  23  40  62  93 128 168 212 260 316 374
#     4  11  21  42  67  91 123 173 217 251 307 387
#     4  11  24  40  66 100 124 154 215 278 313 367
#     4  11  24  41  64  99 126 157 210 270 331 361
#     4  11  23  40  63  93 126 169 212 259 312 378
#     4  11  23  43  65  91 129 172 211 254 316 393
#
# _framework density 20.151917000000001
#
# number of rings (size 3 to 8) (size 9 to 14) (size 15 to 20)
#    0.000    1.000    2.000    7.200    0.000    3.200 
#    0.000    2.000    0.000    0.000    0.000    0.000 
#    0.000    0.000    0.000    0.000    0.000    0.000 
#
# Total GULP energy -247766.426116 kJ/mol
# GULP energy per Si atom -12388.321306 kJ/mol
# Density = 2.010605 g / cm^3
# Si number density = 20.151917 Si / 1000 Ang^3
#
#
#
# Elastic Constant Matrix: (Units=GPa)
#
#
# Indices 1 2 3 4 5 6 
#
# 1 159.6909 65.5867 43.4511 0.0000 -5.1067 0.0000
# 2 65.5867 96.6995 43.6973 0.0000 -19.2680 0.0000
# 3 43.4511 43.6973 140.4497 0.0000 -0.6589 0.0000
# 4 0.0000 0.0000 0.0000 -42.5269 0.0000 2.8187
# 5 -5.1067 -19.2680 -0.6589 0.0000 45.2665 0.0000
# 6 0.0000 0.0000 0.0000 2.8187 0.0000 36.6477
#
#
#
# Elastic Compliance Matrix: (Units=1/GPa)
#
#
# Indices 1 2 3 4 5 6 
#
# 1 0.008896 -0.005925 -0.000916 0.000000 -0.001532 0.000000
# 2 -0.005925 0.017266 -0.003508 0.000000 0.006630 0.000000
# 3 -0.000916 -0.003508 0.008488 0.000000 -0.001473 0.000000
# 4 0.000000 0.000000 0.000000 -0.023395 0.000000 0.001799
# 5 -0.001532 0.006630 -0.001473 0.000000 0.024719 0.000000
# 6 0.000000 0.000000 0.000000 0.001799 0.000000 0.027148
#
#
# Mechanical properties :
#
#
# Convention : Reuss Voigt Hill
#
# Bulk Modulus (GPa) = 71.67204 78.03447 74.85326
# Shear Modulus (GPa) = 56.51633 24.15113 40.33373
#
# Velocity S-wave (km/s) = 5.30151 3.46562 4.47865
# Velocity P-wave (km/s) = 8.55089 7.40414 7.99809
#
# Compressibility (1/GPa) = 0.01395244
#
# Stress axis : x y z
#
# Youngs Moduli (GPa) = 112.41336 57.91701 117.81629
#
# Poissons Ratio (x) = 0.34315 0.10791
# Poissons Ratio (y) = 0.66604 0.41328
# Poissons Ratio (z) = 0.10296 0.20316
#
# Static dielectric constant tensor:
#      x y z
#    x 3.940790 0.000000 0.330650 
#    y 0.000000 3.617550 0.000000 
#    z 0.330650 0.000000 3.279260 
# 
# 
# High freq. dielectric constant tensor:
#      x y z
#    x 1.798170 0.000000 0.003920 
#    y 0.000000 1.787190 0.000000 
#    z 0.003920 0.000000 1.799690 
# 
# From -- ./inp_files/65619.got.cif
#   From: 2010.06.25/outbox.cif.g09.slc.cpg/sg12_33_cif.got.tgz:65619.got - 2010.06.28 00:19:55.
