data_PCOD8114487
_publ_section_title
;
Structure prediction by ZEFSAII (Michael W. Deem and Ramdas Pophale) SiO2 
 PCOD8114487
Probable space group: C 2/M
;
_chemical_formula_sum "Si O2"
_cell_formula_units_Z 36
_cell_length_a 15.038199
_cell_length_b 17.793916
_cell_length_c 14.316076
_cell_angle_alpha 90.000000
_cell_angle_beta 151.211764
_cell_angle_gamma 90.000000
_cell_volume 1844.820670
_symmetry_space_group_name_H-M "C 2/M"
_symmetry_group_IT_number 12
_symmetry_cell_setting 'monoclinic'
loop_
_space_group_symop_operation_xyz
x,y,z
-x,y,-z
-x,-y,-z
x,-y,z
1/2+x,1/2+y,z
1/2-x,1/2+y,-z
1/2-x,1/2-y,-z
1/2+x,1/2-y,z
loop_
_atom_site_type_symbol
_atom_site_label
_atom_site_fract_x
_atom_site_fract_y
_atom_site_fract_z
Si Si1 0.614955 0.086915 0.357801
Si Si2 0.202101 0.318595 0.022275
Si Si3 0.337361 0.181402 0.418194
Si Si4 0.941475 0.149502 0.549467
Si Si5 0.000000 0.765277 0.000000
O O1 0.424059 0.123037 0.148837
O O2 0.684098 0.124353 0.516819
O O3 0.772576 0.097334 0.425008
O O4 0.578379 0.000000 0.342124
O O5 0.250000 0.250000 0.000000
O O6 0.388168 0.361756 0.223104
O O7 0.105104 0.289086 0.026066
O O8 0.500000 0.153736 0.500000
O O9 0.378407 0.264010 0.495470
O O10 0.144551 0.180907 0.185225
O O11 0.000000 0.124643 0.500000
#
# Coordination Sequence:
#
# PCOD8114487 Si02
#       5
#     8   8   8   8   4
#     4  12  26  41  60  94 135 164 193 254 324 371
#     4  12  21  37  66  92 118 161 215 254 295 365
#     4  11  21  40  65  95 118 160 213 262 297 358
#     4  11  21  40  65  91 119 163 217 252 297 361
#     4  12  20  36  68  96 112 154 224 260 292 348
#
# _framework density 19.514092999999999
#
# number of rings (size 3 to 8) (size 9 to 14) (size 15 to 20)
#    0.000    0.444    8.889    2.000    0.000    1.778 
#    0.000    4.444    0.000    0.000    0.000    0.000 
#    0.000    0.000    0.000    0.000    0.000    0.000 
#
# Total GULP energy -223323.286707 kJ/mol
# GULP energy per Si atom -12406.849261 kJ/mol
# Density = 1.946968 g / cm^3
# Si number density = 19.514093 Si / 1000 Ang^3
#
#
#
# Elastic Constant Matrix: (Units=GPa)
#
#
# Indices 1 2 3 4 5 6 
#
# 1 81.7733 38.3753 22.1818 0.0018 -1.7769 0.0012
# 2 38.3753 91.0806 45.6579 0.0010 -8.2251 0.0013
# 3 22.1818 45.6579 174.8557 0.0054 -5.2612 0.0053
# 4 0.0018 0.0010 0.0054 22.5247 0.0019 3.0337
# 5 -1.7769 -8.2251 -5.2612 0.0019 33.4212 0.0013
# 6 0.0012 0.0013 0.0053 3.0337 0.0013 11.2203
#
#
#
# Elastic Compliance Matrix: (Units=1/GPa)
#
#
# Indices 1 2 3 4 5 6 
#
# 1 0.015277 -0.006358 -0.000302 -0.000001 -0.000800 -0.000001
# 2 -0.006358 0.015508 -0.003153 0.000000 0.002982 0.000000
# 3 -0.000302 -0.003153 0.006588 -0.000001 0.000245 -0.000002
# 4 -0.000001 0.000000 -0.000001 0.046074 -0.000002 -0.012457
# 5 -0.000800 0.002982 0.000245 -0.000002 0.030651 -0.000003
# 6 -0.000001 0.000000 -0.000002 -0.012457 -0.000003 0.092492
#
#
# Mechanical properties :
#
#
# Convention : Reuss Voigt Hill
#
# Bulk Modulus (GPa) = 56.34595 62.23773 59.29184
# Shear Modulus (GPa) = 21.53954 29.53288 25.53621
#
# Velocity S-wave (km/s) = 3.32594 3.89448 3.62139
# Velocity P-wave (km/s) = 6.60957 7.22396 6.92358
#
# Compressibility (1/GPa) = 0.01774750
#
# Stress axis : x y z
#
# Youngs Moduli (GPa) = 65.45782 64.48330 151.79046
#
# Poissons Ratio (x) = 0.40996 0.04584
# Poissons Ratio (y) = 0.41615 0.47862
# Poissons Ratio (z) = 0.01977 0.20333
#
# Static dielectric constant tensor:
#      x y z
#    x 3.778600 0.000000 0.060930 
#    y 0.000000 3.167260 0.000000 
#    z 0.060930 0.000000 4.026490 
# 
# 
# High freq. dielectric constant tensor:
#      x y z
#    x 1.778080 0.000000 0.000820 
#    y 0.000000 1.715890 0.000000 
#    z 0.000820 0.000000 1.785050 
# 
# From -- ./inp_files/216171.got.cif
#   From: 2010.06.25/outbox.cif.g09.slc.cpg/sg12_109_cif.got.tgz:216171.got - 2010.06.28 00:19:55.
