data_PCOD8114160
_publ_section_title
;
Structure prediction by ZEFSAII (Michael W. Deem and Ramdas Pophale) SiO2 
 PCOD8114160
Probable space group: C 2/M
;
_chemical_formula_sum "Si O2"
_cell_formula_units_Z 56
_cell_length_a 9.201777
_cell_length_b 26.811914
_cell_length_c 14.586991
_cell_angle_alpha 90.000000
_cell_angle_beta 117.963112
_cell_angle_gamma 90.000000
_cell_volume 3178.693967
_symmetry_space_group_name_H-M "C 2/M"
_symmetry_group_IT_number 12
_symmetry_cell_setting 'monoclinic'
loop_
_space_group_symop_operation_xyz
x,y,z
-x,y,-z
-x,-y,-z
x,-y,z
1/2+x,1/2+y,z
1/2-x,1/2+y,-z
1/2-x,1/2-y,-z
1/2+x,1/2-y,z
loop_
_atom_site_type_symbol
_atom_site_label
_atom_site_fract_x
_atom_site_fract_y
_atom_site_fract_z
Si Si1 0.183435 0.228457 0.073274
Si Si2 0.838559 0.292068 0.400458
Si Si3 0.584059 0.153973 0.762501
Si Si4 0.235433 0.298576 0.257959
Si Si5 0.051050 0.847296 0.413267
Si Si6 0.553943 0.943903 0.663756
Si Si7 0.264354 0.443872 0.546080
O O1 0.277456 0.178665 0.132927
O O2 0.198376 0.273376 0.149889
O O3 0.250000 0.250000 0.000000
O O4 0.000000 0.210805 0.000000
O O5 0.899372 0.326641 0.335938
O O6 0.740937 0.244260 0.336117
O O7 0.721393 0.321280 0.435654
O O8 0.000000 0.273084 0.500000
O O9 0.408660 0.164639 0.755784
O O10 0.599670 0.093944 0.759953
O O11 0.405542 0.329831 0.301718
O O12 0.080411 0.906788 0.417027
O O13 0.000000 0.831236 0.500000
O O14 0.688034 0.938751 0.623961
O O15 0.373827 0.930660 0.570436
O O16 0.555598 0.000000 0.704145
O O17 0.329908 0.500000 0.550159
#
# Coordination Sequence:
#
# PCOD8114160 Si02
#       7
#     8   8   8   8   8   8   8
#     4  11  23  41  61  84 109 138 183 234 286 338
#     4  11  21  34  50  73 112 152 185 220 265 328
#     4  11  21  36  58  80 107 146 185 226 275 331
#     4  11  24  36  53  80 111 143 182 227 279 333
#     4  12  23  33  50  79 114 150 188 226 272 326
#     4   9  17  32  56  81 108 147 193 229 266 321
#     4   9  18  33  52  77 112 153 191 229 266 314
#
# _framework density 17.617298999999999
#
# number of rings (size 3 to 8) (size 9 to 14) (size 15 to 20)
#    0.000    1.429    2.857    5.571    2.000    2.000 
#    0.000    0.714    0.000    0.429    0.000    3.000 
#    0.000    0.000    0.000    0.000    0.000    0.000 
#
# Total GULP energy -347215.986393 kJ/mol
# GULP energy per Si atom -12400.570943 kJ/mol
# Density = 1.757720 g / cm^3
# Si number density = 17.617299 Si / 1000 Ang^3
#
#
#
# Elastic Constant Matrix: (Units=GPa)
#
#
# Indices 1 2 3 4 5 6 
#
# 1 92.2681 41.4917 40.3727 0.0000 3.6993 0.0000
# 2 41.4917 128.4938 51.8929 0.0000 -0.6827 0.0000
# 3 40.3727 51.8929 92.2661 0.0000 0.5396 0.0000
# 4 0.0000 0.0000 0.0000 26.4830 0.0000 1.3771
# 5 3.6993 -0.6827 0.5396 0.0000 27.8079 0.0000
# 6 0.0000 0.0000 0.0000 1.3771 0.0000 25.4155
#
#
#
# Elastic Compliance Matrix: (Units=1/GPa)
#
#
# Indices 1 2 3 4 5 6 
#
# 1 0.014170 -0.002699 -0.004672 0.000000 -0.001861 0.000000
# 2 -0.002699 0.010587 -0.004778 0.000000 0.000712 0.000000
# 3 -0.004672 -0.004778 0.015568 0.000000 0.000202 0.000000
# 4 0.000000 0.000000 0.000000 0.037867 0.000000 -0.002052
# 5 -0.001861 0.000712 0.000202 0.000000 0.036222 0.000000
# 6 0.000000 0.000000 0.000000 -0.002052 0.000000 0.039457
#
#
# Mechanical properties :
#
#
# Convention : Reuss Voigt Hill
#
# Bulk Modulus (GPa) = 62.38584 64.50473 63.44529
# Shear Modulus (GPa) = 27.24617 27.89265 27.56941
#
# Velocity S-wave (km/s) = 3.93690 3.98333 3.96018
# Velocity P-wave (km/s) = 7.49360 7.60590 7.54996
#
# Compressibility (1/GPa) = 0.01602928
#
# Stress axis : x y z
#
# Youngs Moduli (GPa) = 70.56964 94.45280 64.23286
#
# Poissons Ratio (x) = 0.25492 0.30007
# Poissons Ratio (y) = 0.19046 0.30689
# Poissons Ratio (z) = 0.32968 0.45127
#
# Static dielectric constant tensor:
#      x y z
#    x 3.317700 0.000000 0.035420 
#    y 0.000000 3.540330 0.000000 
#    z 0.035420 0.000000 3.119450 
# 
# 
# High freq. dielectric constant tensor:
#      x y z
#    x 1.689960 0.000000 0.001820 
#    y 0.000000 1.681350 0.000000 
#    z 0.001820 0.000000 1.650300 
# 
# From -- ./inp_files/199929.got.cif
#   From: 2010.06.25/outbox.cif.g09.slc.cpg/sg12_100_cif.got.tgz:199929.got - 2010.06.28 00:19:55.
