data_PCOD8114301
_publ_section_title
;
Structure prediction by ZEFSAII (Michael W. Deem and Ramdas Pophale) SiO2 
 PCOD8114301
Probable space group: C 2/M
;
_chemical_formula_sum "Si O2"
_cell_formula_units_Z 56
_cell_length_a 23.619205
_cell_length_b 8.471406
_cell_length_c 14.780810
_cell_angle_alpha 90.000000
_cell_angle_beta 109.801423
_cell_angle_gamma 90.000000
_cell_volume 2782.593169
_symmetry_space_group_name_H-M "C 2/M"
_symmetry_group_IT_number 12
_symmetry_cell_setting 'monoclinic'
loop_
_space_group_symop_operation_xyz
x,y,z
-x,y,-z
-x,-y,-z
x,-y,z
1/2+x,1/2+y,z
1/2-x,1/2+y,-z
1/2-x,1/2-y,-z
1/2+x,1/2-y,z
loop_
_atom_site_type_symbol
_atom_site_label
_atom_site_fract_x
_atom_site_fract_y
_atom_site_fract_z
Si Si1 0.557122 0.815993 0.924948
Si Si2 0.683032 0.315979 0.309349
Si Si3 0.192843 0.184835 0.676682
Si Si4 0.141184 0.682287 0.467544
Si Si5 0.422564 0.812796 0.866264
Si Si6 0.596481 0.815546 0.753974
Si Si7 0.484549 0.316782 0.592534
O O1 0.489044 0.753944 0.872401
O O2 0.599620 0.774953 0.862786
O O3 0.548592 0.000000 0.934252
O O4 0.586952 0.755755 0.034515
O O5 0.688495 0.500000 0.332018
O O6 0.740712 0.256238 0.285850
O O7 0.682852 0.227581 0.405596
O O8 0.623947 0.281263 0.220038
O O9 0.158309 0.216778 0.564518
O O10 0.158448 0.264466 0.741880
O O11 0.195718 0.000000 0.695546
O O12 0.150906 0.500000 0.496373
O O13 0.072201 0.716562 0.403164
O O14 0.412332 0.000000 0.846940
O O15 0.541590 0.716111 0.685067
O O16 0.584315 0.000000 0.730855
O O17 0.500000 0.261924 0.500000
O O18 0.467295 0.500000 0.587289
#
# Coordination Sequence:
#
# PCOD8114301 Si02
#       7
#     8   8   8   8   8   8   8
#     4   8  17  34  62  93 121 150 188 236 289 348
#     4  12  25  41  60  86 117 152 195 244 293 349
#     4  12  25  42  59  81 115 157 200 245 291 346
#     4  12  24  40  62  87 115 154 198 243 293 348
#     4   9  17  37  64  91 119 152 191 236 288 345
#     4  11  21  36  59  89 121 158 198 240 294 351
#     4  11  22  36  56  85 122 157 192 237 287 339
#
# _framework density 20.125112000000001
#
# number of rings (size 3 to 8) (size 9 to 14) (size 15 to 20)
#    0.000    1.286    1.429    6.857    0.000    1.714 
#    0.000    4.286    0.000    0.000    0.000    0.000 
#    0.000    0.000    0.000    0.000    0.000    0.000 
#
# Total GULP energy -347295.910556 kJ/mol
# GULP energy per Si atom -12403.425377 kJ/mol
# Density = 2.007931 g / cm^3
# Si number density = 20.125112 Si / 1000 Ang^3
#
#
#
# Elastic Constant Matrix: (Units=GPa)
#
#
# Indices 1 2 3 4 5 6 
#
# 1 103.5690 14.7364 42.3939 0.0000 -25.6393 0.0000
# 2 14.7364 64.2082 22.0011 0.0000 -7.9867 0.0000
# 3 42.3939 22.0011 77.1524 0.0000 -18.4365 0.0000
# 4 0.0000 0.0000 0.0000 19.2095 0.0000 3.8029
# 5 -25.6393 -7.9867 -18.4365 0.0000 28.0783 0.0000
# 6 0.0000 0.0000 0.0000 3.8029 0.0000 33.5855
#
#
#
# Elastic Compliance Matrix: (Units=1/GPa)
#
#
# Indices 1 2 3 4 5 6 
#
# 1 0.014265 -0.000213 -0.005550 0.000000 0.009321 0.000000
# 2 -0.000213 0.017358 -0.004388 0.000000 0.001862 0.000000
# 3 -0.005550 -0.004388 0.018685 0.000000 0.005952 0.000000
# 4 0.000000 0.000000 0.000000 0.053251 0.000000 -0.006030
# 5 0.009321 0.001862 0.005952 0.000000 0.048564 0.000000
# 6 0.000000 0.000000 0.000000 -0.006030 0.000000 0.030458
#
#
# Mechanical properties :
#
#
# Convention : Reuss Voigt Hill
#
# Bulk Modulus (GPa) = 33.32684 44.79916 39.06300
# Shear Modulus (GPa) = 23.48678 27.22786 25.35732
#
# Velocity S-wave (km/s) = 3.41990 3.68221 3.55348
# Velocity P-wave (km/s) = 5.67363 6.35507 6.02399
#
# Compressibility (1/GPa) = 0.03000585
#
# Stress axis : x y z
#
# Youngs Moduli (GPa) = 70.10123 57.60903 53.51909
#
# Poissons Ratio (x) = 0.01225 0.29705
# Poissons Ratio (y) = 0.01491 0.23485
# Poissons Ratio (z) = 0.38909 0.25280
#
# Static dielectric constant tensor:
#      x y z
#    x 3.795630 0.000000 -0.253700 
#    y 0.000000 3.515860 0.000000 
#    z -0.253700 0.000000 3.878000 
# 
# 
# High freq. dielectric constant tensor:
#      x y z
#    x 1.788940 0.000000 -0.011910 
#    y 0.000000 1.779940 0.000000 
#    z -0.011910 0.000000 1.781550 
# 
# From -- ./inp_files/237804.got.cif
#   From: 2010.06.25/outbox.cif.g09.slc.cpg/sg12_119_cif.got.tgz:237804.got - 2010.06.28 00:19:55.
