data_PCOD8114284
_publ_section_title
;
Structure prediction by ZEFSAII (Michael W. Deem and Ramdas Pophale) SiO2 
 PCOD8114284
Probable space group: C 2/M
;
_chemical_formula_sum "Si O2"
_cell_formula_units_Z 40
_cell_length_a 19.228407
_cell_length_b 9.784940
_cell_length_c 15.173985
_cell_angle_alpha 90.000000
_cell_angle_beta 48.446442
_cell_angle_gamma 90.000000
_cell_volume 2136.474738
_symmetry_space_group_name_H-M "C 2/M"
_symmetry_group_IT_number 12
_symmetry_cell_setting 'monoclinic'
loop_
_space_group_symop_operation_xyz
x,y,z
-x,y,-z
-x,-y,-z
x,-y,z
1/2+x,1/2+y,z
1/2-x,1/2+y,-z
1/2-x,1/2-y,-z
1/2+x,1/2-y,z
loop_
_atom_site_type_symbol
_atom_site_label
_atom_site_fract_x
_atom_site_fract_y
_atom_site_fract_z
Si Si1 0.860828 0.647891 0.969550
Si Si2 0.892415 0.347200 0.577845
Si Si3 0.181452 0.732547 0.178702
Si Si4 0.979528 0.848397 0.782416
Si Si5 0.667885 0.663821 0.526516
O O1 0.897439 0.500000 0.968977
O O2 0.814072 0.633970 0.911004
O O3 0.949465 0.749929 0.889121
O O4 0.782192 0.696392 0.104485
O O5 0.880495 0.500000 0.546316
O O6 0.839769 0.350204 0.715331
O O7 0.848167 0.227692 0.556268
O O8 0.000000 0.313163 0.500000
O O9 0.097624 0.840970 0.231091
O O10 0.078590 0.804291 0.661323
O O11 0.984261 0.000000 0.817036
O O12 0.687783 0.500000 0.503053
O O13 0.750000 0.750000 0.500000
#
# Coordination Sequence:
#
# PCOD8114284 Si02
#       5
#     8   8   8   8   8
#     4   9  17  29  50  79 113 145 177 219 275 328
#     4  11  21  36  57  84 114 147 186 232 279 330
#     4   9  18  28  51  81 115 138 178 219 278 319
#     4   9  18  32  52  76 107 141 180 222 270 322
#     4  11  24  40  57  80 111 152 190 231 279 333
#
# _framework density 18.722432000000001
#
# number of rings (size 3 to 8) (size 9 to 14) (size 15 to 20)
#    1.200    1.000    2.000    1.800    0.000    4.400 
#    0.000    0.000    0.000    1.200    0.000    7.000 
#    0.000    0.000    0.000    0.000    0.000    0.000 
#
# Total GULP energy -247762.603243 kJ/mol
# GULP energy per Si atom -12388.130162 kJ/mol
# Density = 1.867982 g / cm^3
# Si number density = 18.722432 Si / 1000 Ang^3
#
#
#
# Elastic Constant Matrix: (Units=GPa)
#
#
# Indices 1 2 3 4 5 6 
#
# 1 54.8583 33.0902 31.9095 0.0000 -8.4427 0.0000
# 2 33.0902 109.3153 46.9347 -0.0001 -8.8956 0.0000
# 3 31.9095 46.9347 115.9109 0.0000 -20.5594 0.0000
# 4 0.0000 -0.0001 0.0000 23.6840 0.0000 -2.7740
# 5 -8.4427 -8.8956 -20.5594 0.0000 21.7106 0.0000
# 6 0.0000 0.0000 0.0000 -2.7740 0.0000 24.9722
#
#
#
# Elastic Compliance Matrix: (Units=1/GPa)
#
#
# Indices 1 2 3 4 5 6 
#
# 1 0.024284 -0.005401 -0.003865 0.000000 0.003571 0.000000
# 2 -0.005401 0.012276 -0.003563 0.000000 -0.000444 0.000000
# 3 -0.003865 -0.003563 0.012750 0.000000 0.009111 0.000000
# 4 0.000000 0.000000 0.000000 0.042779 0.000000 0.004752
# 5 0.003571 -0.000444 0.009111 0.000000 0.055895 0.000000
# 6 0.000000 0.000000 0.000000 0.004752 0.000000 0.040572
#
#
# Mechanical properties :
#
#
# Convention : Reuss Voigt Hill
#
# Bulk Modulus (GPa) = 42.27797 55.99482 49.13639
# Shear Modulus (GPa) = 22.51245 25.28336 23.89790
#
# Velocity S-wave (km/s) = 3.47137 3.67881 3.57659
# Velocity P-wave (km/s) = 6.22075 6.92948 6.58465
#
# Compressibility (1/GPa) = 0.02365298
#
# Stress axis : x y z
#
# Youngs Moduli (GPa) = 41.17886 81.45763 78.43073
#
# Poissons Ratio (x) = 0.43995 0.30314
# Poissons Ratio (y) = 0.22240 0.27944
# Poissons Ratio (z) = 0.15916 0.29022
#
# Static dielectric constant tensor:
#      x y z
#    x 3.029980 0.000000 -0.057480 
#    y 0.000000 3.429180 0.000000 
#    z -0.057480 0.000000 3.607460 
# 
# 
# High freq. dielectric constant tensor:
#      x y z
#    x 1.667390 0.000000 -0.023360 
#    y 0.000000 1.732760 0.000000 
#    z -0.023360 0.000000 1.733880 
# 
# From -- ./inp_files/222292.got.cif
#   From: 2010.06.25/outbox.cif.g09.slc.cpg/sg12_112_cif.got.tgz:222292.got - 2010.06.28 00:19:55.
