data_PCOD8114309
_publ_section_title
;
Structure prediction by ZEFSAII (Michael W. Deem and Ramdas Pophale) SiO2 
 PCOD8114309
Probable space group: C 2/M
;
_chemical_formula_sum "Si O2"
_cell_formula_units_Z 48
_cell_length_a 23.302241
_cell_length_b 8.482402
_cell_length_c 12.315233
_cell_angle_alpha 90.000000
_cell_angle_beta 69.402241
_cell_angle_gamma 90.000000
_cell_volume 2278.604914
_symmetry_space_group_name_H-M "C 2/M"
_symmetry_group_IT_number 12
_symmetry_cell_setting 'monoclinic'
loop_
_space_group_symop_operation_xyz
x,y,z
-x,y,-z
-x,-y,-z
x,-y,z
1/2+x,1/2+y,z
1/2-x,1/2+y,-z
1/2-x,1/2-y,-z
1/2+x,1/2-y,z
loop_
_atom_site_type_symbol
_atom_site_label
_atom_site_fract_x
_atom_site_fract_y
_atom_site_fract_z
Si Si1 0.068452 0.184530 0.466590
Si Si2 0.308364 0.815971 0.218113
Si Si3 0.406357 0.318344 0.305747
Si Si4 0.824348 0.812731 0.753467
Si Si5 0.643630 0.318167 0.033600
Si Si6 0.982614 0.680849 0.890323
O O1 0.098065 0.218282 0.563957
O O2 0.116055 0.259553 0.347554
O O3 0.000000 0.259839 0.500000
O O4 0.062542 0.000000 0.447790
O O5 0.342065 0.721164 0.291021
O O6 0.238066 0.756103 0.263184
O O7 0.313367 0.000000 0.240901
O O8 0.338584 0.787761 0.080555
O O9 0.422920 0.500000 0.272991
O O10 0.459263 0.208452 0.223969
O O11 0.820781 0.760013 0.881954
O O12 0.828681 0.000000 0.745922
O O13 0.657184 0.500000 0.997614
O O14 0.572142 0.294928 0.109329
O O15 0.961694 0.500000 0.895025
O O16 0.000000 0.727152 0.000000
#
# Coordination Sequence:
#
# PCOD8114309 Si02
#       6
#     8   8   8   8   8   8
#     4   9  18  36  61  87 113 144 189 241 289 336
#     4  11  22  37  56  82 121 159 189 231 292 346
#     4  11  22  36  60  89 115 148 195 243 280 333
#     4   9  20  37  58  85 116 154 194 235 286 342
#     4  11  21  36  61  88 114 148 197 245 282 333
#     4  11  22  36  56  83 117 153 184 226 290 349
#
# _framework density 21.065521
#
# number of rings (size 3 to 8) (size 9 to 14) (size 15 to 20)
#    0.000    1.667    1.667    3.500    0.000    4.000 
#    0.000    2.500    0.000   14.000    0.000    0.000 
#    0.000    0.000    0.000    0.000    0.000    0.000 
#
# Total GULP energy -297631.451063 kJ/mol
# GULP energy per Si atom -12401.310461 kJ/mol
# Density = 2.101758 g / cm^3
# Si number density = 21.065521 Si / 1000 Ang^3
#
#
#
# Elastic Constant Matrix: (Units=GPa)
#
#
# Indices 1 2 3 4 5 6 
#
# 1 141.4561 9.6954 51.0481 0.0000 4.4020 0.0000
# 2 9.6954 30.4957 14.3770 0.0000 7.6796 0.0000
# 3 51.0481 14.3770 89.3984 0.0000 8.5652 0.0000
# 4 0.0000 0.0000 0.0000 -1.5529 0.0000 2.3785
# 5 4.4020 7.6796 8.5652 0.0000 35.6199 0.0000
# 6 0.0000 0.0000 0.0000 2.3785 0.0000 26.7681
#
#
#
# Elastic Compliance Matrix: (Units=1/GPa)
#
#
# Indices 1 2 3 4 5 6 
#
# 1 0.008912 -0.000519 -0.005026 0.000000 0.000219 0.000000
# 2 -0.000519 0.037009 -0.005013 0.000000 -0.006710 0.000000
# 3 -0.005026 -0.005013 0.015046 0.000000 -0.001916 0.000000
# 4 0.000000 0.000000 0.000000 -0.566829 0.000000 0.050365
# 5 0.000219 -0.006710 -0.001916 0.000000 0.029954 0.000000
# 6 0.000000 0.000000 0.000000 0.050365 0.000000 0.032883
#
#
# Mechanical properties :
#
#
# Convention : Reuss Voigt Hill
#
# Bulk Modulus (GPa) = 25.09339 45.73236 35.41288
# Shear Modulus (GPa) = -12.23616 24.58235 6.17310
#
# Velocity S-wave (km/s) = -2.41272 3.41977 1.71371
# Velocity P-wave (km/s) = 2.04360 6.11145 4.55665
#
# Compressibility (1/GPa) = 0.03985113
#
# Stress axis : x y z
#
# Youngs Moduli (GPa) = 112.20818 27.02020 66.46377
#
# Poissons Ratio (x) = 0.01402 0.33408
# Poissons Ratio (y) = 0.05822 0.33316
# Poissons Ratio (z) = 0.56401 0.13544
#
# Static dielectric constant tensor:
#      x y z
#    x 4.113300 0.000000 0.029040 
#    y 0.000000 3.400510 0.000000 
#    z 0.029040 0.000000 3.862020 
# 
# 
# High freq. dielectric constant tensor:
#      x y z
#    x 1.841010 0.000000 0.004390 
#    y 0.000000 1.793160 0.000000 
#    z 0.004390 0.000000 1.823470 
# 
# From -- ./inp_files/172883.got.cif
#   From: 2010.06.25/outbox.cif.g09.slc.cpg/sg12_87_cif.got.tgz:172883.got - 2010.06.28 00:19:55.
