data_PCOD8114193
_publ_section_title
;
Structure prediction by ZEFSAII (Michael W. Deem and Ramdas Pophale) SiO2 
 PCOD8114193
Probable space group: C 2/M
;
_chemical_formula_sum "Si O2"
_cell_formula_units_Z 48
_cell_length_a 19.550379
_cell_length_b 24.035584
_cell_length_c 11.849837
_cell_angle_alpha 90.000000
_cell_angle_beta 156.455913
_cell_angle_gamma 90.000000
_cell_volume 2224.281027
_symmetry_space_group_name_H-M "C 2/M"
_symmetry_group_IT_number 12
_symmetry_cell_setting 'monoclinic'
loop_
_space_group_symop_operation_xyz
x,y,z
-x,y,-z
-x,-y,-z
x,-y,z
1/2+x,1/2+y,z
1/2-x,1/2+y,-z
1/2-x,1/2-y,-z
1/2+x,1/2-y,z
loop_
_atom_site_type_symbol
_atom_site_label
_atom_site_fract_x
_atom_site_fract_y
_atom_site_fract_z
Si Si1 0.210217 0.248087 0.223778
Si Si2 0.311075 0.134093 0.721155
Si Si3 0.580174 0.773948 0.793194
Si Si4 0.187457 0.874452 0.290279
Si Si5 0.481674 0.099494 0.340050
Si Si6 0.688370 0.562320 0.739953
O O1 0.183937 0.298955 0.268752
O O2 0.406632 0.249626 0.474467
O O3 0.178197 0.190095 0.238562
O O4 0.077177 0.257372 0.920629
O O5 0.219720 0.116976 0.469796
O O6 0.219871 0.107971 0.691577
O O7 0.500000 0.109046 0.000000
O O8 0.588139 0.839089 0.785397
O O9 0.750000 0.750000 0.000000
O O10 0.330443 0.907208 0.433234
O O11 0.000000 0.901998 0.000000
O O12 0.500000 0.084286 0.500000
O O13 0.335363 0.062374 0.059631
O O14 0.500000 0.577079 0.500000
O O15 0.688235 0.500000 0.688503
#
# Coordination Sequence:
#
# PCOD8114193 Si02
#       6
#     8   8   8   8   8   8
#     4  11  21  35  56  92 136 175 220 261 319 396
#     4  12  22  42  67  96 131 176 219 278 334 395
#     4  11  21  34  55  95 132 180 218 264 325 396
#     4  11  23  39  61 102 137 180 217 261 323 405
#     4  11  24  44  66  97 137 172 225 281 335 400
#     4  11  27  49  74 100 126 172 231 288 349 396
#
# _framework density 21.580006000000001
#
# number of rings (size 3 to 8) (size 9 to 14) (size 15 to 20)
#    0.000    0.833    3.333    5.500    4.667    0.667 
#    0.000    0.000    0.000    1.000    0.000    0.000 
#    0.000    0.000    0.000    0.000    0.000    0.000 
#
# Total GULP energy -297517.095216 kJ/mol
# GULP energy per Si atom -12396.545634 kJ/mol
# Density = 2.153089 g / cm^3
# Si number density = 21.580006 Si / 1000 Ang^3
#
#
#
# Elastic Constant Matrix: (Units=GPa)
#
#
# Indices 1 2 3 4 5 6 
#
# 1 114.8447 11.3743 47.3850 0.0000 5.9898 0.0000
# 2 11.3743 41.8592 6.9219 0.0000 7.1849 0.0000
# 3 47.3850 6.9219 122.0593 0.0000 14.9270 0.0000
# 4 0.0000 0.0000 0.0000 21.8368 0.0000 1.0973
# 5 5.9898 7.1849 14.9270 0.0000 57.9757 0.0000
# 6 0.0000 0.0000 0.0000 1.0973 0.0000 10.0024
#
#
#
# Elastic Compliance Matrix: (Units=1/GPa)
#
#
# Indices 1 2 3 4 5 6 
#
# 1 0.010570 -0.002248 -0.004003 0.000000 0.000217 0.000000
# 2 -0.002248 0.025017 -0.000202 0.000000 -0.002816 0.000000
# 3 -0.004003 -0.000202 0.010020 0.000000 -0.002141 0.000000
# 4 0.000000 0.000000 0.000000 0.046048 0.000000 -0.005052
# 5 0.000217 -0.002816 -0.002141 0.000000 0.018127 0.000000
# 6 0.000000 0.000000 0.000000 -0.005052 0.000000 0.100530
#
#
# Mechanical properties :
#
#
# Convention : Reuss Voigt Hill
#
# Bulk Modulus (GPa) = 30.57789 45.56951 38.07370
# Shear Modulus (GPa) = 21.35686 32.16845 26.76265
#
# Velocity S-wave (km/s) = 3.14930 3.86510 3.52541
# Velocity P-wave (km/s) = 5.23683 6.40945 5.85258
#
# Compressibility (1/GPa) = 0.03270337
#
# Stress axis : x y z
#
# Youngs Moduli (GPa) = 94.60597 39.97263 99.80148
#
# Poissons Ratio (x) = 0.08984 0.39946
# Poissons Ratio (y) = 0.21264 0.02013
# Poissons Ratio (z) = 0.37867 0.00806
#
# Static dielectric constant tensor:
#      x y z
#    x 3.938730 0.000000 0.078430 
#    y 0.000000 3.548600 0.000000 
#    z 0.078430 0.000000 4.472350 
# 
# 
# High freq. dielectric constant tensor:
#      x y z
#    x 1.855150 0.000000 0.005980 
#    y 0.000000 1.812000 0.000000 
#    z 0.005980 0.000000 1.873410 
# 
# From -- ./inp_files/170694.got.cif
#   From: 2010.06.25/outbox.cif.g09.slc.cpg/sg12_86_cif.got.tgz:170694.got - 2010.06.28 00:19:55.
