data_PCOD8114388
_publ_section_title
;
Structure prediction by ZEFSAII (Michael W. Deem and Ramdas Pophale) SiO2 
 PCOD8114388
Probable space group: C 2/M
;
_chemical_formula_sum "Si O2"
_cell_formula_units_Z 56
_cell_length_a 8.546124
_cell_length_b 25.787579
_cell_length_c 17.602725
_cell_angle_alpha 90.000000
_cell_angle_beta 50.275652
_cell_angle_gamma 90.000000
_cell_volume 2983.721680
_symmetry_space_group_name_H-M "C 2/M"
_symmetry_group_IT_number 12
_symmetry_cell_setting 'monoclinic'
loop_
_space_group_symop_operation_xyz
x,y,z
-x,y,-z
-x,-y,-z
x,-y,z
1/2+x,1/2+y,z
1/2-x,1/2+y,-z
1/2-x,1/2-y,-z
1/2+x,1/2-y,z
loop_
_atom_site_type_symbol
_atom_site_label
_atom_site_fract_x
_atom_site_fract_y
_atom_site_fract_z
Si Si1 0.395512 0.150433 0.155596
Si Si2 0.125521 0.287867 0.384819
Si Si3 0.680005 0.942067 0.060484
Si Si4 0.609019 0.442792 0.849551
Si Si5 0.539489 0.348450 0.776775
Si Si6 0.599372 0.266147 0.889810
Si Si7 0.548098 0.203971 0.720046
O O1 0.527499 0.103170 0.081132
O O2 0.472877 0.206946 0.102879
O O3 0.418752 0.151515 0.240865
O O4 0.170001 0.138448 0.198278
O O5 0.304591 0.330063 0.337410
O O6 0.243788 0.235051 0.327160
O O7 0.000000 0.282342 0.500000
O O8 0.973813 0.304378 0.363452
O O9 0.729505 0.935131 0.133617
O O10 0.587777 0.000000 0.075129
O O11 0.881940 0.934859 0.949864
O O12 0.634136 0.500000 0.806106
O O13 0.647367 0.400092 0.774183
O O14 0.518978 0.305857 0.850468
O O15 0.845606 0.266801 0.814304
O O16 0.500000 0.284772 0.000000
#
# Coordination Sequence:
#
# PCOD8114388 Si02
#       7
#     8   8   8   8   8   8   8
#     4  12  22  35  53  80 121 148 186 234 273 329
#     4  11  21  38  59  80 110 147 190 241 288 332
#     4   9  20  36  56  79 108 154 198 228 271 329
#     4   9  20  39  57  77 109 151 195 235 275 326
#     4  11  23  37  55  84 114 145 194 234 280 345
#     4  11  24  37  52  78 119 162 189 222 276 336
#     4  11  21  38  52  81 113 150 192 227 275 345
#
# _framework density 18.768505999999999
#
# number of rings (size 3 to 8) (size 9 to 14) (size 15 to 20)
#    0.000    1.429    4.286    3.000    6.000    1.714 
#    0.000    1.429    0.000    0.429    0.000    0.000 
#    0.000    5.143    0.000    0.000    0.000    0.000 
#
# Total GULP energy -346988.842334 kJ/mol
# GULP energy per Si atom -12392.458655 kJ/mol
# Density = 1.872579 g / cm^3
# Si number density = 18.768506 Si / 1000 Ang^3
#
#
#
# Elastic Constant Matrix: (Units=GPa)
#
#
# Indices 1 2 3 4 5 6 
#
# 1 73.3854 11.9517 13.0421 0.0000 -3.1101 0.0000
# 2 11.9517 99.6895 14.6605 0.0000 -12.9031 0.0000
# 3 13.0421 14.6605 86.2540 0.0000 -0.9454 0.0000
# 4 0.0000 0.0000 0.0000 11.1005 0.0000 1.0238
# 5 -3.1101 -12.9031 -0.9454 0.0000 20.7103 0.0000
# 6 0.0000 0.0000 0.0000 1.0238 0.0000 28.4788
#
#
#
# Elastic Compliance Matrix: (Units=1/GPa)
#
#
# Indices 1 2 3 4 5 6 
#
# 1 0.014227 -0.001259 -0.001923 0.000000 0.001264 0.000000
# 2 -0.001259 0.011303 -0.001656 0.000000 0.006777 0.000000
# 3 -0.001923 -0.001656 0.012158 0.000000 -0.000766 0.000000
# 4 0.000000 0.000000 0.000000 0.090386 0.000000 -0.003249
# 5 0.001264 0.006777 -0.000766 0.000000 0.052663 0.000000
# 6 0.000000 0.000000 0.000000 -0.003249 0.000000 0.035231
#
#
# Mechanical properties :
#
#
# Convention : Reuss Voigt Hill
#
# Bulk Modulus (GPa) = 35.70192 37.62640 36.66416
# Shear Modulus (GPa) = 21.27826 26.70287 23.99057
#
# Velocity S-wave (km/s) = 3.37073 3.77603 3.57912
# Velocity P-wave (km/s) = 5.84916 6.25318 6.05454
#
# Compressibility (1/GPa) = 0.02800970
#
# Stress axis : x y z
#
# Youngs Moduli (GPa) = 70.28812 88.47269 82.25276
#
# Poissons Ratio (x) = 0.11140 0.15820
# Poissons Ratio (y) = 0.08851 0.13625
# Poissons Ratio (z) = 0.13519 0.14655
#
# Static dielectric constant tensor:
#      x y z
#    x 3.626370 0.000000 0.067750 
#    y 0.000000 3.581460 0.000000 
#    z 0.067750 0.000000 3.173810 
# 
# 
# High freq. dielectric constant tensor:
#      x y z
#    x 1.747920 0.000000 0.004680 
#    y 0.000000 1.715350 0.000000 
#    z 0.004680 0.000000 1.685870 
# 
# From -- ./inp_files/259532.got.cif
#   From: 2010.06.25/outbox.cif.g09.slc.cpg/sg12_130_cif.got.tgz:259532.got - 2010.06.28 00:19:55.
