data_PCOD8114772
_publ_section_title
;
Structure prediction by ZEFSAII (Michael W. Deem and Ramdas Pophale) SiO2 
 PCOD8114772
Probable space group: C 2/M
;
_chemical_formula_sum "Si O2"
_cell_formula_units_Z 60
_cell_length_a 9.599667
_cell_length_b 17.558686
_cell_length_c 18.131420
_cell_angle_alpha 90.000000
_cell_angle_beta 95.072083
_cell_angle_gamma 90.000000
_cell_volume 3044.220291
_symmetry_space_group_name_H-M "C 2/M"
_symmetry_group_IT_number 12
_symmetry_cell_setting 'monoclinic'
loop_
_space_group_symop_operation_xyz
x,y,z
-x,y,-z
-x,-y,-z
x,-y,z
1/2+x,1/2+y,z
1/2-x,1/2+y,-z
1/2-x,1/2-y,-z
1/2+x,1/2-y,z
loop_
_atom_site_type_symbol
_atom_site_label
_atom_site_fract_x
_atom_site_fract_y
_atom_site_fract_z
Si Si1 0.144682 0.409851 0.598361
Si Si2 0.333260 0.910271 0.563422
Si Si3 0.638132 0.642606 0.274716
Si Si4 0.692273 0.411913 0.114772
Si Si5 0.307360 0.791425 0.795928
Si Si6 0.000000 0.816254 0.000000
Si Si7 0.838929 0.910469 0.306612
Si Si8 0.591474 0.209556 0.886866
O O1 0.160452 0.500000 0.607858
O O2 0.200865 0.381066 0.520862
O O3 0.230544 0.370828 0.666881
O O4 0.984439 0.381643 0.599164
O O5 0.211820 0.885606 0.614132
O O6 0.345901 0.000000 0.558478
O O7 0.656991 0.597016 0.199235
O O8 0.630835 0.733123 0.261671
O O9 0.498732 0.614334 0.308232
O O10 0.698366 0.500000 0.093164
O O11 0.839566 0.373454 0.099758
O O12 0.573577 0.369630 0.062937
O O13 0.261030 0.870752 0.758031
O O14 0.428501 0.805120 0.861540
O O15 0.171040 0.753551 0.825530
O O16 0.105967 0.760856 0.960960
O O17 0.822316 0.000000 0.292630
#
# Coordination Sequence:
#
# PCOD8114772 Si02
#       8
#     8   8   8   8   8   4   8   8
#     4   9  17  34  57  84 121 163 201 247 298 364
#     4   8  18  33  54  86 121 159 202 244 306 357
#     4  11  22  38  62  87 122 160 202 245 303 362
#     4  11  24  39  63  97 123 156 205 251 296 357
#     4  11  23  42  60  91 121 163 197 251 297 366
#     4  12  21  44  69  86 124 168 198 240 303 370
#     4  11  22  37  60  92 122 155 202 257 301 346
#     4  11  23  42  68  87 122 164 206 236 304 369
#
# _framework density 19.709481
#
# number of rings (size 3 to 8) (size 9 to 14) (size 15 to 20)
#    0.000    1.600    4.000    2.600    3.733    1.067 
#    0.000    3.667    0.000    0.000    0.000    0.000 
#    0.000    0.000    0.000    0.000    0.000    0.000 
#
# Total GULP energy -371956.660278 kJ/mol
# GULP energy per Si atom -12398.555343 kJ/mol
# Density = 1.966462 g / cm^3
# Si number density = 19.709481 Si / 1000 Ang^3
#
#
#
# Elastic Constant Matrix: (Units=GPa)
#
#
# Indices 1 2 3 4 5 6 
#
# 1 90.6291 37.8683 55.5841 0.0000 1.2624 0.0000
# 2 37.8683 88.5257 37.3205 0.0000 -13.0295 0.0000
# 3 55.5841 37.3205 117.8212 0.0000 3.4537 0.0000
# 4 0.0000 0.0000 0.0000 16.7268 0.0000 2.2917
# 5 1.2624 -13.0295 3.4537 0.0000 33.2130 0.0000
# 6 0.0000 0.0000 0.0000 2.2917 0.0000 21.8310
#
#
#
# Elastic Compliance Matrix: (Units=1/GPa)
#
#
# Indices 1 2 3 4 5 6 
#
# 1 0.017041 -0.004847 -0.006449 0.000000 -0.001879 0.000000
# 2 -0.004847 0.015527 -0.002824 0.000000 0.006569 0.000000
# 3 -0.006449 -0.002824 0.012488 0.000000 -0.002161 0.000000
# 4 0.000000 0.000000 0.000000 0.060657 0.000000 -0.006367
# 5 -0.001879 0.006569 -0.002161 0.000000 0.032982 0.000000
# 6 0.000000 0.000000 0.000000 -0.006367 0.000000 0.046475
#
#
# Mechanical properties :
#
#
# Convention : Reuss Voigt Hill
#
# Bulk Modulus (GPa) = 59.47003 62.05800 60.76401
# Shear Modulus (GPa) = 22.82958 25.43436 24.13197
#
# Velocity S-wave (km/s) = 3.40708 3.59620 3.50292
# Velocity P-wave (km/s) = 6.76139 6.98557 6.87440
#
# Compressibility (1/GPa) = 0.01681519
#
# Stress axis : x y z
#
# Youngs Moduli (GPa) = 58.68329 64.40355 80.07929
#
# Poissons Ratio (x) = 0.31218 0.51641
# Poissons Ratio (y) = 0.28445 0.22615
# Poissons Ratio (z) = 0.37843 0.18188
#
# Static dielectric constant tensor:
#      x y z
#    x 3.695010 0.000000 -0.133750 
#    y 0.000000 3.502840 0.000000 
#    z -0.133750 0.000000 3.765520 
# 
# 
# High freq. dielectric constant tensor:
#      x y z
#    x 1.773150 0.000000 -0.000520 
#    y 0.000000 1.751340 0.000000 
#    z -0.000520 0.000000 1.773450 
# 
# From -- ./inp_files/258149.got.cif
#   From: 2010.06.25/outbox.cif.g09.slc.cpg/sg12_130_cif.got.tgz:258149.got - 2010.06.28 00:19:55.
