data_PCOD8114631
_publ_section_title
;
Structure prediction by ZEFSAII (Michael W. Deem and Ramdas Pophale) SiO2 
 PCOD8114631
Probable space group: C 2/M
;
_chemical_formula_sum "Si O2"
_cell_formula_units_Z 64
_cell_length_a 14.545183
_cell_length_b 27.297619
_cell_length_c 9.340410
_cell_angle_alpha 90.000000
_cell_angle_beta 108.304742
_cell_angle_gamma 90.000000
_cell_volume 3520.942158
_symmetry_space_group_name_H-M "C 2/M"
_symmetry_group_IT_number 12
_symmetry_cell_setting 'monoclinic'
loop_
_space_group_symop_operation_xyz
x,y,z
-x,y,-z
-x,-y,-z
x,-y,z
1/2+x,1/2+y,z
1/2-x,1/2+y,-z
1/2-x,1/2-y,-z
1/2+x,1/2-y,z
loop_
_atom_site_type_symbol
_atom_site_label
_atom_site_fract_x
_atom_site_fract_y
_atom_site_fract_z
Si Si1 0.611013 0.197306 0.537651
Si Si2 0.903345 0.188367 0.031540
Si Si3 0.903241 0.192019 0.373517
Si Si4 0.796476 0.348162 0.678385
Si Si5 0.888025 0.444766 0.616154
Si Si6 0.891897 0.299925 0.981859
Si Si7 0.791456 0.351975 0.169672
Si Si8 0.110363 0.445480 0.719940
O O1 0.500000 0.178899 0.500000
O O2 0.622169 0.252904 0.592435
O O3 0.641612 0.189687 0.388102
O O4 0.688948 0.162715 0.656313
O O5 0.917105 0.188272 0.209160
O O6 0.876322 0.242019 0.958907
O O7 0.817972 0.152863 0.937796
O O8 0.000000 0.169606 0.000000
O O9 0.819045 0.157157 0.393605
O O10 0.000000 0.174158 0.500000
O O11 0.823483 0.404961 0.667893
O O12 0.817873 0.330538 0.849368
O O13 0.856966 0.500000 0.646784
O O14 0.874547 0.438096 0.441096
O O15 0.999733 0.435692 0.710418
O O16 0.866360 0.315253 0.129588
O O17 0.000000 0.315979 0.000000
O O18 0.820877 0.408454 0.159940
O O19 0.141241 0.500000 0.780607
#
# Coordination Sequence:
#
# PCOD8114631 Si02
#       8
#     8   8   8   8   8   8   8   8
#     4  11  22  34  55  87 117 150 190 229 272 336
#     4  11  25  40  56  79 113 156 194 236 287 326
#     4  11  25  40  55  81 114 150 198 242 276 326
#     4  12  22  36  57  85 115 154 192 228 280 337
#     4   9  18  34  56  85 117 146 183 229 279 334
#     4  11  22  35  56  81 119 152 183 228 284 343
#     4  12  20  37  58  80 117 152 190 229 278 341
#     4   9  18  33  57  86 114 146 186 230 275 333
#
# _framework density 18.176953999999999
#
# number of rings (size 3 to 8) (size 9 to 14) (size 15 to 20)
#    0.000    1.250    3.750    4.500    7.000    0.000 
#    0.000    0.625    0.000    3.000    0.000    0.000 
#    0.000    0.000    0.000    0.000    0.000    0.000 
#
# Total GULP energy -396810.876126 kJ/mol
# GULP energy per Si atom -12400.339879 kJ/mol
# Density = 1.813558 g / cm^3
# Si number density = 18.176954 Si / 1000 Ang^3
#
#
#
# Elastic Constant Matrix: (Units=GPa)
#
#
# Indices 1 2 3 4 5 6 
#
# 1 118.5332 62.4811 34.9652 0.0000 11.5994 0.0000
# 2 62.4811 112.4400 36.0790 0.0000 16.1051 0.0000
# 3 34.9652 36.0790 64.0481 0.0000 13.6965 0.0000
# 4 0.0000 0.0000 0.0000 8.2050 0.0000 4.7770
# 5 11.5994 16.1051 13.6965 0.0000 32.6216 0.0000
# 6 0.0000 0.0000 0.0000 4.7770 0.0000 30.0541
#
#
#
# Elastic Compliance Matrix: (Units=1/GPa)
#
#
# Indices 1 2 3 4 5 6 
#
# 1 0.012567 -0.005828 -0.003557 0.000000 -0.000098 0.000000
# 2 -0.005828 0.013845 -0.003954 0.000000 -0.003103 0.000000
# 3 -0.003557 -0.003954 0.020978 0.000000 -0.005591 0.000000
# 4 0.000000 0.000000 0.000000 0.134306 0.000000 -0.021347
# 5 -0.000098 -0.003103 -0.005591 0.000000 0.034569 0.000000
# 6 0.000000 0.000000 0.000000 -0.021347 0.000000 0.036666
#
#
# Mechanical properties :
#
#
# Convention : Reuss Voigt Hill
#
# Bulk Modulus (GPa) = 48.27926 62.45245 55.36586
# Shear Modulus (GPa) = 17.45117 24.94253 21.19685
#
# Velocity S-wave (km/s) = 3.10186 3.70835 3.41858
# Velocity P-wave (km/s) = 6.28069 7.26419 6.79027
#
# Compressibility (1/GPa) = 0.02071283
#
# Stress axis : x y z
#
# Youngs Moduli (GPa) = 79.57106 72.22587 47.66908
#
# Poissons Ratio (x) = 0.42095 0.16955
# Poissons Ratio (y) = 0.46376 0.18848
# Poissons Ratio (z) = 0.28302 0.28558
#
# Static dielectric constant tensor:
#      x y z
#    x 3.356850 0.000000 -0.002990 
#    y 0.000000 3.278470 0.000000 
#    z -0.002990 0.000000 3.303270 
# 
# 
# High freq. dielectric constant tensor:
#      x y z
#    x 1.696480 0.000000 -0.003730 
#    y 0.000000 1.684620 0.000000 
#    z -0.003730 0.000000 1.705520 
# 
# From -- ./inp_files/67007.got.cif
#   From: 2010.06.25/outbox.cif.g09.slc.cpg/sg12_34_cif.got.tgz:67007.got - 2010.06.28 00:19:55.
