data_PCOD8114961
_publ_section_title
;
Structure prediction by ZEFSAII (Michael W. Deem and Ramdas Pophale) SiO2 
 PCOD8114961
Probable space group: C 2/M
;
_chemical_formula_sum "Si O2"
_cell_formula_units_Z 40
_cell_length_a 9.311073
_cell_length_b 14.777533
_cell_length_c 13.661026
_cell_angle_alpha 90.000000
_cell_angle_beta 79.100052
_cell_angle_gamma 90.000000
_cell_volume 1845.773010
_symmetry_space_group_name_H-M "C 2/M"
_symmetry_group_IT_number 12
_symmetry_cell_setting 'monoclinic'
loop_
_space_group_symop_operation_xyz
x,y,z
-x,y,-z
-x,-y,-z
x,-y,z
1/2+x,1/2+y,z
1/2-x,1/2+y,-z
1/2-x,1/2-y,-z
1/2+x,1/2-y,z
loop_
_atom_site_type_symbol
_atom_site_label
_atom_site_fract_x
_atom_site_fract_y
_atom_site_fract_z
Si Si1 0.372635 0.000000 0.793668
Si Si2 0.355742 0.169438 0.466713
Si Si3 0.880521 0.851902 0.771896
Si Si4 0.225652 0.500000 0.400835
Si Si5 0.528100 0.500000 0.882574
Si Si6 0.038919 0.000000 0.379502
Si Si7 0.436896 0.831869 0.238663
O O1 0.456680 0.909656 0.819559
O O2 0.387375 0.000000 0.673481
O O3 0.204046 0.000000 0.846996
O O4 0.500000 0.203084 0.500000
O O5 0.250000 0.250000 0.500000
O O6 0.289642 0.083894 0.527630
O O7 0.380819 0.141638 0.352460
O O8 0.709074 0.825158 0.810853
O O9 0.977070 0.761795 0.760608
O O10 0.946075 0.912439 0.849933
O O11 0.883154 0.907520 0.667448
O O12 0.388652 0.500000 0.335365
O O13 0.500000 0.500000 0.000000
O O14 0.000000 0.000000 0.500000
#
# Coordination Sequence:
#
# PCOD8114961 Si02
#       7
#     4   8   8   4   4   4   8
#     4  12  23  45  69  95 133 180 227 288 342 400
#     4  12  24  37  58  93 138 190 241 270 314 386
#     4  11  24  43  68 101 137 177 228 279 343 409
#     4  12  22  40  57  88 134 188 235 274 326 382
#     4  11  26  52  79 102 130 168 220 292 362 422
#     4  11  22  40  59  91 138 184 237 281 330 393
#     4  12  24  41  67 101 143 184 226 279 335 398
#
# _framework density 21.671136000000001
#
# number of rings (size 3 to 8) (size 9 to 14) (size 15 to 20)
#    0.000    0.400    4.000    6.900    0.000    1.600 
#    0.000    6.000    0.000    0.000    0.000    0.000 
#    0.000    0.000    0.000    0.000    0.000    0.000 
#
# Total GULP energy -247889.866217 kJ/mol
# GULP energy per Si atom -12394.493311 kJ/mol
# Density = 2.162181 g / cm^3
# Si number density = 21.671136 Si / 1000 Ang^3
#
#
#
# Elastic Constant Matrix: (Units=GPa)
#
#
# Indices 1 2 3 4 5 6 
#
# 1 190.9538 78.4411 23.5651 0.0000 5.6584 0.0000
# 2 78.4411 179.5189 29.0668 0.0000 -2.6837 0.0000
# 3 23.5651 29.0668 78.2234 0.0000 0.6425 0.0000
# 4 0.0000 0.0000 0.0000 31.5747 0.0000 17.8673
# 5 5.6584 -2.6837 0.6425 0.0000 17.8046 0.0000
# 6 0.0000 0.0000 0.0000 17.8673 0.0000 50.2561
#
#
#
# Elastic Compliance Matrix: (Units=1/GPa)
#
#
# Indices 1 2 3 4 5 6 
#
# 1 0.006555 -0.002750 -0.000933 0.000000 -0.002464 0.000000
# 2 -0.002750 0.007098 -0.001825 0.000000 0.002010 0.000000
# 3 -0.000933 -0.001825 0.013747 0.000000 -0.000475 0.000000
# 4 0.000000 0.000000 0.000000 0.039647 0.000000 -0.014096
# 5 -0.002464 0.002010 -0.000475 0.000000 0.057268 0.000000
# 6 0.000000 0.000000 0.000000 -0.014096 0.000000 0.024909
#
#
# Mechanical properties :
#
#
# Convention : Reuss Voigt Hill
#
# Bulk Modulus (GPa) = 61.03711 78.98244 70.00977
# Shear Modulus (GPa) = 30.17480 41.10196 35.63838
#
# Velocity S-wave (km/s) = 3.73553 4.35975 4.05965
# Velocity P-wave (km/s) = 6.84338 7.86564 7.37225
#
# Compressibility (1/GPa) = 0.01638348
#
# Stress axis : x y z
#
# Youngs Moduli (GPa) = 152.56530 140.89229 72.74284
#
# Poissons Ratio (x) = 0.38744 0.06784
# Poissons Ratio (y) = 0.41954 0.13279
# Poissons Ratio (z) = 0.14227 0.25720
#
# Static dielectric constant tensor:
#      x y z
#    x 4.558750 0.000000 0.148340 
#    y 0.000000 4.050960 0.000000 
#    z 0.148340 0.000000 3.548560 
# 
# 
# High freq. dielectric constant tensor:
#      x y z
#    x 1.886630 0.000000 0.010100 
#    y 0.000000 1.867830 0.000000 
#    z 0.010100 0.000000 1.802470 
# 
# From -- ./inp_files/194654.got.cif
#   From: 2010.06.25/outbox.cif.g09.slc.cpg/sg12_98_cif.got.tgz:194654.got - 2010.06.28 00:19:55.
