data_PCOD8114440
_publ_section_title
;
Structure prediction by ZEFSAII (Michael W. Deem and Ramdas Pophale) SiO2 
 PCOD8114440
Probable space group: C 2/M
;
_chemical_formula_sum "Si O2"
_cell_formula_units_Z 48
_cell_length_a 19.028315
_cell_length_b 18.100641
_cell_length_c 21.480047
_cell_angle_alpha 90.000000
_cell_angle_beta 19.272769
_cell_angle_gamma 90.000000
_cell_volume 2441.912141
_symmetry_space_group_name_H-M "C 2/M"
_symmetry_group_IT_number 12
_symmetry_cell_setting 'monoclinic'
loop_
_space_group_symop_operation_xyz
x,y,z
-x,y,-z
-x,-y,-z
x,-y,z
1/2+x,1/2+y,z
1/2-x,1/2+y,-z
1/2-x,1/2-y,-z
1/2+x,1/2-y,z
loop_
_atom_site_type_symbol
_atom_site_label
_atom_site_fract_x
_atom_site_fract_y
_atom_site_fract_z
Si Si1 0.526186 0.673694 0.140117
Si Si2 0.201708 0.586313 0.717358
Si Si3 0.322220 0.413544 0.099288
Si Si4 0.530100 0.177635 0.544162
Si Si5 0.201137 0.668947 0.966944
Si Si6 0.390435 0.344410 0.675531
O O1 0.274209 0.676553 0.360697
O O2 0.624279 0.661461 0.125722
O O3 0.593695 0.606295 0.039541
O O4 0.611097 0.748317 0.037244
O O5 0.192616 0.500000 0.738189
O O6 0.401759 0.604893 0.506490
O O7 0.214529 0.629385 0.772608
O O8 0.990989 0.612954 0.857662
O O9 0.278494 0.500000 0.139655
O O10 0.100586 0.372542 0.298433
O O11 0.500000 0.387763 0.000000
O O12 0.500000 0.144897 0.500000
O O13 0.440798 0.259862 0.619838
O O14 0.308180 0.644225 0.813461
#
# Coordination Sequence:
#
# PCOD8114440 Si02
#       6
#     8   8   8   8   8   8
#     4  11  24  42  63  96 128 166 214 265 312 378
#     4  11  24  41  63  97 134 165 210 266 317 377
#     4  11  25  42  65  94 126 161 205 270 328 372
#     4  12  21  38  70  96 121 162 218 268 316 373
#     4  11  24  40  65  92 129 173 215 253 313 381
#     4  11  21  38  67  97 123 165 216 263 311 373
#
# _framework density 19.656727
#
# number of rings (size 3 to 8) (size 9 to 14) (size 15 to 20)
#    0.000    0.833    6.667    1.500    0.000    5.667 
#    0.000    0.000    0.000    0.000    0.000    0.000 
#    0.000    0.000    0.000    0.000    0.000    0.000 
#
# Total GULP energy -297753.920680 kJ/mol
# GULP energy per Si atom -12406.413362 kJ/mol
# Density = 1.961199 g / cm^3
# Si number density = 19.656727 Si / 1000 Ang^3
#
#
#
# Elastic Constant Matrix: (Units=GPa)
#
#
# Indices 1 2 3 4 5 6 
#
# 1 79.3230 30.8772 57.0733 -0.1135 -18.5146 0.0196
# 2 30.8772 99.7276 36.1024 -0.0766 -17.0607 0.0829
# 3 57.0733 36.1024 88.1919 0.0072 -21.6089 0.0732
# 4 -0.1135 -0.0766 0.0072 31.3377 -0.0642 1.9557
# 5 -18.5146 -17.0607 -21.6089 -0.0642 29.3246 -0.0435
# 6 0.0196 0.0829 0.0732 1.9557 -0.0435 14.4163
#
#
#
# Elastic Compliance Matrix: (Units=1/GPa)
#
#
# Indices 1 2 3 4 5 6 
#
# 1 0.024331 -0.001767 -0.014046 0.000092 0.003983 0.000048
# 2 -0.001767 0.012303 -0.002944 0.000035 0.003873 -0.000046
# 3 -0.014046 -0.002944 0.023237 -0.000047 0.006542 -0.000056
# 4 0.000092 0.000035 -0.000047 0.032184 0.000108 -0.004366
# 5 0.003983 0.003873 0.006542 0.000108 0.043690 0.000056
# 6 0.000048 -0.000046 -0.000056 -0.004366 0.000056 0.069959
#
#
# Mechanical properties :
#
#
# Convention : Reuss Voigt Hill
#
# Bulk Modulus (GPa) = 44.73019 57.26093 50.99556
# Shear Modulus (GPa) = 19.94662 24.56169 22.25415
#
# Velocity S-wave (km/s) = 3.18897 3.53871 3.36838
# Velocity P-wave (km/s) = 6.03029 6.77424 6.41306
#
# Compressibility (1/GPa) = 0.02235626
#
# Stress axis : x y z
#
# Youngs Moduli (GPa) = 41.10028 81.28324 43.03472
#
# Poissons Ratio (x) = 0.14361 0.60448
# Poissons Ratio (y) = 0.07261 0.12669
# Poissons Ratio (z) = 0.57731 0.23930
#
# Static dielectric constant tensor:
#      x y z
#    x 3.515540 0.000070 -0.002080 
#    y 0.000070 3.521130 0.000890 
#    z -0.002080 0.000890 3.827140 
# 
# 
# High freq. dielectric constant tensor:
#      x y z
#    x 1.759560 -0.000010 -0.001150 
#    y -0.000010 1.764620 0.000070 
#    z -0.001150 0.000070 1.779980 
# 
# From -- ./inp_files/317479.got.cif
#   From: 2010.06.25/outbox.cif.g09.slc.cpg/sg12_159_cif.got.tgz:317479.got - 2010.06.28 00:19:55.
