data_PCOD8114657
_publ_section_title
;
Structure prediction by ZEFSAII (Michael W. Deem and Ramdas Pophale) SiO2 
 PCOD8114657
Probable space group: C 2/M
;
_chemical_formula_sum "Si O2"
_cell_formula_units_Z 64
_cell_length_a 16.039830
_cell_length_b 8.873432
_cell_length_c 24.582895
_cell_angle_alpha 90.000000
_cell_angle_beta 70.488347
_cell_angle_gamma 90.000000
_cell_volume 3297.916652
_symmetry_space_group_name_H-M "C 2/M"
_symmetry_group_IT_number 12
_symmetry_cell_setting 'monoclinic'
loop_
_space_group_symop_operation_xyz
x,y,z
-x,y,-z
-x,-y,-z
x,-y,z
1/2+x,1/2+y,z
1/2-x,1/2+y,-z
1/2-x,1/2-y,-z
1/2+x,1/2-y,z
loop_
_atom_site_type_symbol
_atom_site_label
_atom_site_fract_x
_atom_site_fract_y
_atom_site_fract_z
Si Si1 0.801933 0.829087 0.233613
Si Si2 0.726987 0.673708 0.880796
Si Si3 0.963351 0.672969 0.068221
Si Si4 0.514866 0.671971 0.437431
Si Si5 0.495226 0.173371 0.338589
Si Si6 0.160872 0.171855 0.326781
Si Si7 0.402773 0.321214 0.875605
Si Si8 0.530253 0.173657 0.773845
O O1 0.748467 0.815746 0.188885
O O2 0.748935 0.767398 0.297709
O O3 0.889252 0.728685 0.206438
O O4 0.829896 0.000000 0.240143
O O5 0.724482 0.500000 0.900185
O O6 0.630968 0.744405 0.911283
O O7 0.801991 0.759489 0.899506
O O8 0.951188 0.500000 0.089967
O O9 0.036088 0.752078 0.090576
O O10 0.000000 0.681765 0.000000
O O11 0.500000 0.746932 0.500000
O O12 0.482499 0.500000 0.446249
O O13 0.455634 0.753963 0.403173
O O14 0.619449 0.684017 0.397383
O O15 0.587108 0.256379 0.303334
O O16 0.438664 0.196601 0.296119
O O17 0.513434 0.000000 0.347271
O O18 0.180496 0.000000 0.306590
O O19 0.400506 0.500000 0.882008
O O20 0.444533 0.271108 0.808630
O O21 0.508179 0.000000 0.790110
#
# Coordination Sequence:
#
# PCOD8114657 Si02
#       8
#     8   8   8   8   8   8   8   8
#     4  11  22  35  55  84 118 153 196 247 302 360
#     4  11  24  42  65  94 127 166 208 255 309 369
#     4  11  25  46  70  96 127 164 209 259 310 368
#     4   8  16  31  51  76 107 145 190 239 292 353
#     4   9  18  31  49  78 108 141 186 236 287 344
#     4   9  18  31  50  76 107 145 185 231 289 349
#     4  12  25  41  65  95 127 167 209 254 310 369
#     4  11  22  36  56  82 120 158 195 247 304 363
#
# _framework density 19.406192000000001
#
# number of rings (size 3 to 8) (size 9 to 14) (size 15 to 20)
#    0.750    1.000    1.250    3.750    0.000    8.250 
#    0.000    0.000    0.000    0.750    0.000    0.000 
#    0.000    0.000    0.000    0.000    0.000    0.000 
#
# Total GULP energy -396431.836276 kJ/mol
# GULP energy per Si atom -12388.494884 kJ/mol
# Density = 1.936202 g / cm^3
# Si number density = 19.406192 Si / 1000 Ang^3
#
#
#
# Elastic Constant Matrix: (Units=GPa)
#
#
# Indices 1 2 3 4 5 6 
#
# 1 113.9298 56.3639 30.3192 0.0000 0.5773 0.0000
# 2 56.3639 141.4587 47.0606 0.0000 5.5240 0.0001
# 3 30.3192 47.0606 86.3270 0.0000 6.5570 0.0000
# 4 0.0000 0.0000 0.0000 28.4973 0.0000 -1.4365
# 5 0.5773 5.5240 6.5570 0.0000 25.7917 0.0000
# 6 0.0000 0.0001 0.0000 -1.4365 0.0000 31.2944
#
#
#
# Elastic Compliance Matrix: (Units=1/GPa)
#
#
# Indices 1 2 3 4 5 6 
#
# 1 0.011192 -0.003868 -0.001903 0.000000 0.001062 0.000000
# 2 -0.003868 0.009983 -0.004005 0.000000 -0.001033 0.000000
# 3 -0.001903 -0.004005 0.014650 0.000000 -0.002824 0.000000
# 4 0.000000 0.000000 0.000000 0.035172 0.000000 0.001615
# 5 0.001062 -0.001033 -0.002824 0.000000 0.039688 0.000000
# 6 0.000000 0.000000 0.000000 0.001615 0.000000 0.032029
#
#
# Mechanical properties :
#
#
# Convention : Reuss Voigt Hill
#
# Bulk Modulus (GPa) = 61.45083 67.68921 64.57002
# Shear Modulus (GPa) = 29.81686 30.98147 30.39916
#
# Velocity S-wave (km/s) = 3.92402 3.99992 3.96216
# Velocity P-wave (km/s) = 7.22945 7.50256 7.36727
#
# Compressibility (1/GPa) = 0.01627317
#
# Stress axis : x y z
#
# Youngs Moduli (GPa) = 89.35085 100.16865 68.25862
#
# Poissons Ratio (x) = 0.38743 0.12989
# Poissons Ratio (y) = 0.34559 0.27340
# Poissons Ratio (z) = 0.17002 0.40121
#
# Static dielectric constant tensor:
#      x y z
#    x 3.320910 0.000000 0.022700 
#    y 0.000000 3.634710 0.000000 
#    z 0.022700 0.000000 3.551410 
# 
# 
# High freq. dielectric constant tensor:
#      x y z
#    x 1.731870 0.000000 0.002220 
#    y 0.000000 1.769510 0.000000 
#    z 0.002220 0.000000 1.749070 
# 
# From -- ./inp_files/359731.got.cif
#   From: 2010.06.25/outbox.cif.g09.slc.cpg/sg12_180_cif.got.tgz:359731.got - 2010.06.28 00:19:55.
