data_PCOD8114509
_publ_section_title
;
Structure prediction by ZEFSAII (Michael W. Deem and Ramdas Pophale) SiO2 
 PCOD8114509
Probable space group: C 2/M
;
_chemical_formula_sum "Si O2"
_cell_formula_units_Z 48
_cell_length_a 13.850521
_cell_length_b 21.529407
_cell_length_c 11.998836
_cell_angle_alpha 90.000000
_cell_angle_beta 139.276337
_cell_angle_gamma 90.000000
_cell_volume 2334.311844
_symmetry_space_group_name_H-M "C 2/M"
_symmetry_group_IT_number 12
_symmetry_cell_setting 'monoclinic'
loop_
_space_group_symop_operation_xyz
x,y,z
-x,y,-z
-x,-y,-z
x,-y,z
1/2+x,1/2+y,z
1/2-x,1/2+y,-z
1/2-x,1/2-y,-z
1/2+x,1/2-y,z
loop_
_atom_site_type_symbol
_atom_site_label
_atom_site_fract_x
_atom_site_fract_y
_atom_site_fract_z
Si Si1 0.263812 0.122880 0.967804
Si Si2 0.396395 0.500000 0.239784
Si Si3 0.828365 0.295159 0.821542
Si Si4 0.330269 0.661867 0.880169
Si Si5 0.291802 0.500000 0.397948
Si Si6 0.388825 0.884439 0.691719
Si Si7 0.158321 0.569546 0.585651
O O1 0.198130 0.162927 0.012284
O O2 0.435828 0.108486 0.139006
O O3 0.242138 0.161813 0.835128
O O4 0.168897 0.060029 0.879160
O O5 0.355653 0.500000 0.331749
O O6 0.576462 0.500000 0.394020
O O7 0.760970 0.225589 0.768250
O O8 0.818640 0.322884 0.687762
O O9 0.000000 0.292429 0.000000
O O10 0.261381 0.600230 0.767766
O O11 0.500000 0.659059 0.000000
O O12 0.186053 0.441492 0.312772
O O13 0.346562 0.885157 0.525078
O O14 0.215424 0.500000 0.603196
O O15 0.000000 0.562608 0.500000
#
# Coordination Sequence:
#
# PCOD8114509 Si02
#       7
#     8   4   8   8   4   8   8
#     4  11  22  40  67  94 124 166 216 252 314 379
#     4  11  25  37  63 101 133 164 200 261 325 370
#     4   9  21  41  65  93 121 163 215 263 309 372
#     4  11  25  42  62  91 129 168 207 260 319 375
#     4  11  23  41  59 101 137 157 206 264 317 360
#     4  11  21  40  69  90 125 170 214 258 304 377
#     4  11  24  41  61  92 127 165 210 262 308 376
#
# _framework density 20.562806999999999
#
# number of rings (size 3 to 8) (size 9 to 14) (size 15 to 20)
#    0.000    1.333    4.167    1.000    3.500    1.667 
#    0.000    1.667    0.000    0.000    0.000    0.000 
#    0.000    0.000    0.000    0.000    0.000    0.000 
#
# Total GULP energy -297569.314014 kJ/mol
# GULP energy per Si atom -12398.721417 kJ/mol
# Density = 2.051601 g / cm^3
# Si number density = 20.562807 Si / 1000 Ang^3
#
#
#
# Elastic Constant Matrix: (Units=GPa)
#
#
# Indices 1 2 3 4 5 6 
#
# 1 116.8421 48.9316 32.9188 0.0000 -9.4556 0.0000
# 2 48.9316 138.2857 36.1256 0.0000 -4.1056 0.0000
# 3 32.9188 36.1256 47.0423 0.0000 -9.4158 0.0000
# 4 0.0000 0.0000 0.0000 26.8784 0.0000 -4.3790
# 5 -9.4556 -4.1056 -9.4158 0.0000 39.3365 0.0000
# 6 0.0000 0.0000 0.0000 -4.3790 0.0000 31.6411
#
#
#
# Elastic Compliance Matrix: (Units=1/GPa)
#
#
# Indices 1 2 3 4 5 6 
#
# 1 0.011311 -0.002450 -0.005819 0.000000 0.001070 0.000000
# 2 -0.002450 0.009598 -0.005854 0.000000 -0.000989 0.000000
# 3 -0.005819 -0.005854 0.030903 0.000000 0.005387 0.000000
# 4 0.000000 0.000000 0.000000 0.038063 0.000000 0.005268
# 5 0.001070 -0.000989 0.005387 0.000000 0.026865 0.000000
# 6 0.000000 0.000000 0.000000 0.005268 0.000000 0.032333
#
#
# Mechanical properties :
#
#
# Convention : Reuss Voigt Hill
#
# Bulk Modulus (GPa) = 42.43483 59.79136 51.11310
# Shear Modulus (GPa) = 27.00127 31.85081 29.42604
#
# Velocity S-wave (km/s) = 3.62762 3.93994 3.78700
# Velocity P-wave (km/s) = 6.18285 7.05961 6.63573
#
# Compressibility (1/GPa) = 0.02356555
#
# Stress axis : x y z
#
# Youngs Moduli (GPa) = 88.41142 104.18362 32.35887
#
# Poissons Ratio (x) = 0.25528 0.18830
# Poissons Ratio (y) = 0.21664 0.18944
# Poissons Ratio (z) = 0.51447 0.60991
#
# Static dielectric constant tensor:
#      x y z
#    x 3.961140 0.000000 -0.072890 
#    y 0.000000 4.356890 0.000000 
#    z -0.072890 0.000000 3.542320 
# 
# 
# High freq. dielectric constant tensor:
#      x y z
#    x 1.823050 0.000000 -0.009090 
#    y 0.000000 1.809010 0.000000 
#    z -0.009090 0.000000 1.780940 
# 
# From -- ./inp_files/148052.got.cif
#   From: 2010.06.25/outbox.cif.g09.slc.cpg/sg12_75_cif.got.tgz:148052.got - 2010.06.28 00:19:55.
