data_PCOD8114810
_publ_section_title
;
Structure prediction by ZEFSAII (Michael W. Deem and Ramdas Pophale) SiO2 
 PCOD8114810
Probable space group: C 2/M
;
_chemical_formula_sum "Si O2"
_cell_formula_units_Z 64
_cell_length_a 14.778893
_cell_length_b 8.895666
_cell_length_c 29.650176
_cell_angle_alpha 90.000000
_cell_angle_beta 118.823512
_cell_angle_gamma 90.000000
_cell_volume 3415.118262
_symmetry_space_group_name_H-M "C 2/M"
_symmetry_group_IT_number 12
_symmetry_cell_setting 'monoclinic'
loop_
_space_group_symop_operation_xyz
x,y,z
-x,y,-z
-x,-y,-z
x,-y,z
1/2+x,1/2+y,z
1/2-x,1/2+y,-z
1/2-x,1/2-y,-z
1/2+x,1/2-y,z
loop_
_atom_site_type_symbol
_atom_site_label
_atom_site_fract_x
_atom_site_fract_y
_atom_site_fract_z
Si Si1 0.569487 0.323030 0.558137
Si Si2 0.052197 0.678734 0.889226
Si Si3 0.704626 0.825037 0.708369
Si Si4 0.766488 0.821255 0.110681
Si Si5 0.220526 0.177558 0.371186
Si Si6 0.100259 0.678167 0.999966
Si Si7 0.504027 0.322699 0.361402
Si Si8 0.667149 0.322798 0.172738
O O1 0.500000 0.267311 0.500000
O O2 0.587790 0.500000 0.561425
O O3 0.681495 0.246964 0.579299
O O4 0.508967 0.275151 0.589266
O O5 0.047624 0.500000 0.885400
O O6 0.121528 0.749945 0.867173
O O7 0.942499 0.746205 0.852748
O O8 0.099098 0.734972 0.948329
O O9 0.767360 0.775222 0.678484
O O10 0.594909 0.742720 0.688650
O O11 0.776291 0.782555 0.767363
O O12 0.679262 0.000000 0.700183
O O13 0.699066 0.765039 0.051582
O O14 0.727284 0.754044 0.147166
O O15 0.769544 0.000000 0.114560
O O16 0.112154 0.239593 0.366206
O O17 0.224535 0.000000 0.378473
O O18 0.094880 0.500000 0.999990
O O19 0.000000 0.747160 0.000000
O O20 0.501501 0.500000 0.354761
O O21 0.657483 0.500000 0.162597
#
# Coordination Sequence:
#
# PCOD8114810 Si02
#       8
#     8   8   8   8   8   8   8   8
#     4   9  18  32  49  75 112 146 176 216 262 309
#     4  11  22  38  59  83 112 143 178 221 270 326
#     4   9  20  37  55  75 103 135 172 223 271 314
#     4  11  22  38  59  82 110 143 179 221 270 324
#     4   9  18  34  54  76 102 136 178 221 263 310
#     4   9  17  34  58  81 107 141 178 217 264 322
#     4   9  18  33  54  78 104 139 182 219 261 319
#     4  11  23  39  56  80 111 142 180 225 277 332
#
# _framework density 18.740200999999999
#
# number of rings (size 3 to 8) (size 9 to 14) (size 15 to 20)
#    0.000    2.250    1.250    1.500    0.000    3.250 
#    0.000    3.750    0.000    0.000    0.000    0.000 
#    0.000    0.000    0.000    0.000    0.000    0.000 
#
# Total GULP energy -396728.398680 kJ/mol
# GULP energy per Si atom -12397.762459 kJ/mol
# Density = 1.869755 g / cm^3
# Si number density = 18.740201 Si / 1000 Ang^3
#
#
#
# Elastic Constant Matrix: (Units=GPa)
#
#
# Indices 1 2 3 4 5 6 
#
# 1 182.2416 46.9378 76.7239 0.0000 20.4450 0.0000
# 2 46.9378 54.7916 50.9172 0.0000 6.7281 0.0000
# 3 76.7239 50.9172 146.5983 0.0000 15.5576 0.0000
# 4 0.0000 0.0000 0.0000 27.7861 0.0000 3.3963
# 5 20.4450 6.7281 15.5576 0.0000 31.8291 0.0000
# 6 0.0000 0.0000 0.0000 3.3963 0.0000 28.7874
#
#
#
# Elastic Compliance Matrix: (Units=1/GPa)
#
#
# Indices 1 2 3 4 5 6 
#
# 1 0.007902 -0.004213 -0.002350 0.000000 -0.003037 0.000000
# 2 -0.004213 0.029237 -0.007996 0.000000 0.000434 0.000000
# 3 -0.002350 -0.007996 0.011063 0.000000 -0.002207 0.000000
# 4 0.000000 0.000000 0.000000 0.036516 0.000000 -0.004308
# 5 -0.003037 0.000434 -0.002207 0.000000 0.034356 0.000000
# 6 0.000000 0.000000 0.000000 -0.004308 0.000000 0.035246
#
#
# Mechanical properties :
#
#
# Convention : Reuss Voigt Hill
#
# Bulk Modulus (GPa) = 52.39916 81.42101 66.91008
# Shear Modulus (GPa) = 26.34362 31.61736 28.98049
#
# Velocity S-wave (km/s) = 3.75337 4.11194 3.93674
# Velocity P-wave (km/s) = 6.84144 8.12931 7.51302
#
# Compressibility (1/GPa) = 0.01908428
#
# Stress axis : x y z
#
# Youngs Moduli (GPa) = 126.54371 34.20306 90.39138
#
# Poissons Ratio (x) = 0.14408 0.21246
# Poissons Ratio (y) = 0.53308 0.72278
# Poissons Ratio (z) = 0.29743 0.27349
#
# Static dielectric constant tensor:
#      x y z
#    x 3.630090 0.000000 -0.037340 
#    y 0.000000 3.295940 0.000000 
#    z -0.037340 0.000000 3.549440 
# 
# 
# High freq. dielectric constant tensor:
#      x y z
#    x 1.740040 0.000000 0.002410 
#    y 0.000000 1.715720 0.000000 
#    z 0.002410 0.000000 1.727100 
# 
# From -- ./inp_files/375113.got.cif
#   From: 2010.06.25/outbox.cif.g09.slc.cpg/sg12_188_cif.got.tgz:375113.got - 2010.06.28 00:19:55.
