data_PCOD8114683
_publ_section_title
;
Structure prediction by ZEFSAII (Michael W. Deem and Ramdas Pophale) SiO2 
 PCOD8114683
Probable space group: C 2/M
;
_chemical_formula_sum "Si O2"
_cell_formula_units_Z 64
_cell_length_a 24.832000
_cell_length_b 28.625941
_cell_length_c 9.416170
_cell_angle_alpha 90.000000
_cell_angle_beta 147.879897
_cell_angle_gamma 90.000000
_cell_volume 3558.844137
_symmetry_space_group_name_H-M "C 2/M"
_symmetry_group_IT_number 12
_symmetry_cell_setting 'monoclinic'
loop_
_space_group_symop_operation_xyz
x,y,z
-x,y,-z
-x,-y,-z
x,-y,z
1/2+x,1/2+y,z
1/2-x,1/2+y,-z
1/2-x,1/2-y,-z
1/2+x,1/2-y,z
loop_
_atom_site_type_symbol
_atom_site_label
_atom_site_fract_x
_atom_site_fract_y
_atom_site_fract_z
Si Si1 0.904187 0.805610 0.882167
Si Si2 0.240273 0.644878 0.329731
Si Si3 0.549029 0.798251 0.966544
Si Si4 0.466784 0.552456 0.154767
Si Si5 0.411641 0.231153 0.408179
Si Si6 0.274416 0.320551 0.106199
Si Si7 0.915354 0.858239 0.201492
Si Si8 0.161798 0.947592 0.414042
O O1 0.803884 0.826244 0.587614
O O2 0.891488 0.750008 0.869152
O O3 0.921371 0.826389 0.076160
O O4 0.000000 0.819468 0.000000
O O5 0.285217 0.649800 0.272858
O O6 0.246533 0.589482 0.375849
O O7 0.125293 0.662713 0.077981
O O8 0.457302 0.789470 0.654001
O O9 0.500000 0.818387 0.000000
O O10 0.457989 0.500000 0.196104
O O11 0.432567 0.587567 0.202003
O O12 0.581441 0.562455 0.360297
O O13 0.393019 0.559078 0.857715
O O14 0.500000 0.246711 0.500000
O O15 0.341373 0.274931 0.285191
O O16 0.342972 0.191870 0.180198
O O17 0.309431 0.350436 0.046992
O O18 0.000000 0.840691 0.500000
O O19 0.206072 0.000000 0.527171
#
# Coordination Sequence:
#
# PCOD8114683 Si02
#       8
#     8   8   8   8   8   8   8   8
#     4  11  22  36  54  80 117 149 186 234 276 333
#     4  12  22  38  58  83 109 151 190 234 286 332
#     4  11  24  37  56  81 113 146 193 237 276 324
#     4   9  18  34  54  81 117 151 178 229 289 338
#     4  11  22  42  53  78 117 160 188 228 276 333
#     4  11  24  35  60  80 113 155 195 222 278 338
#     4  12  22  33  54  85 116 152 191 229 272 337
#     4   9  18  34  58  82 109 145 189 231 286 345
#
# _framework density 17.983367999999999
#
# number of rings (size 3 to 8) (size 9 to 14) (size 15 to 20)
#    0.000    1.250    2.500    6.750    3.500    0.250 
#    0.000    0.625    0.000    0.375    0.000    2.625 
#    0.000    0.000    0.000    0.000    0.000    0.000 
#
# Total GULP energy -396855.076001 kJ/mol
# GULP energy per Si atom -12401.721125 kJ/mol
# Density = 1.794244 g / cm^3
# Si number density = 17.983368 Si / 1000 Ang^3
#
#
#
# Elastic Constant Matrix: (Units=GPa)
#
#
# Indices 1 2 3 4 5 6 
#
# 1 103.1065 42.0418 35.1268 0.0000 -9.6939 0.0000
# 2 42.0418 108.9749 39.6644 0.0000 4.9606 0.0000
# 3 35.1268 39.6644 87.3006 0.0000 -3.6205 0.0000
# 4 0.0000 0.0000 0.0000 23.5259 0.0000 -1.8713
# 5 -9.6939 4.9606 -3.6205 0.0000 26.6013 0.0000
# 6 0.0000 0.0000 0.0000 -1.8713 0.0000 27.4042
#
#
#
# Elastic Compliance Matrix: (Units=1/GPa)
#
#
# Indices 1 2 3 4 5 6 
#
# 1 0.012896 -0.004064 -0.003134 0.000000 0.005031 0.000000
# 2 -0.004064 0.012478 -0.004216 0.000000 -0.004382 0.000000
# 3 -0.003134 -0.004216 0.014699 0.000000 0.001645 0.000000
# 4 0.000000 0.000000 0.000000 0.042738 0.000000 0.002918
# 5 0.005031 -0.004382 0.001645 0.000000 0.040466 0.000000
# 6 0.000000 0.000000 0.000000 0.002918 0.000000 0.036690
#
#
# Mechanical properties :
#
#
# Convention : Reuss Voigt Hill
#
# Bulk Modulus (GPa) = 57.98290 59.22755 58.60523
# Shear Modulus (GPa) = 26.51884 27.67622 27.09753
#
# Velocity S-wave (km/s) = 3.84426 3.92725 3.88598
# Velocity P-wave (km/s) = 7.21228 7.31919 7.26593
#
# Compressibility (1/GPa) = 0.01724647
#
# Stress axis : x y z
#
# Youngs Moduli (GPa) = 77.54101 80.14039 68.02965
#
# Poissons Ratio (x) = 0.32566 0.21322
# Poissons Ratio (y) = 0.31509 0.28681
# Poissons Ratio (z) = 0.24303 0.33787
#
# Static dielectric constant tensor:
#      x y z
#    x 3.379380 0.000000 -0.116900 
#    y 0.000000 3.318910 0.000000 
#    z -0.116900 0.000000 3.289800 
# 
# 
# High freq. dielectric constant tensor:
#      x y z
#    x 1.697730 0.000000 -0.017970 
#    y 0.000000 1.682080 0.000000 
#    z -0.017970 0.000000 1.684860 
# 
# From -- ./inp_files/100243.got.cif
#   From: 2010.06.25/outbox.cif.g09.slc.cpg/sg12_51_cif.got.tgz:100243.got - 2010.06.28 00:19:55.
