data_PCOD8114296
_publ_section_title
;
Structure prediction by ZEFSAII (Michael W. Deem and Ramdas Pophale) SiO2 
 PCOD8114296
Probable space group: C 2/M
;
_chemical_formula_sum "Si O2"
_cell_formula_units_Z 56
_cell_length_a 20.158777
_cell_length_b 8.465593
_cell_length_c 30.984306
_cell_angle_alpha 90.000000
_cell_angle_beta 147.221598
_cell_angle_gamma 90.000000
_cell_volume 2862.691993
_symmetry_space_group_name_H-M "C 2/M"
_symmetry_group_IT_number 12
_symmetry_cell_setting 'monoclinic'
loop_
_space_group_symop_operation_xyz
x,y,z
-x,y,-z
-x,-y,-z
x,-y,z
1/2+x,1/2+y,z
1/2-x,1/2+y,-z
1/2-x,1/2-y,-z
1/2+x,1/2-y,z
loop_
_atom_site_type_symbol
_atom_site_label
_atom_site_fract_x
_atom_site_fract_y
_atom_site_fract_z
Si Si1 0.612892 0.186942 0.160387
Si Si2 0.249714 0.816328 0.312537
Si Si3 0.229744 0.181960 0.584982
Si Si4 0.913234 0.312844 0.989874
Si Si5 0.052108 0.184666 0.348582
Si Si6 0.289504 0.312750 0.179630
Si Si7 0.510320 0.183384 0.417647
O O1 0.640314 0.276990 0.219654
O O2 0.474078 0.238182 0.068942
O O3 0.710573 0.243648 0.177719
O O4 0.621725 0.000000 0.172846
O O5 0.222942 0.721760 0.341471
O O6 0.378555 0.761266 0.362846
O O7 0.249966 0.000000 0.323769
O O8 0.335831 0.217504 0.608835
O O9 0.109864 0.286282 0.509388
O O10 0.193320 0.000000 0.561671
O O11 0.915889 0.500000 0.989517
O O12 0.775271 0.255350 0.901211
O O13 0.000000 0.245061 0.000000
O O14 0.045867 0.210622 0.396268
O O15 0.927510 0.252499 0.258354
O O16 0.071840 0.000000 0.349834
O O17 0.295129 0.500000 0.184104
O O18 0.508993 0.000000 0.403921
#
# Coordination Sequence:
#
# PCOD8114296 Si02
#       7
#     8   8   8   8   8   8   8
#     4   9  15  28  52  81 110 141 180 219 262 317
#     4  11  23  38  57  81 112 144 178 224 275 324
#     4  12  26  41  57  78 107 143 185 228 274 325
#     4   7  11  21  43  77 111 138 171 218 261 306
#     4  11  21  36  59  84 113 145 182 223 267 322
#     4   8  14  26  49  81 111 141 177 217 263 314
#     4  11  23  40  60  82 109 140 179 226 275 323
#
# _framework density 19.562006
#
# number of rings (size 3 to 8) (size 9 to 14) (size 15 to 20)
#    0.000    2.143    1.429    5.143    0.000    3.429 
#    0.000    0.000    0.000    6.429    0.000    0.000 
#    0.000    0.000    0.000    0.000    0.000    0.000 
#
# Total GULP energy -347036.617384 kJ/mol
# GULP energy per Si atom -12394.164907 kJ/mol
# Density = 1.951748 g / cm^3
# Si number density = 19.562006 Si / 1000 Ang^3
#
#
#
# Elastic Constant Matrix: (Units=GPa)
#
#
# Indices 1 2 3 4 5 6 
#
# 1 49.6865 16.3289 9.6648 0.0000 -14.6148 0.0002
# 2 16.3289 42.3493 12.4762 0.0000 1.2368 0.0002
# 3 9.6648 12.4762 129.2343 0.0000 -15.5042 0.0002
# 4 0.0000 0.0000 0.0000 21.7499 0.0000 -0.7261
# 5 -14.6148 1.2368 -15.5042 0.0000 17.9346 0.0001
# 6 0.0002 0.0002 0.0002 -0.7261 0.0001 18.4157
#
#
#
# Elastic Compliance Matrix: (Units=1/GPa)
#
#
# Indices 1 2 3 4 5 6 
#
# 1 0.033318 -0.014484 0.002548 0.000000 0.030353 0.000000
# 2 -0.014484 0.030878 -0.003982 0.000000 -0.017375 0.000000
# 3 0.002548 -0.003982 0.009164 0.000000 0.010273 0.000000
# 4 0.000000 0.000000 0.000000 0.046038 0.000000 0.001815
# 5 0.030353 -0.017375 0.010273 0.000000 0.090571 -0.000001
# 6 0.000000 0.000000 0.000000 0.001815 -0.000001 0.054373
#
#
# Mechanical properties :
#
#
# Convention : Reuss Voigt Hill
#
# Bulk Modulus (GPa) = 24.08205 33.13442 28.60824
# Shear Modulus (GPa) = 16.12791 23.80672 19.96732
#
# Velocity S-wave (km/s) = 2.87444 3.49232 3.19834
# Velocity P-wave (km/s) = 4.83259 5.76512 5.31933
#
# Compressibility (1/GPa) = 0.04152470
#
# Stress axis : x y z
#
# Youngs Moduli (GPa) = 30.01336 32.38506 109.11955
#
# Poissons Ratio (x) = 0.46906 -0.27803
# Poissons Ratio (y) = 0.43471 0.43454
# Poissons Ratio (z) = -0.07647 0.12897
#
# Static dielectric constant tensor:
#      x y z
#    x 3.209050 0.000000 0.077740 
#    y 0.000000 3.198870 0.000000 
#    z 0.077740 0.000000 4.243890 
# 
# 
# High freq. dielectric constant tensor:
#      x y z
#    x 1.717840 0.000000 -0.004740 
#    y 0.000000 1.736000 0.000000 
#    z -0.004740 0.000000 1.789610 
# 
# From -- ./inp_files/363099.got.cif
#   From: 2010.06.25/outbox.cif.g09.slc.cpg/sg12_182_cif.got.tgz:363099.got - 2010.06.28 00:19:55.
