data_PCOD8114166
_publ_section_title
;
Structure prediction by ZEFSAII (Michael W. Deem and Ramdas Pophale) SiO2 
 PCOD8114166
Probable space group: C 2/M
;
_chemical_formula_sum "Si O2"
_cell_formula_units_Z 56
_cell_length_a 15.179142
_cell_length_b 26.781154
_cell_length_c 10.139676
_cell_angle_alpha 90.000000
_cell_angle_beta 138.279049
_cell_angle_gamma 90.000000
_cell_volume 2743.157987
_symmetry_space_group_name_H-M "C 2/M"
_symmetry_group_IT_number 12
_symmetry_cell_setting 'monoclinic'
loop_
_space_group_symop_operation_xyz
x,y,z
-x,y,-z
-x,-y,-z
x,-y,z
1/2+x,1/2+y,z
1/2-x,1/2+y,-z
1/2-x,1/2-y,-z
1/2+x,1/2-y,z
loop_
_atom_site_type_symbol
_atom_site_label
_atom_site_fract_x
_atom_site_fract_y
_atom_site_fract_z
Si Si1 0.132760 0.604530 0.581404
Si Si2 0.721908 0.669690 0.041762
Si Si3 0.386698 0.807677 0.619524
Si Si4 0.837320 0.209431 0.450497
Si Si5 0.495020 0.615531 0.350397
Si Si6 0.893744 0.942023 0.772072
Si Si7 0.628031 0.771885 0.000905
O O1 0.207555 0.641380 0.762016
O O2 0.079858 0.637803 0.400237
O O3 0.241573 0.564781 0.651557
O O4 0.000000 0.579716 0.500000
O O5 0.619679 0.711174 0.986876
O O6 0.650827 0.627482 0.871117
O O7 0.832106 0.703293 0.094378
O O8 0.233549 0.805200 0.491008
O O9 0.405894 0.763813 0.531913
O O10 0.478299 0.793196 0.849540
O O11 0.729644 0.205892 0.216744
O O12 0.948141 0.169259 0.549338
O O13 0.500000 0.586934 0.500000
O O14 0.581219 0.585617 0.338930
O O15 0.918158 0.000000 0.773117
O O16 0.000000 0.922482 0.000000
#
# Coordination Sequence:
#
# PCOD8114166 Si02
#       7
#     8   8   8   8   8   8   8
#     4  12  23  40  66  94 128 169 213 264 322 383
#     4  11  22  33  56  89 129 170 213 256 292 360
#     4  11  22  34  53  85 125 174 217 254 303 367
#     4  11  22  34  53  85 125 174 217 254 303 367
#     4  12  23  40  66  94 128 169 213 264 322 383
#     4  11  26  48  73  97 121 157 215 284 341 391
#     4  11  21  34  51  84 133 178 213 252 288 372
#
# _framework density 20.414427
#
# number of rings (size 3 to 8) (size 9 to 14) (size 15 to 20)
#    0.000    0.714    8.571    0.429    0.000    1.143 
#    2.571    0.000    0.000    0.000    0.000    4.000 
#    0.000    0.000    0.000    0.000    0.000    0.000 
#
# Total GULP energy -346996.139961 kJ/mol
# GULP energy per Si atom -12392.719284 kJ/mol
# Density = 2.036796 g / cm^3
# Si number density = 20.414427 Si / 1000 Ang^3
#
#
#
# Elastic Constant Matrix: (Units=GPa)
#
#
# Indices 1 2 3 4 5 6 
#
# 1 84.6739 16.9173 3.8967 0.0000 4.0401 0.0000
# 2 16.9173 51.3527 13.7313 0.0000 -3.3222 0.0000
# 3 3.8967 13.7313 88.9764 0.0000 1.2168 0.0000
# 4 0.0000 0.0000 0.0000 21.0459 0.0000 4.0453
# 5 4.0401 -3.3222 1.2168 0.0000 34.0916 0.0000
# 6 0.0000 0.0000 0.0000 4.0453 0.0000 19.9427
#
#
#
# Elastic Compliance Matrix: (Units=1/GPa)
#
#
# Indices 1 2 3 4 5 6 
#
# 1 0.012769 -0.004370 0.000142 0.000000 -0.001944 0.000000
# 2 -0.004370 0.021957 -0.003235 0.000000 0.002773 0.000000
# 3 0.000142 -0.003235 0.011742 0.000000 -0.000751 0.000000
# 4 0.000000 0.000000 0.000000 0.049443 0.000000 -0.010029
# 5 -0.001944 0.002773 -0.000751 0.000000 0.029860 0.000000
# 6 0.000000 0.000000 0.000000 -0.010029 0.000000 0.052178
#
#
# Mechanical properties :
#
#
# Convention : Reuss Voigt Hill
#
# Bulk Modulus (GPa) = 31.70404 32.67707 32.19055
# Shear Modulus (GPa) = 24.58314 27.71323 26.14818
#
# Velocity S-wave (km/s) = 3.47393 3.68847 3.58280
# Velocity P-wave (km/s) = 5.62626 5.84648 5.73743
#
# Compressibility (1/GPa) = 0.03154173
#
# Stress axis : x y z
#
# Youngs Moduli (GPa) = 78.31199 45.54279 85.16257
#
# Poissons Ratio (x) = 0.19904 -0.01208
# Poissons Ratio (y) = 0.34225 0.27551
# Poissons Ratio (z) = -0.01111 0.14734
#
# Static dielectric constant tensor:
#      x y z
#    x 3.979320 0.000000 0.055440 
#    y 0.000000 3.304120 0.000000 
#    z 0.055440 0.000000 3.834720 
# 
# 
# High freq. dielectric constant tensor:
#      x y z
#    x 1.806840 0.000000 0.002280 
#    y 0.000000 1.749270 0.000000 
#    z 0.002280 0.000000 1.810660 
# 
# From -- ./inp_files/68306.got.cif
#   From: 2010.06.25/outbox.cif.g09.slc.cpg/sg12_35_cif.got.tgz:68306.got - 2010.06.28 00:19:55.
