data_PCOD8114907
_publ_section_title
;
Structure prediction by ZEFSAII (Michael W. Deem and Ramdas Pophale) SiO2 
 PCOD8114907
Probable space group: C 2/M
;
_chemical_formula_sum "Si O2"
_cell_formula_units_Z 48
_cell_length_a 9.966546
_cell_length_b 28.514343
_cell_length_c 15.980656
_cell_angle_alpha 90.000000
_cell_angle_beta 31.763990
_cell_angle_gamma 90.000000
_cell_volume 2390.761751
_symmetry_space_group_name_H-M "C 2/M"
_symmetry_group_IT_number 12
_symmetry_cell_setting 'monoclinic'
loop_
_space_group_symop_operation_xyz
x,y,z
-x,y,-z
-x,-y,-z
x,-y,z
1/2+x,1/2+y,z
1/2-x,1/2+y,-z
1/2-x,1/2-y,-z
1/2+x,1/2-y,z
loop_
_atom_site_type_symbol
_atom_site_label
_atom_site_fract_x
_atom_site_fract_y
_atom_site_fract_z
Si Si1 0.852412 0.381388 0.503109
Si Si2 0.771101 0.780878 0.352201
Si Si3 0.588785 0.448088 0.244992
Si Si4 0.898376 0.447654 0.923983
Si Si5 0.251632 0.226025 0.831405
Si Si6 0.288604 0.123265 0.845855
O O1 0.766948 0.329852 0.579109
O O2 0.603769 0.411036 0.612123
O O3 0.000000 0.407350 0.500000
O O4 0.053712 0.380995 0.322354
O O5 0.500000 0.752760 0.500000
O O6 0.816875 0.786342 0.228719
O O7 0.994148 0.755581 0.285810
O O8 0.466294 0.500000 0.313466
O O9 0.842739 0.447304 0.163063
O O10 0.661202 0.435211 0.110768
O O11 0.856992 0.500000 0.907222
O O12 0.934663 0.407354 0.836553
O O13 0.282349 0.178563 0.869963
O O14 0.000000 0.252949 0.000000
O O15 0.000000 0.103249 0.000000
#
# Coordination Sequence:
#
# PCOD8114907 Si02
#       6
#     8   8   8   8   8   8
#     4  11  22  39  61  88 124 161 203 254 309 362
#     4  11  23  43  65  92 127 168 208 262 314 369
#     4   9  20  40  64  90 123 161 201 251 309 370
#     4   9  20  40  63  90 124 160 202 252 306 369
#     4  11  24  43  65  92 129 166 212 257 313 376
#     4  11  23  39  62  89 122 162 204 255 307 367
#
# _framework density 20.077282
#
# number of rings (size 3 to 8) (size 9 to 14) (size 15 to 20)
#    0.000    1.667    3.333    3.000    2.333    3.333 
#    3.000    1.667    0.000    0.000    0.000    0.000 
#    0.000    0.000    0.000    0.000    0.000    0.000 
#
# Total GULP energy -297336.894628 kJ/mol
# GULP energy per Si atom -12389.037276 kJ/mol
# Density = 2.003159 g / cm^3
# Si number density = 20.077282 Si / 1000 Ang^3
#
#
#
# Elastic Constant Matrix: (Units=GPa)
#
#
# Indices 1 2 3 4 5 6 
#
# 1 77.8066 48.1202 47.1905 0.0000 8.6676 0.0000
# 2 48.1202 86.3523 53.4649 0.0000 2.0372 0.0000
# 3 47.1905 53.4649 158.9586 0.0000 -5.0744 0.0000
# 4 0.0000 0.0000 0.0000 28.2870 0.0000 -5.1096
# 5 8.6676 2.0372 -5.0744 0.0000 35.2317 0.0000
# 6 0.0000 0.0000 0.0000 -5.1096 0.0000 29.8493
#
#
#
# Elastic Compliance Matrix: (Units=1/GPa)
#
#
# Indices 1 2 3 4 5 6 
#
# 1 0.021478 -0.009847 -0.003230 0.000000 -0.005180 0.000000
# 2 -0.009847 0.019227 -0.003518 0.000000 0.000804 0.000000
# 3 -0.003230 -0.003518 0.008504 0.000000 0.002223 0.000000
# 4 0.000000 0.000000 0.000000 0.036480 0.000000 0.006245
# 5 -0.005180 0.000804 0.002223 0.000000 0.029931 0.000000
# 6 0.000000 0.000000 0.000000 0.006245 0.000000 0.034571
#
#
# Mechanical properties :
#
#
# Convention : Reuss Voigt Hill
#
# Bulk Modulus (GPa) = 62.42227 68.96318 65.69272
# Shear Modulus (GPa) = 26.49432 30.29641 28.39537
#
# Velocity S-wave (km/s) = 3.63659 3.88879 3.76480
# Velocity P-wave (km/s) = 6.98510 7.38830 7.18953
#
# Compressibility (1/GPa) = 0.01601992
#
# Stress axis : x y z
#
# Youngs Moduli (GPa) = 46.55897 52.01065 117.59269
#
# Poissons Ratio (x) = 0.51215 0.37978
# Poissons Ratio (y) = 0.45846 0.41368
# Poissons Ratio (z) = 0.15037 0.18297
#
# Static dielectric constant tensor:
#      x y z
#    x 3.611820 0.000000 -0.058340 
#    y 0.000000 3.619820 0.000000 
#    z -0.058340 0.000000 3.963640 
# 
# 
# High freq. dielectric constant tensor:
#      x y z
#    x 1.774700 0.000000 -0.002870 
#    y 0.000000 1.770540 0.000000 
#    z -0.002870 0.000000 1.802340 
# 
# From -- ./inp_files/200155.got.cif
#   From: 2010.06.25/outbox.cif.g09.slc.cpg/sg12_101_cif.got.tgz:200155.got - 2010.06.28 00:19:55.
