data_PCOD8114262
_publ_section_title
;
Structure prediction by ZEFSAII (Michael W. Deem and Ramdas Pophale) SiO2 
 PCOD8114262
Probable space group: C 2/M
;
_chemical_formula_sum "Si O2"
_cell_formula_units_Z 48
_cell_length_a 7.692478
_cell_length_b 28.798744
_cell_length_c 19.272725
_cell_angle_alpha 90.000000
_cell_angle_beta 147.091420
_cell_angle_gamma 90.000000
_cell_volume 2319.651705
_symmetry_space_group_name_H-M "C 2/M"
_symmetry_group_IT_number 12
_symmetry_cell_setting 'monoclinic'
loop_
_space_group_symop_operation_xyz
x,y,z
-x,y,-z
-x,-y,-z
x,-y,z
1/2+x,1/2+y,z
1/2-x,1/2+y,-z
1/2-x,1/2-y,-z
1/2+x,1/2-y,z
loop_
_atom_site_type_symbol
_atom_site_label
_atom_site_fract_x
_atom_site_fract_y
_atom_site_fract_z
Si Si1 0.773167 0.291871 0.142803
Si Si2 0.883592 0.800512 0.754382
Si Si3 0.026591 0.950669 0.705225
Si Si4 0.904415 0.550529 0.574659
Si Si5 0.738308 0.355009 0.762443
Si Si6 0.270216 0.650885 0.480161
O O1 0.606987 0.306087 0.159230
O O2 0.049474 0.253012 0.244112
O O3 0.937676 0.336856 0.163791
O O4 0.500000 0.272599 0.000000
O O5 0.538422 0.816999 0.612416
O O6 0.161668 0.829981 0.809799
O O7 0.807013 0.950526 0.564393
O O8 0.781880 0.944967 0.687039
O O9 0.288062 0.909763 0.793673
O O10 0.210919 0.000000 0.772769
O O11 0.845753 0.500000 0.594474
O O12 0.811505 0.599329 0.580358
O O13 0.433102 0.349874 0.609734
O O14 0.500000 0.674693 0.500000
#
# Coordination Sequence:
#
# PCOD8114262 Si02
#       6
#     8   8   8   8   8   8
#     4  12  27  45  64  86 112 151 212 256 298 353
#     4  12  24  42  62  87 117 158 194 249 303 351
#     4   8  14  28  53  84 119 160 196 227 280 349
#     4   8  14  26  48  80 121 163 194 227 276 347
#     4  11  22  39  63  90 126 160 191 245 298 355
#     4  11  21  36  55  90 131 157 195 238 294 367
#
# _framework density 20.692761999999998
#
# number of rings (size 3 to 8) (size 9 to 14) (size 15 to 20)
#    0.000    1.667    5.000    2.000    0.000    1.000 
#    3.000    0.000    0.000    1.500    0.000    1.167 
#    0.000    0.000    0.000    0.000    0.000    0.000 
#
# Total GULP energy -297336.956157 kJ/mol
# GULP energy per Si atom -12389.039840 kJ/mol
# Density = 2.064566 g / cm^3
# Si number density = 20.692762 Si / 1000 Ang^3
#
#
#
# Elastic Constant Matrix: (Units=GPa)
#
#
# Indices 1 2 3 4 5 6 
#
# 1 116.0261 47.8575 12.6784 0.0007 -10.3959 0.0001
# 2 47.8575 138.7010 25.6252 -0.0014 13.3467 0.0006
# 3 12.6784 25.6252 44.2732 -0.0037 -2.1108 0.0019
# 4 0.0007 -0.0014 -0.0037 9.2959 -0.0012 6.4740
# 5 -10.3959 13.3467 -2.1108 -0.0012 20.9179 0.0005
# 6 0.0001 0.0006 0.0019 6.4740 0.0005 7.1885
#
#
#
# Elastic Compliance Matrix: (Units=1/GPa)
#
#
# Indices 1 2 3 4 5 6 
#
# 1 0.011357 -0.004733 -0.000100 -0.000001 0.008654 0.000000
# 2 -0.004733 0.010769 -0.005343 -0.000006 -0.009763 0.000007
# 3 -0.000100 -0.005343 0.025994 0.000040 0.005982 -0.000043
# 4 -0.000001 -0.000006 0.000040 0.288573 0.000030 -0.259893
# 5 0.008654 -0.009763 0.005982 0.000030 0.058940 -0.000032
# 6 0.000000 0.000007 -0.000043 -0.259893 -0.000032 0.373175
#
#
# Mechanical properties :
#
#
# Convention : Reuss Voigt Hill
#
# Bulk Modulus (GPa) = 36.01388 52.36915 44.19151
# Shear Modulus (GPa) = 6.26239 21.66973 13.96606
#
# Velocity S-wave (km/s) = 1.74153 3.23958 2.60075
# Velocity P-wave (km/s) = 4.63528 6.27344 5.51552
#
# Compressibility (1/GPa) = 0.02776708
#
# Stress axis : x y z
#
# Youngs Moduli (GPa) = 88.04875 92.85508 38.47079
#
# Poissons Ratio (x) = 0.43948 0.00386
# Poissons Ratio (y) = 0.41673 0.20557
# Poissons Ratio (z) = 0.00884 0.49616
#
# Static dielectric constant tensor:
#      x y z
#    x 3.766280 0.000000 0.048040 
#    y 0.000000 4.439000 0.000000 
#    z 0.048040 0.000000 3.174190 
# 
# 
# High freq. dielectric constant tensor:
#      x y z
#    x 1.812410 0.000000 0.007970 
#    y 0.000000 1.823750 0.000000 
#    z 0.007970 0.000000 1.743110 
# 
# From -- ./inp_files/302900.got.cif
#   From: 2010.06.25/outbox.cif.g09.slc.cpg/sg12_152_cif.got.tgz:302900.got - 2010.06.28 00:19:55.
