data_PCOD8114065
_publ_section_title
;
Structure prediction by ZEFSAII (Michael W. Deem and Ramdas Pophale) SiO2 
 PCOD8114065
Probable space group: C 2/M
;
_chemical_formula_sum "Si O2"
_cell_formula_units_Z 56
_cell_length_a 30.614910
_cell_length_b 9.142909
_cell_length_c 12.430959
_cell_angle_alpha 90.000000
_cell_angle_beta 95.338859
_cell_angle_gamma 90.000000
_cell_volume 3464.446611
_symmetry_space_group_name_H-M "C 2/M"
_symmetry_group_IT_number 12
_symmetry_cell_setting 'monoclinic'
loop_
_space_group_symop_operation_xyz
x,y,z
-x,y,-z
-x,-y,-z
x,-y,z
1/2+x,1/2+y,z
1/2-x,1/2+y,-z
1/2-x,1/2-y,-z
1/2+x,1/2-y,z
loop_
_atom_site_type_symbol
_atom_site_label
_atom_site_fract_x
_atom_site_fract_y
_atom_site_fract_z
Si Si1 0.292860 0.333112 0.375510
Si Si2 0.540091 0.327229 0.232825
Si Si3 0.798941 0.333512 0.593589
Si Si4 0.551594 0.160840 0.029206
Si Si5 0.125007 0.330526 0.646173
Si Si6 0.947810 0.326990 0.206114
Si Si7 0.894634 0.665863 0.606134
O O1 0.307284 0.500000 0.367905
O O2 0.241193 0.310528 0.329815
O O3 0.294694 0.286099 0.499932
O O4 0.327890 0.241640 0.313999
O O5 0.535575 0.500000 0.229832
O O6 0.562669 0.274721 0.126207
O O7 0.492686 0.257239 0.239844
O O8 0.570766 0.278807 0.338057
O O9 0.795747 0.500000 0.544920
O O10 0.847482 0.315385 0.656148
O O11 0.569386 0.000000 0.066988
O O12 0.500000 0.152108 0.000000
O O13 0.571169 0.209219 0.917844
O O14 0.131174 0.500000 0.669037
O O15 0.087702 0.268672 0.716769
O O16 0.111184 0.296135 0.520964
O O17 0.957186 0.500000 0.219691
O O18 0.912158 0.500000 0.623989
#
# Coordination Sequence:
#
# PCOD8114065 Si02
#       7
#     8   8   8   8   8   8   8
#     4   9  15  24  41  64  88 112 141 179 219 254
#     4  11  21  30  43  65  91 115 143 182 224 257
#     4   8  15  27  42  60  83 115 150 179 210 252
#     4   8  15  30  50  66  80 105 144 184 218 256
#     4   9  18  31  46  65  89 118 149 177 210 258
#     4   9  18  33  50  65  84 114 150 181 211 256
#     4   9  17  30  45  61  87 121 152 176 204 253
#
# _framework density 16.164197999999999
#
# number of rings (size 3 to 8) (size 9 to 14) (size 15 to 20)
#    0.000    3.000    0.000    3.429    0.000    6.571 
#    0.000    2.857    0.000    0.000    0.000    1.000 
#    0.000    0.000    0.000    0.000    0.000    0.000 
#
# Total GULP energy -346901.831873 kJ/mol
# GULP energy per Si atom -12389.351138 kJ/mol
# Density = 1.612741 g / cm^3
# Si number density = 16.164198 Si / 1000 Ang^3
#
#
#
# Elastic Constant Matrix: (Units=GPa)
#
#
# Indices 1 2 3 4 5 6 
#
# 1 120.9083 48.0236 45.6623 0.0000 -16.8158 0.0000
# 2 48.0236 66.6889 24.7397 0.0000 -8.4047 0.0000
# 3 45.6623 24.7397 47.4894 0.0000 -16.0897 0.0000
# 4 0.0000 0.0000 0.0000 14.2677 0.0000 1.7118
# 5 -16.8158 -8.4047 -16.0897 0.0000 7.6745 0.0000
# 6 0.0000 0.0000 0.0000 1.7118 0.0000 24.7675
#
#
#
# Elastic Compliance Matrix: (Units=1/GPa)
#
#
# Indices 1 2 3 4 5 6 
#
# 1 0.015318 -0.006896 -0.008020 0.000000 0.009197 0.000000
# 2 -0.006896 0.021692 -0.006008 0.000000 -0.003951 0.000000
# 3 -0.008020 -0.006008 0.081866 0.000000 0.147480 0.000000
# 4 0.000000 0.000000 0.000000 0.070675 0.000000 -0.004885
# 5 0.009197 -0.003951 0.147480 0.000000 0.455318 0.000000
# 6 0.000000 0.000000 0.000000 -0.004885 0.000000 0.040713
#
#
# Mechanical properties :
#
#
# Convention : Reuss Voigt Hill
#
# Bulk Modulus (GPa) = 12.98246 52.43754 32.71000
# Shear Modulus (GPa) = 6.63918 17.11933 11.87926
#
# Velocity S-wave (km/s) = 2.02886 3.25790 2.71387
# Velocity P-wave (km/s) = 3.67932 6.83102 5.48636
#
# Compressibility (1/GPa) = 0.07702701
#
# Stress axis : x y z
#
# Youngs Moduli (GPa) = 65.28376 46.09976 12.21514
#
# Poissons Ratio (x) = 0.31792 0.09796
# Poissons Ratio (y) = 0.45022 0.07339
# Poissons Ratio (z) = 0.52356 0.27697
#
# Static dielectric constant tensor:
#      x y z
#    x 3.388230 0.000000 -0.193990 
#    y 0.000000 3.022710 0.000000 
#    z -0.193990 0.000000 2.928510 
# 
# 
# High freq. dielectric constant tensor:
#      x y z
#    x 1.622320 0.000000 -0.006450 
#    y 0.000000 1.620130 0.000000 
#    z -0.006450 0.000000 1.575140 
# 
# From -- ./inp_files/186831.got.cif
#   From: 2010.06.25/outbox.cif.g09.slc.cpg/sg12_94_cif.got.tgz:186831.got - 2010.06.28 00:19:55.
