data_PCOD8114951
_publ_section_title
;
Structure prediction by ZEFSAII (Michael W. Deem and Ramdas Pophale) SiO2 
 PCOD8114951
Probable space group: C 2/M
;
_chemical_formula_sum "Si O2"
_cell_formula_units_Z 36
_cell_length_a 11.235073
_cell_length_b 17.195523
_cell_length_c 10.465624
_cell_angle_alpha 90.000000
_cell_angle_beta 51.097061
_cell_angle_gamma 90.000000
_cell_volume 1573.452893
_symmetry_space_group_name_H-M "C 2/M"
_symmetry_group_IT_number 12
_symmetry_cell_setting 'monoclinic'
loop_
_space_group_symop_operation_xyz
x,y,z
-x,y,-z
-x,-y,-z
x,-y,z
1/2+x,1/2+y,z
1/2-x,1/2+y,-z
1/2-x,1/2-y,-z
1/2+x,1/2-y,z
loop_
_atom_site_type_symbol
_atom_site_label
_atom_site_fract_x
_atom_site_fract_y
_atom_site_fract_z
Si Si1 0.197412 0.916465 0.812782
Si Si2 0.880586 0.296928 0.340899
Si Si3 0.000000 0.626185 0.500000
Si Si4 0.072920 0.842372 0.127461
Si Si5 0.833656 0.908140 0.673159
O O1 0.346859 0.922353 0.623530
O O2 0.060345 0.905552 0.804374
O O3 0.179943 0.000000 0.893104
O O4 0.190254 0.849240 0.927369
O O5 0.750000 0.250000 0.500000
O O6 0.803155 0.367114 0.313640
O O7 0.992318 0.325288 0.375935
O O8 0.990647 0.242046 0.181471
O O9 0.165642 0.864667 0.191410
O O10 0.000000 0.894252 0.500000
O O11 0.795960 0.000000 0.710015
#
# Coordination Sequence:
#
# PCOD8114951 Si02
#       5
#     8   8   4   8   8
#     4  11  24  44  70 101 135 178 230 284 344 410
#     4  12  23  42  66 100 139 178 228 283 342 409
#     4  12  25  44  68  96 139 178 224 282 353 402
#     4  11  23  43  70  96 135 181 227 281 333 412
#     4  11  22  39  67 100 139 184 230 280 343 412
#
# _framework density 22.879617
#
# number of rings (size 3 to 8) (size 9 to 14) (size 15 to 20)
#    0.000    0.667    4.444    4.333    0.000    4.444 
#    4.000    0.000    0.000    2.667    0.000    0.000 
#    0.000    0.000    0.000    0.000    0.000    0.000 
#
# Total GULP energy -223043.643437 kJ/mol
# GULP energy per Si atom -12391.313524 kJ/mol
# Density = 2.282754 g / cm^3
# Si number density = 22.879617 Si / 1000 Ang^3
#
#
#
# Elastic Constant Matrix: (Units=GPa)
#
#
# Indices 1 2 3 4 5 6 
#
# 1 109.2545 38.2444 36.3389 0.0000 20.8464 0.0000
# 2 38.2444 133.4228 40.8579 0.0000 2.2931 0.0000
# 3 36.3389 40.8579 115.5485 0.0000 -9.4145 0.0000
# 4 0.0000 0.0000 0.0000 -0.8448 0.0000 43.1710
# 5 20.8464 2.2931 -9.4145 0.0000 34.5344 0.0000
# 6 0.0000 0.0000 0.0000 43.1710 0.0000 -12.0357
#
#
#
# Elastic Compliance Matrix: (Units=1/GPa)
#
#
# Indices 1 2 3 4 5 6 
#
# 1 0.012962 -0.002353 -0.003957 0.000000 -0.008747 0.000000
# 2 -0.002353 0.008899 -0.002392 0.000000 0.000178 0.000000
# 3 -0.003957 -0.002392 0.011201 0.000000 0.005601 0.000000
# 4 0.000000 0.000000 0.000000 0.006493 0.000000 0.023291
# 5 -0.008747 0.000178 0.005601 0.000000 0.035752 0.000000
# 6 0.000000 0.000000 0.000000 0.023291 0.000000 0.000456
#
#
# Mechanical properties :
#
#
# Convention : Reuss Voigt Hill
#
# Bulk Modulus (GPa) = 63.86885 65.45648 64.66267
# Shear Modulus (GPa) = 50.82031 20.51642 35.66837
#
# Velocity S-wave (km/s) = 4.71808 2.99776 3.95265
# Velocity P-wave (km/s) = 7.59316 6.37599 7.01104
#
# Compressibility (1/GPa) = 0.01565708
#
# Stress axis : x y z
#
# Youngs Moduli (GPa) = 77.15040 112.37200 89.27811
#
# Poissons Ratio (x) = 0.26445 0.35326
# Poissons Ratio (y) = 0.18156 0.21356
# Poissons Ratio (z) = 0.30527 0.26881
#
# Static dielectric constant tensor:
#      x y z
#    x 4.045480 0.000000 0.159600 
#    y 0.000000 3.938810 0.000000 
#    z 0.159600 0.000000 4.008850 
# 
# 
# High freq. dielectric constant tensor:
#      x y z
#    x 1.907650 0.000000 0.001790 
#    y 0.000000 1.902240 0.000000 
#    z 0.001790 0.000000 1.902750 
# 
# From -- ./inp_files/130803.got.cif
#   From: 2010.06.25/outbox.cif.g09.slc.cpg/sg12_66_cif.got.tgz:130803.got - 2010.06.28 00:19:55.
