data_PCOD8114371
_publ_section_title
;
Structure prediction by ZEFSAII (Michael W. Deem and Ramdas Pophale) SiO2 
 PCOD8114371
Probable space group: C 2/M
;
_chemical_formula_sum "Si O2"
_cell_formula_units_Z 64
_cell_length_a 20.250182
_cell_length_b 17.147602
_cell_length_c 9.715002
_cell_angle_alpha 90.000000
_cell_angle_beta 99.736147
_cell_angle_gamma 90.000000
_cell_volume 3324.869333
_symmetry_space_group_name_H-M "C 2/M"
_symmetry_group_IT_number 12
_symmetry_cell_setting 'monoclinic'
loop_
_space_group_symop_operation_xyz
x,y,z
-x,y,-z
-x,-y,-z
x,-y,z
1/2+x,1/2+y,z
1/2-x,1/2+y,-z
1/2-x,1/2-y,-z
1/2+x,1/2-y,z
loop_
_atom_site_type_symbol
_atom_site_label
_atom_site_fract_x
_atom_site_fract_y
_atom_site_fract_z
Si Si1 0.745201 0.088569 0.188713
Si Si2 0.558666 0.246969 0.928339
Si Si3 0.701491 0.314970 0.546267
Si Si4 0.372185 0.915281 0.331452
Si Si5 0.699747 0.318839 0.024710
Si Si6 0.723697 0.411155 0.307923
Si Si7 0.564389 0.242583 0.611387
Si Si8 0.887163 0.414002 0.024760
O O1 0.754971 0.144629 0.320564
O O2 0.760855 0.000000 0.236860
O O3 0.796167 0.112270 0.085386
O O4 0.669216 0.098494 0.110248
O O5 0.548285 0.264542 0.763376
O O6 0.558184 0.154255 0.963178
O O7 0.500000 0.284697 0.000000
O O8 0.626183 0.284755 0.004672
O O9 0.750000 0.250000 0.500000
O O10 0.681680 0.377715 0.421894
O O11 0.631933 0.283919 0.583965
O O12 0.301317 0.908015 0.383785
O O13 0.424487 0.850342 0.399244
O O14 0.352899 0.907611 0.163078
O O15 0.404965 0.000000 0.373690
O O16 0.714825 0.353011 0.178611
O O17 0.750000 0.250000 0.000000
O O18 0.701284 0.500000 0.265790
O O19 0.500000 0.267764 0.500000
O O20 0.920563 0.500000 0.017886
#
# Coordination Sequence:
#
# PCOD8114371 Si02
#       8
#     8   8   8   8   8   8   8   8
#     4  11  21  37  63  94 123 156 199 253 310 360
#     4  11  24  39  61  88 122 160 204 254 302 358
#     4  12  24  39  62  91 126 161 203 255 304 356
#     4   9  17  35  59  89 124 158 195 241 298 366
#     4  12  20  38  67  94 121 156 205 254 305 355
#     4  11  22  37  62  95 126 156 196 251 314 367
#     4  11  24  41  58  86 123 166 205 247 302 360
#     4   9  18  34  60  91 123 156 193 241 305 367
#
# _framework density 19.248877
#
# number of rings (size 3 to 8) (size 9 to 14) (size 15 to 20)
#    0.000    1.250    5.000    2.250    1.750    0.500 
#    0.000    0.000    0.000    4.500    0.000    0.000 
#    0.000    0.000    0.000    0.000    0.000    0.000 
#
# Total GULP energy -396712.217535 kJ/mol
# GULP energy per Si atom -12397.256798 kJ/mol
# Density = 1.920507 g / cm^3
# Si number density = 19.248877 Si / 1000 Ang^3
#
#
#
# Elastic Constant Matrix: (Units=GPa)
#
#
# Indices 1 2 3 4 5 6 
#
# 1 102.0042 32.8459 44.3637 0.0000 -10.4057 0.0000
# 2 32.8459 71.1089 41.6903 0.0000 1.5859 0.0000
# 3 44.3637 41.6903 107.1813 0.0000 -9.3291 0.0000
# 4 0.0000 0.0000 0.0000 33.3637 0.0000 4.7379
# 5 -10.4057 1.5859 -9.3291 0.0000 27.1244 0.0000
# 6 0.0000 0.0000 0.0000 4.7379 0.0000 16.2788
#
#
#
# Elastic Compliance Matrix: (Units=1/GPa)
#
#
# Indices 1 2 3 4 5 6 
#
# 1 0.013035 -0.004087 -0.003453 0.000000 0.004052 0.000000
# 2 -0.004087 0.019848 -0.006460 0.000000 -0.004950 0.000000
# 3 -0.003453 -0.006460 0.013596 0.000000 0.003729 0.000000
# 4 0.000000 0.000000 0.000000 0.031265 0.000000 -0.009100
# 5 0.004052 -0.004950 0.003729 0.000000 0.039994 0.000000
# 6 0.000000 0.000000 0.000000 -0.009100 0.000000 0.064078
#
#
# Mechanical properties :
#
#
# Convention : Reuss Voigt Hill
#
# Bulk Modulus (GPa) = 54.11076 57.56601 55.83838
# Shear Modulus (GPa) = 23.15087 26.11301 24.63194
#
# Velocity S-wave (km/s) = 3.47178 3.68720 3.58111
# Velocity P-wave (km/s) = 6.65155 6.93530 6.79491
#
# Compressibility (1/GPa) = 0.01848061
#
# Stress axis : x y z
#
# Youngs Moduli (GPa) = 76.71926 50.38225 73.54897
#
# Poissons Ratio (x) = 0.20590 0.25395
# Poissons Ratio (y) = 0.31353 0.47510
# Poissons Ratio (z) = 0.26490 0.32545
#
# Static dielectric constant tensor:
#      x y z
#    x 3.256400 0.000000 -0.140800 
#    y 0.000000 3.829220 0.000000 
#    z -0.140800 0.000000 3.574840 
# 
# 
# High freq. dielectric constant tensor:
#      x y z
#    x 1.719360 0.000000 -0.007100 
#    y 0.000000 1.755720 0.000000 
#    z -0.007100 0.000000 1.753030 
# 
# From -- ./inp_files/87955.got.cif
#   From: 2010.06.25/outbox.cif.g09.slc.cpg/sg12_44_cif.got.tgz:87955.got - 2010.06.28 00:19:55.
