data_PCOD8114623
_publ_section_title
;
Structure prediction by ZEFSAII (Michael W. Deem and Ramdas Pophale) SiO2 
 PCOD8114623
Probable space group: C 2/M
;
_chemical_formula_sum "Si O2"
_cell_formula_units_Z 64
_cell_length_a 19.058890
_cell_length_b 9.075018
_cell_length_c 20.997273
_cell_angle_alpha 90.000000
_cell_angle_beta 103.017224
_cell_angle_gamma 90.000000
_cell_volume 3538.357944
_symmetry_space_group_name_H-M "C 2/M"
_symmetry_group_IT_number 12
_symmetry_cell_setting 'monoclinic'
loop_
_space_group_symop_operation_xyz
x,y,z
-x,y,-z
-x,-y,-z
x,-y,z
1/2+x,1/2+y,z
1/2-x,1/2+y,-z
1/2-x,1/2-y,-z
1/2+x,1/2-y,z
loop_
_atom_site_type_symbol
_atom_site_label
_atom_site_fract_x
_atom_site_fract_y
_atom_site_fract_z
Si Si1 0.292151 0.331842 0.317117
Si Si2 0.591709 0.173855 0.578216
Si Si3 0.192821 0.324693 0.942085
Si Si4 0.407479 0.175214 0.822755
Si Si5 0.431143 0.175029 0.564679
Si Si6 0.530949 0.824774 0.939497
Si Si7 0.751269 0.330414 0.833785
Si Si8 0.136359 0.675751 0.321214
O O1 0.303956 0.500000 0.339509
O O2 0.355572 0.237781 0.359046
O O3 0.291278 0.314941 0.241012
O O4 0.218145 0.270451 0.331392
O O5 0.512531 0.233115 0.578967
O O6 0.610087 0.222409 0.508951
O O7 0.594409 0.000000 0.584394
O O8 0.198931 0.500000 0.948787
O O9 0.112437 0.269966 0.944486
O O10 0.209706 0.274077 0.874146
O O11 0.250000 0.250000 0.000000
O O12 0.477762 0.237221 0.873445
O O13 0.333853 0.224967 0.843095
O O14 0.408466 0.232705 0.749736
O O15 0.407239 0.000000 0.822403
O O16 0.394188 0.245021 0.619714
O O17 0.430756 0.000000 0.569772
O O18 0.529269 0.000000 0.938806
O O19 0.500000 0.764257 0.000000
O O20 0.750139 0.500000 0.857365
O O21 0.133796 0.500000 0.321609
#
# Coordination Sequence:
#
# PCOD8114623 Si02
#       8
#     8   8   8   8   8   8   8   8
#     4   9  18  31  48  71  96 124 157 192 235 285
#     4   9  17  29  46  68  94 124 157 197 245 288
#     4  11  22  34  52  77 101 126 157 193 234 279
#     4   8  14  27  48  70  90 119 161 202 235 269
#     4   8  15  28  44  64  92 125 161 201 242 281
#     4   9  17  29  47  72  97 120 154 197 230 262
#     4   9  18  34  53  71  96 127 156 192 237 281
#     4   8  14  26  45  67  91 121 158 197 235 280
#
# _framework density 18.087485999999998
#
# number of rings (size 3 to 8) (size 9 to 14) (size 15 to 20)
#    0.000    3.125    0.000    3.375    0.000    4.000 
#    0.000    3.750    0.000    7.500    0.000    0.000 
#    0.000    0.000    0.000    0.000    0.000    0.000 
#
# Total GULP energy -396595.109951 kJ/mol
# GULP energy per Si atom -12393.597186 kJ/mol
# Density = 1.804632 g / cm^3
# Si number density = 18.087486 Si / 1000 Ang^3
#
#
#
# Elastic Constant Matrix: (Units=GPa)
#
#
# Indices 1 2 3 4 5 6 
#
# 1 112.4752 26.4644 68.6488 0.0000 2.5023 0.0000
# 2 26.4644 27.2865 26.9919 0.0000 0.5996 0.0000
# 3 68.6488 26.9919 110.1107 0.0000 -1.7292 0.0000
# 4 0.0000 0.0000 0.0000 23.6175 0.0000 4.0972
# 5 2.5023 0.5996 -1.7292 0.0000 40.8445 0.0000
# 6 0.0000 0.0000 0.0000 4.0972 0.0000 21.5533
#
#
#
# Elastic Compliance Matrix: (Units=1/GPa)
#
#
# Indices 1 2 3 4 5 6 
#
# 1 0.015397 -0.007120 -0.007872 0.000000 -0.001172 0.000000
# 2 -0.007120 0.051732 -0.008253 0.000000 -0.000673 0.000000
# 3 -0.007872 -0.008253 0.016033 0.000000 0.001282 0.000000
# 4 0.000000 0.000000 0.000000 0.043785 0.000000 -0.008323
# 5 -0.001172 -0.000673 0.001282 0.000000 0.024619 0.000000
# 6 0.000000 0.000000 0.000000 -0.008323 0.000000 0.047979
#
#
# Mechanical properties :
#
#
# Convention : Reuss Voigt Hill
#
# Bulk Modulus (GPa) = 27.26893 54.89807 41.08350
# Shear Modulus (GPa) = 19.36029 25.72087 22.54058
#
# Velocity S-wave (km/s) = 3.27520 3.77507 3.53398
# Velocity P-wave (km/s) = 5.42323 7.02985 6.27815
#
# Compressibility (1/GPa) = 0.03667177
#
# Stress axis : x y z
#
# Youngs Moduli (GPa) = 64.94730 19.33024 62.37125
#
# Poissons Ratio (x) = 0.13763 0.49101
# Poissons Ratio (y) = 0.46243 0.51474
# Poissons Ratio (z) = 0.51129 0.15953
#
# Static dielectric constant tensor:
#      x y z
#    x 3.480150 0.000000 -0.077420 
#    y 0.000000 2.805300 0.000000 
#    z -0.077420 0.000000 3.741390 
# 
# 
# High freq. dielectric constant tensor:
#      x y z
#    x 1.700460 0.000000 0.000100 
#    y 0.000000 1.642830 0.000000 
#    z 0.000100 0.000000 1.717930 
# 
# From -- ./inp_files/276579.got.cif
#   From: 2010.06.25/outbox.cif.g09.slc.cpg/sg12_139_cif.got.tgz:276579.got - 2010.06.28 00:19:55.
