data_PCOD8114467
_publ_section_title
;
Structure prediction by ZEFSAII (Michael W. Deem and Ramdas Pophale) SiO2 
 PCOD8114467
Probable space group: C 2/M
;
_chemical_formula_sum "Si O2"
_cell_formula_units_Z 56
_cell_length_a 18.152645
_cell_length_b 18.800980
_cell_length_c 14.404897
_cell_angle_alpha 90.000000
_cell_angle_beta 31.185412
_cell_angle_gamma 90.000000
_cell_volume 2545.659595
_symmetry_space_group_name_H-M "C 2/M"
_symmetry_group_IT_number 12
_symmetry_cell_setting 'monoclinic'
loop_
_space_group_symop_operation_xyz
x,y,z
-x,y,-z
-x,-y,-z
x,-y,z
1/2+x,1/2+y,z
1/2-x,1/2+y,-z
1/2-x,1/2-y,-z
1/2+x,1/2-y,z
loop_
_atom_site_type_symbol
_atom_site_label
_atom_site_fract_x
_atom_site_fract_y
_atom_site_fract_z
Si Si1 0.033679 0.214747 0.609909
Si Si2 0.592358 0.131339 0.484224
Si Si3 0.662920 0.170761 0.740247
Si Si4 0.361956 0.422898 0.094371
Si Si5 0.055981 0.216899 0.088087
Si Si6 0.249687 0.164367 0.150251
Si Si7 0.976491 0.417634 0.805706
O O1 0.970779 0.235369 0.776381
O O2 0.922089 0.164308 0.673614
O O3 0.074156 0.283867 0.506903
O O4 0.181168 0.175627 0.472423
O O5 0.500000 0.099575 0.500000
O O6 0.753617 0.110705 0.286121
O O7 0.537764 0.096639 0.637855
O O8 0.573009 0.245894 0.832650
O O9 0.686879 0.140525 0.818454
O O10 0.583845 0.111305 0.766935
O O11 0.306954 0.500000 0.111870
O O12 0.500000 0.443345 0.000000
O O13 0.413742 0.366362 0.960761
O O14 0.206883 0.253008 0.903948
O O15 0.321861 0.118215 0.990268
O O16 0.956427 0.500000 0.843019
#
# Coordination Sequence:
#
# PCOD8114467 Si02
#       7
#     8   8   8   8   8   8   8
#     4  12  23  40  69 104 136 168 222 293 341 396
#     4  12  25  44  69  99 138 177 224 279 342 410
#     4  11  23  42  69 100 131 174 226 284 345 395
#     4  11  25  41  63  96 139 183 223 272 337 409
#     4  11  21  39  66  94 135 179 226 276 333 409
#     4  11  23  42  69 100 131 172 225 289 343 397
#     4  11  26  46  68  96 134 183 233 274 334 418
#
# _framework density 21.998227
#
# number of rings (size 3 to 8) (size 9 to 14) (size 15 to 20)
#    0.000    0.714    2.857    7.714    4.000    2.286 
#    0.000    0.714    0.000    1.714    0.000    0.000 
#    0.000    0.000    0.000    0.000    0.000    0.000 
#
# Total GULP energy -346976.648234 kJ/mol
# GULP energy per Si atom -12392.023151 kJ/mol
# Density = 2.194816 g / cm^3
# Si number density = 21.998227 Si / 1000 Ang^3
#
#
#
# Elastic Constant Matrix: (Units=GPa)
#
#
# Indices 1 2 3 4 5 6 
#
# 1 85.2425 28.7538 48.0012 0.0007 0.8282 -0.0009
# 2 28.7538 117.4816 44.8108 0.0000 -14.8335 0.0003
# 3 48.0012 44.8108 132.6935 0.0003 -12.7814 -0.0004
# 4 0.0007 0.0000 0.0003 52.4089 0.0002 5.6462
# 5 0.8282 -14.8335 -12.7814 0.0002 35.8703 -0.0001
# 6 -0.0009 0.0003 -0.0004 5.6462 -0.0001 14.6448
#
#
#
# Elastic Compliance Matrix: (Units=1/GPa)
#
#
# Indices 1 2 3 4 5 6 
#
# 1 0.015388 -0.002204 -0.005120 0.000000 -0.003091 0.000001
# 2 -0.002204 0.010401 -0.002378 0.000000 0.003505 0.000000
# 3 -0.005120 -0.002378 0.010467 0.000000 0.002865 0.000000
# 4 0.000000 0.000000 0.000000 0.019908 0.000000 -0.007675
# 5 -0.003091 0.003505 0.002865 0.000000 0.030420 0.000000
# 6 0.000001 0.000000 0.000000 -0.007675 0.000000 0.071243
#
#
# Mechanical properties :
#
#
# Convention : Reuss Voigt Hill
#
# Bulk Modulus (GPa) = 59.33580 64.28325 61.80953
# Shear Modulus (GPa) = 27.34545 34.84157 31.09351
#
# Velocity S-wave (km/s) = 3.52955 3.98406 3.76367
# Velocity P-wave (km/s) = 6.60620 7.10275 6.85897
#
# Compressibility (1/GPa) = 0.01685323
#
# Stress axis : x y z
#
# Youngs Moduli (GPa) = 64.98696 96.14740 95.53674
#
# Poissons Ratio (x) = 0.21186 0.48915
# Poissons Ratio (y) = 0.14320 0.22715
# Poissons Ratio (z) = 0.33273 0.22860
#
# Static dielectric constant tensor:
#      x y z
#    x 4.535140 0.000000 0.244240 
#    y 0.000000 3.813620 0.000000 
#    z 0.244240 0.000000 4.470290 
# 
# 
# High freq. dielectric constant tensor:
#      x y z
#    x 1.868050 0.000000 0.000550 
#    y 0.000000 1.838830 0.000000 
#    z 0.000550 0.000000 1.886070 
# 
# From -- ./inp_files/227566.got.cif
#   From: 2010.06.25/outbox.cif.g09.slc.cpg/sg12_114_cif.got.tgz:227566.got - 2010.06.28 00:19:55.
