data_PCOD8114973
_publ_section_title
;
Structure prediction by ZEFSAII (Michael W. Deem and Ramdas Pophale) SiO2 
 PCOD8114973
Probable space group: C 2/M
;
_chemical_formula_sum "Si O2"
_cell_formula_units_Z 48
_cell_length_a 13.252983
_cell_length_b 21.048989
_cell_length_c 10.477738
_cell_angle_alpha 90.000000
_cell_angle_beta 132.044000
_cell_angle_gamma 90.000000
_cell_volume 2170.627722
_symmetry_space_group_name_H-M "C 2/M"
_symmetry_group_IT_number 12
_symmetry_cell_setting 'monoclinic'
loop_
_space_group_symop_operation_xyz
x,y,z
-x,y,-z
-x,-y,-z
x,-y,z
1/2+x,1/2+y,z
1/2-x,1/2+y,-z
1/2-x,1/2-y,-z
1/2+x,1/2-y,z
loop_
_atom_site_type_symbol
_atom_site_label
_atom_site_fract_x
_atom_site_fract_y
_atom_site_fract_z
Si Si1 0.155935 0.500000 0.012459
Si Si2 0.450579 0.790553 0.285413
Si Si3 0.660859 0.000000 0.304380
Si Si4 0.031868 0.177637 0.169930
Si Si5 0.646712 0.318512 0.637990
Si Si6 0.286911 0.866149 0.516319
Si Si7 0.266959 0.372385 0.036513
O O1 0.222792 0.500000 0.212407
O O2 0.205471 0.441280 0.971192
O O3 0.995296 0.500000 0.866442
O O4 0.517115 0.737489 0.251017
O O5 0.388730 0.755430 0.358571
O O6 0.565797 0.843792 0.410234
O O7 0.320591 0.821492 0.112606
O O8 0.705117 0.938297 0.423543
O O9 0.177751 0.142130 0.308909
O O10 0.919619 0.125649 0.113452
O O11 0.000000 0.200843 0.000000
O O12 0.500000 0.354301 0.500000
O O13 0.734169 0.319582 0.583726
O O14 0.738702 0.352005 0.820803
#
# Coordination Sequence:
#
# PCOD8114973 Si02
#       7
#     4   8   4   8   8   8   8
#     4  11  22  41  69 100 132 174 221 279 340 395
#     4  11  25  38  68  98 143 173 216 280 335 410
#     4  11  24  41  71 102 136 170 225 285 332 399
#     4  11  26  43  66  99 133 180 225 274 348 394
#     4  11  22  40  64 100 139 170 223 271 347 386
#     4  12  24  44  69 104 136 177 228 283 334 402
#     4  11  23  42  63 101 135 171 220 277 336 404
#
# _framework density 22.113416999999998
#
# number of rings (size 3 to 8) (size 9 to 14) (size 15 to 20)
#    0.000    0.833    6.667    2.500    4.667    0.667 
#    0.000    3.333    0.000    1.000    0.000    0.000 
#    0.000    0.000    0.000    0.000    0.000    0.000 
#
# Total GULP energy -297480.324181 kJ/mol
# GULP energy per Si atom -12395.013508 kJ/mol
# Density = 2.206309 g / cm^3
# Si number density = 22.113417 Si / 1000 Ang^3
#
#
#
# Elastic Constant Matrix: (Units=GPa)
#
#
# Indices 1 2 3 4 5 6 
#
# 1 51.0482 21.8882 1.2450 0.0000 12.4887 0.0000
# 2 21.8882 125.1904 36.4467 0.0000 3.6053 0.0000
# 3 1.2450 36.4467 118.8018 0.0000 20.4244 0.0000
# 4 0.0000 0.0000 0.0000 30.5565 0.0000 8.0339
# 5 12.4887 3.6053 20.4244 0.0000 27.1514 0.0000
# 6 0.0000 0.0000 0.0000 8.0339 0.0000 31.5773
#
#
#
# Elastic Compliance Matrix: (Units=1/GPa)
#
#
# Indices 1 2 3 4 5 6 
#
# 1 0.024966 -0.005025 0.003606 0.000000 -0.013529 0.000000
# 2 -0.005025 0.009806 -0.003594 0.000000 0.003713 0.000000
# 3 0.003606 -0.003594 0.011124 0.000000 -0.009549 0.000000
# 4 0.000000 0.000000 0.000000 0.035072 0.000000 -0.008923
# 5 -0.013529 0.003713 -0.009549 0.000000 0.049743 0.000000
# 6 0.000000 0.000000 0.000000 -0.008923 0.000000 0.033939
#
#
# Mechanical properties :
#
#
# Convention : Reuss Voigt Hill
#
# Bulk Modulus (GPa) = 27.87929 46.02223 36.95076
# Shear Modulus (GPa) = 26.79062 33.55441 30.17251
#
# Velocity S-wave (km/s) = 3.48445 3.89958 3.69784
# Velocity P-wave (km/s) = 5.36873 6.41348 5.91422
#
# Compressibility (1/GPa) = 0.03586892
#
# Stress axis : x y z
#
# Youngs Moduli (GPa) = 40.05488 101.98037 89.89690
#
# Poissons Ratio (x) = 0.51247 -0.32415
# Poissons Ratio (y) = 0.20128 0.32308
# Poissons Ratio (z) = -0.14443 0.36651
#
# Static dielectric constant tensor:
#      x y z
#    x 3.996580 0.000000 0.087020 
#    y 0.000000 3.820060 0.000000 
#    z 0.087020 0.000000 4.387010 
# 
# 
# High freq. dielectric constant tensor:
#      x y z
#    x 1.862600 0.000000 0.008310 
#    y 0.000000 1.847750 0.000000 
#    z 0.008310 0.000000 1.894070 
# 
# From -- ./inp_files/148063.got.cif
#   From: 2010.06.25/outbox.cif.g09.slc.cpg/sg12_75_cif.got.tgz:148063.got - 2010.06.28 00:19:55.
