data_PCOD8114981
_publ_section_title
;
Structure prediction by ZEFSAII (Michael W. Deem and Ramdas Pophale) SiO2 
 PCOD8114981
Probable space group: C 2/M
;
_chemical_formula_sum "Si O2"
_cell_formula_units_Z 40
_cell_length_a 31.306302
_cell_length_b 8.258264
_cell_length_c 8.886785
_cell_angle_alpha 90.000000
_cell_angle_beta 126.263748
_cell_angle_gamma 90.000000
_cell_volume 1852.521763
_symmetry_space_group_name_H-M "C 2/M"
_symmetry_group_IT_number 12
_symmetry_cell_setting 'monoclinic'
loop_
_space_group_symop_operation_xyz
x,y,z
-x,y,-z
-x,-y,-z
x,-y,z
1/2+x,1/2+y,z
1/2-x,1/2+y,-z
1/2-x,1/2-y,-z
1/2+x,1/2-y,z
loop_
_atom_site_type_symbol
_atom_site_label
_atom_site_fract_x
_atom_site_fract_y
_atom_site_fract_z
Si Si1 0.755531 0.812640 0.679291
Si Si2 0.339023 0.684855 0.330775
Si Si3 0.435114 0.188464 0.716188
Si Si4 0.643968 0.186635 0.954772
Si Si5 0.047623 0.810301 0.920677
O O1 0.750000 0.750000 0.500000
O O2 0.717347 0.713396 0.709330
O O3 0.815282 0.787863 0.859207
O O4 0.739845 0.000000 0.652820
O O5 0.342062 0.500000 0.283337
O O6 0.384793 0.720385 0.545141
O O7 0.344138 0.798257 0.196617
O O8 0.487963 0.262058 0.751043
O O9 0.431315 0.000000 0.670076
O O10 0.435017 0.213541 0.894673
O O11 0.647128 0.000000 0.008482
O O12 0.585631 0.258149 0.863936
O O13 0.050828 0.000000 0.960466
#
# Coordination Sequence:
#
# PCOD8114981 Si02
#       5
#     8   8   8   8   8
#     4  12  25  44  67  94 124 162 206 254 305 364
#     4  12  25  43  64  92 126 164 205 254 309 368
#     4  11  22  40  64  93 125 164 208 256 306 363
#     4  12  25  43  64  92 126 164 205 254 309 368
#     4  11  22  40  64  93 125 164 208 256 306 363
#
# _framework density 21.592189000000001
#
# number of rings (size 3 to 8) (size 9 to 14) (size 15 to 20)
#    0.000    0.400    0.000   12.000    0.000    0.800 
#    0.000    4.000    0.000    0.000    0.000    0.000 
#    0.000    0.000    0.000    0.000    0.000    0.000 
#
# Total GULP energy -248207.697889 kJ/mol
# GULP energy per Si atom -12410.384894 kJ/mol
# Density = 2.154304 g / cm^3
# Si number density = 21.592189 Si / 1000 Ang^3
#
#
#
# Elastic Constant Matrix: (Units=GPa)
#
#
# Indices 1 2 3 4 5 6 
#
# 1 128.2935 25.2946 7.7921 0.0000 -4.5982 0.0000
# 2 25.2946 118.8993 16.3807 0.0000 7.5604 0.0000
# 3 7.7921 16.3807 34.5952 0.0000 0.3201 0.0000
# 4 0.0000 0.0000 0.0000 37.2730 0.0000 0.7364
# 5 -4.5982 7.5604 0.3201 0.0000 33.6313 0.0000
# 6 0.0000 0.0000 0.0000 0.7364 0.0000 37.2825
#
#
#
# Elastic Compliance Matrix: (Units=1/GPa)
#
#
# Indices 1 2 3 4 5 6 
#
# 1 0.008250 -0.001705 -0.001065 0.000000 0.001521 0.000000
# 2 -0.001705 0.009484 -0.004085 0.000000 -0.002326 0.000000
# 3 -0.001065 -0.004085 0.031075 0.000000 0.000477 0.000000
# 4 0.000000 0.000000 0.000000 0.026840 0.000000 -0.000530
# 5 0.001521 -0.002326 0.000477 0.000000 0.030461 0.000000
# 6 0.000000 0.000000 0.000000 -0.000530 0.000000 0.026833
#
#
# Mechanical properties :
#
#
# Convention : Reuss Voigt Hill
#
# Bulk Modulus (GPa) = 28.49064 42.30252 35.39658
# Shear Modulus (GPa) = 31.57521 37.12541 34.35031
#
# Velocity S-wave (km/s) = 3.82821 4.15105 3.99289
# Velocity P-wave (km/s) = 5.72397 6.52756 6.13893
#
# Compressibility (1/GPa) = 0.03509924
#
# Stress axis : x y z
#
# Youngs Moduli (GPa) = 121.21171 105.44141 32.17978
#
# Poissons Ratio (x) = 0.17979 0.03427
# Poissons Ratio (y) = 0.20668 0.13145
# Poissons Ratio (z) = 0.12908 0.43073
#
# Static dielectric constant tensor:
#      x y z
#    x 3.958550 0.000000 0.292210 
#    y 0.000000 3.998110 0.000000 
#    z 0.292210 0.000000 3.650340 
# 
# 
# High freq. dielectric constant tensor:
#      x y z
#    x 1.862270 0.000000 0.007570 
#    y 0.000000 1.867220 0.000000 
#    z 0.007570 0.000000 1.843870 
# 
# From -- ./inp_files/108350.got.cif
#   From: 2010.06.25/outbox.cif.g09.slc.cpg/sg12_55_cif.got.tgz:108350.got - 2010.06.28 00:19:55.
