data_PCOD8114696
_publ_section_title
;
Structure prediction by ZEFSAII (Michael W. Deem and Ramdas Pophale) SiO2 
 PCOD8114696
Probable space group: C 2/M
;
_chemical_formula_sum "Si O2"
_cell_formula_units_Z 48
_cell_length_a 19.921496
_cell_length_b 8.634733
_cell_length_c 16.139225
_cell_angle_alpha 90.000000
_cell_angle_beta 62.862650
_cell_angle_gamma 90.000000
_cell_volume 2470.599700
_symmetry_space_group_name_H-M "C 2/M"
_symmetry_group_IT_number 12
_symmetry_cell_setting 'monoclinic'
loop_
_space_group_symop_operation_xyz
x,y,z
-x,y,-z
-x,-y,-z
x,-y,z
1/2+x,1/2+y,z
1/2-x,1/2+y,-z
1/2-x,1/2-y,-z
1/2+x,1/2-y,z
loop_
_atom_site_type_symbol
_atom_site_label
_atom_site_fract_x
_atom_site_fract_y
_atom_site_fract_z
Si Si1 0.032522 0.818696 0.569357
Si Si2 0.108256 0.816829 0.885866
Si Si3 0.808067 0.317694 0.531528
Si Si4 0.767194 0.683526 0.735628
Si Si5 0.950851 0.183292 0.904926
Si Si6 0.411396 0.181324 0.756204
O O1 0.109173 0.729106 0.544335
O O2 0.000000 0.761096 0.500000
O O3 0.975137 0.779109 0.674382
O O4 0.049352 0.000000 0.559218
O O5 0.186449 0.744252 0.808112
O O6 0.038911 0.768863 0.865230
O O7 0.113362 0.000000 0.884452
O O8 0.093486 0.761586 0.988033
O O9 0.800475 0.500000 0.536436
O O10 0.750000 0.250000 0.500000
O O11 0.790453 0.249433 0.632835
O O12 0.760486 0.500000 0.734622
O O13 0.830068 0.732826 0.766975
O O14 0.913776 0.278027 0.851347
O O15 0.942750 0.000000 0.894244
O O16 0.425510 0.000000 0.733278
#
# Coordination Sequence:
#
# PCOD8114696 Si02
#       6
#     8   8   8   8   8   8
#     4  11  23  40  61  83 112 151 194 242 288 342
#     4   8  16  34  57  81 110 147 190 233 281 339
#     4  11  23  39  59  86 119 155 194 236 284 342
#     4   9  19  35  55  79 113 153 189 227 280 341
#     4   9  18  34  59  85 109 143 191 239 280 336
#     4  11  22  36  56  83 115 151 188 232 289 348
#
# _framework density 19.428481999999999
#
# number of rings (size 3 to 8) (size 9 to 14) (size 15 to 20)
#    0.000    2.167    1.667    2.500    2.333    1.333 
#    0.000    1.667    0.000    5.000    0.000    0.000 
#    0.000    0.000    0.000    0.000    0.000    0.000 
#
# Total GULP energy -297634.700210 kJ/mol
# GULP energy per Si atom -12401.445842 kJ/mol
# Density = 1.938426 g / cm^3
# Si number density = 19.428482 Si / 1000 Ang^3
#
#
#
# Elastic Constant Matrix: (Units=GPa)
#
#
# Indices 1 2 3 4 5 6 
#
# 1 153.8793 26.0292 62.5207 0.0000 2.0654 -0.0001
# 2 26.0292 38.1422 15.2547 0.0000 5.6517 0.0001
# 3 62.5207 15.2547 93.8132 0.0000 3.1051 0.0000
# 4 0.0000 0.0000 0.0000 24.1645 0.0000 8.6502
# 5 2.0654 5.6517 3.1051 0.0000 45.8153 0.0000
# 6 -0.0001 0.0001 0.0000 8.6502 0.0000 22.6050
#
#
#
# Elastic Compliance Matrix: (Units=1/GPa)
#
#
# Indices 1 2 3 4 5 6 
#
# 1 0.009520 -0.004305 -0.005661 0.000000 0.000486 0.000000
# 2 -0.004305 0.030451 -0.001969 0.000000 -0.003429 0.000000
# 3 -0.005661 -0.001969 0.014769 0.000000 -0.000503 0.000000
# 4 0.000000 0.000000 0.000000 0.047952 0.000000 -0.018350
# 5 0.000486 -0.003429 -0.000503 0.000000 0.022262 0.000000
# 6 0.000000 0.000000 0.000000 -0.018350 0.000000 0.051260
#
#
# Mechanical properties :
#
#
# Convention : Reuss Voigt Hill
#
# Bulk Modulus (GPa) = 32.39319 54.82710 43.61014
# Shear Modulus (GPa) = 23.76732 30.65230 27.20981
#
# Velocity S-wave (km/s) = 3.50140 3.97634 3.74640
# Velocity P-wave (km/s) = 5.74940 7.02587 6.41944
#
# Compressibility (1/GPa) = 0.03087069
#
# Stress axis : x y z
#
# Youngs Moduli (GPa) = 105.04001 32.83964 67.71017
#
# Poissons Ratio (x) = 0.14137 0.38329
# Poissons Ratio (y) = 0.45218 0.13333
# Poissons Ratio (z) = 0.59460 0.06467
#
# Static dielectric constant tensor:
#      x y z
#    x 3.753260 0.000000 -0.057170 
#    y 0.000000 3.184570 0.000000 
#    z -0.057170 0.000000 3.688510 
# 
# 
# High freq. dielectric constant tensor:
#      x y z
#    x 1.768340 0.000000 0.000390 
#    y 0.000000 1.725300 0.000000 
#    z 0.000390 0.000000 1.763340 
# 
# From -- ./inp_files/229938.got.cif
#   From: 2010.06.25/outbox.cif.g09.slc.cpg/sg12_115_cif.got.tgz:229938.got - 2010.06.28 00:19:55.
