data_PCOD8114739
_publ_section_title
;
Structure prediction by ZEFSAII (Michael W. Deem and Ramdas Pophale) SiO2 
 PCOD8114739
Probable space group: C 2/M
;
_chemical_formula_sum "Si O2"
_cell_formula_units_Z 40
_cell_length_a 14.441483
_cell_length_b 8.329086
_cell_length_c 16.654424
_cell_angle_alpha 90.000000
_cell_angle_beta 91.890520
_cell_angle_gamma 90.000000
_cell_volume 2002.176228
_symmetry_space_group_name_H-M "C 2/M"
_symmetry_group_IT_number 12
_symmetry_cell_setting 'monoclinic'
loop_
_space_group_symop_operation_xyz
x,y,z
-x,y,-z
-x,-y,-z
x,-y,z
1/2+x,1/2+y,z
1/2-x,1/2+y,-z
1/2-x,1/2-y,-z
1/2+x,1/2-y,z
loop_
_atom_site_type_symbol
_atom_site_label
_atom_site_fract_x
_atom_site_fract_y
_atom_site_fract_z
Si Si1 0.769114 0.312809 0.697966
Si Si2 0.382467 0.813320 0.421654
Si Si3 0.603363 0.189539 0.994524
Si Si4 0.243349 0.809939 0.878055
Si Si5 0.581355 0.314294 0.410172
O O1 0.793612 0.500000 0.697604
O O2 0.676999 0.281328 0.645018
O O3 0.753417 0.248843 0.787514
O O4 0.855453 0.214824 0.665196
O O5 0.362222 0.739250 0.508871
O O6 0.489485 0.792507 0.400803
O O7 0.355131 0.000000 0.420870
O O8 0.668710 0.255013 0.068385
O O9 0.597036 0.000000 0.998931
O O10 0.500000 0.263741 0.000000
O O11 0.647730 0.240227 0.910874
O O12 0.237561 0.000000 0.881870
O O13 0.553202 0.500000 0.415627
#
# Coordination Sequence:
#
# PCOD8114739 Si02
#       5
#     8   8   8   8   8
#     4  11  22  37  55  80 115 150 186 229 276 326
#     4  11  22  38  58  81 109 146 190 233 279 326
#     4   9  18  35  58  81 107 141 178 218 268 325
#     4   9  20  36  54  80 111 141 177 222 269 322
#     4  11  22  38  58  82 111 146 187 229 278 332
#
# _framework density 19.978262000000001
#
# number of rings (size 3 to 8) (size 9 to 14) (size 15 to 20)
#    0.000    1.800    0.000    6.000    0.000    3.600 
#    0.000    2.000    0.000    0.000    0.000    0.000 
#    0.000    0.000    0.000    0.000    0.000    0.000 
#
# Total GULP energy -248078.252900 kJ/mol
# GULP energy per Si atom -12403.912645 kJ/mol
# Density = 1.993279 g / cm^3
# Si number density = 19.978262 Si / 1000 Ang^3
#
#
#
# Elastic Constant Matrix: (Units=GPa)
#
#
# Indices 1 2 3 4 5 6 
#
# 1 103.8742 4.1929 50.7853 0.0000 -24.3935 0.0000
# 2 4.1929 51.0011 11.5079 0.0000 -5.1282 0.0000
# 3 50.7853 11.5079 132.7789 0.0000 -28.0232 0.0000
# 4 0.0000 0.0000 0.0000 27.7295 0.0000 -4.4884
# 5 -24.3935 -5.1282 -28.0232 0.0000 24.6866 0.0000
# 6 0.0000 0.0000 0.0000 -4.4884 0.0000 28.4068
#
#
#
# Elastic Compliance Matrix: (Units=1/GPa)
#
#
# Indices 1 2 3 4 5 6 
#
# 1 0.013442 0.000589 -0.003108 0.000000 0.009877 0.000000
# 2 0.000589 0.020181 -0.001271 0.000000 0.003331 0.000000
# 3 -0.003108 -0.001271 0.010687 0.000000 0.008796 0.000000
# 4 0.000000 0.000000 0.000000 0.037009 0.000000 0.005848
# 5 0.009877 0.003331 0.008796 0.000000 0.060944 0.000000
# 6 0.000000 0.000000 0.000000 0.005848 0.000000 0.036127
#
#
# Mechanical properties :
#
#
# Convention : Reuss Voigt Hill
#
# Bulk Modulus (GPa) = 27.22592 46.73627 36.98110
# Shear Modulus (GPa) = 25.22538 30.90913 28.06725
#
# Velocity S-wave (km/s) = 3.55722 3.93763 3.75225
# Velocity P-wave (km/s) = 5.52532 6.64211 6.10929
#
# Compressibility (1/GPa) = 0.03672970
#
# Stress axis : x y z
#
# Youngs Moduli (GPa) = 74.39242 49.55204 93.57511
#
# Poissons Ratio (x) = -0.02920 0.29082
# Poissons Ratio (y) = -0.04384 0.11897
# Poissons Ratio (z) = 0.23120 0.06300
#
# Static dielectric constant tensor:
#      x y z
#    x 3.702200 0.000000 0.016760 
#    y 0.000000 3.510460 0.000000 
#    z 0.016760 0.000000 3.761000 
# 
# 
# High freq. dielectric constant tensor:
#      x y z
#    x 1.784450 0.000000 -0.006340 
#    y 0.000000 1.777290 0.000000 
#    z -0.006340 0.000000 1.776860 
# 
# From -- ./inp_files/211359.got.cif
#   From: 2010.06.25/outbox.cif.g09.slc.cpg/sg12_106_cif.got.tgz:211359.got - 2010.06.28 00:19:55.
