data_PCOD8114706
_publ_section_title
;
Structure prediction by ZEFSAII (Michael W. Deem and Ramdas Pophale) SiO2 
 PCOD8114706
Probable space group: C 2/M
;
_chemical_formula_sum "Si O2"
_cell_formula_units_Z 48
_cell_length_a 12.573696
_cell_length_b 18.230047
_cell_length_c 10.768480
_cell_angle_alpha 90.000000
_cell_angle_beta 78.784747
_cell_angle_gamma 90.000000
_cell_volume 2421.204071
_symmetry_space_group_name_H-M "C 2/M"
_symmetry_group_IT_number 12
_symmetry_cell_setting 'monoclinic'
loop_
_space_group_symop_operation_xyz
x,y,z
-x,y,-z
-x,-y,-z
x,-y,z
1/2+x,1/2+y,z
1/2-x,1/2+y,-z
1/2-x,1/2-y,-z
1/2+x,1/2-y,z
loop_
_atom_site_type_symbol
_atom_site_label
_atom_site_fract_x
_atom_site_fract_y
_atom_site_fract_z
Si Si1 0.945432 0.310371 0.891961
Si Si2 0.159717 0.668403 0.704126
Si Si3 0.808285 0.419377 0.067102
Si Si4 0.628121 0.083795 0.465737
Si Si5 0.264006 0.812006 0.752024
Si Si6 0.616437 0.418067 0.925693
O O1 0.837391 0.277385 0.849134
O O2 0.032676 0.321350 0.763543
O O3 0.904088 0.386988 0.959749
O O4 0.000000 0.266880 0.000000
O O5 0.214998 0.626548 0.804642
O O6 0.177576 0.622261 0.575891
O O7 0.220298 0.746481 0.675933
O O8 0.847308 0.500000 0.096490
O O9 0.694523 0.421301 0.024926
O O10 0.500000 0.084023 0.500000
O O11 0.663237 0.130136 0.338646
O O12 0.671309 0.000000 0.446295
O O13 0.158496 0.856540 0.821296
O O14 0.610348 0.500000 0.865870
O O15 0.500000 0.392291 0.000000
#
# Coordination Sequence:
#
# PCOD8114706 Si02
#       6
#     8   8   8   8   8   8
#     4   9  20  35  54  86 118 151 190 230 287 345
#     4  11  22  36  57  86 119 151 191 241 294 355
#     4   9  19  34  55  84 120 156 194 242 289 342
#     4  11  23  41  64  84 111 152 200 247 294 349
#     4  11  22  38  59  86 121 152 193 243 295 347
#     4   9  19  36  58  84 115 156 199 234 283 347
#
# _framework density 19.824846999999998
#
# number of rings (size 3 to 8) (size 9 to 14) (size 15 to 20)
#    0.000    2.000    1.667    1.500    0.000   13.667 
#    0.000    0.000    0.000    0.000    0.000    5.833 
#    0.000    0.000    0.000    0.000    0.000    0.000 
#
# Total GULP energy -297412.085396 kJ/mol
# GULP energy per Si atom -12392.170225 kJ/mol
# Density = 1.977973 g / cm^3
# Si number density = 19.824847 Si / 1000 Ang^3
#
#
#
# Elastic Constant Matrix: (Units=GPa)
#
#
# Indices 1 2 3 4 5 6 
#
# 1 90.8535 37.8193 25.8806 0.0000 -3.9991 0.0000
# 2 37.8193 115.7238 35.1827 0.0000 9.2659 0.0000
# 3 25.8806 35.1827 68.2430 0.0000 2.5568 0.0000
# 4 0.0000 0.0000 0.0000 27.9925 0.0000 2.5874
# 5 -3.9991 9.2659 2.5568 0.0000 23.3902 0.0000
# 6 0.0000 0.0000 0.0000 2.5874 0.0000 17.3210
#
#
#
# Elastic Compliance Matrix: (Units=1/GPa)
#
#
# Indices 1 2 3 4 5 6 
#
# 1 0.013744 -0.003791 -0.003416 0.000000 0.004225 0.000000
# 2 -0.003791 0.011586 -0.004357 0.000000 -0.004762 0.000000
# 3 -0.003416 -0.004357 0.018227 0.000000 -0.000850 0.000000
# 4 0.000000 0.000000 0.000000 0.036224 0.000000 -0.005411
# 5 0.004225 -0.004762 -0.000850 0.000000 0.045455 0.000000
# 6 0.000000 0.000000 0.000000 -0.005411 0.000000 0.058542
#
#
# Mechanical properties :
#
#
# Convention : Reuss Voigt Hill
#
# Bulk Modulus (GPa) = 48.95096 52.50950 50.73023
# Shear Modulus (GPa) = 23.39552 25.46991 24.43271
#
# Velocity S-wave (km/s) = 3.43900 3.58822 3.51441
# Velocity P-wave (km/s) = 6.36508 6.61146 6.48944
#
# Compressibility (1/GPa) = 0.02042861
#
# Stress axis : x y z
#
# Youngs Moduli (GPa) = 72.75884 86.30928 54.86328
#
# Poissons Ratio (x) = 0.32724 0.18741
# Poissons Ratio (y) = 0.27586 0.23904
# Poissons Ratio (z) = 0.24854 0.37605
#
# Static dielectric constant tensor:
#      x y z
#    x 3.764110 0.000000 0.220280 
#    y 0.000000 3.718000 0.000000 
#    z 0.220280 0.000000 3.579370 
# 
# 
# High freq. dielectric constant tensor:
#      x y z
#    x 1.776220 0.000000 0.003240 
#    y 0.000000 1.772320 0.000000 
#    z 0.003240 0.000000 1.757320 
# 
# From -- ./inp_files/131064.got.cif
#   From: 2010.06.25/outbox.cif.g09.slc.cpg/sg12_66_cif.got.tgz:131064.got - 2010.06.28 00:19:55.
