data_PCOD8114148
_publ_section_title
;
Structure prediction by ZEFSAII (Michael W. Deem and Ramdas Pophale) SiO2 
 PCOD8114148
Probable space group: C 2/M
;
_chemical_formula_sum "Si O2"
_cell_formula_units_Z 48
_cell_length_a 18.332567
_cell_length_b 8.927880
_cell_length_c 20.483465
_cell_angle_alpha 90.000000
_cell_angle_beta 48.743969
_cell_angle_gamma 90.000000
_cell_volume 2520.346611
_symmetry_space_group_name_H-M "C 2/M"
_symmetry_group_IT_number 12
_symmetry_cell_setting 'monoclinic'
loop_
_space_group_symop_operation_xyz
x,y,z
-x,y,-z
-x,-y,-z
x,-y,z
1/2+x,1/2+y,z
1/2-x,1/2+y,-z
1/2-x,1/2-y,-z
1/2+x,1/2-y,z
loop_
_atom_site_type_symbol
_atom_site_label
_atom_site_fract_x
_atom_site_fract_y
_atom_site_fract_z
Si Si1 0.895958 0.834796 0.925141
Si Si2 0.027748 0.825111 0.735449
Si Si3 0.245792 0.176000 0.572588
Si Si4 0.375787 0.177363 0.733716
Si Si5 0.390171 0.326762 0.586724
Si Si6 0.265437 0.834409 0.089842
O O1 0.807669 0.842525 0.926954
O O2 0.989196 0.773040 0.829768
O O3 0.917866 0.000000 0.940174
O O4 0.868142 0.730297 0.002838
O O5 0.141259 0.793044 0.666118
O O6 0.973481 0.736344 0.710221
O O7 0.002623 0.000000 0.739692
O O8 0.250000 0.250000 0.500000
O O9 0.325486 0.255531 0.568881
O O10 0.267496 0.000000 0.554281
O O11 0.370720 0.237635 0.663948
O O12 0.278477 0.229647 0.828087
O O13 0.378471 0.000000 0.731294
O O14 0.500000 0.307737 0.500000
O O15 0.362737 0.500000 0.612856
O O16 0.284221 0.000000 0.107387
#
# Coordination Sequence:
#
# PCOD8114148 Si02
#       6
#     8   8   8   8   8   8
#     4   8  14  26  45  71 103 139 178 217 259 310
#     4   9  19  35  54  78 111 146 178 219 270 319
#     4  11  23  39  59  83 110 141 178 219 267 321
#     4  11  21  33  54  82 110 142 182 224 265 315
#     4  11  24  41  59  79 107 142 178 220 271 321
#     4   9  16  27  45  72 107 142 176 218 266 312
#
# _framework density 19.045000000000002
#
# number of rings (size 3 to 8) (size 9 to 14) (size 15 to 20)
#    0.000    2.167    0.000    5.000    0.000   10.667 
#    0.000    0.000    0.000    1.000    0.000    7.000 
#    0.000    0.000    0.000    0.000    0.000    0.000 
#
# Total GULP energy -297580.589589 kJ/mol
# GULP energy per Si atom -12399.191233 kJ/mol
# Density = 1.900165 g / cm^3
# Si number density = 19.045000 Si / 1000 Ang^3
#
#
#
# Elastic Constant Matrix: (Units=GPa)
#
#
# Indices 1 2 3 4 5 6 
#
# 1 80.8150 57.9818 47.1476 0.0000 0.6200 0.0000
# 2 57.9818 139.8131 66.4744 -0.0001 0.8924 0.0002
# 3 47.1476 66.4744 118.9699 0.0000 -6.8061 -0.0001
# 4 0.0000 -0.0001 0.0000 37.2209 0.0000 2.8484
# 5 0.6200 0.8924 -6.8061 0.0000 23.9565 -0.0001
# 6 0.0000 0.0002 -0.0001 2.8484 -0.0001 68.5396
#
#
#
# Elastic Compliance Matrix: (Units=1/GPa)
#
#
# Indices 1 2 3 4 5 6 
#
# 1 0.019146 -0.005830 -0.004418 0.000000 -0.001533 0.000000
# 2 -0.005830 0.011604 -0.004259 0.000000 -0.001491 0.000000
# 3 -0.004418 -0.004259 0.012759 0.000000 0.003898 0.000000
# 4 0.000000 0.000000 0.000000 0.026952 0.000000 -0.001120
# 5 -0.001533 -0.001491 0.003898 0.000000 0.042945 0.000000
# 6 0.000000 0.000000 0.000000 -0.001120 0.000000 0.014637
#
#
# Mechanical properties :
#
#
# Convention : Reuss Voigt Hill
#
# Bulk Modulus (GPa) = 68.98396 75.86730 72.42563
# Shear Modulus (GPa) = 30.88553 37.14300 34.01427
#
# Velocity S-wave (km/s) = 4.03142 4.42098 4.23069
# Velocity P-wave (km/s) = 7.61380 8.12296 7.87250
#
# Compressibility (1/GPa) = 0.01449612
#
# Stress axis : x y z
#
# Youngs Moduli (GPa) = 52.23134 86.17351 78.37612
#
# Poissons Ratio (x) = 0.50236 0.34625
# Poissons Ratio (y) = 0.30449 0.33381
# Poissons Ratio (z) = 0.23075 0.36702
#
# Static dielectric constant tensor:
#      x y z
#    x 3.063940 0.000000 -0.134360 
#    y 0.000000 3.690160 0.000000 
#    z -0.134360 0.000000 3.919110 
# 
# 
# High freq. dielectric constant tensor:
#      x y z
#    x 1.696050 0.000000 -0.002190 
#    y 0.000000 1.750600 0.000000 
#    z -0.002190 0.000000 1.762600 
# 
# From -- ./inp_files/313602.got.cif
#   From: 2010.06.25/outbox.cif.g09.slc.cpg/sg12_157_cif.got.tgz:313602.got - 2010.06.28 00:19:55.
