data_PCOD8114929
_publ_section_title
;
Structure prediction by ZEFSAII (Michael W. Deem and Ramdas Pophale) SiO2 
 PCOD8114929
Probable space group: C 2/M
;
_chemical_formula_sum "Si O2"
_cell_formula_units_Z 56
_cell_length_a 28.894042
_cell_length_b 16.899396
_cell_length_c 9.569500
_cell_angle_alpha 90.000000
_cell_angle_beta 144.280593
_cell_angle_gamma 90.000000
_cell_volume 2728.003377
_symmetry_space_group_name_H-M "C 2/M"
_symmetry_group_IT_number 12
_symmetry_cell_setting 'monoclinic'
loop_
_space_group_symop_operation_xyz
x,y,z
-x,y,-z
-x,-y,-z
x,-y,z
1/2+x,1/2+y,z
1/2-x,1/2+y,-z
1/2-x,1/2-y,-z
1/2+x,1/2-y,z
loop_
_atom_site_type_symbol
_atom_site_label
_atom_site_fract_x
_atom_site_fract_y
_atom_site_fract_z
Si Si1 0.006113 0.335340 0.356045
Si Si2 0.146302 0.593347 0.531532
Si Si3 0.077277 0.909292 0.099077
Si Si4 0.620230 0.910308 0.152670
Si Si5 0.768377 0.822056 0.443704
Si Si6 0.773356 0.218723 0.906518
Si Si7 0.551660 0.667649 0.745784
O O1 0.005087 0.240472 0.347817
O O2 0.000000 0.366919 0.500000
O O3 0.087727 0.371146 0.501992
O O4 0.933704 0.358790 0.079603
O O5 0.160590 0.500000 0.588901
O O6 0.107847 0.610419 0.285557
O O7 0.229899 0.637487 0.755264
O O8 0.142283 0.850408 0.319718
O O9 0.104431 0.000000 0.180441
O O10 0.064056 0.891769 0.903537
O O11 0.000000 0.892156 0.000000
O O12 0.711706 0.895700 0.339227
O O13 0.597140 0.000000 0.066914
O O14 0.750000 0.750000 0.500000
O O15 0.754810 0.792550 0.254699
O O16 0.750000 0.250000 0.000000
O O17 0.866486 0.202277 0.116157
O O18 0.500000 0.622243 0.500000
#
# Coordination Sequence:
#
# PCOD8114929 Si02
#       7
#     8   8   8   8   8   8   8
#     4  11  23  41  62  99 134 171 217 263 329 395
#     4  11  25  42  65  96 132 172 215 272 332 392
#     4  11  26  45  68 101 136 175 227 281 333 391
#     4  11  22  39  64  93 128 171 218 266 327 394
#     4  12  22  44  69  96 124 172 222 276 333 382
#     4  12  25  44  67 101 132 170 226 271 330 401
#     4  11  24  43  70  97 131 181 221 274 330 393
#
# _framework density 20.527833999999999
#
# number of rings (size 3 to 8) (size 9 to 14) (size 15 to 20)
#    0.000    0.714    4.286    3.000    4.000    4.286 
#    0.000    0.714    0.000    0.000    0.000    0.000 
#    0.000    0.000    0.000    0.000    0.000    0.000 
#
# Total GULP energy -347253.310081 kJ/mol
# GULP energy per Si atom -12401.903931 kJ/mol
# Density = 2.048111 g / cm^3
# Si number density = 20.527834 Si / 1000 Ang^3
#
#
#
# Elastic Constant Matrix: (Units=GPa)
#
#
# Indices 1 2 3 4 5 6 
#
# 1 115.1685 36.6200 36.1372 0.0000 -8.7530 0.0000
# 2 36.6200 65.6068 23.7867 0.0000 6.2656 0.0000
# 3 36.1372 23.7867 107.5534 0.0000 -0.0808 0.0000
# 4 0.0000 0.0000 0.0000 29.8435 0.0000 2.6136
# 5 -8.7530 6.2656 -0.0808 0.0000 36.9052 0.0000
# 6 0.0000 0.0000 0.0000 2.6136 0.0000 29.1940
#
#
#
# Elastic Compliance Matrix: (Units=1/GPa)
#
#
# Indices 1 2 3 4 5 6 
#
# 1 0.011673 -0.005930 -0.002608 0.000000 0.003770 0.000000
# 2 -0.005930 0.019883 -0.002408 0.000000 -0.004787 0.000000
# 3 -0.002608 -0.002408 0.010706 0.000000 -0.000186 0.000000
# 4 0.000000 0.000000 0.000000 0.033773 0.000000 -0.003024
# 5 0.003770 -0.004787 -0.000186 0.000000 0.028803 0.000000
# 6 0.000000 0.000000 0.000000 -0.003024 0.000000 0.034524
#
#
# Mechanical properties :
#
#
# Convention : Reuss Voigt Hill
#
# Bulk Modulus (GPa) = 49.09252 53.49073 51.29163
# Shear Modulus (GPa) = 29.75384 31.97420 30.86402
#
# Velocity S-wave (km/s) = 3.81128 3.95093 3.88173
# Velocity P-wave (km/s) = 6.58292 6.85035 6.71797
#
# Compressibility (1/GPa) = 0.02036970
#
# Stress axis : x y z
#
# Youngs Moduli (GPa) = 85.66520 50.29458 93.40202
#
# Poissons Ratio (x) = 0.29826 0.24357
# Poissons Ratio (y) = 0.50802 0.22495
# Poissons Ratio (z) = 0.22340 0.12113
#
# Static dielectric constant tensor:
#      x y z
#    x 3.915440 0.000000 -0.014520 
#    y 0.000000 3.875420 0.000000 
#    z -0.014520 0.000000 3.948160 
# 
# 
# High freq. dielectric constant tensor:
#      x y z
#    x 1.812680 0.000000 -0.003190 
#    y 0.000000 1.797510 0.000000 
#    z -0.003190 0.000000 1.818690 
# 
# From -- ./inp_files/106050.got.cif
#   From: 2010.06.25/outbox.cif.g09.slc.cpg/sg12_54_cif.got.tgz:106050.got - 2010.06.28 00:19:55.
