data_PCOD8114607
_publ_section_title
;
Structure prediction by ZEFSAII (Michael W. Deem and Ramdas Pophale) SiO2 
 PCOD8114607
Probable space group: C 2/M
;
_chemical_formula_sum "Si O2"
_cell_formula_units_Z 56
_cell_length_a 22.576090
_cell_length_b 9.139431
_cell_length_c 16.349909
_cell_angle_alpha 90.000000
_cell_angle_beta 98.412765
_cell_angle_gamma 90.000000
_cell_volume 3337.219637
_symmetry_space_group_name_H-M "C 2/M"
_symmetry_group_IT_number 12
_symmetry_cell_setting 'monoclinic'
loop_
_space_group_symop_operation_xyz
x,y,z
-x,y,-z
-x,-y,-z
x,-y,z
1/2+x,1/2+y,z
1/2-x,1/2+y,-z
1/2-x,1/2-y,-z
1/2+x,1/2-y,z
loop_
_atom_site_type_symbol
_atom_site_label
_atom_site_fract_x
_atom_site_fract_y
_atom_site_fract_z
Si Si1 0.456409 0.671828 0.878292
Si Si2 0.259618 0.168505 0.246337
Si Si3 0.299008 0.335041 0.404085
Si Si4 0.705127 0.827192 0.929380
Si Si5 0.586206 0.672818 0.955461
Si Si6 0.336147 0.165154 0.560664
Si Si7 0.372443 0.670892 0.720660
O O1 0.446679 0.500000 0.878455
O O2 0.526743 0.709055 0.890735
O O3 0.424076 0.734456 0.790929
O O4 0.424710 0.730186 0.954365
O O5 0.301644 0.261447 0.315462
O O6 0.274055 0.213608 0.157204
O O7 0.190164 0.202693 0.247443
O O8 0.274150 0.000000 0.266735
O O9 0.322916 0.500000 0.401868
O O10 0.341899 0.248296 0.475354
O O11 0.231807 0.330645 0.423356
O O12 0.638821 0.765972 0.927010
O O13 0.706397 0.000000 0.945188
O O14 0.750000 0.750000 0.000000
O O15 0.601187 0.500000 0.956118
O O16 0.377675 0.244253 0.636088
O O17 0.358869 0.000000 0.553575
O O18 0.380544 0.500000 0.703377
#
# Coordination Sequence:
#
# PCOD8114607 Si02
#       7
#     8   8   8   8   8   8   8
#     4   8  15  29  50  70  90 120 155 190 229 274
#     4   9  18  30  44  63  90 122 152 184 224 268
#     4   9  16  26  41  61  86 117 151 183 217 264
#     4  11  22  34  48  68  94 124 156 190 229 271
#     4   9  17  32  51  69  90 120 157 192 229 272
#     4   9  16  25  38  60  90 119 145 179 224 268
#     4   9  15  26  44  65  88 117 153 187 220 264
#
# _framework density 16.780435000000001
#
# number of rings (size 3 to 8) (size 9 to 14) (size 15 to 20)
#    0.000    2.857    0.000    3.000    0.000    6.857 
#    0.000    5.714    0.000    0.000    0.000    1.000 
#    0.000    8.000    0.000    0.000    0.000    0.000 
#
# Total GULP energy -347142.543675 kJ/mol
# GULP energy per Si atom -12397.947988 kJ/mol
# Density = 1.674224 g / cm^3
# Si number density = 16.780435 Si / 1000 Ang^3
#
#
#
# Elastic Constant Matrix: (Units=GPa)
#
#
# Indices 1 2 3 4 5 6 
#
# 1 58.7331 36.0569 51.4432 0.0000 9.2016 0.0000
# 2 36.0569 93.0173 77.6200 0.0000 6.5392 0.0000
# 3 51.4432 77.6200 165.7177 0.0000 23.3567 0.0000
# 4 0.0000 0.0000 0.0000 30.1211 0.0000 -0.3453
# 5 9.2016 6.5392 23.3567 0.0000 23.8541 0.0000
# 6 0.0000 0.0000 0.0000 -0.3453 0.0000 19.6634
#
#
#
# Elastic Compliance Matrix: (Units=1/GPa)
#
#
# Indices 1 2 3 4 5 6 
#
# 1 0.025108 -0.005578 -0.004677 0.000000 -0.003576 0.000000
# 2 -0.005578 0.019186 -0.007908 0.000000 0.004636 0.000000
# 3 -0.004677 -0.007908 0.012333 0.000000 -0.008103 0.000000
# 4 0.000000 0.000000 0.000000 0.033206 0.000000 0.000583
# 5 -0.003576 0.004636 -0.008103 0.000000 0.049965 0.000000
# 6 0.000000 0.000000 0.000000 0.000583 0.000000 0.050866
#
#
# Mechanical properties :
#
#
# Convention : Reuss Voigt Hill
#
# Bulk Modulus (GPa) = 49.26369 71.96762 60.61565
# Shear Modulus (GPa) = 21.38967 24.88425 23.13696
#
# Velocity S-wave (km/s) = 3.57414 3.85506 3.71726
# Velocity P-wave (km/s) = 6.81573 7.92441 7.39089
#
# Compressibility (1/GPa) = 0.02029893
#
# Stress axis : x y z
#
# Youngs Moduli (GPa) = 39.82836 52.12007 81.08571
#
# Poissons Ratio (x) = 0.29074 0.37926
# Poissons Ratio (y) = 0.22217 0.64126
# Poissons Ratio (z) = 0.18629 0.41219
#
# Static dielectric constant tensor:
#      x y z
#    x 2.863100 0.000000 0.225020 
#    y 0.000000 3.098340 0.000000 
#    z 0.225020 0.000000 3.447320 
# 
# 
# High freq. dielectric constant tensor:
#      x y z
#    x 1.600630 0.000000 0.014900 
#    y 0.000000 1.639180 0.000000 
#    z 0.014900 0.000000 1.658550 
# 
# From -- ./inp_files/280362.got.cif
#   From: 2010.06.25/outbox.cif.g09.slc.cpg/sg12_141_cif.got.tgz:280362.got - 2010.06.28 00:19:55.
