data_PCOD8114464
_publ_section_title
;
Structure prediction by ZEFSAII (Michael W. Deem and Ramdas Pophale) SiO2 
 PCOD8114464
Probable space group: C 2/M
;
_chemical_formula_sum "Si O2"
_cell_formula_units_Z 48
_cell_length_a 12.968137
_cell_length_b 21.438763
_cell_length_c 8.867437
_cell_angle_alpha 90.000000
_cell_angle_beta 112.151065
_cell_angle_gamma 90.000000
_cell_volume 2283.373186
_symmetry_space_group_name_H-M "C 2/M"
_symmetry_group_IT_number 12
_symmetry_cell_setting 'monoclinic'
loop_
_space_group_symop_operation_xyz
x,y,z
-x,y,-z
-x,-y,-z
x,-y,z
1/2+x,1/2+y,z
1/2-x,1/2+y,-z
1/2-x,1/2-y,-z
1/2+x,1/2-y,z
loop_
_atom_site_type_symbol
_atom_site_label
_atom_site_fract_x
_atom_site_fract_y
_atom_site_fract_z
Si Si1 0.893235 0.802238 0.028712
Si Si2 0.165304 0.000000 0.167116
Si Si3 0.474090 0.831017 0.141410
Si Si4 0.442551 0.500000 0.219036
Si Si5 0.700799 0.816559 0.430554
Si Si6 0.104952 0.129627 0.656443
Si Si7 0.707381 0.872364 0.752252
O O1 0.898929 0.727914 0.047729
O O2 0.887670 0.829389 0.191450
O O3 0.787141 0.820753 0.871020
O O4 0.000000 0.830401 0.000000
O O5 0.239354 0.060366 0.228028
O O6 0.072992 0.000000 0.248515
O O7 0.120511 0.000000 0.973444
O O8 0.585948 0.805773 0.280015
O O9 0.405442 0.876373 0.212205
O O10 0.500000 0.868276 0.000000
O O11 0.408262 0.558025 0.303178
O O12 0.750000 0.750000 0.500000
O O13 0.783886 0.859118 0.378298
O O14 0.672925 0.852806 0.567100
O O15 0.000000 0.151848 0.500000
#
# Coordination Sequence:
#
# PCOD8114464 Si02
#       7
#     8   4   8   4   8   8   8
#     4  11  21  39  65  96 130 175 220 276 339 402
#     4  11  24  44  71  99 132 179 227 281 337 401
#     4  11  24  42  65  96 132 175 223 277 335 404
#     4  11  23  42  65  98 135 171 231 282 335 393
#     4  12  25  43  66 101 138 176 222 280 338 409
#     4  12  23  38  65  99 135 174 222 277 339 397
#     4  12  24  44  68  94 135 180 223 275 339 403
#
# _framework density 21.021529999999998
#
# number of rings (size 3 to 8) (size 9 to 14) (size 15 to 20)
#    0.000    0.500    1.667    9.250    0.000    0.667 
#    0.000    2.917    0.000    0.000    0.000    0.000 
#    0.000    0.000    0.000    0.000    0.000    0.000 
#
# Total GULP energy -297688.817413 kJ/mol
# GULP energy per Si atom -12403.700726 kJ/mol
# Density = 2.097368 g / cm^3
# Si number density = 21.021530 Si / 1000 Ang^3
#
#
#
# Elastic Constant Matrix: (Units=GPa)
#
#
# Indices 1 2 3 4 5 6 
#
# 1 138.2326 54.4066 44.3155 0.0000 -27.9651 0.0000
# 2 54.4066 101.8665 25.0554 0.0000 -10.2175 0.0000
# 3 44.3155 25.0554 115.8260 0.0000 -19.3823 0.0000
# 4 0.0000 0.0000 0.0000 17.1533 0.0000 7.4540
# 5 -27.9651 -10.2175 -19.3823 0.0000 50.9244 0.0000
# 6 0.0000 0.0000 0.0000 7.4540 0.0000 32.4258
#
#
#
# Elastic Compliance Matrix: (Units=1/GPa)
#
#
# Indices 1 2 3 4 5 6 
#
# 1 0.010662 -0.004705 -0.002392 0.000000 0.004001 0.000000
# 2 -0.004705 0.012527 -0.000984 0.000000 -0.000445 0.000000
# 3 -0.002392 -0.000984 0.010156 0.000000 0.002354 0.000000
# 4 0.000000 0.000000 0.000000 0.064767 0.000000 -0.014889
# 5 0.004001 -0.000445 0.002354 0.000000 0.022641 0.000000
# 6 0.000000 0.000000 0.000000 -0.014889 0.000000 0.034262
#
#
# Mechanical properties :
#
#
# Convention : Reuss Voigt Hill
#
# Bulk Modulus (GPa) = 58.19880 67.05334 62.62607
# Shear Modulus (GPa) = 28.26363 35.57720 31.92042
#
# Velocity S-wave (km/s) = 3.67073 4.11836 3.90097
# Velocity P-wave (km/s) = 6.76100 7.38791 7.08140
#
# Compressibility (1/GPa) = 0.01718249
#
# Stress axis : x y z
#
# Youngs Moduli (GPa) = 93.78860 79.82658 98.46647
#
# Poissons Ratio (x) = 0.37559 0.23555
# Poissons Ratio (y) = 0.44128 0.09690
# Poissons Ratio (z) = 0.22436 0.07856
#
# Static dielectric constant tensor:
#      x y z
#    x 4.143140 0.000000 -0.258470 
#    y 0.000000 3.667330 0.000000 
#    z -0.258470 0.000000 4.273280 
# 
# 
# High freq. dielectric constant tensor:
#      x y z
#    x 1.836140 0.000000 -0.013250 
#    y 0.000000 1.803700 0.000000 
#    z -0.013250 0.000000 1.848760 
# 
# From -- ./inp_files/51505.got.cif
#   From: 2010.06.25/outbox.cif.g09.slc.cpg/sg12_26_cif.got.tgz:51505.got - 2010.06.28 00:19:55.
