data_PCOD8114526
_publ_section_title
;
Structure prediction by ZEFSAII (Michael W. Deem and Ramdas Pophale) SiO2 
 PCOD8114526
Probable space group: C 2/M
;
_chemical_formula_sum "Si O2"
_cell_formula_units_Z 48
_cell_length_a 17.282288
_cell_length_b 29.564492
_cell_length_c 9.025554
_cell_angle_alpha 90.000000
_cell_angle_beta 149.573041
_cell_angle_gamma 90.000000
_cell_volume 2335.463770
_symmetry_space_group_name_H-M "C 2/M"
_symmetry_group_IT_number 12
_symmetry_cell_setting 'monoclinic'
loop_
_space_group_symop_operation_xyz
x,y,z
-x,y,-z
-x,-y,-z
x,-y,z
1/2+x,1/2+y,z
1/2-x,1/2+y,-z
1/2-x,1/2-y,-z
1/2+x,1/2-y,z
loop_
_atom_site_type_symbol
_atom_site_label
_atom_site_fract_x
_atom_site_fract_y
_atom_site_fract_z
Si Si1 0.000000 0.077981 0.000000
Si Si2 0.831026 0.432504 0.261909
Si Si3 0.093291 0.772736 0.795967
Si Si4 0.736945 0.000000 0.080431
Si Si5 0.216108 0.149769 0.203302
Si Si6 0.611921 0.000000 0.408742
Si Si7 0.848715 0.000000 0.573813
Si Si8 0.111061 0.282095 0.320793
O O1 0.888212 0.111756 0.899140
O O2 0.928774 0.046140 0.757018
O O3 0.815247 0.378142 0.246034
O O4 0.804812 0.456460 0.377541
O O5 0.000000 0.446879 0.500000
O O6 0.730576 0.455272 0.965632
O O7 0.000000 0.791153 0.500000
O O8 0.985900 0.737254 0.702842
O O9 0.250000 0.750000 0.000000
O O10 0.121699 0.812484 0.959682
O O11 0.857998 0.000000 0.412057
O O12 0.569692 0.000000 0.880812
O O13 0.318297 0.171260 0.502373
O O14 0.672255 0.000000 0.339827
O O15 0.250000 0.250000 0.500000
O O16 0.000000 0.292387 0.000000
#
# Coordination Sequence:
#
# PCOD8114526 Si02
#       8
#     4   8   8   4   8   4   4   8
#     4  11  26  42  62  98 130 186 212 282 330 393
#     4   9  20  38  62  95 128 169 205 268 333 382
#     4  12  25  44  70  99 130 177 227 282 347 405
#     4   9  20  37  67  94 133 167 220 264 334 402
#     4  12  24  42  70  92 141 166 236 274 335 402
#     4   9  16  40  64  88 128 172 207 264 332 397
#     4  11  21  41  65  91 139 173 222 259 337 400
#     4  12  24  47  71  95 132 184 225 279 351 412
#
# _framework density 20.552664
#
# number of rings (size 3 to 8) (size 9 to 14) (size 15 to 20)
#    0.000    1.167    5.000    2.250    2.333    1.333 
#    6.000    0.833    0.000    0.000    0.000    0.000 
#    0.000    0.000    0.000    0.000    0.000    0.000 
#
# Total GULP energy -297458.413570 kJ/mol
# GULP energy per Si atom -12394.100565 kJ/mol
# Density = 2.050589 g / cm^3
# Si number density = 20.552664 Si / 1000 Ang^3
#
#
#
# Elastic Constant Matrix: (Units=GPa)
#
#
# Indices 1 2 3 4 5 6 
#
# 1 92.5441 46.0830 41.0799 0.0000 -8.3931 0.0000
# 2 46.0830 138.9452 55.3285 0.0000 -5.1712 0.0000
# 3 41.0799 55.3285 127.1707 0.0000 -28.7740 0.0000
# 4 0.0000 0.0000 0.0000 23.6228 0.0000 12.0854
# 5 -8.3931 -5.1712 -28.7740 0.0000 43.1102 0.0000
# 6 0.0000 0.0000 0.0000 12.0854 0.0000 97.1552
#
#
#
# Elastic Compliance Matrix: (Units=1/GPa)
#
#
# Indices 1 2 3 4 5 6 
#
# 1 0.013827 -0.003418 -0.002901 0.000000 0.000345 0.000000
# 2 -0.003418 0.009663 -0.003520 0.000000 -0.001856 0.000000
# 3 -0.002901 -0.003520 0.011907 0.000000 0.006960 0.000000
# 4 0.000000 0.000000 0.000000 0.045209 0.000000 -0.005624
# 5 0.000345 -0.001856 0.006960 0.000000 0.027687 0.000000
# 6 0.000000 0.000000 0.000000 -0.005624 0.000000 0.010992
#
#
# Mechanical properties :
#
#
# Convention : Reuss Voigt Hill
#
# Bulk Modulus (GPa) = 63.61806 71.51585 67.56696
# Shear Modulus (GPa) = 34.67337 47.18887 40.93112
#
# Velocity S-wave (km/s) = 4.11183 4.79686 4.46749
# Velocity P-wave (km/s) = 7.31872 8.09640 7.71736
#
# Compressibility (1/GPa) = 0.01571881
#
# Stress axis : x y z
#
# Youngs Moduli (GPa) = 72.32370 103.48510 83.98405
#
# Poissons Ratio (x) = 0.35367 0.24367
# Poissons Ratio (y) = 0.24718 0.29563
# Poissons Ratio (z) = 0.20984 0.36428
#
# Static dielectric constant tensor:
#      x y z
#    x 4.403950 0.000000 0.195840 
#    y 0.000000 3.723330 0.000000 
#    z 0.195840 0.000000 3.849370 
# 
# 
# High freq. dielectric constant tensor:
#      x y z
#    x 1.823110 0.000000 0.003570 
#    y 0.000000 1.800700 0.000000 
#    z 0.003570 0.000000 1.801110 
# 
# From -- ./inp_files/80904.got.cif
#   From: 2010.06.25/outbox.cif.g09.slc.cpg/sg12_41_cif.got.tgz:80904.got - 2010.06.28 00:19:55.
