data_PCOD8114583
_publ_section_title
;
Structure prediction by ZEFSAII (Michael W. Deem and Ramdas Pophale) SiO2 
 PCOD8114583
Probable space group: C 2/M
;
_chemical_formula_sum "Si O2"
_cell_formula_units_Z 64
_cell_length_a 24.616959
_cell_length_b 9.095843
_cell_length_c 20.438999
_cell_angle_alpha 90.000000
_cell_angle_beta 125.611156
_cell_angle_gamma 90.000000
_cell_volume 3720.666942
_symmetry_space_group_name_H-M "C 2/M"
_symmetry_group_IT_number 12
_symmetry_cell_setting 'monoclinic'
loop_
_space_group_symop_operation_xyz
x,y,z
-x,y,-z
-x,-y,-z
x,-y,z
1/2+x,1/2+y,z
1/2-x,1/2+y,-z
1/2-x,1/2-y,-z
1/2+x,1/2-y,z
loop_
_atom_site_type_symbol
_atom_site_label
_atom_site_fract_x
_atom_site_fract_y
_atom_site_fract_z
Si Si1 0.650238 0.174116 0.623984
Si Si2 0.461017 0.325088 0.203755
Si Si3 0.606596 0.325697 0.336357
Si Si4 0.700205 0.324721 0.288975
Si Si5 0.923433 0.830484 0.316304
Si Si6 0.422589 0.668937 0.541809
Si Si7 0.404254 0.674804 0.888059
Si Si8 0.548371 0.674641 0.944237
O O1 0.724628 0.235466 0.662402
O O2 0.627189 0.231893 0.678174
O O3 0.600777 0.229778 0.533469
O O4 0.648612 0.000000 0.623845
O O5 0.465545 0.500000 0.209546
O O6 0.536317 0.261360 0.260916
O O7 0.418266 0.274836 0.237034
O O8 0.428577 0.270300 0.112037
O O9 0.603313 0.500000 0.329209
O O10 0.666706 0.265632 0.332995
O O11 0.616249 0.281111 0.419212
O O12 0.699930 0.500000 0.288059
O O13 0.658214 0.263021 0.197218
O O14 0.998645 0.808928 0.394246
O O15 0.902057 0.000000 0.308200
O O16 0.406522 0.500000 0.513316
O O17 0.402659 0.500000 0.884338
O O18 0.473247 0.731897 0.904709
O O19 0.402059 0.729420 0.962806
O O20 0.547028 0.500000 0.944207
#
# Coordination Sequence:
#
# PCOD8114583 Si02
#       8
#     8   8   8   8   8   8   8   8
#     4  11  22  31  42  62  87 119 150 174 209 257
#     4   8  12  21  40  64  85 105 137 180 219 252
#     4   8  13  24  42  61  82 109 138 172 216 260
#     4   9  16  26  38  56  89 123 143 163 205 266
#     4   9  18  32  49  65  82 109 146 186 221 250
#     4   9  18  32  50  67  81 104 143 188 226 255
#     4   8  12  18  32  57  90 118 134 162 210 259
#     4   8  11  16  33  62  88 109 136 170 212 253
#
# _framework density 17.201217
#
# number of rings (size 3 to 8) (size 9 to 14) (size 15 to 20)
#    0.000    3.250    1.250    3.000    0.000    2.500 
#    0.000    0.000    0.000    1.500    0.000    0.000 
#    0.000    1.000    0.000    6.875    0.000    6.375 
#
# Total GULP energy -396438.656901 kJ/mol
# GULP energy per Si atom -12388.708028 kJ/mol
# Density = 1.716207 g / cm^3
# Si number density = 17.201217 Si / 1000 Ang^3
#
#
#
# Elastic Constant Matrix: (Units=GPa)
#
#
# Indices 1 2 3 4 5 6 
#
# 1 106.9478 21.2144 37.4558 0.0000 -27.8249 0.0000
# 2 21.2144 22.1557 12.8830 0.0000 -4.7547 0.0000
# 3 37.4558 12.8830 67.6836 0.0000 -30.6960 0.0000
# 4 0.0000 0.0000 0.0000 5.7346 0.0000 0.3539
# 5 -27.8249 -4.7547 -30.6960 0.0000 30.1586 0.0000
# 6 0.0000 0.0000 0.0000 0.3539 0.0000 14.6399
#
#
#
# Elastic Compliance Matrix: (Units=1/GPa)
#
#
# Indices 1 2 3 4 5 6 
#
# 1 0.014747 -0.011126 -0.001241 0.000000 0.010589 0.000000
# 2 -0.011126 0.059336 -0.010308 0.000000 -0.011402 0.000000
# 3 -0.001241 -0.010308 0.030028 0.000000 0.027793 0.000000
# 4 0.000000 0.000000 0.000000 0.174639 0.000000 -0.004222
# 5 0.010589 -0.011402 0.027793 0.000000 0.069418 0.000000
# 6 0.000000 0.000000 0.000000 -0.004222 0.000000 0.068408
#
#
# Mechanical properties :
#
#
# Convention : Reuss Voigt Hill
#
# Bulk Modulus (GPa) = 17.01829 37.76594 27.39212
# Shear Modulus (GPa) = 10.38391 18.45556 14.41973
#
# Velocity S-wave (km/s) = 2.45964 3.27910 2.89848
# Velocity P-wave (km/s) = 4.24047 6.02824 5.21159
#
# Compressibility (1/GPa) = 0.05876030
#
# Stress axis : x y z
#
# Youngs Moduli (GPa) = 67.81102 16.85323 33.30194
#
# Poissons Ratio (x) = 0.18752 0.04132
# Poissons Ratio (y) = 0.75450 0.34328
# Poissons Ratio (z) = 0.08415 0.17372
#
# Static dielectric constant tensor:
#      x y z
#    x 3.388430 0.000000 -0.316800 
#    y 0.000000 2.574670 0.000000 
#    z -0.316800 0.000000 3.551120 
# 
# 
# High freq. dielectric constant tensor:
#      x y z
#    x 1.651640 0.000000 -0.026820 
#    y 0.000000 1.595850 0.000000 
#    z -0.026820 0.000000 1.668960 
# 
# From -- ./inp_files/323746.got.cif
#   From: 2010.06.25/outbox.cif.g09.slc.cpg/sg12_162_cif.got.tgz:323746.got - 2010.06.28 00:19:55.
