data_PCOD8114455
_publ_section_title
;
Structure prediction by ZEFSAII (Michael W. Deem and Ramdas Pophale) SiO2 
 PCOD8114455
Probable space group: C 2/M
;
_chemical_formula_sum "Si O2"
_cell_formula_units_Z 44
_cell_length_a 18.199414
_cell_length_b 16.881984
_cell_length_c 9.076640
_cell_angle_alpha 90.000000
_cell_angle_beta 128.570036
_cell_angle_gamma 90.000000
_cell_volume 2180.356814
_symmetry_space_group_name_H-M "C 2/M"
_symmetry_group_IT_number 12
_symmetry_cell_setting 'monoclinic'
loop_
_space_group_symop_operation_xyz
x,y,z
-x,y,-z
-x,-y,-z
x,-y,z
1/2+x,1/2+y,z
1/2-x,1/2+y,-z
1/2-x,1/2-y,-z
1/2+x,1/2-y,z
loop_
_atom_site_type_symbol
_atom_site_label
_atom_site_fract_x
_atom_site_fract_y
_atom_site_fract_z
Si Si1 0.819871 0.908492 0.669055
Si Si2 0.225901 0.666003 0.285339
Si Si3 0.500000 0.322986 0.000000
Si Si4 0.823609 0.676836 0.326319
Si Si5 0.956421 0.690173 0.743550
Si Si6 0.128388 0.409235 0.909256
O O1 0.807905 0.862753 0.498236
O O2 0.727949 0.895330 0.654325
O O3 0.831325 0.000000 0.647232
O O4 0.909807 0.878506 0.870754
O O5 0.256051 0.746982 0.243733
O O6 0.131437 0.681124 0.257793
O O7 0.205851 0.600864 0.134633
O O8 0.487858 0.268508 0.131709
O O9 0.920741 0.697993 0.531340
O O10 0.846502 0.650174 0.190964
O O11 0.025765 0.614938 0.842084
O O12 0.126898 0.500000 0.854580
#
# Coordination Sequence:
#
# PCOD8114455 Si02
#       6
#     8   8   4   8   8   8
#     4  11  22  37  63  91 119 155 202 260 301 346
#     4  11  21  41  64  86 122 166 211 242 293 372
#     4  12  19  40  61  88 116 152 214 246 293 354
#     4  11  22  41  62  87 125 165 205 243 303 372
#     4  11  21  39  64  88 119 164 208 245 292 369
#     4  12  25  38  60  96 131 159 195 255 319 361
#
# _framework density 20.180183
#
# number of rings (size 3 to 8) (size 9 to 14) (size 15 to 20)
#    0.000    0.727    5.455    3.545    0.000    5.818 
#    0.000    0.000    0.000    0.000    0.000    5.091 
#    0.000    0.000    0.000    0.000    0.000    0.000 
#
# Total GULP energy -272825.257324 kJ/mol
# GULP energy per Si atom -12401.148060 kJ/mol
# Density = 2.013425 g / cm^3
# Si number density = 20.180183 Si / 1000 Ang^3
#
#
#
# Elastic Constant Matrix: (Units=GPa)
#
#
# Indices 1 2 3 4 5 6 
#
# 1 50.0285 47.5072 37.1994 0.0000 11.6218 0.0000
# 2 47.5072 129.5024 37.6636 0.0000 3.0274 0.0000
# 3 37.1994 37.6636 137.6468 0.0000 9.5547 0.0000
# 4 0.0000 0.0000 0.0000 28.0473 0.0000 -2.1260
# 5 11.6218 3.0274 9.5547 0.0000 16.7993 0.0000
# 6 0.0000 0.0000 0.0000 -2.1260 0.0000 29.9011
#
#
#
# Elastic Compliance Matrix: (Units=1/GPa)
#
#
# Indices 1 2 3 4 5 6 
#
# 1 0.042800 -0.013322 -0.006281 0.000000 -0.023636 0.000000
# 2 -0.013322 0.012537 -0.000326 0.000000 0.007142 0.000000
# 3 -0.006281 -0.000326 0.009105 0.000000 -0.000775 0.000000
# 4 0.000000 0.000000 0.000000 0.035847 0.000000 0.002549
# 5 -0.023636 0.007142 -0.000775 0.000000 0.075031 0.000000
# 6 0.000000 0.000000 0.000000 0.002549 0.000000 0.033625
#
#
# Mechanical properties :
#
#
# Convention : Reuss Voigt Hill
#
# Bulk Modulus (GPa) = 40.67539 62.43535 51.55537
# Shear Modulus (GPa) = 19.45548 27.93671 23.69609
#
# Velocity S-wave (km/s) = 3.10835 3.72474 3.43042
# Velocity P-wave (km/s) = 5.75172 7.03593 6.42599
#
# Compressibility (1/GPa) = 0.02458489
#
# Stress axis : x y z
#
# Youngs Moduli (GPa) = 23.36460 79.76627 109.82519
#
# Poissons Ratio (x) = 1.06261 0.68981
# Poissons Ratio (y) = 0.31125 0.03579
# Poissons Ratio (z) = 0.14675 0.02600
#
# Static dielectric constant tensor:
#      x y z
#    x 3.391620 0.000000 0.060020 
#    y 0.000000 3.568860 0.000000 
#    z 0.060020 0.000000 4.105450 
# 
# 
# High freq. dielectric constant tensor:
#      x y z
#    x 1.763710 0.000000 0.004620 
#    y 0.000000 1.780480 0.000000 
#    z 0.004620 0.000000 1.812630 
# 
# From -- ./inp_files/76114.got.cif
#   From: 2010.06.25/outbox.cif.g09.slc.cpg/sg12_39_cif.got.tgz:76114.got - 2010.06.28 00:19:55.
