data_PCOD8114636
_publ_section_title
;
Structure prediction by ZEFSAII (Michael W. Deem and Ramdas Pophale) SiO2 
 PCOD8114636
Probable space group: C 2/M
;
_chemical_formula_sum "Si O2"
_cell_formula_units_Z 48
_cell_length_a 24.133911
_cell_length_b 9.318793
_cell_length_c 14.127084
_cell_angle_alpha 90.000000
_cell_angle_beta 69.033338
_cell_angle_gamma 90.000000
_cell_volume 2966.801938
_symmetry_space_group_name_H-M "C 2/M"
_symmetry_group_IT_number 12
_symmetry_cell_setting 'monoclinic'
loop_
_space_group_symop_operation_xyz
x,y,z
-x,y,-z
-x,-y,-z
x,-y,z
1/2+x,1/2+y,z
1/2-x,1/2+y,-z
1/2-x,1/2-y,-z
1/2+x,1/2-y,z
loop_
_atom_site_type_symbol
_atom_site_label
_atom_site_fract_x
_atom_site_fract_y
_atom_site_fract_z
Si Si1 0.707713 0.331306 0.954410
Si Si2 0.736553 0.666295 0.722063
Si Si3 0.795240 0.833246 0.538492
Si Si4 0.622321 0.336467 0.673261
Si Si5 0.588904 0.832836 0.006014
Si Si6 0.964490 0.334720 0.161931
O O1 0.705839 0.500000 0.978233
O O2 0.733042 0.301142 0.834763
O O3 0.750000 0.250000 0.000000
O O4 0.642209 0.267550 0.006336
O O5 0.749065 0.500000 0.692914
O O6 0.791205 0.759441 0.644610
O O7 0.675547 0.715921 0.709390
O O8 0.750000 0.750000 0.500000
O O9 0.859665 0.816889 0.448613
O O10 0.777523 0.000000 0.556669
O O11 0.607720 0.500000 0.705441
O O12 0.562802 0.248686 0.732027
O O13 0.534612 0.804316 0.111340
O O14 0.607706 0.000000 0.997054
O O15 0.568399 0.786765 0.914002
O O16 0.952596 0.500000 0.187629
#
# Coordination Sequence:
#
# PCOD8114636 Si02
#       6
#     8   8   8   8   8   8
#     4  11  22  35  50  69  93 125 163 200 236 277
#     4   9  18  31  44  63  92 122 156 195 231 274
#     4   9  17  27  41  63  92 123 154 188 229 278
#     4   9  16  27  42  66  96 122 152 188 228 278
#     4   9  18  32  46  67  95 123 158 195 231 276
#     4   9  17  28  46  69  95 125 155 189 231 279
#
# _framework density 16.179037000000001
#
# number of rings (size 3 to 8) (size 9 to 14) (size 15 to 20)
#    0.000    2.667    1.667    3.000    0.000    5.333 
#    0.000    1.667    0.000    0.000    0.000    1.167 
#    0.000    9.333    0.000    0.000    0.000    0.000 
#
# Total GULP energy -297483.943919 kJ/mol
# GULP energy per Si atom -12395.164330 kJ/mol
# Density = 1.614221 g / cm^3
# Si number density = 16.179037 Si / 1000 Ang^3
#
#
#
# Elastic Constant Matrix: (Units=GPa)
#
#
# Indices 1 2 3 4 5 6 
#
# 1 69.9413 48.2679 42.4419 0.0000 -7.8147 0.0000
# 2 48.2679 90.9965 63.8985 0.0000 -15.2783 0.0000
# 3 42.4419 63.8985 107.7009 0.0000 -21.2251 0.0000
# 4 0.0000 0.0000 0.0000 33.3277 0.0000 -6.6829
# 5 -7.8147 -15.2783 -21.2251 0.0000 21.7800 0.0000
# 6 0.0000 0.0000 0.0000 -6.6829 0.0000 25.2662
#
#
#
# Elastic Compliance Matrix: (Units=1/GPa)
#
#
# Indices 1 2 3 4 5 6 
#
# 1 0.023252 -0.010228 -0.003545 0.000000 -0.002287 0.000000
# 2 -0.010228 0.023483 -0.009133 0.000000 0.003903 0.000000
# 3 -0.003545 -0.009133 0.018055 0.000000 0.009916 0.000000
# 4 0.000000 0.000000 0.000000 0.031686 0.000000 0.008381
# 5 -0.002287 0.003903 0.009916 0.000000 0.057495 0.000000
# 6 0.000000 0.000000 0.000000 0.008381 0.000000 0.041795
#
#
# Mechanical properties :
#
#
# Convention : Reuss Voigt Hill
#
# Bulk Modulus (GPa) = 52.69346 64.20614 58.44980
# Shear Modulus (GPa) = 20.16904 23.67678 21.92291
#
# Velocity S-wave (km/s) = 3.53457 3.82962 3.68505
# Velocity P-wave (km/s) = 7.02120 7.70231 7.36963
#
# Compressibility (1/GPa) = 0.01897769
#
# Stress axis : x y z
#
# Youngs Moduli (GPa) = 43.00635 42.58348 55.38714
#
# Poissons Ratio (x) = 0.43556 0.19637
# Poissons Ratio (y) = 0.43988 0.50583
# Poissons Ratio (z) = 0.15248 0.38890
#
# Static dielectric constant tensor:
#      x y z
#    x 2.707500 0.000000 -0.226560 
#    y 0.000000 3.143700 0.000000 
#    z -0.226560 0.000000 3.388920 
# 
# 
# High freq. dielectric constant tensor:
#      x y z
#    x 1.569480 0.000000 -0.026980 
#    y 0.000000 1.631020 0.000000 
#    z -0.026980 0.000000 1.625940 
# 
# From -- ./inp_files/229964.got.cif
#   From: 2010.06.25/outbox.cif.g09.slc.cpg/sg12_115_cif.got.tgz:229964.got - 2010.06.28 00:19:55.
