data_PCOD8114757
_publ_section_title
;
Structure prediction by ZEFSAII (Michael W. Deem and Ramdas Pophale) SiO2 
 PCOD8114757
Probable space group: C 2/M
;
_chemical_formula_sum "Si O2"
_cell_formula_units_Z 48
_cell_length_a 9.866408
_cell_length_b 17.331218
_cell_length_c 14.365305
_cell_angle_alpha 90.000000
_cell_angle_beta 91.637386
_cell_angle_gamma 90.000000
_cell_volume 2455.419163
_symmetry_space_group_name_H-M "C 2/M"
_symmetry_group_IT_number 12
_symmetry_cell_setting 'monoclinic'
loop_
_space_group_symop_operation_xyz
x,y,z
-x,y,-z
-x,-y,-z
x,-y,z
1/2+x,1/2+y,z
1/2-x,1/2+y,-z
1/2-x,1/2-y,-z
1/2+x,1/2-y,z
loop_
_atom_site_type_symbol
_atom_site_label
_atom_site_fract_x
_atom_site_fract_y
_atom_site_fract_z
Si Si1 0.619539 0.704244 0.113693
Si Si2 0.407658 0.668367 0.682686
Si Si3 0.323566 0.090934 0.430336
Si Si4 0.322298 0.587776 0.260171
Si Si5 0.903541 0.656466 0.625567
Si Si6 0.825783 0.833068 0.078820
O O1 0.657943 0.670520 0.215168
O O2 0.690794 0.785665 0.098115
O O3 0.457945 0.719200 0.105663
O O4 0.666640 0.645221 0.031264
O O5 0.318257 0.609816 0.620894
O O6 0.560065 0.636685 0.688133
O O7 0.411198 0.751608 0.634803
O O8 0.328640 0.134959 0.528508
O O9 0.446208 0.120593 0.368036
O O10 0.336659 0.000000 0.447862
O O11 0.339130 0.500000 0.290895
O O12 0.178711 0.621100 0.290104
O O13 0.328521 0.593144 0.147270
#
# Coordination Sequence:
#
# PCOD8114757 Si02
#       6
#     8   8   8   8   8   8
#     4   9  18  33  56  85 111 144 189 232 273 327
#     4  11  22  37  60  88 112 148 197 237 276 340
#     4  11  24  41  58  82 117 153 187 237 299 343
#     4  11  22  37  58  88 120 149 187 238 291 335
#     4  11  22  40  60  82 110 153 197 237 279 347
#     4   9  18  34  55  84 113 148 183 230 277 334
#
# _framework density 19.548597000000001
#
# number of rings (size 3 to 8) (size 9 to 14) (size 15 to 20)
#    0.000    1.667    1.667    4.000    2.333    2.000 
#    0.000    9.167    0.000    0.000    0.000    5.833 
#    0.000    0.000    0.000    0.000    0.000    0.000 
#
# Total GULP energy -297546.797179 kJ/mol
# GULP energy per Si atom -12397.783216 kJ/mol
# Density = 1.950410 g / cm^3
# Si number density = 19.548597 Si / 1000 Ang^3
#
#
#
# Elastic Constant Matrix: (Units=GPa)
#
#
# Indices 1 2 3 4 5 6 
#
# 1 64.2548 32.0917 26.6218 0.0000 -11.6202 0.0000
# 2 32.0917 115.3169 37.7853 0.0000 -1.5746 0.0000
# 3 26.6218 37.7853 86.8992 0.0000 1.3415 0.0000
# 4 0.0000 0.0000 0.0000 20.8717 0.0000 4.7424
# 5 -11.6202 -1.5746 1.3415 0.0000 27.5849 0.0000
# 6 0.0000 0.0000 0.0000 4.7424 0.0000 22.7403
#
#
#
# Elastic Compliance Matrix: (Units=1/GPa)
#
#
# Indices 1 2 3 4 5 6 
#
# 1 0.021292 -0.004222 -0.004825 0.000000 0.008963 0.000000
# 2 -0.004222 0.010967 -0.003460 0.000000 -0.000984 0.000000
# 3 -0.004825 -0.003460 0.014536 0.000000 -0.002937 0.000000
# 4 0.000000 0.000000 0.000000 0.050295 0.000000 -0.010489
# 5 0.008963 -0.000984 -0.002937 0.000000 0.040114 0.000000
# 6 0.000000 0.000000 0.000000 -0.010489 0.000000 0.046162
#
#
# Mechanical properties :
#
#
# Convention : Reuss Voigt Hill
#
# Bulk Modulus (GPa) = 45.91408 51.05205 48.48306
# Shear Modulus (GPa) = 23.18678 25.57087 24.37883
#
# Velocity S-wave (km/s) = 3.44773 3.62064 3.53524
# Velocity P-wave (km/s) = 6.27593 6.60688 6.44353
#
# Compressibility (1/GPa) = 0.02177981
#
# Stress axis : x y z
#
# Youngs Moduli (GPa) = 46.96648 91.18302 68.79609
#
# Poissons Ratio (x) = 0.38496 0.33197
# Poissons Ratio (y) = 0.19828 0.23804
# Poissons Ratio (z) = 0.22663 0.31550
#
# Static dielectric constant tensor:
#      x y z
#    x 3.653660 0.000000 -0.098470 
#    y 0.000000 3.275590 0.000000 
#    z -0.098470 0.000000 3.918650 
# 
# 
# High freq. dielectric constant tensor:
#      x y z
#    x 1.770200 0.000000 -0.007610 
#    y 0.000000 1.732510 0.000000 
#    z -0.007610 0.000000 1.776350 
# 
# From -- ./inp_files/195983.got.cif
#   From: 2010.06.25/outbox.cif.g09.slc.cpg/sg12_98_cif.got.tgz:195983.got - 2010.06.28 00:19:55.
