data_PCOD8114389
_publ_section_title
;
Structure prediction by ZEFSAII (Michael W. Deem and Ramdas Pophale) SiO2 
 PCOD8114389
Probable space group: C 2/M
;
_chemical_formula_sum "Si O2"
_cell_formula_units_Z 48
_cell_length_a 11.921755
_cell_length_b 24.532392
_cell_length_c 12.126642
_cell_angle_alpha 90.000000
_cell_angle_beta 130.930576
_cell_angle_gamma 90.000000
_cell_volume 2679.522379
_symmetry_space_group_name_H-M "C 2/M"
_symmetry_group_IT_number 12
_symmetry_cell_setting 'monoclinic'
loop_
_space_group_symop_operation_xyz
x,y,z
-x,y,-z
-x,-y,-z
x,-y,z
1/2+x,1/2+y,z
1/2-x,1/2+y,-z
1/2-x,1/2-y,-z
1/2+x,1/2-y,z
loop_
_atom_site_type_symbol
_atom_site_label
_atom_site_fract_x
_atom_site_fract_y
_atom_site_fract_z
Si Si1 0.420257 0.144218 0.695836
Si Si2 0.180082 0.000000 0.978410
Si Si3 0.121767 0.591282 0.987733
Si Si4 0.169812 0.000000 0.226441
Si Si5 0.831219 0.604414 0.417265
Si Si6 0.837406 0.303485 0.861247
Si Si7 0.887387 0.288627 0.335185
O O1 0.532662 0.099141 0.816559
O O2 0.313561 0.115762 0.536864
O O3 0.325279 0.171259 0.731450
O O4 0.513266 0.192663 0.702011
O O5 0.244496 0.050861 0.952010
O O6 0.225233 0.000000 0.135904
O O7 0.004134 0.000000 0.863779
O O8 0.198504 0.647820 0.076193
O O9 0.000000 0.570692 0.000000
O O10 0.225653 0.944972 0.318946
O O11 0.794626 0.660062 0.326119
O O12 0.000000 0.587569 0.500000
O O13 0.720433 0.255167 0.789262
O O14 0.000000 0.280720 0.000000
O O15 0.000000 0.264130 0.500000
#
# Coordination Sequence:
#
# PCOD8114389 Si02
#       7
#     8   4   8   4   8   8   8
#     4   8  17  34  55  76 104 136 180 226 257 321
#     4  11  21  38  53  79 117 139 172 229 278 316
#     4   9  19  36  60  76 103 145 191 218 262 322
#     4  11  23  36  53  85 112 141 171 225 282 326
#     4   9  18  34  55  77 106 141 186 217 267 326
#     4   9  19  35  52  82 106 141 187 220 264 321
#     4   9  18  33  52  80 108 140 181 222 271 320
#
# _framework density 17.913640999999998
#
# number of rings (size 3 to 8) (size 9 to 14) (size 15 to 20)
#    0.000    3.500    0.000    2.500    0.000    6.000 
#   12.000    0.833    0.000    4.000    0.000    0.000 
#    0.000    0.000    0.000    0.000    0.000    0.000 
#
# Total GULP energy -297371.511172 kJ/mol
# GULP energy per Si atom -12390.479632 kJ/mol
# Density = 1.787287 g / cm^3
# Si number density = 17.913641 Si / 1000 Ang^3
#
#
#
# Elastic Constant Matrix: (Units=GPa)
#
#
# Indices 1 2 3 4 5 6 
#
# 1 62.2952 40.6257 37.0755 0.0000 -1.2929 0.0000
# 2 40.6257 120.3367 62.5956 0.0000 8.9463 0.0000
# 3 37.0755 62.5956 91.2242 0.0000 -8.1612 0.0000
# 4 0.0000 0.0000 0.0000 36.7574 0.0000 5.1892
# 5 -1.2929 8.9463 -8.1612 0.0000 25.7387 0.0000
# 6 0.0000 0.0000 0.0000 5.1892 0.0000 19.2262
#
#
#
# Elastic Compliance Matrix: (Units=1/GPa)
#
#
# Indices 1 2 3 4 5 6 
#
# 1 0.022616 -0.004597 -0.005962 0.000000 0.000843 0.000000
# 2 -0.004597 0.015443 -0.009499 0.000000 -0.008610 0.000000
# 3 -0.005962 -0.009499 0.020760 0.000000 0.009585 0.000000
# 4 0.000000 0.000000 0.000000 0.028283 0.000000 -0.007634
# 5 0.000843 -0.008610 0.009585 0.000000 0.044926 0.000000
# 6 0.000000 0.000000 0.000000 -0.007634 0.000000 0.054073
#
#
# Mechanical properties :
#
#
# Convention : Reuss Voigt Hill
#
# Bulk Modulus (GPa) = 53.46288 61.60552 57.53420
# Shear Modulus (GPa) = 21.50987 25.24841 23.37914
#
# Velocity S-wave (km/s) = 3.46895 3.75834 3.61654
# Velocity P-wave (km/s) = 6.77897 7.30058 7.04460
#
# Compressibility (1/GPa) = 0.01870457
#
# Stress axis : x y z
#
# Youngs Moduli (GPa) = 44.21600 64.75476 48.16855
#
# Poissons Ratio (x) = 0.29765 0.28719
# Poissons Ratio (y) = 0.20324 0.45754
# Poissons Ratio (z) = 0.26363 0.61508
#
# Static dielectric constant tensor:
#      x y z
#    x 3.190880 0.000000 -0.341730 
#    y 0.000000 3.206140 0.000000 
#    z -0.341730 0.000000 3.495300 
# 
# 
# High freq. dielectric constant tensor:
#      x y z
#    x 1.676400 0.000000 -0.023760 
#    y 0.000000 1.687020 0.000000 
#    z -0.023760 0.000000 1.696110 
# 
# From -- ./inp_files/136785.got.cif
#   From: 2010.06.25/outbox.cif.g09.slc.cpg/sg12_69_cif.got.tgz:136785.got - 2010.06.28 00:19:55.
