data_PCOD8114015
_publ_section_title
;
Structure prediction by ZEFSAII (Michael W. Deem and Ramdas Pophale) SiO2 
 PCOD8114015
Probable space group: C 2/M
;
_chemical_formula_sum "Si O2"
_cell_formula_units_Z 32
_cell_length_a 12.208723
_cell_length_b 22.082674
_cell_length_c 8.561639
_cell_angle_alpha 90.000000
_cell_angle_beta 37.671791
_cell_angle_gamma 90.000000
_cell_volume 1410.644846
_symmetry_space_group_name_H-M "C 2/M"
_symmetry_group_IT_number 12
_symmetry_cell_setting 'monoclinic'
loop_
_space_group_symop_operation_xyz
x,y,z
-x,y,-z
-x,-y,-z
x,-y,z
1/2+x,1/2+y,z
1/2-x,1/2+y,-z
1/2-x,1/2-y,-z
1/2+x,1/2-y,z
loop_
_atom_site_type_symbol
_atom_site_label
_atom_site_fract_x
_atom_site_fract_y
_atom_site_fract_z
Si Si1 0.900920 0.377441 0.887880
Si Si2 0.555793 0.381365 0.115630
Si Si3 0.458876 0.750859 0.226985
Si Si4 0.230350 0.568706 0.652630
O O1 0.947141 0.307630 0.794718
O O2 0.085206 0.415939 0.680263
O O3 0.762605 0.400952 0.910911
O O4 0.804007 0.385319 0.165773
O O5 0.539387 0.312477 0.196098
O O6 0.429224 0.423966 0.361924
O O7 0.500000 0.388525 0.000000
O O8 0.250000 0.750000 0.500000
O O9 0.500000 0.758575 0.000000
O O10 0.204788 0.500000 0.739128
#
# Coordination Sequence:
#
# PCOD8114015 Si02
#       4
#     8   8   8   8
#     4  11  21  42  68  93 127 172 221 273 326 384
#     4  11  25  40  62  99 135 171 210 269 339 405
#     4  11  20  40  66  98 135 170 219 276 336 398
#     4  11  24  44  69  95 126 173 232 275 317 387
#
# _framework density 22.684661999999999
#
# number of rings (size 3 to 8) (size 9 to 14) (size 15 to 20)
#    0.000    1.000    5.000    3.000    0.000    4.500 
#    0.000    3.750    0.000    0.000    0.000    0.000 
#    0.000    0.000    0.000    0.000    0.000    0.000 
#
# Total GULP energy -198372.763761 kJ/mol
# GULP energy per Si atom -12398.297735 kJ/mol
# Density = 2.263303 g / cm^3
# Si number density = 22.684662 Si / 1000 Ang^3
#
#
#
# Elastic Constant Matrix: (Units=GPa)
#
#
# Indices 1 2 3 4 5 6 
#
# 1 136.1510 14.8919 29.8884 0.0000 -31.7296 0.0000
# 2 14.8919 99.1650 14.5598 0.0000 0.9483 0.0000
# 3 29.8884 14.5598 97.1546 0.0000 -14.1273 0.0000
# 4 0.0000 0.0000 0.0000 30.7806 0.0000 0.3798
# 5 -31.7296 0.9483 -14.1273 0.0000 33.9408 0.0000
# 6 0.0000 0.0000 0.0000 0.3798 0.0000 10.7353
#
#
#
# Elastic Compliance Matrix: (Units=1/GPa)
#
#
# Indices 1 2 3 4 5 6 
#
# 1 0.009835 -0.001327 -0.001580 0.000000 0.008574 0.000000
# 2 -0.001327 0.010522 -0.001481 0.000000 -0.002151 0.000000
# 3 -0.001580 -0.001481 0.011487 0.000000 0.003346 0.000000
# 4 0.000000 0.000000 0.000000 0.032502 0.000000 -0.001150
# 5 0.008574 -0.002151 0.003346 0.000000 0.038931 0.000000
# 6 0.000000 0.000000 0.000000 -0.001150 0.000000 0.093191
#
#
# Mechanical properties :
#
#
# Convention : Reuss Voigt Hill
#
# Bulk Modulus (GPa) = 43.35158 50.12786 46.73972
# Shear Modulus (GPa) = 23.48151 33.30005 28.39078
#
# Velocity S-wave (km/s) = 3.22083 3.83555 3.54155
# Velocity P-wave (km/s) = 5.74314 6.46227 6.11329
#
# Compressibility (1/GPa) = 0.02306721
#
# Stress axis : x y z
#
# Youngs Moduli (GPa) = 101.67961 95.04312 87.05151
#
# Poissons Ratio (x) = 0.12612 0.13754
# Poissons Ratio (y) = 0.13492 0.12895
# Poissons Ratio (z) = 0.16066 0.14079
#
# Static dielectric constant tensor:
#      x y z
#    x 3.993290 0.000000 -0.342090 
#    y 0.000000 4.248400 0.000000 
#    z -0.342090 0.000000 4.018870 
# 
# 
# High freq. dielectric constant tensor:
#      x y z
#    x 1.880010 0.000000 -0.026920 
#    y 0.000000 1.892300 0.000000 
#    z -0.026920 0.000000 1.894160 
# 
# From -- ./inp_files/50259.got.cif
#   From: 2010.06.25/outbox.cif.g09.slc.cpg/sg12_26_cif.got.tgz:50259.got - 2010.06.28 00:19:55.
