data_PCOD8114184
_publ_section_title
;
Structure prediction by ZEFSAII (Michael W. Deem and Ramdas Pophale) SiO2 
 PCOD8114184
Probable space group: C 2/M
;
_chemical_formula_sum "Si O2"
_cell_formula_units_Z 56
_cell_length_a 19.100150
_cell_length_b 8.862991
_cell_length_c 24.524776
_cell_angle_alpha 90.000000
_cell_angle_beta 43.521455
_cell_angle_gamma 90.000000
_cell_volume 2858.943990
_symmetry_space_group_name_H-M "C 2/M"
_symmetry_group_IT_number 12
_symmetry_cell_setting 'monoclinic'
loop_
_space_group_symop_operation_xyz
x,y,z
-x,y,-z
-x,-y,-z
x,-y,z
1/2+x,1/2+y,z
1/2-x,1/2+y,-z
1/2-x,1/2-y,-z
1/2+x,1/2-y,z
loop_
_atom_site_type_symbol
_atom_site_label
_atom_site_fract_x
_atom_site_fract_y
_atom_site_fract_z
Si Si1 0.683894 0.679244 0.084469
Si Si2 0.232552 0.821728 0.736342
Si Si3 0.833977 0.322776 0.490292
Si Si4 0.218730 0.829961 0.185228
Si Si5 0.957797 0.821233 0.225817
Si Si6 0.980657 0.829701 0.333691
Si Si7 0.882616 0.821428 0.571899
O O1 0.684823 0.500000 0.079296
O O2 0.732715 0.727594 0.115195
O O3 0.568107 0.741242 0.144528
O O4 0.750000 0.750000 0.000000
O O5 0.221658 0.777318 0.806166
O O6 0.131845 0.759984 0.762290
O O7 0.333076 0.742107 0.655255
O O8 0.243396 0.000000 0.724080
O O9 0.819499 0.500000 0.502757
O O10 0.750000 0.250000 0.500000
O O11 0.942924 0.280488 0.402818
O O12 0.821009 0.253095 0.557309
O O13 0.100690 0.825366 0.265792
O O14 0.260580 0.000000 0.167964
O O15 0.936543 0.772842 0.300389
O O16 0.963171 0.000000 0.220529
O O17 0.942412 0.000000 0.367734
O O18 0.000000 0.772573 0.500000
O O19 0.870791 0.000000 0.577628
#
# Coordination Sequence:
#
# PCOD8114184 Si02
#       7
#     8   8   8   8   8   8   8
#     4   9  18  36  60  83 108 138 174 214 259 314
#     4  11  21  34  55  81 108 140 181 226 268 317
#     4  12  24  36  52  76 106 139 181 232 280 325
#     4   9  19  35  55  78 107 142 173 210 266 324
#     4   8  17  34  55  78 105 139 175 215 266 318
#     4   9  17  34  56  73  96 136 182 222 266 321
#     4  11  24  40  56  76 108 149 187 228 282 332
#
# _framework density 19.587651999999999
#
# number of rings (size 3 to 8) (size 9 to 14) (size 15 to 20)
#    0.000    2.143    0.000    5.571    0.000    6.857 
#    0.000    5.000    0.000    4.286    0.000    0.000 
#    0.000    0.000    0.000    0.000    0.000    0.000 
#
# Total GULP energy -347182.515879 kJ/mol
# GULP energy per Si atom -12399.375567 kJ/mol
# Density = 1.954307 g / cm^3
# Si number density = 19.587652 Si / 1000 Ang^3
#
#
#
# Elastic Constant Matrix: (Units=GPa)
#
#
# Indices 1 2 3 4 5 6 
#
# 1 110.0374 35.1963 28.9664 0.0000 19.6333 0.0000
# 2 35.1963 65.4740 25.0740 -0.0001 6.5123 -0.0002
# 3 28.9664 25.0740 88.7351 0.0000 18.3096 0.0000
# 4 0.0000 -0.0001 0.0000 33.4624 0.0000 5.6454
# 5 19.6333 6.5123 18.3096 0.0000 27.8308 0.0000
# 6 0.0000 -0.0002 0.0000 5.6454 0.0000 29.2562
#
#
#
# Elastic Compliance Matrix: (Units=1/GPa)
#
#
# Indices 1 2 3 4 5 6 
#
# 1 0.012344 -0.005557 -0.001077 0.000000 -0.006699 0.000000
# 2 -0.005557 0.019650 -0.004164 0.000000 0.002062 0.000000
# 3 -0.001077 -0.004164 0.014394 0.000000 -0.007735 0.000000
# 4 0.000000 0.000000 0.000000 0.030890 0.000000 -0.005961
# 5 -0.006699 0.002062 -0.007735 0.000000 0.045264 0.000000
# 6 0.000000 0.000000 0.000000 -0.005961 0.000000 0.035331
#
#
# Mechanical properties :
#
#
# Convention : Reuss Voigt Hill
#
# Bulk Modulus (GPa) = 40.33526 49.19112 44.76319
# Shear Modulus (GPa) = 26.63362 29.77720 28.20541
#
# Velocity S-wave (km/s) = 3.69143 3.90321 3.79880
# Velocity P-wave (km/s) = 6.22943 6.74398 6.49180
#
# Compressibility (1/GPa) = 0.02479220
#
# Stress axis : x y z
#
# Youngs Moduli (GPa) = 81.01052 50.89059 69.47433
#
# Poissons Ratio (x) = 0.28279 0.07482
# Poissons Ratio (y) = 0.45017 0.28929
# Poissons Ratio (z) = 0.08725 0.21190
#
# Static dielectric constant tensor:
#      x y z
#    x 3.997040 0.000000 0.069540 
#    y 0.000000 3.468170 0.000000 
#    z 0.069540 0.000000 3.806510 
# 
# 
# High freq. dielectric constant tensor:
#      x y z
#    x 1.772490 0.000000 0.010830 
#    y 0.000000 1.743630 0.000000 
#    z 0.010830 0.000000 1.752010 
# 
# From -- ./inp_files/342315.got.cif
#   From: 2010.06.25/outbox.cif.g09.slc.cpg/sg12_172_cif.got.tgz:342315.got - 2010.06.28 00:19:55.
