data_PCOD8114821
_publ_section_title
;
Structure prediction by ZEFSAII (Michael W. Deem and Ramdas Pophale) SiO2 
 PCOD8114821
Probable space group: C 2/M
;
_chemical_formula_sum "Si O2"
_cell_formula_units_Z 48
_cell_length_a 9.406559
_cell_length_b 18.596160
_cell_length_c 29.666799
_cell_angle_alpha 90.000000
_cell_angle_beta 150.790175
_cell_angle_gamma 90.000000
_cell_volume 2532.519982
_symmetry_space_group_name_H-M "C 2/M"
_symmetry_group_IT_number 12
_symmetry_cell_setting 'monoclinic'
loop_
_space_group_symop_operation_xyz
x,y,z
-x,y,-z
-x,-y,-z
x,-y,z
1/2+x,1/2+y,z
1/2-x,1/2+y,-z
1/2-x,1/2-y,-z
1/2+x,1/2-y,z
loop_
_atom_site_type_symbol
_atom_site_label
_atom_site_fract_x
_atom_site_fract_y
_atom_site_fract_z
Si Si1 0.820646 0.081478 0.568811
Si Si2 0.257022 0.320381 0.470454
Si Si3 0.182719 0.582448 0.917107
Si Si4 0.378451 0.315029 0.740288
Si Si5 0.835012 0.583146 0.909924
Si Si6 0.719112 0.326896 0.743382
O O1 0.500000 0.082586 0.500000
O O2 0.827779 0.109207 0.519478
O O3 0.004980 0.136832 0.648882
O O4 0.945180 0.000000 0.604625
O O5 0.500000 0.307834 0.500000
O O6 0.250000 0.250000 0.500000
O O7 0.953514 0.337067 0.361433
O O8 0.200397 0.500000 0.908161
O O9 0.071849 0.594097 0.936764
O O10 0.968530 0.616428 0.821984
O O11 0.500000 0.618588 0.000000
O O12 0.539006 0.374004 0.816184
O O13 0.545059 0.303799 0.739574
O O14 0.382034 0.240906 0.767838
O O15 0.743224 0.500000 0.890194
O O16 0.000000 0.612285 0.000000
#
# Coordination Sequence:
#
# PCOD8114821 Si02
#       6
#     8   8   8   8   8   8
#     4  11  23  40  63  88 118 158 202 246 299 361
#     4  12  23  40  63  88 125 162 201 247 298 353
#     4   9  19  37  60  84 113 150 192 242 293 347
#     4  11  23  37  62  88 117 158 200 243 300 353
#     4   9  20  40  62  85 116 154 197 244 301 358
#     4  11  22  38  59  89 118 155 197 245 295 357
#
# _framework density 18.953453
#
# number of rings (size 3 to 8) (size 9 to 14) (size 15 to 20)
#    0.000    1.500    3.333    2.000    0.000    3.667 
#    0.000    3.333    0.000    0.000    0.000    0.000 
#    0.000    0.000    0.000    0.000    0.000    0.000 
#
# Total GULP energy -297628.121373 kJ/mol
# GULP energy per Si atom -12401.171724 kJ/mol
# Density = 1.891031 g / cm^3
# Si number density = 18.953453 Si / 1000 Ang^3
#
#
#
# Elastic Constant Matrix: (Units=GPa)
#
#
# Indices 1 2 3 4 5 6 
#
# 1 102.9547 53.5168 59.4751 -0.0048 -0.4462 -0.0032
# 2 53.5168 95.4290 50.0305 -0.0042 -3.4637 -0.0038
# 3 59.4751 50.0305 148.9355 0.0054 -2.8542 0.0004
# 4 -0.0048 -0.0042 0.0054 37.5179 -0.0014 -2.4105
# 5 -0.4462 -3.4637 -2.8542 -0.0014 35.1626 -0.0035
# 6 -0.0032 -0.0038 0.0004 -2.4105 -0.0035 34.1197
#
#
#
# Elastic Compliance Matrix: (Units=1/GPa)
#
#
# Indices 1 2 3 4 5 6 
#
# 1 0.015430 -0.006607 -0.003957 0.000002 -0.000776 0.000001
# 2 -0.006607 0.015577 -0.002570 0.000001 0.001242 0.000001
# 3 -0.003957 -0.002570 0.009167 -0.000002 0.000441 -0.000001
# 4 0.000002 0.000001 -0.000002 0.026775 0.000001 0.001892
# 5 -0.000776 0.001242 0.000441 0.000001 0.028588 0.000003
# 6 0.000001 0.000001 -0.000001 0.001892 0.000003 0.029442
#
#
# Mechanical properties :
#
#
# Convention : Reuss Voigt Hill
#
# Bulk Modulus (GPa) = 71.91984 74.81820 73.36902
# Shear Modulus (GPa) = 32.07559 33.64651 32.86105
#
# Velocity S-wave (km/s) = 4.11826 4.21790 4.16838
# Velocity P-wave (km/s) = 7.78725 7.95496 7.87155
#
# Compressibility (1/GPa) = 0.01390437
#
# Stress axis : x y z
#
# Youngs Moduli (GPa) = 64.80938 64.19844 109.09286
#
# Poissons Ratio (x) = 0.42413 0.43171
# Poissons Ratio (y) = 0.42817 0.28042
# Poissons Ratio (z) = 0.25647 0.16502
#
# Static dielectric constant tensor:
#      x y z
#    x 3.521130 0.000000 -0.046430 
#    y 0.000000 3.656620 -0.000010 
#    z -0.046430 -0.000010 3.683440 
# 
# 
# High freq. dielectric constant tensor:
#      x y z
#    x 1.738520 0.000000 -0.005320 
#    y 0.000000 1.736060 0.000000 
#    z -0.005320 0.000000 1.749410 
# 
# From -- ./inp_files/184841.got.cif
#   From: 2010.06.25/outbox.cif.g09.slc.cpg/sg12_93_cif.got.tgz:184841.got - 2010.06.28 00:19:55.
