data_PCOD8114551
_publ_section_title
;
Structure prediction by ZEFSAII (Michael W. Deem and Ramdas Pophale) SiO2 
 PCOD8114551
Probable space group: C 2/M
;
_chemical_formula_sum "Si O2"
_cell_formula_units_Z 56
_cell_length_a 14.137687
_cell_length_b 18.334857
_cell_length_c 12.495039
_cell_angle_alpha 90.000000
_cell_angle_beta 60.661283
_cell_angle_gamma 90.000000
_cell_volume 2823.447208
_symmetry_space_group_name_H-M "C 2/M"
_symmetry_group_IT_number 12
_symmetry_cell_setting 'monoclinic'
loop_
_space_group_symop_operation_xyz
x,y,z
-x,y,-z
-x,-y,-z
x,-y,z
1/2+x,1/2+y,z
1/2-x,1/2+y,-z
1/2-x,1/2-y,-z
1/2+x,1/2-y,z
loop_
_atom_site_type_symbol
_atom_site_label
_atom_site_fract_x
_atom_site_fract_y
_atom_site_fract_z
Si Si1 0.770292 0.706475 0.757020
Si Si2 0.300009 0.082329 0.892825
Si Si3 0.558213 0.278325 0.748216
Si Si4 0.986109 0.371730 0.132052
Si Si5 0.754754 0.081302 0.693099
Si Si6 0.616687 0.704901 0.478069
Si Si7 0.834988 0.845226 0.850743
O O1 0.806876 0.627135 0.778090
O O2 0.645246 0.701782 0.790393
O O3 0.846699 0.726455 0.614255
O O4 0.780816 0.769111 0.842059
O O5 0.416931 0.076002 0.884151
O O6 0.258591 0.000000 0.894207
O O7 0.216313 0.127942 0.010933
O O8 0.501978 0.202102 0.807133
O O9 0.616433 0.271353 0.601100
O O10 0.464017 0.338633 0.796720
O O11 0.873199 0.410637 0.218519
O O12 0.000000 0.353959 0.000000
O O13 0.797528 0.138824 0.582005
O O14 0.815681 0.093770 0.771515
O O15 0.780021 0.000000 0.638280
O O16 0.500000 0.678218 0.500000
#
# Coordination Sequence:
#
# PCOD8114551 Si02
#       7
#     8   8   8   8   8   8   8
#     4  11  23  40  65  91 129 163 213 258 308 370
#     4  12  25  42  62  94 136 169 202 254 319 384
#     4  12  23  40  68  97 121 161 222 261 309 366
#     4  12  23  38  69  98 124 160 211 272 313 364
#     4  11  23  40  61  96 130 160 206 263 326 369
#     4  11  21  42  65  95 121 167 214 266 307 364
#     4  11  22  40  65  93 125 164 210 262 307 366
#
# _framework density 19.833911000000001
#
# number of rings (size 3 to 8) (size 9 to 14) (size 15 to 20)
#    0.000    0.571    8.571    1.714    2.000    0.857 
#    0.000    2.857    0.000    1.286    0.000    0.000 
#    0.000    0.000    0.000    0.000    0.000    0.000 
#
# Total GULP energy -347298.349987 kJ/mol
# GULP energy per Si atom -12403.512500 kJ/mol
# Density = 1.978877 g / cm^3
# Si number density = 19.833911 Si / 1000 Ang^3
#
#
#
# Elastic Constant Matrix: (Units=GPa)
#
#
# Indices 1 2 3 4 5 6 
#
# 1 106.1440 36.8211 42.2754 0.0000 -13.2471 0.0000
# 2 36.8211 115.6178 64.8726 0.0000 7.5744 0.0000
# 3 42.2754 64.8726 109.9203 0.0000 -3.7405 0.0000
# 4 0.0000 0.0000 0.0000 8.2928 0.0000 -1.9996
# 5 -13.2471 7.5744 -3.7405 0.0000 30.2294 0.0000
# 6 0.0000 0.0000 0.0000 -1.9996 0.0000 13.8667
#
#
#
# Elastic Compliance Matrix: (Units=1/GPa)
#
#
# Indices 1 2 3 4 5 6 
#
# 1 0.012206 -0.002586 -0.002977 0.000000 0.005629 0.000000
# 2 -0.002586 0.014033 -0.007477 0.000000 -0.005575 0.000000
# 3 -0.002977 -0.007477 0.014737 0.000000 0.002393 0.000000
# 4 0.000000 0.000000 0.000000 0.124930 0.000000 0.018015
# 5 0.005629 -0.005575 0.002393 0.000000 0.037240 0.000000
# 6 0.000000 0.000000 0.000000 0.018015 0.000000 0.074713
#
#
# Mechanical properties :
#
#
# Convention : Reuss Voigt Hill
#
# Bulk Modulus (GPa) = 67.13077 68.84669 67.98873
# Shear Modulus (GPa) = 16.18620 22.99200 19.58910
#
# Velocity S-wave (km/s) = 2.85982 3.40844 3.14611
# Velocity P-wave (km/s) = 6.69513 7.09062 6.89571
#
# Compressibility (1/GPa) = 0.01489630
#
# Stress axis : x y z
#
# Youngs Moduli (GPa) = 81.92505 71.25830 67.85688
#
# Poissons Ratio (x) = 0.18426 0.20201
# Poissons Ratio (y) = 0.21184 0.50740
# Poissons Ratio (z) = 0.24389 0.53283
#
# Static dielectric constant tensor:
#      x y z
#    x 3.757160 0.000000 -0.114200 
#    y 0.000000 3.423430 0.000000 
#    z -0.114200 0.000000 3.658580 
# 
# 
# High freq. dielectric constant tensor:
#      x y z
#    x 1.784400 0.000000 -0.008850 
#    y 0.000000 1.752300 0.000000 
#    z -0.008850 0.000000 1.772830 
# 
# From -- ./inp_files/146027.got.cif
#   From: 2010.06.25/outbox.cif.g09.slc.cpg/sg12_74_cif.got.tgz:146027.got - 2010.06.28 00:19:55.
