data_PCOD8114629
_publ_section_title
;
Structure prediction by ZEFSAII (Michael W. Deem and Ramdas Pophale) SiO2 
 PCOD8114629
Probable space group: C 2/M
;
_chemical_formula_sum "Si O2"
_cell_formula_units_Z 36
_cell_length_a 18.850402
_cell_length_b 18.476013
_cell_length_c 6.839685
_cell_angle_alpha 90.000000
_cell_angle_beta 126.565614
_cell_angle_gamma 90.000000
_cell_volume 1913.265506
_symmetry_space_group_name_H-M "C 2/M"
_symmetry_group_IT_number 12
_symmetry_cell_setting 'monoclinic'
loop_
_space_group_symop_operation_xyz
x,y,z
-x,y,-z
-x,-y,-z
x,-y,z
1/2+x,1/2+y,z
1/2-x,1/2+y,-z
1/2-x,1/2-y,-z
1/2+x,1/2-y,z
loop_
_atom_site_type_symbol
_atom_site_label
_atom_site_fract_x
_atom_site_fract_y
_atom_site_fract_z
Si Si1 0.000000 0.763751 0.000000
Si Si2 0.280944 0.166501 0.348854
Si Si3 0.852061 0.182243 0.530736
Si Si4 0.405054 0.875546 0.875630
Si Si5 0.753344 0.416915 0.907118
O O1 0.042954 0.812619 0.244409
O O2 0.922781 0.709880 0.956735
O O3 0.193503 0.174295 0.333655
O O4 0.319605 0.245886 0.364274
O O5 0.256780 0.125697 0.113317
O O6 0.352816 0.119216 0.585568
O O7 0.827595 0.114216 0.355225
O O8 0.347845 0.910523 0.953832
O O9 0.500000 0.915672 0.000000
O O10 0.732021 0.500000 0.914451
#
# Coordination Sequence:
#
# PCOD8114629 Si02
#       5
#     4   8   8   8   8
#     4   8  16  36  60  80 102 132 186 234 274 302
#     4   9  18  34  56  79 105 142 188 224 266 312
#     4   9  18  36  58  78 103 141 183 233 269 310
#     4   8  18  36  54  78 111 140 179 225 267 314
#     4  11  22  34  53  83 115 148 178 214 270 333
#
# _framework density 18.815998
#
# number of rings (size 3 to 8) (size 9 to 14) (size 15 to 20)
#    0.667    2.222    0.000    2.000    0.000    4.889 
#    0.000    5.000    0.000    1.333    0.000    0.000 
#    0.000    0.000    0.000    0.000    0.000    0.000 
#
# Total GULP energy -223022.626385 kJ/mol
# GULP energy per Si atom -12390.145910 kJ/mol
# Density = 1.877317 g / cm^3
# Si number density = 18.815998 Si / 1000 Ang^3
#
#
#
# Elastic Constant Matrix: (Units=GPa)
#
#
# Indices 1 2 3 4 5 6 
#
# 1 24.9491 28.3942 43.2105 0.0000 0.0004 0.0000
# 2 28.3942 102.4695 63.0322 0.0000 -7.3062 0.0000
# 3 43.2105 63.0322 131.6881 0.0000 8.1782 0.0000
# 4 0.0000 0.0000 0.0000 -7.4382 0.0000 5.8729
# 5 0.0004 -7.3062 8.1782 0.0000 28.4826 0.0000
# 6 0.0000 0.0000 0.0000 5.8729 0.0000 13.0831
#
#
#
# Elastic Compliance Matrix: (Units=1/GPa)
#
#
# Indices 1 2 3 4 5 6 
#
# 1 0.101380 -0.009922 -0.028873 0.000000 0.005744 0.000000
# 2 -0.009922 0.015721 -0.004601 0.000000 0.005354 0.000000
# 3 -0.028873 -0.004601 0.019695 0.000000 -0.006835 0.000000
# 4 0.000000 0.000000 0.000000 -0.099261 0.000000 0.044557
# 5 0.005744 0.005354 -0.006835 0.000000 0.038445 0.000000
# 6 0.000000 0.000000 0.000000 0.044557 0.000000 0.056433
#
#
# Mechanical properties :
#
#
# Convention : Reuss Voigt Hill
#
# Bulk Modulus (GPa) = 19.99906 58.70893 39.35400
# Shear Modulus (GPa) = 21.19773 15.12349 18.16061
#
# Velocity S-wave (km/s) = 3.36010 2.83814 3.11009
# Velocity P-wave (km/s) = 5.07006 6.48146 5.81871
#
# Compressibility (1/GPa) = 0.05000235
#
# Stress axis : x y z
#
# Youngs Moduli (GPa) = 9.86384 63.61073 50.77505
#
# Poissons Ratio (x) = 0.63115 1.46604
# Poissons Ratio (y) = 0.09787 0.23364
# Poissons Ratio (z) = 0.28480 0.29270
#
# Static dielectric constant tensor:
#      x y z
#    x 3.259000 0.000000 0.241450 
#    y 0.000000 3.249520 0.000000 
#    z 0.241450 0.000000 3.452450 
# 
# 
# High freq. dielectric constant tensor:
#      x y z
#    x 1.701930 0.000000 0.013750 
#    y 0.000000 1.706460 0.000000 
#    z 0.013750 0.000000 1.736570 
# 
# From -- ./inp_files/21101.got.cif
#   From: 2010.06.25/outbox.cif.g09.slc.cpg/sg12_11_cif.got.tgz:21101.got - 2010.06.28 00:19:55.
