data_PCOD8114612
_publ_section_title
;
Structure prediction by ZEFSAII (Michael W. Deem and Ramdas Pophale) SiO2 
 PCOD8114612
Probable space group: C 2/M
;
_chemical_formula_sum "Si O2"
_cell_formula_units_Z 56
_cell_length_a 8.875225
_cell_length_b 18.499472
_cell_length_c 20.299555
_cell_angle_alpha 90.000000
_cell_angle_beta 64.073814
_cell_angle_gamma 90.000000
_cell_volume 2997.490741
_symmetry_space_group_name_H-M "C 2/M"
_symmetry_group_IT_number 12
_symmetry_cell_setting 'monoclinic'
loop_
_space_group_symop_operation_xyz
x,y,z
-x,y,-z
-x,-y,-z
x,-y,z
1/2+x,1/2+y,z
1/2-x,1/2+y,-z
1/2-x,1/2-y,-z
1/2+x,1/2-y,z
loop_
_atom_site_type_symbol
_atom_site_label
_atom_site_fract_x
_atom_site_fract_y
_atom_site_fract_z
Si Si1 0.961554 0.827365 0.215946
Si Si2 0.760222 0.580906 0.918822
Si Si3 0.677793 0.578692 0.500000
Si Si4 0.169225 0.413808 0.658288
Si Si5 0.902134 0.080906 0.918822
Si Si6 0.014198 0.913808 0.658288
Si Si7 0.606555 0.827365 0.215946
O O1 0.932481 0.878157 0.283967
O O2 0.788727 0.818165 0.211273
O O3 0.101417 0.863978 0.141758
O O4 0.023156 0.750000 0.226844
O O5 0.837721 0.500000 0.902646
O O6 0.584908 0.579407 0.915092
O O7 0.884934 0.636022 0.858242
O O8 0.732172 0.605928 1.000000
O O9 0.500000 0.567440 0.500000
O O10 0.755730 0.500000 0.500000
O O11 0.797985 0.617164 0.422827
O O12 0.643640 0.617164 0.577173
O O13 0.148044 0.500000 0.660297
O O14 0.323725 0.392329 0.676275
O O15 0.000415 0.378157 0.716033
O O16 0.856987 0.000000 0.902646
O O17 0.031361 0.000000 0.660297
#
# Coordination Sequence:
#
# PCOD8114612 Si02
#       7
#     8   8   8   8   8   8   8
#     4  11  22  34  49  72 103 137 172 207 246 293
#     4   8  15  30  52  75  97 124 161 204 249 297
#     4   7  12  26  50  77 100 125 159 199 246 299
#     4   9  17  32  55  79 102 129 163 204 250 300
#     4   8  15  30  52  75  97 124 161 204 249 297
#     4   9  17  32  55  79 102 129 163 204 250 300
#     4  11  22  34  49  72 103 137 172 207 246 293
#
# _framework density 18.682292
#
# number of rings (size 3 to 8) (size 9 to 14) (size 15 to 20)
#    0.000    3.000    0.000    4.286    0.000    2.286 
#    0.000    1.429    0.000    5.143    0.000   10.000 
#    0.000    0.000    0.000    0.000    0.000    0.000 
#
# Total GULP energy -346917.926844 kJ/mol
# GULP energy per Si atom -12389.925959 kJ/mol
# Density = 1.863977 g / cm^3
# Si number density = 18.682292 Si / 1000 Ang^3
#
#
#
# Elastic Constant Matrix: (Units=GPa)
#
#
# Indices 1 2 3 4 5 6 
#
# 1 37.6088 20.7578 29.5262 0.0000 1.5595 0.0000
# 2 20.7578 63.8079 52.0175 0.0000 1.2798 0.0000
# 3 29.5262 52.0175 162.2678 0.0000 3.5442 0.0000
# 4 0.0000 0.0000 0.0000 3.6135 0.0000 -0.3565
# 5 1.5595 1.2798 3.5442 0.0000 23.1680 0.0000
# 6 0.0000 0.0000 0.0000 -0.3565 0.0000 12.3215
#
#
#
# Elastic Compliance Matrix: (Units=1/GPa)
#
#
# Indices 1 2 3 4 5 6 
#
# 1 0.033902 -0.008119 -0.003538 0.000000 -0.001292 0.000000
# 2 -0.008119 0.023161 -0.005951 0.000000 0.000177 0.000000
# 3 -0.003538 -0.005951 0.008731 0.000000 -0.000769 0.000000
# 4 0.000000 0.000000 0.000000 0.277531 0.000000 0.008030
# 5 -0.001292 0.000177 -0.000769 0.000000 0.043358 0.000000
# 6 0.000000 0.000000 0.000000 0.008030 0.000000 0.081392
#
#
# Mechanical properties :
#
#
# Convention : Reuss Voigt Hill
#
# Bulk Modulus (GPa) = 32.70316 52.03194 42.36755
# Shear Modulus (GPa) = 9.73743 18.57946 14.15845
#
# Velocity S-wave (km/s) = 2.28548 3.15698 2.75590
# Velocity P-wave (km/s) = 4.95050 6.41873 5.73182
#
# Compressibility (1/GPa) = 0.03057809
#
# Stress axis : x y z
#
# Youngs Moduli (GPa) = 29.49706 43.17554 114.53444
#
# Poissons Ratio (x) = 0.35053 0.40522
# Poissons Ratio (y) = 0.23948 0.68163
# Poissons Ratio (z) = 0.10436 0.25695
#
# Static dielectric constant tensor:
#      x y z
#    x 3.003790 0.000000 0.041540 
#    y 0.000000 3.245350 0.000000 
#    z 0.041540 0.000000 4.018340 
# 
# 
# High freq. dielectric constant tensor:
#      x y z
#    x 1.681850 0.000000 0.002830 
#    y 0.000000 1.700150 0.000000 
#    z 0.002830 0.000000 1.750920 
# 
# From -- ./inp_files/300707.got.cif
#   From: 2010.06.25/outbox.cif.g09.slc.cpg/sg12_151_cif.got.tgz:300707.got - 2010.06.28 00:19:55.
