data_PCOD8114535
_publ_section_title
;
Structure prediction by ZEFSAII (Michael W. Deem and Ramdas Pophale) SiO2 
 PCOD8114535
Probable space group: C 2/M
;
_chemical_formula_sum "Si O2"
_cell_formula_units_Z 48
_cell_length_a 22.338610
_cell_length_b 17.736376
_cell_length_c 18.892077
_cell_angle_alpha 90.000000
_cell_angle_beta 161.811937
_cell_angle_gamma 90.000000
_cell_volume 2336.393474
_symmetry_space_group_name_H-M "C 2/M"
_symmetry_group_IT_number 12
_symmetry_cell_setting 'monoclinic'
loop_
_space_group_symop_operation_xyz
x,y,z
-x,y,-z
-x,-y,-z
x,-y,z
1/2+x,1/2+y,z
1/2-x,1/2+y,-z
1/2-x,1/2-y,-z
1/2+x,1/2-y,z
loop_
_atom_site_type_symbol
_atom_site_label
_atom_site_fract_x
_atom_site_fract_y
_atom_site_fract_z
Si Si1 0.027648 0.322641 0.348281
Si Si2 0.646802 0.586528 0.721447
Si Si3 0.952992 0.174419 0.866575
Si Si4 0.676799 0.588377 0.014820
Si Si5 0.979635 0.331017 0.825889
Si Si6 0.052733 0.146974 0.370398
O O1 0.230968 0.348208 0.608704
O O2 0.991750 0.233369 0.315815
O O3 0.009463 0.344806 0.245721
O O4 0.872240 0.367319 0.219152
O O5 0.500000 0.622904 0.500000
O O6 0.684047 0.500000 0.745496
O O7 0.555123 0.594418 0.695374
O O8 0.849984 0.627067 0.942774
O O9 0.095346 0.107142 0.001820
O O10 0.995392 0.243180 0.860977
O O11 0.000000 0.195931 0.000000
O O12 0.716460 0.500000 0.052003
O O13 0.509148 0.617417 0.775299
O O14 0.780722 0.363287 0.632931
#
# Coordination Sequence:
#
# PCOD8114535 Si02
#       6
#     8   8   8   8   8   8
#     4  11  22  43  68  96 125 161 217 272 310 376
#     4  11  26  41  58  96 140 169 202 257 323 384
#     4  11  25  44  66  96 127 166 216 272 322 371
#     4  12  24  40  66  98 128 169 214 262 326 386
#     4  11  22  42  69  94 124 167 219 261 311 376
#     4  11  21  41  67  93 126 167 219 264 311 374
#
# _framework density 20.544485000000002
#
# number of rings (size 3 to 8) (size 9 to 14) (size 15 to 20)
#    0.000    0.833    5.000    3.000    4.667    3.000 
#    0.000    2.500    0.000    0.000    0.000    0.000 
#    0.000    0.000    0.000    0.000    0.000    0.000 
#
# Total GULP energy -297710.575200 kJ/mol
# GULP energy per Si atom -12404.607300 kJ/mol
# Density = 2.049772 g / cm^3
# Si number density = 20.544485 Si / 1000 Ang^3
#
#
#
# Elastic Constant Matrix: (Units=GPa)
#
#
# Indices 1 2 3 4 5 6 
#
# 1 70.7148 14.8815 34.7366 -0.0077 3.0962 -0.0035
# 2 14.8815 65.4418 48.5431 -0.0180 11.7816 -0.0135
# 3 34.7366 48.5431 160.6066 -0.0076 7.7010 0.0000
# 4 -0.0077 -0.0180 -0.0076 12.2982 -0.0107 -10.8323
# 5 3.0962 11.7816 7.7010 -0.0107 30.5882 -0.0059
# 6 -0.0035 -0.0135 0.0000 -10.8323 -0.0059 13.1360
#
#
#
# Elastic Compliance Matrix: (Units=1/GPa)
#
#
# Indices 1 2 3 4 5 6 
#
# 1 0.015921 -0.001310 -0.003031 0.000030 -0.000344 0.000028
# 2 -0.001310 0.021023 -0.005758 0.000135 -0.006515 0.000129
# 3 -0.003031 -0.005758 0.008605 -0.000038 0.000358 -0.000038
# 4 0.000030 0.000135 -0.000038 0.297127 0.000105 0.245018
# 5 -0.000344 -0.006515 0.000358 0.000105 0.035146 0.000096
# 6 0.000028 0.000129 -0.000038 0.245018 0.000096 0.278175
#
#
# Mechanical properties :
#
#
# Convention : Reuss Voigt Hill
#
# Bulk Modulus (GPa) = 39.44758 54.78728 47.11743
# Shear Modulus (GPa) = 7.30304 24.44461 15.87383
#
# Velocity S-wave (km/s) = 1.88745 3.45315 2.78269
# Velocity P-wave (km/s) = 4.89823 6.52874 5.77136
#
# Compressibility (1/GPa) = 0.02535009
#
# Stress axis : x y z
#
# Youngs Moduli (GPa) = 62.81028 47.56665 116.20837
#
# Poissons Ratio (x) = 0.06232 0.35222
# Poissons Ratio (y) = 0.08230 0.66918
# Poissons Ratio (z) = 0.19037 0.27391
#
# Static dielectric constant tensor:
#      x y z
#    x 3.627310 -0.000020 0.014270 
#    y -0.000020 3.547320 -0.000010 
#    z 0.014270 -0.000010 3.968320 
# 
# 
# High freq. dielectric constant tensor:
#      x y z
#    x 1.802420 0.000000 0.009470 
#    y 0.000000 1.789400 0.000000 
#    z 0.009470 0.000000 1.818720 
# 
# From -- ./inp_files/285344.got.cif
#   From: 2010.06.25/outbox.cif.g09.slc.cpg/sg12_143_cif.got.tgz:285344.got - 2010.06.28 00:19:55.
