data_PCOD8114003
_publ_section_title
;
Structure prediction by ZEFSAII (Michael W. Deem and Ramdas Pophale) SiO2 
 PCOD8114003
Probable space group: C 2/M
;
_chemical_formula_sum "Si O2"
_cell_formula_units_Z 56
_cell_length_a 18.362190
_cell_length_b 10.741343
_cell_length_c 17.821654
_cell_angle_alpha 90.000000
_cell_angle_beta 57.362100
_cell_angle_gamma 90.000000
_cell_volume 2960.005955
_symmetry_space_group_name_H-M "C 2/M"
_symmetry_group_IT_number 12
_symmetry_cell_setting 'monoclinic'
loop_
_space_group_symop_operation_xyz
x,y,z
-x,y,-z
-x,-y,-z
x,-y,z
1/2+x,1/2+y,z
1/2-x,1/2+y,-z
1/2-x,1/2-y,-z
1/2+x,1/2-y,z
loop_
_atom_site_type_symbol
_atom_site_label
_atom_site_fract_x
_atom_site_fract_y
_atom_site_fract_z
Si Si1 0.133545 0.000000 0.880209
Si Si2 0.538628 0.146587 0.590816
Si Si3 0.635132 0.147709 0.390381
Si Si4 0.227245 0.643086 0.911098
Si Si5 0.057271 0.000000 0.075791
Si Si6 0.198269 0.753492 0.773885
Si Si7 0.613753 0.245316 0.100472
Si Si8 0.556150 0.856859 0.746686
O O1 0.185182 0.881424 0.824282
O O2 0.036738 0.000000 0.906094
O O3 0.132400 0.000000 0.971063
O O4 0.611257 0.182295 0.489543
O O5 0.443796 0.193360 0.618375
O O6 0.565009 0.199932 0.657607
O O7 0.530664 0.000000 0.601012
O O8 0.717195 0.232178 0.324465
O O9 0.653790 0.000000 0.371934
O O10 0.248770 0.500000 0.920561
O O11 0.209434 0.649070 0.831950
O O12 0.305437 0.736196 0.888687
O O13 0.143211 0.688438 0.004210
O O14 0.066719 0.877536 0.119978
O O15 0.116802 0.722078 0.767549
O O16 0.544248 0.150953 0.173847
O O17 0.585818 0.000000 0.733229
#
# Coordination Sequence:
#
# PCOD8114003 Si02
#       8
#     4   8   8   8   4   8   8   8
#     4  11  22  36  56  81 114 141 196 238 272 328
#     4   8  17  35  56  83 110 142 181 231 278 330
#     4   9  17  33  60  85 110 138 185 235 277 322
#     4  11  24  38  55  84 115 146 188 228 278 332
#     4  11  20  40  58  78 110 148 191 238 275 316
#     4  12  22  35  56  84 114 151 183 230 281 330
#     4  11  22  39  60  79 109 151 188 233 273 326
#     4  11  23  38  55  81 116 149 186 225 281 338
#
# _framework density 18.918882
#
# number of rings (size 3 to 8) (size 9 to 14) (size 15 to 20)
#    0.000    1.571    4.286    2.571    0.000    1.143 
#    1.286    1.429    0.000    0.000    1.857    5.000 
#    0.000    0.000    0.000    0.000    0.000    0.000 
#
# Total GULP energy -347220.587169 kJ/mol
# GULP energy per Si atom -12400.735256 kJ/mol
# Density = 1.887582 g / cm^3
# Si number density = 18.918882 Si / 1000 Ang^3
#
#
#
# Elastic Constant Matrix: (Units=GPa)
#
#
# Indices 1 2 3 4 5 6 
#
# 1 76.0623 8.0659 47.1908 0.0000 5.0855 0.0000
# 2 8.0659 51.4552 12.3566 0.0000 -1.6959 0.0000
# 3 47.1908 12.3566 117.8916 0.0000 0.1735 0.0000
# 4 0.0000 0.0000 0.0000 23.0096 0.0000 -1.3192
# 5 5.0855 -1.6959 0.1735 0.0000 34.7271 0.0000
# 6 0.0000 0.0000 0.0000 -1.3192 0.0000 19.5737
#
#
#
# Elastic Compliance Matrix: (Units=1/GPa)
#
#
# Indices 1 2 3 4 5 6 
#
# 1 0.017787 -0.001196 -0.006991 0.000000 -0.002628 0.000000
# 2 -0.001196 0.020050 -0.001624 0.000000 0.001162 0.000000
# 3 -0.006991 -0.001624 0.011450 0.000000 0.000887 0.000000
# 4 0.000000 0.000000 0.000000 0.043629 0.000000 0.002940
# 5 -0.002628 0.001162 0.000887 0.000000 0.029233 0.000000
# 6 0.000000 0.000000 0.000000 0.002940 0.000000 0.051287
#
#
# Mechanical properties :
#
#
# Convention : Reuss Voigt Hill
#
# Bulk Modulus (GPa) = 33.71048 42.29285 38.00167
# Shear Modulus (GPa) = 24.63705 27.31512 25.97608
#
# Velocity S-wave (km/s) = 3.61258 3.80386 3.70945
# Velocity P-wave (km/s) = 5.93785 6.45723 6.20298
#
# Compressibility (1/GPa) = 0.02966437
#
# Stress axis : x y z
#
# Youngs Moduli (GPa) = 56.22132 49.87462 87.33912
#
# Poissons Ratio (x) = 0.05965 0.61056
# Poissons Ratio (y) = 0.06724 0.14188
# Poissons Ratio (z) = 0.39302 0.08102
#
# Static dielectric constant tensor:
#      x y z
#    x 3.400800 0.000000 0.143260 
#    y 0.000000 3.182520 0.000000 
#    z 0.143260 0.000000 3.729840 
# 
# 
# High freq. dielectric constant tensor:
#      x y z
#    x 1.735000 0.000000 0.001510 
#    y 0.000000 1.712040 0.000000 
#    z 0.001510 0.000000 1.740460 
# 
# From -- ./inp_files/223755.got.cif
#   From: 2010.06.25/outbox.cif.g09.slc.cpg/sg12_112_cif.got.tgz:223755.got - 2010.06.28 00:19:55.
