data_PCOD8114110
_publ_section_title
;
Structure prediction by ZEFSAII (Michael W. Deem and Ramdas Pophale) SiO2 
 PCOD8114110
Probable space group: C 2/M
;
_chemical_formula_sum "Si O2"
_cell_formula_units_Z 48
_cell_length_a 22.832224
_cell_length_b 8.878740
_cell_length_c 29.211412
_cell_angle_alpha 90.000000
_cell_angle_beta 151.808875
_cell_angle_gamma 90.000000
_cell_volume 2797.532185
_symmetry_space_group_name_H-M "C 2/M"
_symmetry_group_IT_number 12
_symmetry_cell_setting 'monoclinic'
loop_
_space_group_symop_operation_xyz
x,y,z
-x,y,-z
-x,-y,-z
x,-y,z
1/2+x,1/2+y,z
1/2-x,1/2+y,-z
1/2-x,1/2-y,-z
1/2+x,1/2-y,z
loop_
_atom_site_type_symbol
_atom_site_label
_atom_site_fract_x
_atom_site_fract_y
_atom_site_fract_z
Si Si1 0.545280 0.824048 0.780817
Si Si2 0.964813 0.321086 0.824889
Si Si3 0.689808 0.677665 0.642602
Si Si4 0.800785 0.176227 0.989404
Si Si5 0.116097 0.320823 0.413806
Si Si6 0.967424 0.178329 0.551056
O O1 0.493011 0.760419 0.792992
O O2 0.470710 0.755252 0.686727
O O3 0.519650 0.000000 0.763888
O O4 0.693725 0.791725 0.877576
O O5 0.974622 0.500000 0.834793
O O6 0.828932 0.260300 0.745568
O O7 0.065823 0.251096 0.929970
O O8 0.692830 0.500000 0.640601
O O9 0.603860 0.723222 0.626247
O O10 0.632954 0.734983 0.555413
O O11 0.819343 0.000000 0.009706
O O12 0.750000 0.250000 0.000000
O O13 0.127037 0.500000 0.420018
O O14 0.250000 0.250000 0.500000
O O15 0.053628 0.270257 0.417638
O O16 0.956164 0.000000 0.552556
#
# Coordination Sequence:
#
# PCOD8114110 Si02
#       6
#     8   8   8   8   8   8
#     4   8  16  29  45  63  90 122 149 177 221 273
#     4   9  15  27  47  70  90 114 148 187 225 267
#     4   8  15  29  51  70  91 123 154 182 224 277
#     4   9  16  28  44  64  88 117 149 185 224 267
#     4  11  21  33  48  68  93 123 153 186 225 271
#     4   9  17  32  50  69  91 122 158 187 218 268
#
# _framework density 17.157979000000001
#
# number of rings (size 3 to 8) (size 9 to 14) (size 15 to 20)
#    0.000    3.000    0.000    4.000    0.000    2.667 
#    0.000   15.000    0.000    1.000    0.000    7.000 
#    0.000    0.000    0.000    0.000    0.000    0.000 
#
# Total GULP energy -297376.301551 kJ/mol
# GULP energy per Si atom -12390.679231 kJ/mol
# Density = 1.711893 g / cm^3
# Si number density = 17.157979 Si / 1000 Ang^3
#
#
#
# Elastic Constant Matrix: (Units=GPa)
#
#
# Indices 1 2 3 4 5 6 
#
# 1 92.1640 26.4001 69.9714 0.0000 12.7144 -0.0002
# 2 26.4001 45.9554 41.6899 -0.0002 4.4243 -0.0010
# 3 69.9714 41.6899 170.5787 -0.0008 25.0293 -0.0004
# 4 0.0000 -0.0002 -0.0008 25.4257 -0.0003 1.3576
# 5 12.7144 4.4243 25.0293 -0.0003 31.2529 -0.0001
# 6 -0.0002 -0.0010 -0.0004 1.3576 -0.0001 22.8024
#
#
#
# Elastic Compliance Matrix: (Units=1/GPa)
#
#
# Indices 1 2 3 4 5 6 
#
# 1 0.016463 -0.004362 -0.005434 0.000000 -0.001729 0.000000
# 2 -0.004362 0.029197 -0.005666 0.000000 0.002179 0.000001
# 3 -0.005434 -0.005666 0.010237 0.000000 -0.005186 0.000000
# 4 0.000000 0.000000 0.000000 0.039456 0.000000 -0.002349
# 5 -0.001729 0.002179 -0.005186 0.000000 0.036545 0.000000
# 6 0.000000 0.000001 0.000000 -0.002349 0.000000 0.043995
#
#
# Mechanical properties :
#
#
# Convention : Reuss Voigt Hill
#
# Bulk Modulus (GPa) = 40.04270 64.98010 52.51140
# Shear Modulus (GPa) = 23.24064 27.27198 25.25631
#
# Velocity S-wave (km/s) = 3.68436 3.99113 3.84081
# Velocity P-wave (km/s) = 6.44109 7.69368 7.09508
#
# Compressibility (1/GPa) = 0.02497334
#
# Stress axis : x y z
#
# Youngs Moduli (GPa) = 60.74084 34.25059 97.68511
#
# Poissons Ratio (x) = 0.14941 0.53077
# Poissons Ratio (y) = 0.26496 0.55350
# Poissons Ratio (z) = 0.33004 0.19407
#
# Static dielectric constant tensor:
#      x y z
#    x 3.172500 0.000000 0.293460 
#    y 0.000000 2.980140 0.000000 
#    z 0.293460 0.000000 3.938550 
# 
# 
# High freq. dielectric constant tensor:
#      x y z
#    x 1.632400 0.000000 0.018370 
#    y 0.000000 1.635460 0.000000 
#    z 0.018370 0.000000 1.676650 
# 
# From -- ./inp_files/381793.got.cif
#   From: 2010.06.25/outbox.cif.g09.slc.cpg/sg12_191_cif.got.tgz:381793.got - 2010.06.28 00:19:55.
