data_PCOD8114651
_publ_section_title
;
Structure prediction by ZEFSAII (Michael W. Deem and Ramdas Pophale) SiO2 
 PCOD8114651
Probable space group: C 2/M
;
_chemical_formula_sum "Si O2"
_cell_formula_units_Z 56
_cell_length_a 16.284682
_cell_length_b 27.007693
_cell_length_c 18.560220
_cell_angle_alpha 90.000000
_cell_angle_beta 156.847632
_cell_angle_gamma 90.000000
_cell_volume 3209.509964
_symmetry_space_group_name_H-M "C 2/M"
_symmetry_group_IT_number 12
_symmetry_cell_setting 'monoclinic'
loop_
_space_group_symop_operation_xyz
x,y,z
-x,y,-z
-x,-y,-z
x,-y,z
1/2+x,1/2+y,z
1/2-x,1/2+y,-z
1/2-x,1/2-y,-z
1/2+x,1/2-y,z
loop_
_atom_site_type_symbol
_atom_site_label
_atom_site_fract_x
_atom_site_fract_y
_atom_site_fract_z
Si Si1 0.003574 0.206565 0.426286
Si Si2 0.862842 0.864509 0.722257
Si Si3 0.953169 0.372062 0.305139
Si Si4 0.355982 0.305960 0.158512
Si Si5 0.710735 0.702101 0.202711
Si Si6 0.969717 0.704379 0.753454
Si Si7 0.602432 0.443668 0.004711
O O1 0.879911 0.178626 0.262103
O O2 0.893859 0.258531 0.355034
O O3 0.000000 0.176388 0.500000
O O4 0.240301 0.217200 0.594988
O O5 0.643712 0.881592 0.512427
O O6 0.829405 0.819639 0.750539
O O7 0.018651 0.845241 0.787023
O O8 0.959966 0.913135 0.835054
O O9 0.770823 0.341303 0.196454
O O10 0.033551 0.344295 0.298616
O O11 0.841434 0.423792 0.195736
O O12 0.448016 0.250502 0.226774
O O13 0.114609 0.305327 0.940100
O O14 0.500000 0.726439 0.000000
O O15 0.609151 0.500000 0.983156
O O16 0.500000 0.439436 0.000000
#
# Coordination Sequence:
#
# PCOD8114651 Si02
#       7
#     8   8   8   8   8   8   8
#     4  12  25  35  50  79 116 150 193 237 275 331
#     4  12  22  38  59  82 111 159 198 229 280 339
#     4  12  20  37  60  79 112 151 198 232 279 337
#     4  11  22  35  55  78 111 153 193 234 276 331
#     4  12  22  35  52  78 114 160 200 226 268 334
#     4  11  22  37  53  80 113 150 196 236 273 331
#     4  11  24  41  58  85 118 148 194 246 286 332
#
# _framework density 17.448146000000001
#
# number of rings (size 3 to 8) (size 9 to 14) (size 15 to 20)
#    0.000    0.429    7.143    3.429    4.000    0.571 
#    0.000    1.429    0.000    0.000    0.000    0.000 
#    0.000    3.429    0.000    0.000    0.000    0.000 
#
# Total GULP energy -347260.675926 kJ/mol
# GULP energy per Si atom -12402.166997 kJ/mol
# Density = 1.740843 g / cm^3
# Si number density = 17.448146 Si / 1000 Ang^3
#
#
#
# Elastic Constant Matrix: (Units=GPa)
#
#
# Indices 1 2 3 4 5 6 
#
# 1 96.9169 38.0738 44.0582 0.0014 -28.2115 -0.0013
# 2 38.0738 84.7371 36.8812 0.0026 -2.4732 -0.0008
# 3 44.0582 36.8812 155.5500 0.0106 -15.2730 -0.0046
# 4 0.0014 0.0026 0.0106 22.3512 0.0030 2.0940
# 5 -28.2115 -2.4732 -15.2730 0.0030 26.3489 -0.0024
# 6 -0.0013 -0.0008 -0.0046 2.0940 -0.0024 18.8102
#
#
#
# Elastic Compliance Matrix: (Units=1/GPa)
#
#
# Indices 1 2 3 4 5 6 
#
# 1 0.019760 -0.007476 -0.001925 -0.000002 0.019339 0.000003
# 2 -0.007476 0.015997 -0.002454 0.000001 -0.007925 -0.000002
# 3 -0.001925 -0.002454 0.007773 -0.000004 0.002214 0.000002
# 4 -0.000002 0.000001 -0.000004 0.045212 -0.000010 -0.005033
# 5 0.019339 -0.007925 0.002214 -0.000010 0.059197 0.000010
# 6 0.000003 -0.000002 0.000002 -0.005033 0.000010 0.053723
#
#
# Mechanical properties :
#
#
# Convention : Reuss Voigt Hill
#
# Bulk Modulus (GPa) = 50.45387 63.91449 57.18418
# Shear Modulus (GPa) = 21.55377 28.04811 24.80094
#
# Velocity S-wave (km/s) = 3.51850 4.01373 3.77425
# Velocity P-wave (km/s) = 6.74431 7.62828 7.19987
#
# Compressibility (1/GPa) = 0.01982009
#
# Stress axis : x y z
#
# Youngs Moduli (GPa) = 50.60847 62.51250 128.64601
#
# Poissons Ratio (x) = 0.46733 0.24769
# Poissons Ratio (y) = 0.37834 0.31564
# Poissons Ratio (z) = 0.09744 0.15338
#
# Static dielectric constant tensor:
#      x y z
#    x 3.435420 0.000000 -0.178970 
#    y 0.000000 2.929970 0.000000 
#    z -0.178970 0.000000 3.563720 
# 
# 
# High freq. dielectric constant tensor:
#      x y z
#    x 1.672270 0.000000 -0.011440 
#    y 0.000000 1.615560 0.000000 
#    z -0.011440 0.000000 1.705470 
# 
# From -- ./inp_files/219343.got.cif
#   From: 2010.06.25/outbox.cif.g09.slc.cpg/sg12_110_cif.got.tgz:219343.got - 2010.06.28 00:19:55.
