data_PCOD8114364
_publ_section_title
;
Structure prediction by ZEFSAII (Michael W. Deem and Ramdas Pophale) SiO2 
 PCOD8114364
Probable space group: C 2/M
;
_chemical_formula_sum "Si O2"
_cell_formula_units_Z 44
_cell_length_a 12.455512
_cell_length_b 18.493729
_cell_length_c 11.900064
_cell_angle_alpha 90.000000
_cell_angle_beta 51.411016
_cell_angle_gamma 90.000000
_cell_volume 2142.606282
_symmetry_space_group_name_H-M "C 2/M"
_symmetry_group_IT_number 12
_symmetry_cell_setting 'monoclinic'
loop_
_space_group_symop_operation_xyz
x,y,z
-x,y,-z
-x,-y,-z
x,-y,z
1/2+x,1/2+y,z
1/2-x,1/2+y,-z
1/2-x,1/2-y,-z
1/2+x,1/2-y,z
loop_
_atom_site_type_symbol
_atom_site_label
_atom_site_fract_x
_atom_site_fract_y
_atom_site_fract_z
Si Si1 0.500000 0.329319 0.500000
Si Si2 0.226455 0.854575 0.961554
Si Si3 0.539827 0.580488 0.255419
Si Si4 0.217116 0.920106 0.731338
Si Si5 0.746569 0.769001 0.374006
Si Si6 0.035766 0.720506 0.092785
O O1 0.520436 0.376313 0.598904
O O2 0.365698 0.281280 0.612818
O O3 0.212246 0.911109 0.869212
O O4 0.387511 0.833126 0.870903
O O5 0.179111 0.886900 0.112564
O O6 0.139179 0.784079 0.987598
O O7 0.569440 0.500000 0.279748
O O8 0.434969 0.581377 0.220172
O O9 0.297808 0.852563 0.621928
O O10 0.282988 0.000000 0.662727
O O11 0.750000 0.750000 0.500000
O O12 0.900485 0.754546 0.233894
O O13 0.000000 0.678894 0.000000
#
# Coordination Sequence:
#
# PCOD8114364 Si02
#       6
#     4   8   8   8   8   8
#     4  12  25  42  67  90 126 174 218 264 317 378
#     4  11  21  37  66  95 128 163 205 267 325 378
#     4  11  22  40  65  97 129 165 213 265 319 384
#     4  11  23  40  63  95 130 165 210 264 320 380
#     4  12  24  42  63  94 127 168 221 264 314 381
#     4  11  21  37  62  96 128 159 215 266 315 371
#
# _framework density 20.535737000000001
#
# number of rings (size 3 to 8) (size 9 to 14) (size 15 to 20)
#    0.000    0.727    5.455    2.455    5.091    1.455 
#    0.000    0.455    0.000   12.000    0.000    0.000 
#    0.000    0.000    0.000    0.000    0.000    0.000 
#
# Total GULP energy -272713.099787 kJ/mol
# GULP energy per Si atom -12396.049990 kJ/mol
# Density = 2.048900 g / cm^3
# Si number density = 20.535737 Si / 1000 Ang^3
#
#
#
# Elastic Constant Matrix: (Units=GPa)
#
#
# Indices 1 2 3 4 5 6 
#
# 1 107.0687 48.8214 39.0626 0.0000 4.0905 0.0000
# 2 48.8214 144.0750 49.0257 0.0000 5.6894 0.0000
# 3 39.0626 49.0257 89.3820 0.0000 20.4991 0.0000
# 4 0.0000 0.0000 0.0000 28.8279 0.0000 4.6249
# 5 4.0905 5.6894 20.4991 0.0000 31.9987 0.0000
# 6 0.0000 0.0000 0.0000 4.6249 0.0000 19.4046
#
#
#
# Elastic Compliance Matrix: (Units=1/GPa)
#
#
# Indices 1 2 3 4 5 6 
#
# 1 0.012031 -0.002737 -0.004121 0.000000 0.001589 0.000000
# 2 -0.002737 0.009239 -0.004191 0.000000 0.001392 0.000000
# 3 -0.004121 -0.004191 0.017578 0.000000 -0.009989 0.000000
# 4 0.000000 0.000000 0.000000 0.036068 0.000000 -0.008596
# 5 0.001589 0.001392 -0.009989 0.000000 0.037200 0.000000
# 6 0.000000 0.000000 0.000000 -0.008596 0.000000 0.053583
#
#
# Mechanical properties :
#
#
# Convention : Reuss Voigt Hill
#
# Bulk Modulus (GPa) = 59.69778 68.26057 63.97917
# Shear Modulus (GPa) = 25.85575 29.62062 27.73819
#
# Velocity S-wave (km/s) = 3.55218 3.80201 3.67921
# Velocity P-wave (km/s) = 6.77918 7.25160 7.01936
#
# Compressibility (1/GPa) = 0.01675104
#
# Stress axis : x y z
#
# Youngs Moduli (GPa) = 83.12112 108.23168 56.88808
#
# Poissons Ratio (x) = 0.29626 0.23442
# Poissons Ratio (y) = 0.22752 0.23840
# Poissons Ratio (z) = 0.34252 0.45357
#
# Static dielectric constant tensor:
#      x y z
#    x 3.865720 0.000000 0.175740 
#    y 0.000000 4.063720 0.000000 
#    z 0.175740 0.000000 2.936040 
# 
# 
# High freq. dielectric constant tensor:
#      x y z
#    x 1.804060 0.000000 0.020500 
#    y 0.000000 1.797670 0.000000 
#    z 0.020500 0.000000 1.792670 
# 
# From -- ./inp_files/131572.got.cif
#   From: 2010.06.25/outbox.cif.g09.slc.cpg/sg12_66_cif.got.tgz:131572.got - 2010.06.28 00:19:55.
