data_PCOD8114008
_publ_section_title
;
Structure prediction by ZEFSAII (Michael W. Deem and Ramdas Pophale) SiO2 
 PCOD8114008
Probable space group: C 2/M
;
_chemical_formula_sum "Si O2"
_cell_formula_units_Z 44
_cell_length_a 17.754031
_cell_length_b 17.229121
_cell_length_c 8.351395
_cell_angle_alpha 90.000000
_cell_angle_beta 126.144503
_cell_angle_gamma 90.000000
_cell_volume 2062.903249
_symmetry_space_group_name_H-M "C 2/M"
_symmetry_group_IT_number 12
_symmetry_cell_setting 'monoclinic'
loop_
_space_group_symop_operation_xyz
x,y,z
-x,y,-z
-x,-y,-z
x,-y,z
1/2+x,1/2+y,z
1/2-x,1/2+y,-z
1/2-x,1/2-y,-z
1/2+x,1/2-y,z
loop_
_atom_site_type_symbol
_atom_site_label
_atom_site_fract_x
_atom_site_fract_y
_atom_site_fract_z
Si Si1 0.000000 0.227030 0.500000
Si Si2 0.191153 0.310453 0.822404
Si Si3 0.079963 0.590280 0.905108
Si Si4 0.889396 0.352725 0.710679
Si Si5 0.559678 0.315029 0.237675
Si Si6 0.219226 0.911774 0.327561
O O1 0.097245 0.275139 0.626457
O O2 0.001856 0.177344 0.334317
O O3 0.160344 0.385000 0.885504
O O4 0.261943 0.346908 0.783389
O O5 0.250000 0.250000 0.000000
O O6 0.084509 0.500000 0.944177
O O7 0.977283 0.616199 0.714791
O O8 0.094152 0.637969 0.082663
O O9 0.875419 0.261286 0.662397
O O10 0.801640 0.405492 0.558476
O O11 0.623365 0.391047 0.298162
O O12 0.500000 0.306674 0.000000
O O13 0.212509 0.000000 0.253649
#
# Coordination Sequence:
#
# PCOD8114008 Si02
#       6
#     4   8   8   8   8   8
#     4  12  24  44  70 100 130 176 236 290 326 402
#     4  12  24  42  67  98 133 180 232 282 343 414
#     4  11  21  36  62  97 137 173 217 280 352 414
#     4  11  20  40  64  95 134 175 221 277 341 411
#     4  12  24  46  71  99 132 185 239 277 336 409
#     4  12  26  42  66 101 139 175 219 286 353 403
#
# _framework density 21.329163999999999
#
# number of rings (size 3 to 8) (size 9 to 14) (size 15 to 20)
#    0.000    0.364    5.455    5.455    2.545    0.364 
#    0.000    3.182    0.000    0.000    0.000    0.000 
#    0.000    0.000    0.000    0.000    0.000    0.000 
#
# Total GULP energy -272652.509706 kJ/mol
# GULP energy per Si atom -12393.295896 kJ/mol
# Density = 2.128062 g / cm^3
# Si number density = 21.329164 Si / 1000 Ang^3
#
#
#
# Elastic Constant Matrix: (Units=GPa)
#
#
# Indices 1 2 3 4 5 6 
#
# 1 103.5663 49.8627 38.9589 0.0000 -19.2992 0.0000
# 2 49.8627 83.9647 40.6001 0.0000 9.8474 0.0000
# 3 38.9589 40.6001 102.0645 0.0000 -8.8243 0.0000
# 4 0.0000 0.0000 0.0000 18.3940 0.0000 -1.8722
# 5 -19.2992 9.8474 -8.8243 0.0000 31.4205 0.0000
# 6 0.0000 0.0000 0.0000 -1.8722 0.0000 31.7319
#
#
#
# Elastic Compliance Matrix: (Units=1/GPa)
#
#
# Indices 1 2 3 4 5 6 
#
# 1 0.018905 -0.012597 -0.000882 0.000000 0.015312 0.000000
# 2 -0.012597 0.024523 -0.006437 0.000000 -0.017231 0.000000
# 3 -0.000882 -0.006437 0.013141 0.000000 0.005166 0.000000
# 4 0.000000 0.000000 0.000000 0.054694 0.000000 0.003227
# 5 0.015312 -0.017231 0.005166 0.000000 0.048083 0.000000
# 6 0.000000 0.000000 0.000000 0.003227 0.000000 0.031704
#
#
# Mechanical properties :
#
#
# Convention : Reuss Voigt Hill
#
# Bulk Modulus (GPa) = 59.73569 60.93764 60.33666
# Shear Modulus (GPa) = 21.14509 26.98754 24.06632
#
# Velocity S-wave (km/s) = 3.15202 3.56095 3.36271
# Velocity P-wave (km/s) = 6.42762 6.74828 6.58990
#
# Compressibility (1/GPa) = 0.01674041
#
# Stress axis : x y z
#
# Youngs Moduli (GPa) = 52.89487 40.77727 76.09539
#
# Poissons Ratio (x) = 0.51365 0.06709
# Poissons Ratio (y) = 0.66629 0.48980
# Poissons Ratio (z) = 0.04664 0.26247
#
# Static dielectric constant tensor:
#      x y z
#    x 4.161180 0.000000 -0.035510 
#    y 0.000000 3.614300 0.000000 
#    z -0.035510 0.000000 4.002090 
# 
# 
# High freq. dielectric constant tensor:
#      x y z
#    x 1.840760 0.000000 -0.007830 
#    y 0.000000 1.817000 0.000000 
#    z -0.007830 0.000000 1.842720 
# 
# From -- ./inp_files/73745.got.cif
#   From: 2010.06.25/outbox.cif.g09.slc.cpg/sg12_37_cif.got.tgz:73745.got - 2010.06.28 00:19:55.
