data_PCOD8114380
_publ_section_title
;
Structure prediction by ZEFSAII (Michael W. Deem and Ramdas Pophale) SiO2 
 PCOD8114380
Probable space group: C 2/M
;
_chemical_formula_sum "Si O2"
_cell_formula_units_Z 56
_cell_length_a 14.510316
_cell_length_b 20.514210
_cell_length_c 16.878483
_cell_angle_alpha 90.000000
_cell_angle_beta 33.001532
_cell_angle_gamma 90.000000
_cell_volume 2736.476504
_symmetry_space_group_name_H-M "C 2/M"
_symmetry_group_IT_number 12
_symmetry_cell_setting 'monoclinic'
loop_
_space_group_symop_operation_xyz
x,y,z
-x,y,-z
-x,-y,-z
x,-y,z
1/2+x,1/2+y,z
1/2-x,1/2+y,-z
1/2-x,1/2-y,-z
1/2+x,1/2-y,z
loop_
_atom_site_type_symbol
_atom_site_label
_atom_site_fract_x
_atom_site_fract_y
_atom_site_fract_z
Si Si1 0.677641 0.207052 0.342666
Si Si2 0.287616 0.689312 0.814637
Si Si3 0.354540 0.571568 0.992945
Si Si4 0.420102 0.153126 0.891999
Si Si5 0.602587 0.261887 0.668958
Si Si6 0.354575 0.071883 0.168522
Si Si7 0.730877 0.571954 0.765365
O O1 0.500000 0.237121 0.500000
O O2 0.737426 0.247584 0.223060
O O3 0.820253 0.210357 0.306502
O O4 0.644115 0.130809 0.347245
O O5 0.469774 0.688141 0.726014
O O6 0.283359 0.623103 0.765213
O O7 0.133450 0.692659 0.989631
O O8 0.338359 0.500000 0.965425
O O9 0.254939 0.621959 0.010562
O O10 0.274112 0.569057 0.137168
O O11 0.550217 0.591176 0.858091
O O12 0.496900 0.197047 0.766918
O O13 0.562949 0.099587 0.809950
O O14 0.750000 0.250000 0.500000
O O15 0.273517 0.000000 0.243360
O O16 0.500000 0.063620 0.000000
O O17 0.789946 0.500000 0.691646
#
# Coordination Sequence:
#
# PCOD8114380 Si02
#       7
#     8   8   8   8   8   8   8
#     4  12  24  41  63  86 127 169 203 265 314 365
#     4  11  23  41  62  96 123 162 216 257 313 375
#     4   9  18  35  60  93 127 156 196 257 315 368
#     4  11  21  37  64  96 123 159 216 258 303 375
#     4  12  25  40  60  88 129 169 208 256 318 372
#     4   9  19  37  62  92 128 160 199 261 318 366
#     4   9  20  38  60  89 124 163 203 251 314 376
#
# _framework density 20.464272000000001
#
# number of rings (size 3 to 8) (size 9 to 14) (size 15 to 20)
#    0.000    1.571    2.857    3.429    0.000    3.143 
#    0.000    0.714    0.000    4.714    0.000    0.000 
#    0.000    0.000    0.000    0.000    0.000    0.000 
#
# Total GULP energy -347100.688490 kJ/mol
# GULP energy per Si atom -12396.453160 kJ/mol
# Density = 2.041769 g / cm^3
# Si number density = 20.464272 Si / 1000 Ang^3
#
#
#
# Elastic Constant Matrix: (Units=GPa)
#
#
# Indices 1 2 3 4 5 6 
#
# 1 120.4889 51.7540 20.3545 0.0026 -10.9126 -0.0006
# 2 51.7540 135.7820 37.4250 0.0210 1.0112 -0.0087
# 3 20.3545 37.4250 70.2214 0.0172 8.3128 -0.0106
# 4 0.0026 0.0210 0.0172 14.8404 -0.0104 -6.1177
# 5 -10.9126 1.0112 8.3128 -0.0104 24.9778 0.0061
# 6 -0.0006 -0.0087 -0.0106 -6.1177 0.0061 35.1734
#
#
#
# Elastic Compliance Matrix: (Units=1/GPa)
#
#
# Indices 1 2 3 4 5 6 
#
# 1 0.010638 -0.003598 -0.001805 0.000009 0.005394 -0.000001
# 2 -0.003598 0.009886 -0.004156 -0.000009 -0.000589 0.000000
# 3 -0.001805 -0.004156 0.017752 -0.000018 -0.006528 0.000002
# 4 0.000009 -0.000009 -0.000018 0.072588 0.000037 0.012625
# 5 0.005394 -0.000589 -0.006528 0.000037 0.044589 -0.000003
# 6 -0.000001 0.000000 0.000002 0.012625 -0.000003 0.030627
#
#
# Mechanical properties :
#
#
# Convention : Reuss Voigt Hill
#
# Bulk Modulus (GPa) = 52.19589 60.61768 56.40679
# Shear Modulus (GPa) = 23.63143 29.46224 26.54684
#
# Velocity S-wave (km/s) = 3.40187 3.79844 3.60561
# Velocity P-wave (km/s) = 6.40246 6.99450 6.70502
#
# Compressibility (1/GPa) = 0.01915860
#
# Stress axis : x y z
#
# Youngs Moduli (GPa) = 94.00085 101.15394 56.33244
#
# Poissons Ratio (x) = 0.36390 0.10167
# Poissons Ratio (y) = 0.33817 0.23413
# Poissons Ratio (z) = 0.16966 0.42043
#
# Static dielectric constant tensor:
#      x y z
#    x 3.886230 0.000050 -0.035270 
#    y 0.000050 4.135430 0.000020 
#    z -0.035270 0.000020 3.345290 
# 
# 
# High freq. dielectric constant tensor:
#      x y z
#    x 1.813590 0.000000 -0.004470 
#    y 0.000000 1.802390 0.000000 
#    z -0.004470 0.000000 1.764920 
# 
# From -- ./inp_files/272329.got.cif
#   From: 2010.06.25/outbox.cif.g09.slc.cpg/sg12_137_cif.got.tgz:272329.got - 2010.06.28 00:19:55.
