data_PCOD8114031
_publ_section_title
;
Structure prediction by ZEFSAII (Michael W. Deem and Ramdas Pophale) SiO2 
 PCOD8114031
Probable space group: C 2/M
;
_chemical_formula_sum "Si O2"
_cell_formula_units_Z 64
_cell_length_a 18.115726
_cell_length_b 27.248170
_cell_length_c 13.185087
_cell_angle_alpha 90.000000
_cell_angle_beta 150.956285
_cell_angle_gamma 90.000000
_cell_volume 3159.690566
_symmetry_space_group_name_H-M "C 2/M"
_symmetry_group_IT_number 12
_symmetry_cell_setting 'monoclinic'
loop_
_space_group_symop_operation_xyz
x,y,z
-x,y,-z
-x,-y,-z
x,-y,z
1/2+x,1/2+y,z
1/2-x,1/2+y,-z
1/2-x,1/2-y,-z
1/2+x,1/2-y,z
loop_
_atom_site_type_symbol
_atom_site_label
_atom_site_fract_x
_atom_site_fract_y
_atom_site_fract_z
Si Si1 0.105930 0.287940 0.530248
Si Si2 0.834050 0.701606 0.065501
Si Si3 0.034708 0.056521 0.430470
Si Si4 0.044543 0.556925 0.321107
Si Si5 0.353255 0.096721 0.762362
Si Si6 0.769706 0.901009 0.986820
Si Si7 0.164527 0.296790 0.171742
Si Si8 0.835286 0.609052 0.349146
O O1 0.210841 0.240935 0.639260
O O2 0.212010 0.336518 0.669385
O O3 0.000000 0.277580 0.500000
O O4 0.008149 0.295352 0.310713
O O5 0.750000 0.750000 0.000000
O O6 0.753338 0.656522 0.024192
O O7 0.823164 0.693370 0.932922
O O8 0.211494 0.062339 0.618014
O O9 0.000000 0.078463 0.500000
O O10 0.932257 0.084367 0.225676
O O11 0.988762 0.000000 0.371183
O O12 0.063441 0.500000 0.315563
O O13 0.105416 0.591907 0.305730
O O14 0.151091 0.568916 0.545811
O O15 0.867008 0.568039 0.127139
O O16 0.311332 0.152480 0.739115
O O17 0.500000 0.077845 0.000000
O O18 0.776234 0.910725 0.872979
O O19 0.000000 0.274615 0.000000
O O20 0.000000 0.618220 0.500000
#
# Coordination Sequence:
#
# PCOD8114031 Si02
#       8
#     8   8   8   8   8   8   8   8
#     4  11  20  41  65  92 126 171 212 254 309 384
#     4  12  22  38  67  93 128 171 212 253 314 383
#     4  11  24  40  61  92 122 157 210 269 323 373
#     4  11  22  40  66  92 122 167 213 260 324 382
#     4  11  25  44  62  88 126 167 209 258 321 391
#     4  11  21  39  65  95 128 161 211 269 315 371
#     4  11  25  40  59  96 129 163 215 263 313 372
#     4   9  19  38  63  92 126 163 211 263 306 378
#
# _framework density 20.255147999999998
#
# number of rings (size 3 to 8) (size 9 to 14) (size 15 to 20)
#    0.000    1.125    5.000    3.750    1.750    5.750 
#    0.000    0.625    0.000    1.500    0.000    0.000 
#    0.000    0.000    0.000    0.000    0.000    0.000 
#
# Total GULP energy -396870.776225 kJ/mol
# GULP energy per Si atom -12402.211757 kJ/mol
# Density = 2.020905 g / cm^3
# Si number density = 20.255148 Si / 1000 Ang^3
#
#
#
# Elastic Constant Matrix: (Units=GPa)
#
#
# Indices 1 2 3 4 5 6 
#
# 1 80.3369 34.5168 41.3815 0.0000 -11.5521 0.0000
# 2 34.5168 114.6358 48.2282 0.0000 -9.5273 0.0000
# 3 41.3815 48.2282 140.2859 0.0000 -12.2555 0.0000
# 4 0.0000 0.0000 0.0000 30.5457 0.0000 1.4062
# 5 -11.5521 -9.5273 -12.2555 0.0000 29.9855 0.0000
# 6 0.0000 0.0000 0.0000 1.4062 0.0000 29.5650
#
#
#
# Elastic Compliance Matrix: (Units=1/GPa)
#
#
# Indices 1 2 3 4 5 6 
#
# 1 0.016052 -0.003114 -0.003330 0.000000 0.003834 0.000000
# 2 -0.003114 0.010905 -0.002730 0.000000 0.001149 0.000000
# 3 -0.003330 -0.002730 0.009189 0.000000 0.001606 0.000000
# 4 0.000000 0.000000 0.000000 0.032810 0.000000 -0.001560
# 5 0.003834 0.001149 0.001606 0.000000 0.035848 0.000000
# 6 0.000000 0.000000 0.000000 -0.001560 0.000000 0.033898
#
#
# Mechanical properties :
#
#
# Convention : Reuss Voigt Hill
#
# Bulk Modulus (GPa) = 56.18220 64.83461 60.50841
# Shear Modulus (GPa) = 30.67836 32.09471 31.38654
#
# Velocity S-wave (km/s) = 3.89600 3.98492 3.94071
# Velocity P-wave (km/s) = 6.93079 7.29735 7.11643
#
# Compressibility (1/GPa) = 0.01779923
#
# Stress axis : x y z
#
# Youngs Moduli (GPa) = 62.29847 91.70177 108.82271
#
# Poissons Ratio (x) = 0.28554 0.36233
# Poissons Ratio (y) = 0.19398 0.29709
# Poissons Ratio (z) = 0.20743 0.25035
#
# Static dielectric constant tensor:
#      x y z
#    x 3.766060 0.000000 -0.454520 
#    y 0.000000 3.647510 0.000000 
#    z -0.454520 0.000000 3.916760 
# 
# 
# High freq. dielectric constant tensor:
#      x y z
#    x 1.776540 0.000000 -0.021130 
#    y 0.000000 1.798030 0.000000 
#    z -0.021130 0.000000 1.792440 
# 
# From -- ./inp_files/161238.got.cif
#   From: 2010.06.25/outbox.cif.g09.slc.cpg/sg12_81_cif.got.tgz:161238.got - 2010.06.28 00:19:55.
