data_PCOD8114281
_publ_section_title
;
Structure prediction by ZEFSAII (Michael W. Deem and Ramdas Pophale) SiO2 
 PCOD8114281
Probable space group: C 2/M
;
_chemical_formula_sum "Si O2"
_cell_formula_units_Z 32
_cell_length_a 5.063681
_cell_length_b 36.975566
_cell_length_c 8.655035
_cell_angle_alpha 90.000000
_cell_angle_beta 87.104545
_cell_angle_gamma 90.000000
_cell_volume 1618.434802
_symmetry_space_group_name_H-M "C 2/M"
_symmetry_group_IT_number 12
_symmetry_cell_setting 'monoclinic'
loop_
_space_group_symop_operation_xyz
x,y,z
-x,y,-z
-x,-y,-z
x,-y,z
1/2+x,1/2+y,z
1/2-x,1/2+y,-z
1/2-x,1/2-y,-z
1/2+x,1/2-y,z
loop_
_atom_site_type_symbol
_atom_site_label
_atom_site_fract_x
_atom_site_fract_y
_atom_site_fract_z
Si Si1 0.957855 0.352144 0.182365
Si Si2 0.242288 0.960885 0.604786
Si Si3 0.958138 0.270395 0.183463
Si Si4 0.053292 0.887567 0.680209
O O1 0.721972 0.379613 0.227808
O O2 0.884970 0.311277 0.232846
O O3 0.224013 0.360161 0.268835
O O4 0.000000 0.355722 0.000000
O O5 0.500000 0.949021 0.500000
O O6 0.160960 0.928000 0.721106
O O7 0.000000 0.966950 0.500000
O O8 0.294545 0.000000 0.687865
O O9 0.227502 0.255943 0.252279
O O10 0.000000 0.267812 0.000000
O O11 0.000000 0.883868 0.500000
#
# Coordination Sequence:
#
# PCOD8114281 Si02
#       4
#     8   8   8   8
#     4  11  22  36  57  83 111 143 180 226 275 324
#     4   9  17  31  53  80 106 137 183 228 259 302
#     4   9  17  31  52  76 100 133 182 228 260 304
#     4  11  21  36  57  82 112 144 180 223 273 325
#
# _framework density 19.772190999999999
#
# number of rings (size 3 to 8) (size 9 to 14) (size 15 to 20)
#    0.000    2.000    0.000    6.000    0.000    4.000 
#    0.000    0.000    0.000   19.500    0.000    0.000 
#    0.000    0.000    0.000    0.000    0.000    0.000 
#
# Total GULP energy -198268.651147 kJ/mol
# GULP energy per Si atom -12391.790697 kJ/mol
# Density = 1.972719 g / cm^3
# Si number density = 19.772191 Si / 1000 Ang^3
#
#
#
# Elastic Constant Matrix: (Units=GPa)
#
#
# Indices 1 2 3 4 5 6 
#
# 1 135.8799 36.1940 32.8602 0.0000 -1.4351 0.0000
# 2 36.1940 121.6426 50.6217 0.0000 -8.7938 0.0000
# 3 32.8602 50.6217 47.4925 0.0000 -3.8932 0.0000
# 4 0.0000 0.0000 0.0000 23.8583 0.0000 -9.2642
# 5 -1.4351 -8.7938 -3.8932 0.0000 24.5288 0.0000
# 6 0.0000 0.0000 0.0000 -9.2642 0.0000 35.5578
#
#
#
# Elastic Compliance Matrix: (Units=1/GPa)
#
#
# Indices 1 2 3 4 5 6 
#
# 1 0.008846 -0.000187 -0.005962 0.000000 -0.000496 0.000000
# 2 -0.000187 0.014975 -0.015596 0.000000 0.002882 0.000000
# 3 -0.005962 -0.015596 0.041863 0.000000 0.000704 0.000000
# 4 0.000000 0.000000 0.000000 0.046632 0.000000 0.012149
# 5 -0.000496 0.002882 0.000704 0.000000 0.041885 0.000000
# 6 0.000000 0.000000 0.000000 0.012149 0.000000 0.031289
#
#
# Mechanical properties :
#
#
# Convention : Reuss Voigt Hill
#
# Bulk Modulus (GPa) = 45.05821 60.48521 52.77171
# Shear Modulus (GPa) = 21.15266 29.14491 25.14879
#
# Velocity S-wave (km/s) = 3.27436 3.84348 3.57028
# Velocity P-wave (km/s) = 6.09372 7.09605 6.61390
#
# Compressibility (1/GPa) = 0.02219352
#
# Stress axis : x y z
#
# Youngs Moduli (GPa) = 113.04856 66.77711 23.88753
#
# Poissons Ratio (x) = 0.01247 0.14242
# Poissons Ratio (y) = 0.02111 0.37256
# Poissons Ratio (z) = 0.67400 1.04148
#
# Static dielectric constant tensor:
#      x y z
#    x 3.795380 0.000000 0.028420 
#    y 0.000000 4.279780 0.000000 
#    z 0.028420 0.000000 3.099200 
# 
# 
# High freq. dielectric constant tensor:
#      x y z
#    x 1.798060 0.000000 0.001520 
#    y 0.000000 1.792550 0.000000 
#    z 0.001520 0.000000 1.705070 
# 
# From -- ./inp_files/34575.got.cif
#   From: 2010.06.25/outbox.cif.g09.slc.cpg/sg12_18_cif.got.tgz:34575.got - 2010.06.28 00:19:55.
