data_PCOD8114496
_publ_section_title
;
Structure prediction by ZEFSAII (Michael W. Deem and Ramdas Pophale) SiO2 
 PCOD8114496
Probable space group: C 2/M
;
_chemical_formula_sum "Si O2"
_cell_formula_units_Z 48
_cell_length_a 11.709952
_cell_length_b 18.087548
_cell_length_c 12.248230
_cell_angle_alpha 90.000000
_cell_angle_beta 109.507815
_cell_angle_gamma 90.000000
_cell_volume 2445.308823
_symmetry_space_group_name_H-M "C 2/M"
_symmetry_group_IT_number 12
_symmetry_cell_setting 'monoclinic'
loop_
_space_group_symop_operation_xyz
x,y,z
-x,y,-z
-x,-y,-z
x,-y,z
1/2+x,1/2+y,z
1/2-x,1/2+y,-z
1/2-x,1/2-y,-z
1/2+x,1/2-y,z
loop_
_atom_site_type_symbol
_atom_site_label
_atom_site_fract_x
_atom_site_fract_y
_atom_site_fract_z
Si Si1 0.544871 0.652633 0.395969
Si Si2 0.137318 0.586434 0.016898
Si Si3 0.860047 0.655081 0.212846
Si Si4 0.783419 0.584176 0.410428
Si Si5 0.707014 0.316816 0.771068
Si Si6 0.122405 0.686965 0.375216
O O1 0.500000 0.628690 0.500000
O O2 0.639723 0.592376 0.383786
O O3 0.431382 0.655512 0.277881
O O4 0.614022 0.731325 0.423404
O O5 0.161383 0.500000 0.041409
O O6 0.223328 0.630211 0.125540
O O7 0.169470 0.609234 0.904574
O O8 0.000000 0.607860 0.000000
O O9 0.811376 0.607521 0.296921
O O10 0.788896 0.732839 0.184276
O O11 0.003463 0.667262 0.268523
O O12 0.821496 0.500000 0.440736
O O13 0.863639 0.631471 0.519705
O O14 0.762721 0.319703 0.667532
#
# Coordination Sequence:
#
# PCOD8114496 Si02
#       6
#     8   8   8   8   8   8
#     4  11  22  40  64  90 125 167 206 250 303 368
#     4  11  24  42  64  91 125 161 204 259 314 365
#     4  11  23  42  66  91 123 163 210 257 305 363
#     4  12  25  39  61  95 132 164 200 250 314 372
#     4  11  22  41  68  92 122 162 212 259 299 366
#     4  11  21  40  66  93 124 159 209 259 301 362
#
# _framework density 19.629422999999999
#
# number of rings (size 3 to 8) (size 9 to 14) (size 15 to 20)
#    0.000    0.833    5.000    4.000    0.000    3.667 
#    0.000    0.833    0.000    2.000    0.000    0.000 
#    0.000    0.000    0.000    0.000    0.000    0.000 
#
# Total GULP energy -297775.503461 kJ/mol
# GULP energy per Si atom -12407.312644 kJ/mol
# Density = 1.958475 g / cm^3
# Si number density = 19.629423 Si / 1000 Ang^3
#
#
#
# Elastic Constant Matrix: (Units=GPa)
#
#
# Indices 1 2 3 4 5 6 
#
# 1 65.4321 29.3794 30.6958 0.0000 -7.6170 0.0000
# 2 29.3794 115.5950 57.7302 0.0000 6.5528 0.0000
# 3 30.6958 57.7302 114.8776 0.0000 -8.0627 0.0000
# 4 0.0000 0.0000 0.0000 26.7376 0.0000 1.3129
# 5 -7.6170 6.5528 -8.0627 0.0000 32.2506 0.0000
# 6 0.0000 0.0000 0.0000 1.3129 0.0000 8.1320
#
#
#
# Elastic Compliance Matrix: (Units=1/GPa)
#
#
# Indices 1 2 3 4 5 6 
#
# 1 0.018766 -0.003567 -0.002911 0.000000 0.004429 0.000000
# 2 -0.003567 0.012721 -0.005782 0.000000 -0.004873 0.000000
# 3 -0.002911 -0.005782 0.012644 0.000000 0.003648 0.000000
# 4 0.000000 0.000000 0.000000 0.037699 0.000000 -0.006086
# 5 0.004429 -0.004873 0.003648 0.000000 0.033955 0.000000
# 6 0.000000 0.000000 0.000000 -0.006086 0.000000 0.123954
#
#
# Mechanical properties :
#
#
# Convention : Reuss Voigt Hill
#
# Bulk Modulus (GPa) = 50.98869 59.05726 55.02297
# Shear Modulus (GPa) = 18.46408 25.29732 21.88070
#
# Velocity S-wave (km/s) = 3.07030 3.59380 3.34232
# Velocity P-wave (km/s) = 6.21297 6.88273 6.55641
#
# Compressibility (1/GPa) = 0.01961219
#
# Stress axis : x y z
#
# Youngs Moduli (GPa) = 53.28871 78.60941 79.08659
#
# Poissons Ratio (x) = 0.28038 0.23022
# Poissons Ratio (y) = 0.19006 0.45726
# Poissons Ratio (z) = 0.15513 0.45450
#
# Static dielectric constant tensor:
#      x y z
#    x 3.808730 0.000000 -0.017690 
#    y 0.000000 3.511410 0.000000 
#    z -0.017690 0.000000 3.459530 
# 
# 
# High freq. dielectric constant tensor:
#      x y z
#    x 1.779080 0.000000 -0.001350 
#    y 0.000000 1.761520 0.000000 
#    z -0.001350 0.000000 1.764940 
# 
# From -- ./inp_files/131015.got.cif
#   From: 2010.06.25/outbox.cif.g09.slc.cpg/sg12_66_cif.got.tgz:131015.got - 2010.06.28 00:19:55.
