data_PCOD8114910
_publ_section_title
;
Structure prediction by ZEFSAII (Michael W. Deem and Ramdas Pophale) SiO2 
 PCOD8114910
Probable space group: C 2/M
;
_chemical_formula_sum "Si O2"
_cell_formula_units_Z 56
_cell_length_a 8.950732
_cell_length_b 15.604153
_cell_length_c 18.574235
_cell_angle_alpha 90.000000
_cell_angle_beta 89.210262
_cell_angle_gamma 90.000000
_cell_volume 2593.990812
_symmetry_space_group_name_H-M "C 2/M"
_symmetry_group_IT_number 12
_symmetry_cell_setting 'monoclinic'
loop_
_space_group_symop_operation_xyz
x,y,z
-x,y,-z
-x,-y,-z
x,-y,z
1/2+x,1/2+y,z
1/2-x,1/2+y,-z
1/2-x,1/2-y,-z
1/2+x,1/2-y,z
loop_
_atom_site_type_symbol
_atom_site_label
_atom_site_fract_x
_atom_site_fract_y
_atom_site_fract_z
Si Si1 0.797597 0.000000 0.932835
Si Si2 0.205392 0.332273 0.161070
Si Si3 0.852239 0.343165 0.140545
Si Si4 0.353264 0.094229 0.293206
Si Si5 0.655309 0.655255 0.408122
Si Si6 0.667842 0.596583 0.559303
Si Si7 0.347056 0.828304 0.673315
Si Si8 0.362465 0.500000 0.099722
O O1 0.703660 0.914346 0.915395
O O2 0.957884 0.000000 0.891447
O O3 0.819161 0.000000 0.017277
O O4 0.281036 0.249535 0.122556
O O5 0.225084 0.324586 0.247097
O O6 0.294658 0.416179 0.137221
O O7 0.032459 0.338637 0.138626
O O8 0.789201 0.371243 0.218524
O O9 0.221954 0.085698 0.352319
O O10 0.476608 0.159851 0.321613
O O11 0.423622 0.000000 0.279458
O O12 0.729492 0.644035 0.486789
O O13 0.479248 0.644682 0.413209
O O14 0.696229 0.745839 0.372954
O O15 0.629519 0.500000 0.537017
O O16 0.783083 0.594722 0.624826
#
# Coordination Sequence:
#
# PCOD8114910 Si02
#       8
#     4   8   8   8   8   8   8   4
#     4  11  25  49  75 107 142 187 224 273 351 410
#     4  11  25  43  69 106 141 182 233 287 341 414
#     4  11  23  43  70 103 144 181 231 281 345 413
#     4  11  22  39  62  93 126 169 217 278 333 402
#     4  11  22  41  59  87 125 169 222 273 338 404
#     4  11  24  40  60  89 124 173 222 282 344 405
#     4  11  24  39  62  90 128 167 220 275 338 399
#     4  11  27  47  75 107 144 183 230 277 335 422
#
# _framework density 21.588356999999998
#
# number of rings (size 3 to 8) (size 9 to 14) (size 15 to 20)
#    0.000    1.000    2.143    4.714    6.000    4.571 
#    0.000    1.429    0.000    0.000    0.000    0.000 
#    0.000    0.000    0.000    0.000    0.000    0.000 
#
# Total GULP energy -347200.392081 kJ/mol
# GULP energy per Si atom -12400.014003 kJ/mol
# Density = 2.153922 g / cm^3
# Si number density = 21.588357 Si / 1000 Ang^3
#
#
#
# Elastic Constant Matrix: (Units=GPa)
#
#
# Indices 1 2 3 4 5 6 
#
# 1 70.1416 39.0427 31.6338 0.0000 0.8795 0.0000
# 2 39.0427 153.9877 41.3281 0.0000 -1.2391 0.0000
# 3 31.6338 41.3281 84.5762 0.0000 4.8219 0.0000
# 4 0.0000 0.0000 0.0000 26.3840 0.0000 1.1523
# 5 0.8795 -1.2391 4.8219 0.0000 37.5907 0.0000
# 6 0.0000 0.0000 0.0000 1.1523 0.0000 32.3997
#
#
#
# Elastic Compliance Matrix: (Units=1/GPa)
#
#
# Indices 1 2 3 4 5 6 
#
# 1 0.018467 -0.003252 -0.005327 0.000000 0.000144 0.000000
# 2 -0.003252 0.008066 -0.002765 0.000000 0.000697 0.000000
# 3 -0.005327 -0.002765 0.015277 0.000000 -0.001926 0.000000
# 4 0.000000 0.000000 0.000000 0.037961 0.000000 -0.001350
# 5 0.000144 0.000697 -0.001926 0.000000 0.026869 0.000000
# 6 0.000000 0.000000 0.000000 -0.001350 0.000000 0.030913
#
#
# Mechanical properties :
#
#
# Convention : Reuss Voigt Hill
#
# Bulk Modulus (GPa) = 52.29060 59.19051 55.74055
# Shear Modulus (GPa) = 30.00957 32.38828 31.19892
#
# Velocity S-wave (km/s) = 3.73242 3.87753 3.80567
# Velocity P-wave (km/s) = 6.54591 6.89379 6.72210
#
# Compressibility (1/GPa) = 0.01912390
#
# Stress axis : x y z
#
# Youngs Moduli (GPa) = 54.14996 123.97507 65.45819
#
# Poissons Ratio (x) = 0.40311 0.34867
# Poissons Ratio (y) = 0.17607 0.18100
# Poissons Ratio (z) = 0.28844 0.34280
#
# Static dielectric constant tensor:
#      x y z
#    x 3.731930 0.000000 0.008100 
#    y 0.000000 3.930600 0.000000 
#    z 0.008100 0.000000 4.002690 
# 
# 
# High freq. dielectric constant tensor:
#      x y z
#    x 1.843260 0.000000 0.001400 
#    y 0.000000 1.863010 0.000000 
#    z 0.001400 0.000000 1.850080 
# 
# From -- ./inp_files/300204.got.cif
#   From: 2010.06.25/outbox.cif.g09.slc.cpg/sg12_151_cif.got.tgz:300204.got - 2010.06.28 00:19:55.
