data_PCOD8114087
_publ_section_title
;
Structure prediction by ZEFSAII (Michael W. Deem and Ramdas Pophale) SiO2 
 PCOD8114087
Probable space group: C 2/M
;
_chemical_formula_sum "Si O2"
_cell_formula_units_Z 64
_cell_length_a 30.716780
_cell_length_b 9.003853
_cell_length_c 14.594825
_cell_angle_alpha 90.000000
_cell_angle_beta 131.276198
_cell_angle_gamma 90.000000
_cell_volume 3033.570298
_symmetry_space_group_name_H-M "C 2/M"
_symmetry_group_IT_number 12
_symmetry_cell_setting 'monoclinic'
loop_
_space_group_symop_operation_xyz
x,y,z
-x,y,-z
-x,-y,-z
x,-y,z
1/2+x,1/2+y,z
1/2-x,1/2+y,-z
1/2-x,1/2-y,-z
1/2+x,1/2-y,z
loop_
_atom_site_type_symbol
_atom_site_label
_atom_site_fract_x
_atom_site_fract_y
_atom_site_fract_z
Si Si1 0.799445 0.830827 0.439912
Si Si2 0.946554 0.325909 0.866542
Si Si3 0.305407 0.175684 0.946278
Si Si4 0.325751 0.822450 0.773197
Si Si5 0.320909 0.667748 0.255259
Si Si6 0.006910 0.824535 0.403842
Si Si7 0.912268 0.673230 0.621211
Si Si8 0.106812 0.675206 0.780708
O O1 0.733120 0.772231 0.363148
O O2 0.813002 0.819994 0.351628
O O3 0.846900 0.727055 0.555583
O O4 0.806488 0.000000 0.484414
O O5 0.944662 0.500000 0.884580
O O6 0.884436 0.257681 0.810268
O O7 0.953146 0.295472 0.766835
O O8 0.000000 0.256195 0.000000
O O9 0.324428 0.241519 0.874565
O O10 0.239078 0.218455 0.876246
O O11 0.311310 0.000000 0.949931
O O12 0.346903 0.238664 0.082489
O O13 0.324603 0.000000 0.772695
O O14 0.338269 0.500000 0.251870
O O15 0.371955 0.774958 0.290779
O O16 0.953185 0.752694 0.275682
O O17 0.000000 0.775774 0.500000
O O18 0.064496 0.760891 0.435526
O O19 0.008143 0.000000 0.395156
O O20 0.910494 0.500000 0.595658
O O21 0.098268 0.500000 0.772246
#
# Coordination Sequence:
#
# PCOD8114087 Si02
#       8
#     8   8   8   8   8   8   8   8
#     4   9  18  34  57  81 109 151 193 228 272 337
#     4   9  19  34  56  87 119 150 187 235 284 335
#     4   8  16  29  49  78 110 144 185 231 274 328
#     4   8  15  31  55  81 111 149 192 228 268 331
#     4   9  17  32  51  75 109 151 192 224 270 338
#     4  11  25  43  59  76 105 151 196 230 276 345
#     4  11  23  37  58  90 117 143 186 242 293 333
#     4  11  21  31  51  82 110 139 182 239 292 330
#
# _framework density 21.097254
#
# number of rings (size 3 to 8) (size 9 to 14) (size 15 to 20)
#    0.000    2.500    0.000    3.750    1.750    5.000 
#    0.000    0.625    0.000    3.750    0.000    0.000 
#    0.000    0.000    0.000    0.000    0.000    0.000 
#
# Total GULP energy -396637.409025 kJ/mol
# GULP energy per Si atom -12394.919032 kJ/mol
# Density = 2.104924 g / cm^3
# Si number density = 21.097254 Si / 1000 Ang^3
#
#
#
# Elastic Constant Matrix: (Units=GPa)
#
#
# Indices 1 2 3 4 5 6 
#
# 1 98.3922 28.2477 32.3626 0.0000 20.1762 0.0000
# 2 28.2477 55.2362 30.9048 0.0000 4.7792 0.0000
# 3 32.3626 30.9048 103.7810 0.0000 22.4873 0.0000
# 4 0.0000 0.0000 0.0000 24.0982 0.0000 7.8946
# 5 20.1762 4.7792 22.4873 0.0000 32.7318 0.0000
# 6 0.0000 0.0000 0.0000 7.8946 0.0000 18.2010
#
#
#
# Elastic Compliance Matrix: (Units=1/GPa)
#
#
# Indices 1 2 3 4 5 6 
#
# 1 0.013553 -0.005763 -0.001037 0.000000 -0.006801 0.000000
# 2 -0.005763 0.024236 -0.006372 0.000000 0.004391 0.000000
# 3 -0.001037 -0.006372 0.013531 0.000000 -0.007726 0.000000
# 4 0.000000 0.000000 0.000000 0.048370 0.000000 -0.020980
# 5 -0.006801 0.004391 -0.007726 0.000000 0.039410 0.000000
# 6 0.000000 0.000000 0.000000 -0.020980 0.000000 0.064042
#
#
# Mechanical properties :
#
#
# Convention : Reuss Voigt Hill
#
# Bulk Modulus (GPa) = 40.03552 48.93774 44.48663
# Shear Modulus (GPa) = 21.02511 26.06582 23.54546
#
# Velocity S-wave (km/s) = 3.16029 3.51879 3.34435
# Velocity P-wave (km/s) = 5.68634 6.30522 6.00376
#
# Compressibility (1/GPa) = 0.02497782
#
# Stress axis : x y z
#
# Youngs Moduli (GPa) = 73.78211 41.26067 73.90699
#
# Poissons Ratio (x) = 0.23777 0.07662
# Poissons Ratio (y) = 0.42518 0.47091
# Poissons Ratio (z) = 0.07650 0.26290
#
# Static dielectric constant tensor:
#      x y z
#    x 3.930030 0.000000 0.295540 
#    y 0.000000 3.325600 0.000000 
#    z 0.295540 0.000000 4.234400 
# 
# 
# High freq. dielectric constant tensor:
#      x y z
#    x 1.830550 0.000000 0.011750 
#    y 0.000000 1.776480 0.000000 
#    z 0.011750 0.000000 1.837750 
# 
# From -- ./inp_files/250030.got.cif
#   From: 2010.06.25/outbox.cif.g09.slc.cpg/sg12_126_cif.got.tgz:250030.got - 2010.06.28 00:19:55.
