data_PCOD8114095
_publ_section_title
;
Structure prediction by ZEFSAII (Michael W. Deem and Ramdas Pophale) SiO2 
 PCOD8114095
Probable space group: C 2/M
;
_chemical_formula_sum "Si O2"
_cell_formula_units_Z 64
_cell_length_a 25.520038
_cell_length_b 9.030346
_cell_length_c 16.999275
_cell_angle_alpha 90.000000
_cell_angle_beta 90.144478
_cell_angle_gamma 90.000000
_cell_volume 3917.551608
_symmetry_space_group_name_H-M "C 2/M"
_symmetry_group_IT_number 12
_symmetry_cell_setting 'monoclinic'
loop_
_space_group_symop_operation_xyz
x,y,z
-x,y,-z
-x,-y,-z
x,-y,z
1/2+x,1/2+y,z
1/2-x,1/2+y,-z
1/2-x,1/2-y,-z
1/2+x,1/2-y,z
loop_
_atom_site_type_symbol
_atom_site_label
_atom_site_fract_x
_atom_site_fract_y
_atom_site_fract_z
Si Si1 0.436778 0.329475 0.330256
Si Si2 0.057194 0.825043 0.499862
Si Si3 0.004841 0.827179 0.091644
Si Si4 0.597322 0.173368 0.178441
Si Si5 0.590937 0.175249 0.822254
Si Si6 0.702519 0.827929 0.092934
Si Si7 0.192931 0.325879 0.914614
Si Si8 0.438274 0.329479 0.670353
O O1 0.422872 0.500000 0.312408
O O2 0.414977 0.280876 0.417395
O O3 0.406993 0.225812 0.268309
O O4 0.499289 0.306009 0.325598
O O5 0.084372 0.782368 0.416642
O O6 0.000000 0.749813 0.500000
O O7 0.049552 0.000000 0.500592
O O8 0.958471 0.748149 0.136785
O O9 0.059670 0.762553 0.120432
O O10 0.002730 0.000000 0.111805
O O11 0.000000 0.794464 0.000000
O O12 0.656378 0.210556 0.153117
O O13 0.590352 0.223866 0.268084
O O14 0.584923 0.000000 0.170364
O O15 0.643167 0.232505 0.865666
O O16 0.585074 0.000000 0.827519
O O17 0.754486 0.743739 0.121606
O O18 0.715862 0.000000 0.092497
O O19 0.685794 0.776168 0.005234
O O20 0.197776 0.500000 0.906300
O O21 0.424549 0.500000 0.689233
#
# Coordination Sequence:
#
# PCOD8114095 Si02
#       8
#     8   8   8   8   8   8   8   8
#     4   9  16  28  46  68  96 128 163 195 227 275
#     4   7  12  24  43  65  90 125 161 194 229 267
#     4  11  23  35  47  66  93 128 167 197 226 275
#     4  11  21  32  48  71 100 128 154 191 243 289
#     4  11  21  32  48  71 100 128 154 191 243 289
#     4   9  19  35  52  69  90 120 159 200 240 281
#     4   9  19  35  52  69  90 120 159 200 240 281
#     4   9  16  28  46  68  96 128 163 195 227 275
#
# _framework density 16.336734
#
# number of rings (size 3 to 8) (size 9 to 14) (size 15 to 20)
#    0.000    2.500    1.250    3.375    0.000    4.000 
#    0.000    3.125    0.000    2.250    0.000    0.875 
#    0.000    0.000    0.000    0.000    0.000    0.000 
#
# Total GULP energy -396625.334516 kJ/mol
# GULP energy per Si atom -12394.541704 kJ/mol
# Density = 1.629955 g / cm^3
# Si number density = 16.336734 Si / 1000 Ang^3
#
#
#
# Elastic Constant Matrix: (Units=GPa)
#
#
# Indices 1 2 3 4 5 6 
#
# 1 29.7237 3.9937 16.9970 0.0000 -3.2288 0.0000
# 2 3.9937 34.1996 25.9287 0.0000 -0.3788 0.0000
# 3 16.9970 25.9287 103.6254 0.0000 0.5100 0.0000
# 4 0.0000 0.0000 0.0000 22.1573 0.0000 -0.0749
# 5 -3.2288 -0.3788 0.5100 0.0000 14.5972 0.0000
# 6 0.0000 0.0000 0.0000 -0.0749 0.0000 24.3145
#
#
#
# Elastic Compliance Matrix: (Units=1/GPa)
#
#
# Indices 1 2 3 4 5 6 
#
# 1 0.038199 0.000516 -0.006437 0.000000 0.008688 0.000000
# 2 0.000516 0.036116 -0.009128 0.000000 0.001370 0.000000
# 3 -0.006437 -0.009128 0.013000 0.000000 -0.002115 0.000000
# 4 0.000000 0.000000 0.000000 0.045132 0.000000 0.000139
# 5 0.008688 0.001370 -0.002115 0.000000 0.070537 0.000000
# 6 0.000000 0.000000 0.000000 0.000139 0.000000 0.041128
#
#
# Mechanical properties :
#
#
# Convention : Reuss Voigt Hill
#
# Bulk Modulus (GPa) = 17.47764 29.04305 23.26034
# Shear Modulus (GPa) = 17.04838 20.25576 18.65207
#
# Velocity S-wave (km/s) = 3.23392 3.52503 3.38261
# Velocity P-wave (km/s) = 4.96648 5.86380 5.43369
#
# Compressibility (1/GPa) = 0.05721598
#
# Stress axis : x y z
#
# Youngs Moduli (GPa) = 26.17892 27.68894 76.92065
#
# Poissons Ratio (x) = -0.01429 0.49517
# Poissons Ratio (y) = -0.01351 0.70214
# Poissons Ratio (z) = 0.16852 0.25275
#
# Static dielectric constant tensor:
#      x y z
#    x 2.880600 0.000000 0.126390 
#    y 0.000000 2.989510 0.000000 
#    z 0.126390 0.000000 3.514560 
# 
# 
# High freq. dielectric constant tensor:
#      x y z
#    x 1.591710 0.000000 0.004540 
#    y 0.000000 1.621480 0.000000 
#    z 0.004540 0.000000 1.639670 
# 
# From -- ./inp_files/287546.got.cif
#   From: 2010.06.25/outbox.cif.g09.slc.cpg/sg12_144_cif.got.tgz:287546.got - 2010.06.28 00:19:55.
