data_PCOD8114197
_publ_section_title
;
Structure prediction by ZEFSAII (Michael W. Deem and Ramdas Pophale) SiO2 
 PCOD8114197
Probable space group: C 2/M
;
_chemical_formula_sum "Si O2"
_cell_formula_units_Z 56
_cell_length_a 16.818623
_cell_length_b 24.667760
_cell_length_c 8.563632
_cell_angle_alpha 90.000000
_cell_angle_beta 59.391186
_cell_angle_gamma 90.000000
_cell_volume 3057.818032
_symmetry_space_group_name_H-M "C 2/M"
_symmetry_group_IT_number 12
_symmetry_cell_setting 'monoclinic'
loop_
_space_group_symop_operation_xyz
x,y,z
-x,y,-z
-x,-y,-z
x,-y,z
1/2+x,1/2+y,z
1/2-x,1/2+y,-z
1/2-x,1/2-y,-z
1/2+x,1/2-y,z
loop_
_atom_site_type_symbol
_atom_site_label
_atom_site_fract_x
_atom_site_fract_y
_atom_site_fract_z
Si Si1 0.825172 0.610571 0.491274
Si Si2 0.500001 0.837899 0.173336
Si Si3 0.999997 0.211647 0.173156
Si Si4 0.803408 0.802254 0.512682
Si Si5 0.606503 0.000000 0.709138
Si Si6 0.106500 0.500000 0.077859
Si Si7 0.325169 0.889428 0.858389
Si Si8 0.803411 0.802253 0.880500
O O1 0.737262 0.641116 0.508238
O O2 0.836846 0.551293 0.407971
O O3 0.813281 0.605568 0.686721
O O4 0.912839 0.646506 0.362100
O O5 0.499988 0.775017 0.147378
O O6 0.587175 0.853484 0.187751
O O7 0.500000 0.866336 0.000000
O O8 0.089863 0.195052 0.179685
O O9 0.910133 0.195047 0.359412
O O10 0.000000 0.184504 0.000000
O O11 0.750000 0.750000 0.500000
O O12 0.792471 0.799250 0.707529
O O13 0.500001 0.000000 0.752647
O O14 0.605909 0.000000 0.894091
O O15 0.163149 0.448706 0.081664
O O16 0.237252 0.858886 0.017246
O O17 0.750000 0.750000 0.000000
#
# Coordination Sequence:
#
# PCOD8114197 Si02
#       8
#     8   8   8   8   4   4   8   8
#     4  12  24  38  59  87 121 158 200 245 295 354
#     4  11  21  34  56  85 121 159 197 242 292 351
#     4  11  23  39  60  87 121 158 200 246 296 352
#     4  12  24  39  60  87 120 159 200 244 298 354
#     4  11  23  39  61  86 120 159 198 244 298 353
#     4  11  23  39  61  86 120 159 198 244 298 353
#     4  12  24  38  59  87 121 158 200 245 295 354
#     4  12  24  39  60  87 120 159 200 244 298 354
#
# _framework density 18.313713
#
# number of rings (size 3 to 8) (size 9 to 14) (size 15 to 20)
#    0.000    0.429    4.286    6.429    0.000    1.714 
#    0.000    0.000    0.000    0.857    0.000    6.000 
#    0.000    0.000    0.000    0.000    0.000    0.000 
#
# Total GULP energy -347254.674407 kJ/mol
# GULP energy per Si atom -12401.952657 kJ/mol
# Density = 1.827203 g / cm^3
# Si number density = 18.313713 Si / 1000 Ang^3
#
#
#
# Elastic Constant Matrix: (Units=GPa)
#
#
# Indices 1 2 3 4 5 6 
#
# 1 127.8443 60.2936 57.7496 0.0000 -0.6052 0.0000
# 2 60.2936 122.8517 57.0058 0.0000 -3.7085 0.0000
# 3 57.7496 57.0058 135.8490 0.0000 9.6334 0.0000
# 4 0.0000 0.0000 0.0000 29.6463 0.0000 3.4167
# 5 -0.6052 -3.7085 9.6334 0.0000 46.3221 0.0000
# 6 0.0000 0.0000 0.0000 3.4167 0.0000 26.6227
#
#
#
# Elastic Compliance Matrix: (Units=1/GPa)
#
#
# Indices 1 2 3 4 5 6 
#
# 1 0.011102 -0.004011 -0.003069 0.000000 0.000462 0.000000
# 2 -0.004011 0.011693 -0.003313 0.000000 0.001573 0.000000
# 3 -0.003069 -0.003313 0.010229 0.000000 -0.002433 0.000000
# 4 0.000000 0.000000 0.000000 0.034237 0.000000 -0.004394
# 5 0.000462 0.001573 -0.002433 0.000000 0.022226 0.000000
# 6 0.000000 0.000000 0.000000 -0.004394 0.000000 0.038126
#
#
# Mechanical properties :
#
#
# Convention : Reuss Voigt Hill
#
# Bulk Modulus (GPa) = 81.71635 81.84922 81.78278
# Shear Modulus (GPa) = 32.79141 34.61796 33.70468
#
# Velocity S-wave (km/s) = 4.23607 4.35245 4.29465
# Velocity P-wave (km/s) = 8.28510 8.36948 8.32740
#
# Compressibility (1/GPa) = 0.01223745
#
# Stress axis : x y z
#
# Youngs Moduli (GPa) = 90.07273 85.52002 97.76305
#
# Poissons Ratio (x) = 0.34298 0.30007
# Poissons Ratio (y) = 0.36124 0.32393
# Poissons Ratio (z) = 0.27647 0.28336
#
# Static dielectric constant tensor:
#      x y z
#    x 3.953660 0.000000 -0.214830 
#    y 0.000000 3.428730 0.000000 
#    z -0.214830 0.000000 3.765000 
# 
# 
# High freq. dielectric constant tensor:
#      x y z
#    x 1.713670 0.000000 0.014040 
#    y 0.000000 1.701590 0.000000 
#    z 0.014040 0.000000 1.726120 
# 
# From -- ./inp_files/65827.got.cif
#   From: 2010.06.25/outbox.cif.g09.slc.cpg/sg12_33_cif.got.tgz:65827.got - 2010.06.28 00:19:55.
