data_PCOD8114057
_publ_section_title
;
Structure prediction by ZEFSAII (Michael W. Deem and Ramdas Pophale) SiO2 
 PCOD8114057
Probable space group: C 2/M
;
_chemical_formula_sum "Si O2"
_cell_formula_units_Z 36
_cell_length_a 11.433733
_cell_length_b 14.700988
_cell_length_c 10.443924
_cell_angle_alpha 90.000000
_cell_angle_beta 91.816244
_cell_angle_gamma 90.000000
_cell_volume 1754.607714
_symmetry_space_group_name_H-M "C 2/M"
_symmetry_group_IT_number 12
_symmetry_cell_setting 'monoclinic'
loop_
_space_group_symop_operation_xyz
x,y,z
-x,y,-z
-x,-y,-z
x,-y,z
1/2+x,1/2+y,z
1/2-x,1/2+y,-z
1/2-x,1/2-y,-z
1/2+x,1/2-y,z
loop_
_atom_site_type_symbol
_atom_site_label
_atom_site_fract_x
_atom_site_fract_y
_atom_site_fract_z
Si Si1 0.921072 0.161373 0.192340
Si Si2 0.376517 0.137498 0.249376
Si Si3 0.778478 0.000000 0.284061
Si Si4 0.545016 0.000000 0.144305
Si Si5 0.864718 0.500000 0.461690
Si Si6 0.848217 0.105282 0.918739
O O1 0.901204 0.256190 0.264740
O O2 0.059223 0.140977 0.183672
O O3 0.860359 0.087680 0.280497
O O4 0.862706 0.162477 0.049565
O O5 0.281546 0.118988 0.136489
O O6 0.497402 0.090108 0.212205
O O7 0.333603 0.091321 0.380090
O O8 0.685830 0.000000 0.161986
O O9 0.712116 0.000000 0.415152
O O10 0.500000 0.000000 0.000000
O O11 0.000000 0.500000 0.500000
O O12 0.874724 0.000000 0.951019
#
# Coordination Sequence:
#
# PCOD8114057 Si02
#       6
#     8   8   4   4   4   8
#     4  11  24  38  66 101 128 169 205 272 327 384
#     4  11  24  41  64  93 126 174 220 258 315 379
#     4  12  23  42  66  89 131 170 217 261 321 373
#     4  11  23  37  63  94 125 163 215 265 318 382
#     4  11  24  47  65  86 130 177 218 272 306 362
#     4  11  20  43  64  94 140 164 201 266 340 382
#
# _framework density 20.517406999999999
#
# number of rings (size 3 to 8) (size 9 to 14) (size 15 to 20)
#    0.000    0.889    6.667    2.667    6.222    0.889 
#    0.000    2.222    0.000    0.000    0.000    0.000 
#    0.000    0.000    0.000    0.000    0.000    0.000 
#
# Total GULP energy -223262.319195 kJ/mol
# GULP energy per Si atom -12403.462178 kJ/mol
# Density = 2.047071 g / cm^3
# Si number density = 20.517407 Si / 1000 Ang^3
#
#
#
# Elastic Constant Matrix: (Units=GPa)
#
#
# Indices 1 2 3 4 5 6 
#
# 1 59.2393 34.6611 1.0854 0.0000 -11.2664 0.0000
# 2 34.6611 182.2607 38.2557 0.0000 -17.9265 0.0000
# 3 1.0854 38.2557 75.1876 0.0000 -23.7451 0.0000
# 4 0.0000 0.0000 0.0000 18.1456 0.0000 3.9055
# 5 -11.2664 -17.9265 -23.7451 0.0000 39.1255 0.0000
# 6 0.0000 0.0000 0.0000 3.9055 0.0000 18.9675
#
#
#
# Elastic Compliance Matrix: (Units=1/GPa)
#
#
# Indices 1 2 3 4 5 6 
#
# 1 0.020374 -0.004043 0.003749 0.000000 0.006290 0.000000
# 2 -0.004043 0.006986 -0.003529 0.000000 -0.000105 0.000000
# 3 0.003749 -0.003529 0.018398 0.000000 0.010628 0.000000
# 4 0.000000 0.000000 0.000000 0.057665 0.000000 -0.011874
# 5 0.006290 -0.000105 0.010628 0.000000 0.033772 0.000000
# 6 0.000000 0.000000 0.000000 -0.011874 0.000000 0.055167
#
#
# Mechanical properties :
#
#
# Convention : Reuss Voigt Hill
#
# Bulk Modulus (GPa) = 26.23841 51.63243 38.93542
# Shear Modulus (GPa) = 23.50601 31.42675 27.46638
#
# Velocity S-wave (km/s) = 3.38843 3.91795 3.66278
# Velocity P-wave (km/s) = 5.30328 6.75921 6.07502
#
# Compressibility (1/GPa) = 0.03811207
#
# Stress axis : x y z
#
# Youngs Moduli (GPa) = 49.08291 143.14495 54.35298
#
# Poissons Ratio (x) = 0.57871 -0.20379
# Poissons Ratio (y) = 0.19843 0.19183
# Poissons Ratio (z) = -0.18403 0.50521
#
# Static dielectric constant tensor:
#      x y z
#    x 3.898530 0.000000 -0.122550 
#    y 0.000000 3.937020 0.000000 
#    z -0.122550 0.000000 3.659970 
# 
# 
# High freq. dielectric constant tensor:
#      x y z
#    x 1.811520 0.000000 -0.006950 
#    y 0.000000 1.803840 0.000000 
#    z -0.006950 0.000000 1.782700 
# 
# From -- ./inp_files/127898.got.cif
#   From: 2010.06.25/outbox.cif.g09.slc.cpg/sg12_64_cif.got.tgz:127898.got - 2010.06.28 00:19:55.
