data_PCOD8114403
_publ_section_title
;
Structure prediction by ZEFSAII (Michael W. Deem and Ramdas Pophale) SiO2 
 PCOD8114403
Probable space group: C 2/M
;
_chemical_formula_sum "Si O2"
_cell_formula_units_Z 56
_cell_length_a 23.750683
_cell_length_b 8.870594
_cell_length_c 14.050667
_cell_angle_alpha 90.000000
_cell_angle_beta 106.670458
_cell_angle_gamma 90.000000
_cell_volume 2835.815009
_symmetry_space_group_name_H-M "C 2/M"
_symmetry_group_IT_number 12
_symmetry_cell_setting 'monoclinic'
loop_
_space_group_symop_operation_xyz
x,y,z
-x,y,-z
-x,-y,-z
x,-y,z
1/2+x,1/2+y,z
1/2-x,1/2+y,-z
1/2-x,1/2-y,-z
1/2+x,1/2-y,z
loop_
_atom_site_type_symbol
_atom_site_label
_atom_site_fract_x
_atom_site_fract_y
_atom_site_fract_z
Si Si1 0.767439 0.678466 0.107822
Si Si2 0.911802 0.672234 0.519059
Si Si3 0.669070 0.320931 0.206839
Si Si4 0.387901 0.323709 0.154947
Si Si5 0.434142 0.320945 0.973983
Si Si6 0.037337 0.327792 0.659968
Si Si7 0.807865 0.822817 0.570250
O O1 0.765155 0.500000 0.096968
O O2 0.722684 0.735762 0.167131
O O3 0.832259 0.732452 0.168084
O O4 0.750000 0.750000 0.000000
O O5 0.889882 0.500000 0.517188
O O6 0.927257 0.711115 0.418332
O O7 0.861524 0.785403 0.527115
O O8 0.968395 0.698388 0.612211
O O9 0.668236 0.500000 0.208392
O O10 0.606816 0.262671 0.132959
O O11 0.678248 0.256868 0.317607
O O12 0.373863 0.500000 0.150334
O O13 0.443051 0.286150 0.248432
O O14 0.403190 0.268704 0.056272
O O15 0.438701 0.500000 0.974286
O O16 0.500000 0.251347 0.000000
O O17 0.049766 0.500000 0.696028
O O18 0.750000 0.750000 0.500000
O O19 0.798229 0.000000 0.570290
#
# Coordination Sequence:
#
# PCOD8114403 Si02
#       7
#     8   8   8   8   8   8   8
#     4  11  21  38  60  83 114 152 193 237 285 345
#     4   9  20  41  63  83 114 156 197 240 297 357
#     4   9  20  38  58  81 112 156 197 230 288 356
#     4  11  22  35  58  91 118 147 193 243 289 344
#     4   9  18  34  57  84 117 153 189 230 282 350
#     4   9  20  39  62  85 115 156 194 235 297 362
#     4  11  24  40  61  87 117 156 202 248 294 351
#
# _framework density 19.747409999999999
#
# number of rings (size 3 to 8) (size 9 to 14) (size 15 to 20)
#    0.000    2.143    1.429    2.143    4.000    1.143 
#    0.000    3.571    0.000    1.714    0.000    0.000 
#    0.000    0.000    0.000    0.000    0.000    0.000 
#
# Total GULP energy -347235.984485 kJ/mol
# GULP energy per Si atom -12401.285160 kJ/mol
# Density = 1.970246 g / cm^3
# Si number density = 19.747410 Si / 1000 Ang^3
#
#
#
# Elastic Constant Matrix: (Units=GPa)
#
#
# Indices 1 2 3 4 5 6 
#
# 1 135.9636 30.2029 49.6430 0.0000 8.9109 0.0000
# 2 30.2029 47.0823 27.5824 0.0000 1.1764 0.0000
# 3 49.6430 27.5824 128.7019 0.0000 16.8680 0.0000
# 4 0.0000 0.0000 0.0000 30.9324 0.0000 3.0139
# 5 8.9109 1.1764 16.8680 0.0000 26.8494 0.0000
# 6 0.0000 0.0000 0.0000 3.0139 0.0000 30.8440
#
#
#
# Elastic Compliance Matrix: (Units=1/GPa)
#
#
# Indices 1 2 3 4 5 6 
#
# 1 0.009346 -0.004521 -0.002458 0.000000 -0.001360 0.000000
# 2 -0.004521 0.026620 -0.004364 0.000000 0.003076 0.000000
# 3 -0.002458 -0.004364 0.010375 0.000000 -0.005511 0.000000
# 4 0.000000 0.000000 0.000000 0.032639 0.000000 -0.003189
# 5 -0.001360 0.003076 -0.005511 0.000000 0.041024 0.000000
# 6 0.000000 0.000000 0.000000 -0.003189 0.000000 0.032733
#
#
# Mechanical properties :
#
#
# Convention : Reuss Voigt Hill
#
# Bulk Modulus (GPa) = 42.27518 58.51160 50.39339
# Shear Modulus (GPa) = 27.27649 31.34645 29.31147
#
# Velocity S-wave (km/s) = 3.72058 3.98850 3.85687
# Velocity P-wave (km/s) = 6.31754 7.13479 6.73857
#
# Compressibility (1/GPa) = 0.02365454
#
# Stress axis : x y z
#
# Youngs Moduli (GPa) = 107.00042 37.56629 96.38114
#
# Poissons Ratio (x) = 0.16986 0.23687
# Poissons Ratio (y) = 0.48380 0.42061
# Poissons Ratio (z) = 0.26297 0.16394
#
# Static dielectric constant tensor:
#      x y z
#    x 3.836140 0.000000 0.064060 
#    y 0.000000 3.272650 0.000000 
#    z 0.064060 0.000000 3.764010 
# 
# 
# High freq. dielectric constant tensor:
#      x y z
#    x 1.780240 0.000000 0.006640 
#    y 0.000000 1.739090 0.000000 
#    z 0.006640 0.000000 1.779380 
# 
# From -- ./inp_files/237833.got.cif
#   From: 2010.06.25/outbox.cif.g09.slc.cpg/sg12_119_cif.got.tgz:237833.got - 2010.06.28 00:19:55.
