data_PCOD8114645
_publ_section_title
;
Structure prediction by ZEFSAII (Michael W. Deem and Ramdas Pophale) SiO2 
 PCOD8114645
Probable space group: C 2/M
;
_chemical_formula_sum "Si O2"
_cell_formula_units_Z 40
_cell_length_a 18.240405
_cell_length_b 9.112771
_cell_length_c 19.127780
_cell_angle_alpha 90.000000
_cell_angle_beta 137.530518
_cell_angle_gamma 90.000000
_cell_volume 2146.744054
_symmetry_space_group_name_H-M "C 2/M"
_symmetry_group_IT_number 12
_symmetry_cell_setting 'monoclinic'
loop_
_space_group_symop_operation_xyz
x,y,z
-x,y,-z
-x,-y,-z
x,-y,z
1/2+x,1/2+y,z
1/2-x,1/2+y,-z
1/2-x,1/2-y,-z
1/2+x,1/2-y,z
loop_
_atom_site_type_symbol
_atom_site_label
_atom_site_fract_x
_atom_site_fract_y
_atom_site_fract_z
Si Si1 0.283438 0.173557 0.594646
Si Si2 0.499531 0.333547 0.223897
Si Si3 0.880469 0.825758 0.400912
Si Si4 0.822423 0.168938 0.994962
Si Si5 0.190018 0.828948 0.799544
O O1 0.250000 0.250000 0.500000
O O2 0.403270 0.219614 0.702035
O O3 0.199965 0.227576 0.595092
O O4 0.279005 0.000000 0.581452
O O5 0.542062 0.500000 0.264435
O O6 0.446728 0.316206 0.109169
O O7 0.412185 0.296719 0.222422
O O8 0.837628 0.766491 0.296477
O O9 0.000000 0.760490 0.500000
O O10 0.886789 0.000000 0.402191
O O11 0.787485 0.000000 0.966884
O O12 0.750000 0.250000 0.000000
O O13 0.798118 0.244338 0.903023
O O14 0.218544 0.000000 0.818161
#
# Coordination Sequence:
#
# PCOD8114645 Si02
#       5
#     8   8   8   8   8
#     4  11  22  35  54  77 101 132 168 209 256 304
#     4   9  18  33  53  76 103 135 168 205 250 298
#     4   9  18  34  54  74  98 131 170 209 252 302
#     4   9  17  30  50  76 105 137 171 207 249 296
#     4   9  17  32  55  78 101 133 173 214 251 292
#
# _framework density 18.632867999999998
#
# number of rings (size 3 to 8) (size 9 to 14) (size 15 to 20)
#    0.000    2.600    0.000    3.600    0.000    7.200 
#    0.000    3.000    0.000   10.200    0.000    0.000 
#    0.000    0.000    0.000    0.000    0.000    0.000 
#
# Total GULP energy -247934.770164 kJ/mol
# GULP energy per Si atom -12396.738508 kJ/mol
# Density = 1.859046 g / cm^3
# Si number density = 18.632868 Si / 1000 Ang^3
#
#
#
# Elastic Constant Matrix: (Units=GPa)
#
#
# Indices 1 2 3 4 5 6 
#
# 1 97.4940 37.4573 71.3850 0.0000 -15.3057 0.0000
# 2 37.4573 74.7829 60.0400 0.0000 -2.7208 0.0000
# 3 71.3850 60.0400 166.1594 0.0000 -23.7686 0.0000
# 4 0.0000 0.0000 0.0000 38.5025 0.0000 -0.0958
# 5 -15.3057 -2.7208 -23.7686 0.0000 32.4324 0.0000
# 6 0.0000 0.0000 0.0000 -0.0958 0.0000 21.4175
#
#
#
# Elastic Compliance Matrix: (Units=1/GPa)
#
#
# Indices 1 2 3 4 5 6 
#
# 1 0.015917 -0.003892 -0.004920 0.000000 0.003580 0.000000
# 2 -0.003892 0.020219 -0.006316 0.000000 -0.004769 0.000000
# 3 -0.004920 -0.006316 0.011178 0.000000 0.005340 0.000000
# 4 0.000000 0.000000 0.000000 0.025973 0.000000 0.000116
# 5 0.003580 -0.004769 0.005340 0.000000 0.036036 0.000000
# 6 0.000000 0.000000 0.000000 0.000116 0.000000 0.046691
#
#
# Mechanical properties :
#
#
# Convention : Reuss Voigt Hill
#
# Bulk Modulus (GPa) = 58.62426 75.13343 66.87885
# Shear Modulus (GPa) = 26.04777 29.77408 27.91092
#
# Velocity S-wave (km/s) = 3.74297 4.00175 3.87452
# Velocity P-wave (km/s) = 7.08596 7.85892 7.48243
#
# Compressibility (1/GPa) = 0.01705779
#
# Stress axis : x y z
#
# Youngs Moduli (GPa) = 62.82782 49.45872 89.46198
#
# Poissons Ratio (x) = 0.19251 0.44011
# Poissons Ratio (y) = 0.24455 0.56503
# Poissons Ratio (z) = 0.30908 0.31238
#
# Static dielectric constant tensor:
#      x y z
#    x 2.810120 0.000000 1.386290 
#    y 0.000000 3.361540 0.000000 
#    z 1.386290 0.000000 -1.547340 
# 
# 
# High freq. dielectric constant tensor:
#      x y z
#    x 1.695240 0.000000 -0.012900 
#    y 0.000000 1.706740 0.000000 
#    z -0.012900 0.000000 1.744550 
# 
# From -- ./inp_files/151948.got.cif
#   From: 2010.06.25/outbox.cif.g09.slc.cpg/sg12_76_cif.got.tgz:151948.got - 2010.06.28 00:19:55.
