data_PCOD8114956
_publ_section_title
;
Structure prediction by ZEFSAII (Michael W. Deem and Ramdas Pophale) SiO2 
 PCOD8114956
Probable space group: C 2/M
;
_chemical_formula_sum "Si O2"
_cell_formula_units_Z 40
_cell_length_a 12.513533
_cell_length_b 15.282600
_cell_length_c 10.218734
_cell_angle_alpha 90.000000
_cell_angle_beta 68.680253
_cell_angle_gamma 90.000000
_cell_volume 1820.488345
_symmetry_space_group_name_H-M "C 2/M"
_symmetry_group_IT_number 12
_symmetry_cell_setting 'monoclinic'
loop_
_space_group_symop_operation_xyz
x,y,z
-x,y,-z
-x,-y,-z
x,-y,z
1/2+x,1/2+y,z
1/2-x,1/2+y,-z
1/2-x,1/2-y,-z
1/2+x,1/2-y,z
loop_
_atom_site_type_symbol
_atom_site_label
_atom_site_fract_x
_atom_site_fract_y
_atom_site_fract_z
Si Si1 0.660260 0.400798 0.146121
Si Si2 0.005993 0.253464 0.847150
Si Si3 0.344481 0.901112 0.849466
Si Si4 0.265473 0.325143 0.344427
Si Si5 0.634923 0.341382 0.436438
O O1 0.621903 0.500000 0.133296
O O2 0.557045 0.337808 0.152662
O O3 0.690000 0.389437 0.286234
O O4 0.771761 0.376771 0.011104
O O5 0.949042 0.333150 0.791930
O O6 0.135695 0.242498 0.743955
O O7 0.000000 0.279006 0.000000
O O8 0.264009 0.893167 0.757089
O O9 0.391863 0.000000 0.836289
O O10 0.305327 0.377711 0.457022
O O11 0.156011 0.263295 0.422082
O O12 0.500000 0.360397 0.500000
#
# Coordination Sequence:
#
# PCOD8114956 Si02
#       5
#     8   8   8   8   8
#     4  11  23  39  62  94 128 164 213 261 315 382
#     4  12  22  40  69  94 130 169 211 268 328 368
#     4  11  24  43  67  98 130 166 217 265 318 384
#     4  11  22  39  68  94 126 170 217 257 320 385
#     4  11  22  40  63  94 127 169 214 260 318 381
#
# _framework density 21.972125999999999
#
# number of rings (size 3 to 8) (size 9 to 14) (size 15 to 20)
#    0.000    0.800    6.000    1.800    0.000    2.800 
#    0.000    1.000    0.000   11.400    0.000    0.000 
#    0.000    0.000    0.000    0.000    0.000    0.000 
#
# Total GULP energy -248037.177029 kJ/mol
# GULP energy per Si atom -12401.858851 kJ/mol
# Density = 2.192212 g / cm^3
# Si number density = 21.972126 Si / 1000 Ang^3
#
#
#
# Elastic Constant Matrix: (Units=GPa)
#
#
# Indices 1 2 3 4 5 6 
#
# 1 67.8211 28.3216 27.8179 0.0000 23.8203 0.0000
# 2 28.3216 93.5558 4.4792 0.0000 6.1313 0.0000
# 3 27.8179 4.4792 109.5240 0.0000 35.0036 0.0000
# 4 0.0000 0.0000 0.0000 19.6879 0.0000 4.4498
# 5 23.8203 6.1313 35.0036 0.0000 36.6492 0.0000
# 6 0.0000 0.0000 0.0000 4.4498 0.0000 9.6515
#
#
#
# Elastic Compliance Matrix: (Units=1/GPa)
#
#
# Indices 1 2 3 4 5 6 
#
# 1 0.021954 -0.005797 -0.001567 0.000000 -0.011802 0.000000
# 2 -0.005797 0.012341 0.000609 0.000000 0.001121 0.000000
# 3 -0.001567 0.000609 0.013257 0.000000 -0.011746 0.000000
# 4 0.000000 0.000000 0.000000 0.056701 0.000000 -0.026142
# 5 -0.011802 0.001121 -0.011746 0.000000 0.045987 0.000000
# 6 0.000000 0.000000 0.000000 -0.026142 0.000000 0.115663
#
#
# Mechanical properties :
#
#
# Convention : Reuss Voigt Hill
#
# Bulk Modulus (GPa) = 29.37517 43.57094 36.47305
# Shear Modulus (GPa) = 17.19626 27.21653 22.20639
#
# Velocity S-wave (km/s) = 2.80060 3.52331 3.18254
# Velocity P-wave (km/s) = 4.88428 6.03530 5.49003
#
# Compressibility (1/GPa) = 0.03404235
#
# Stress axis : x y z
#
# Youngs Moduli (GPa) = 45.55069 81.02978 75.42992
#
# Poissons Ratio (x) = 0.46976 0.11819
# Poissons Ratio (y) = 0.26407 -0.04596
# Poissons Ratio (z) = 0.07137 -0.04938
#
# Static dielectric constant tensor:
#      x y z
#    x 3.869500 0.000000 0.250750 
#    y 0.000000 3.636150 0.000000 
#    z 0.250750 0.000000 4.367520 
# 
# 
# High freq. dielectric constant tensor:
#      x y z
#    x 1.857470 0.000000 0.015130 
#    y 0.000000 1.840470 0.000000 
#    z 0.015130 0.000000 1.883470 
# 
# From -- ./inp_files/129595.got.cif
#   From: 2010.06.25/outbox.cif.g09.slc.cpg/sg12_65_cif.got.tgz:129595.got - 2010.06.28 00:19:55.
