data_PCOD8114989
_publ_section_title
;
Structure prediction by ZEFSAII (Michael W. Deem and Ramdas Pophale) SiO2 
 PCOD8114989
Probable space group: C 2/M
;
_chemical_formula_sum "Si O2"
_cell_formula_units_Z 40
_cell_length_a 16.545780
_cell_length_b 18.121680
_cell_length_c 14.878488
_cell_angle_alpha 90.000000
_cell_angle_beta 154.057226
_cell_angle_gamma 90.000000
_cell_volume 1951.623250
_symmetry_space_group_name_H-M "C 2/M"
_symmetry_group_IT_number 12
_symmetry_cell_setting 'monoclinic'
loop_
_space_group_symop_operation_xyz
x,y,z
-x,y,-z
-x,-y,-z
x,-y,z
1/2+x,1/2+y,z
1/2-x,1/2+y,-z
1/2-x,1/2-y,-z
1/2+x,1/2-y,z
loop_
_atom_site_type_symbol
_atom_site_label
_atom_site_fract_x
_atom_site_fract_y
_atom_site_fract_z
Si Si1 0.719028 0.417490 0.815959
Si Si2 0.500000 0.087557 0.393120
Si Si3 0.719026 0.582510 0.622095
Si Si4 0.215247 0.835016 0.446472
Si Si5 0.715248 0.335016 0.984022
O O1 0.795250 0.500000 0.901205
O O2 0.500001 0.416769 0.601770
O O3 0.783034 0.384547 0.783034
O O4 0.800096 0.371564 0.979181
O O5 0.500000 0.098580 0.500000
O O6 0.679210 0.129785 0.532933
O O7 0.500000 0.000000 0.368922
O O8 0.320791 0.129785 0.174514
O O9 0.795248 0.500000 0.689292
O O10 0.800094 0.628436 0.621009
O O11 0.250000 0.750000 0.500000
O O12 0.999999 0.851794 0.215693
O O13 0.750000 0.250000 0.000000
#
# Coordination Sequence:
#
# PCOD8114989 Si02
#       5
#     8   8   8   8   8
#     4   8  15  30  55  86 117 152 196 250 315 382
#     4  11  26  46  67  95 134 181 233 283 331 396
#     4   8  15  30  55  86 117 152 196 250 315 382
#     4  11  22  40  65  95 132 172 220 274 338 399
#     4  11  22  40  65  95 132 172 220 274 338 399
#
# _framework density 20.495757999999999
#
# number of rings (size 3 to 8) (size 9 to 14) (size 15 to 20)
#    0.000    2.200    2.000    2.400    0.000    4.800 
#    0.000    3.000    0.000    3.600    0.000    0.000 
#    0.000    0.000    0.000    0.000    0.000    0.000 
#
# Total GULP energy -247818.383807 kJ/mol
# GULP energy per Si atom -12390.919190 kJ/mol
# Density = 2.044911 g / cm^3
# Si number density = 20.495758 Si / 1000 Ang^3
#
#
#
# Elastic Constant Matrix: (Units=GPa)
#
#
# Indices 1 2 3 4 5 6 
#
# 1 160.6721 77.7855 55.8973 0.0000 -23.0616 0.0000
# 2 77.7855 134.8588 39.9974 0.0000 -18.5882 0.0000
# 3 55.8973 39.9974 107.7164 0.0000 -2.9879 0.0000
# 4 0.0000 0.0000 0.0000 22.9548 0.0000 1.0248
# 5 -23.0616 -18.5882 -2.9879 0.0000 38.8205 0.0000
# 6 0.0000 0.0000 0.0000 1.0248 0.0000 20.8710
#
#
#
# Elastic Compliance Matrix: (Units=1/GPa)
#
#
# Indices 1 2 3 4 5 6 
#
# 1 0.010025 -0.004232 -0.003530 0.000000 0.003658 0.000000
# 2 -0.004232 0.010705 -0.001710 0.000000 0.002480 0.000000
# 3 -0.003530 -0.001710 0.011695 0.000000 -0.002016 0.000000
# 4 0.000000 0.000000 0.000000 0.043660 0.000000 -0.002144
# 5 0.003658 0.002480 -0.002016 0.000000 0.028965 0.000000
# 6 0.000000 0.000000 0.000000 -0.002144 0.000000 0.048019
#
#
# Mechanical properties :
#
#
# Convention : Reuss Voigt Hill
#
# Bulk Modulus (GPa) = 74.17465 83.40087 78.78776
# Shear Modulus (GPa) = 28.32771 31.83373 30.08072
#
# Velocity S-wave (km/s) = 3.72173 3.94532 3.83516
# Velocity P-wave (km/s) = 7.39846 7.84437 7.62468
#
# Compressibility (1/GPa) = 0.01348169
#
# Stress axis : x y z
#
# Youngs Moduli (GPa) = 99.74578 93.41400 85.51011
#
# Poissons Ratio (x) = 0.39529 0.30183
# Poissons Ratio (y) = 0.42208 0.14625
# Poissons Ratio (z) = 0.35208 0.15977
#
# Static dielectric constant tensor:
#      x y z
#    x 4.094530 0.000000 -0.192330 
#    y 0.000000 3.818080 0.000000 
#    z -0.192330 0.000000 3.703520 
# 
# 
# High freq. dielectric constant tensor:
#      x y z
#    x 1.809030 0.000000 -0.003140 
#    y 0.000000 1.798560 0.000000 
#    z -0.003140 0.000000 1.802650 
# 
# From -- ./inp_files/216942.got.cif
#   From: 2010.06.25/outbox.cif.g09.slc.cpg/sg12_109_cif.got.tgz:216942.got - 2010.06.28 00:19:55.
