data_PCOD8114620
_publ_section_title
;
Structure prediction by ZEFSAII (Michael W. Deem and Ramdas Pophale) SiO2 
 PCOD8114620
Probable space group: C 2/M
;
_chemical_formula_sum "Si O2"
_cell_formula_units_Z 64
_cell_length_a 19.174096
_cell_length_b 8.882488
_cell_length_c 25.052920
_cell_angle_alpha 90.000000
_cell_angle_beta 124.667762
_cell_angle_gamma 90.000000
_cell_volume 3509.335526
_symmetry_space_group_name_H-M "C 2/M"
_symmetry_group_IT_number 12
_symmetry_cell_setting 'monoclinic'
loop_
_space_group_symop_operation_xyz
x,y,z
-x,y,-z
-x,-y,-z
x,-y,z
1/2+x,1/2+y,z
1/2-x,1/2+y,-z
1/2-x,1/2-y,-z
1/2+x,1/2-y,z
loop_
_atom_site_type_symbol
_atom_site_label
_atom_site_fract_x
_atom_site_fract_y
_atom_site_fract_z
Si Si1 0.836867 0.178615 0.557842
Si Si2 0.210107 0.679591 0.181342
Si Si3 0.941780 0.676970 0.816134
Si Si4 0.321122 0.678644 0.324589
Si Si5 0.273660 0.176799 0.929845
Si Si6 0.166552 0.676641 0.330704
Si Si7 0.376832 0.823015 0.074409
Si Si8 0.498519 0.320833 0.560044
O O1 0.750000 0.250000 0.500000
O O2 0.852581 0.227516 0.625243
O O3 0.915401 0.237504 0.555504
O O4 0.829533 0.000000 0.550849
O O5 0.206994 0.500000 0.178862
O O6 0.125577 0.745474 0.171694
O O7 0.289963 0.732760 0.252404
O O8 0.213146 0.746195 0.123164
O O9 0.946199 0.500000 0.827135
O O10 0.912144 0.711696 0.742980
O O11 0.032722 0.748094 0.870076
O O12 0.322480 0.500000 0.327139
O O13 0.254742 0.730714 0.341646
O O14 0.415366 0.743575 0.375348
O O15 0.189573 0.249295 0.915453
O O16 0.258899 0.000000 0.920341
O O17 0.354053 0.215106 0.002775
O O18 0.171486 0.500000 0.347136
O O19 0.374396 0.000000 0.083204
O O20 0.500000 0.260976 0.500000
O O21 0.499030 0.500000 0.561144
#
# Coordination Sequence:
#
# PCOD8114620 Si02
#       8
#     8   8   8   8   8   8   8   8
#     4  11  22  34  51  74  98 124 154 190 229 270
#     4   8  14  25  43  68  92 115 151 197 237 271
#     4   8  15  28  47  70  93 120 154 190 232 280
#     4   8  14  27  48  70  91 117 152 194 234 273
#     4   9  17  28  44  66  91 121 158 200 238 272
#     4   9  17  32  53  72  93 122 153 188 231 279
#     4   9  17  29  44  64  93 126 156 189 235 288
#     4   9  17  29  46  68  90 115 151 188 221 262
#
# _framework density 18.237071
#
# number of rings (size 3 to 8) (size 9 to 14) (size 15 to 20)
#    0.000    3.125    0.000    2.625    0.000    3.500 
#    0.000    4.375    0.000   10.500    0.000    3.500 
#    0.000    0.000    0.000    0.000    0.000    0.000 
#
# Total GULP energy -396577.081485 kJ/mol
# GULP energy per Si atom -12393.033796 kJ/mol
# Density = 1.819556 g / cm^3
# Si number density = 18.237071 Si / 1000 Ang^3
#
#
#
# Elastic Constant Matrix: (Units=GPa)
#
#
# Indices 1 2 3 4 5 6 
#
# 1 133.8269 25.2511 104.4335 0.0000 6.4957 0.0000
# 2 25.2511 17.7991 25.5173 0.0000 -1.5071 0.0000
# 3 104.4335 25.5173 168.2540 0.0000 5.9092 0.0000
# 4 0.0000 0.0000 0.0000 17.4208 0.0000 -2.8124
# 5 6.4957 -1.5071 5.9092 0.0000 43.7367 0.0000
# 6 0.0000 0.0000 0.0000 -2.8124 0.0000 20.1511
#
#
#
# Elastic Compliance Matrix: (Units=1/GPa)
#
#
# Indices 1 2 3 4 5 6 
#
# 1 0.016081 -0.011153 -0.008231 0.000000 -0.001661 0.000000
# 2 -0.011153 0.080218 -0.005424 0.000000 0.005154 0.000000
# 3 -0.008231 -0.005424 0.011895 0.000000 -0.000572 0.000000
# 4 0.000000 0.000000 0.000000 0.058726 0.000000 0.008196
# 5 -0.001661 0.005154 -0.000572 0.000000 0.023366 0.000000
# 6 0.000000 0.000000 0.000000 0.008196 0.000000 0.050769
#
#
# Mechanical properties :
#
#
# Convention : Reuss Voigt Hill
#
# Bulk Modulus (GPa) = 17.07169 70.03153 43.55161
# Shear Modulus (GPa) = 16.11876 27.24026 21.67951
#
# Velocity S-wave (km/s) = 2.97618 3.86900 3.45158
# Velocity P-wave (km/s) = 4.60342 7.64480 6.31009
#
# Compressibility (1/GPa) = 0.05857651
#
# Stress axis : x y z
#
# Youngs Moduli (GPa) = 62.18551 12.46603 84.06731
#
# Poissons Ratio (x) = 0.13904 0.69199
# Poissons Ratio (y) = 0.69358 0.45598
# Poissons Ratio (z) = 0.51188 0.06762
#
# Static dielectric constant tensor:
#      x y z
#    x 3.575250 0.000000 0.117240 
#    y 0.000000 2.839410 0.000000 
#    z 0.117240 0.000000 3.780510 
# 
# 
# High freq. dielectric constant tensor:
#      x y z
#    x 1.707030 0.000000 0.002400 
#    y 0.000000 1.649600 0.000000 
#    z 0.002400 0.000000 1.725170 
# 
# From -- ./inp_files/342882.got.cif
#   From: 2010.06.25/outbox.cif.g09.slc.cpg/sg12_172_cif.got.tgz:342882.got - 2010.06.28 00:19:55.
