data_PCOD8114564
_publ_section_title
;
Structure prediction by ZEFSAII (Michael W. Deem and Ramdas Pophale) SiO2 
 PCOD8114564
Probable space group: C 2/M
;
_chemical_formula_sum "Si O2"
_cell_formula_units_Z 36
_cell_length_a 23.827279
_cell_length_b 13.036641
_cell_length_c 10.166571
_cell_angle_alpha 90.000000
_cell_angle_beta 34.097726
_cell_angle_gamma 90.000000
_cell_volume 1770.404465
_symmetry_space_group_name_H-M "C 2/M"
_symmetry_group_IT_number 12
_symmetry_cell_setting 'monoclinic'
loop_
_space_group_symop_operation_xyz
x,y,z
-x,y,-z
-x,-y,-z
x,-y,z
1/2+x,1/2+y,z
1/2-x,1/2+y,-z
1/2-x,1/2-y,-z
1/2+x,1/2-y,z
loop_
_atom_site_type_symbol
_atom_site_label
_atom_site_fract_x
_atom_site_fract_y
_atom_site_fract_z
Si Si1 0.500000 0.673937 0.000000
Si Si2 0.185173 0.720950 0.751542
Si Si3 0.881815 0.500000 0.720021
Si Si4 0.927971 0.000000 0.312053
Si Si5 0.917163 0.000000 0.770635
Si Si6 0.788439 0.500000 0.190791
Si Si7 0.245245 0.831750 0.896203
O O1 0.570209 0.743523 0.956315
O O2 0.575093 0.602512 0.770040
O O3 0.250000 0.750000 0.500000
O O4 0.178924 0.599366 0.789489
O O5 0.238559 0.778076 0.768753
O O6 0.845744 0.400460 0.708544
O O7 0.000000 0.500000 0.500000
O O8 0.835214 0.500000 0.955896
O O9 0.032112 0.000000 0.185974
O O10 0.832025 0.000000 0.593569
O O11 0.000000 0.000000 0.500000
O O12 0.851722 0.101136 0.885390
O O13 0.250000 0.750000 0.000000
#
# Coordination Sequence:
#
# PCOD8114564 Si02
#       7
#     4   8   4   4   4   4   8
#     4  11  24  43  70 102 134 191 228 283 350 420
#     4  12  26  45  73 104 145 186 232 296 355 421
#     4  11  26  46  70 102 144 188 235 284 351 432
#     4  11  21  42  71 100 135 172 248 284 336 416
#     4  11  24  39  72 103 129 179 234 292 351 409
#     4  12  25  46  71 105 142 185 233 297 353 423
#     4  11  24  46  69 100 141 182 236 286 350 412
#
# _framework density 20.334336
#
# number of rings (size 3 to 8) (size 9 to 14) (size 15 to 20)
#    0.000    0.667    6.667    1.333    0.000    4.889 
#    0.000    0.000    0.000    0.000    0.000    0.000 
#    0.000    0.000    0.000    0.000    0.000    0.000 
#
# Total GULP energy -223275.700759 kJ/mol
# GULP energy per Si atom -12404.205598 kJ/mol
# Density = 2.028805 g / cm^3
# Si number density = 20.334336 Si / 1000 Ang^3
#
#
#
# Elastic Constant Matrix: (Units=GPa)
#
#
# Indices 1 2 3 4 5 6 
#
# 1 160.0111 85.9220 57.3157 0.0000 -3.2187 0.0000
# 2 85.9220 176.7409 51.5763 0.0000 -1.8061 0.0000
# 3 57.3157 51.5763 125.0613 0.0000 0.8648 0.0000
# 4 0.0000 0.0000 0.0000 10.3786 0.0000 8.3681
# 5 -3.2187 -1.8061 0.8648 0.0000 47.0180 0.0000
# 6 0.0000 0.0000 0.0000 8.3681 0.0000 39.9633
#
#
#
# Elastic Compliance Matrix: (Units=1/GPa)
#
#
# Indices 1 2 3 4 5 6 
#
# 1 0.009206 -0.003680 -0.002705 0.000000 0.000539 0.000000
# 2 -0.003680 0.007908 -0.001575 0.000000 0.000081 0.000000
# 3 -0.002705 -0.001575 0.009888 0.000000 -0.000428 0.000000
# 4 0.000000 0.000000 0.000000 0.115923 0.000000 -0.024274
# 5 0.000539 0.000081 -0.000428 0.000000 0.021316 0.000000
# 6 0.000000 0.000000 0.000000 -0.024274 0.000000 0.030106
#
#
# Mechanical properties :
#
#
# Convention : Reuss Voigt Hill
#
# Bulk Modulus (GPa) = 90.24495 94.60456 92.42476
# Shear Modulus (GPa) = 23.36878 37.27194 30.32036
#
# Velocity S-wave (km/s) = 3.39370 4.28595 3.86565
# Velocity P-wave (km/s) = 7.73519 8.43315 8.09170
#
# Compressibility (1/GPa) = 0.01108095
#
# Stress axis : x y z
#
# Youngs Moduli (GPa) = 108.63001 126.45945 101.13079
#
# Poissons Ratio (x) = 0.46543 0.27354
# Poissons Ratio (y) = 0.39981 0.15928
# Poissons Ratio (z) = 0.29382 0.19917
#
# Static dielectric constant tensor:
#      x y z
#    x 4.000130 0.000000 -0.151240 
#    y 0.000000 3.925570 0.000000 
#    z -0.151240 0.000000 3.458770 
# 
# 
# High freq. dielectric constant tensor:
#      x y z
#    x 1.811330 0.000000 0.000220 
#    y 0.000000 1.811150 0.000000 
#    z 0.000220 0.000000 1.787230 
# 
# From -- ./inp_files/86298.got.cif
#   From: 2010.06.25/outbox.cif.g09.slc.cpg/sg12_44_cif.got.tgz:86298.got - 2010.06.28 00:19:55.
