data_PCOD8114321
_publ_section_title
;
Structure prediction by ZEFSAII (Michael W. Deem and Ramdas Pophale) SiO2 
 PCOD8114321
Probable space group: C 2/M
;
_chemical_formula_sum "Si O2"
_cell_formula_units_Z 56
_cell_length_a 14.203669
_cell_length_b 18.446771
_cell_length_c 11.328110
_cell_angle_alpha 90.000000
_cell_angle_beta 114.988688
_cell_angle_gamma 90.000000
_cell_volume 2690.258678
_symmetry_space_group_name_H-M "C 2/M"
_symmetry_group_IT_number 12
_symmetry_cell_setting 'monoclinic'
loop_
_space_group_symop_operation_xyz
x,y,z
-x,y,-z
-x,-y,-z
x,-y,z
1/2+x,1/2+y,z
1/2-x,1/2+y,-z
1/2-x,1/2-y,-z
1/2+x,1/2-y,z
loop_
_atom_site_type_symbol
_atom_site_label
_atom_site_fract_x
_atom_site_fract_y
_atom_site_fract_z
Si Si1 0.730944 0.331072 0.782642
Si Si2 0.154553 0.181156 0.150585
Si Si3 0.556209 0.299286 0.846837
Si Si4 0.465647 0.149375 0.267954
Si Si5 0.192176 0.414740 0.657195
Si Si6 0.899789 0.582266 0.010114
Si Si7 0.708173 0.170841 0.438438
O O1 0.766935 0.247643 0.791835
O O2 0.613144 0.341573 0.769195
O O3 0.735447 0.359135 0.650211
O O4 0.801794 0.372348 0.914652
O O5 0.218205 0.106471 0.201366
O O6 0.066253 0.185173 0.206455
O O7 0.108201 0.179330 0.996846
O O8 0.581868 0.216330 0.830143
O O9 0.413253 0.129701 0.365771
O O10 0.429258 0.083010 0.164661
O O11 0.585409 0.167692 0.349279
O O12 0.171723 0.500000 0.644140
O O13 0.232538 0.387514 0.551988
O O14 0.880257 0.500000 0.960166
O O15 0.000000 0.617052 0.000000
O O16 0.750000 0.250000 0.500000
#
# Coordination Sequence:
#
# PCOD8114321 Si02
#       7
#     8   8   8   8   8   8   8
#     4  12  21  39  65  92 128 164 215 264 326 386
#     4  11  21  41  66  97 132 168 213 273 323 389
#     4  11  21  36  70 100 124 165 215 269 329 386
#     4  12  21  39  64  94 128 167 212 267 325 385
#     4  12  27  44  63  94 134 179 223 271 329 392
#     4  11  22  36  58  93 129 161 199 261 334 394
#     4  12  24  41  63  89 128 172 222 267 312 383
#
# _framework density 20.815840999999999
#
# number of rings (size 3 to 8) (size 9 to 14) (size 15 to 20)
#    0.000    0.429    7.143    2.143    0.000    2.286 
#    0.000    2.857    0.000    0.857    0.000    0.000 
#    0.000    0.000    0.000    0.000    0.000    0.000 
#
# Total GULP energy -347004.401521 kJ/mol
# GULP energy per Si atom -12393.014340 kJ/mol
# Density = 2.076846 g / cm^3
# Si number density = 20.815841 Si / 1000 Ang^3
#
#
#
# Elastic Constant Matrix: (Units=GPa)
#
#
# Indices 1 2 3 4 5 6 
#
# 1 159.6773 41.6177 32.0724 0.0000 -15.3745 0.0000
# 2 41.6177 83.2738 38.8550 0.0000 3.1484 0.0000
# 3 32.0724 38.8550 92.0946 0.0000 -7.3601 0.0000
# 4 0.0000 0.0000 0.0000 25.8622 0.0000 -4.9339
# 5 -15.3745 3.1484 -7.3601 0.0000 29.7169 0.0000
# 6 0.0000 0.0000 0.0000 -4.9339 0.0000 20.6614
#
#
#
# Elastic Compliance Matrix: (Units=1/GPa)
#
#
# Indices 1 2 3 4 5 6 
#
# 1 0.007790 -0.003665 -0.000830 0.000000 0.004213 0.000000
# 2 -0.003665 0.016983 -0.006309 0.000000 -0.005258 0.000000
# 3 -0.000830 -0.006309 0.014107 0.000000 0.003733 0.000000
# 4 0.000000 0.000000 0.000000 0.040512 0.000000 0.009674
# 5 0.004213 -0.005258 0.003733 0.000000 0.037312 0.000000
# 6 0.000000 0.000000 0.000000 0.009674 0.000000 0.050710
#
#
# Mechanical properties :
#
#
# Convention : Reuss Voigt Hill
#
# Bulk Modulus (GPa) = 57.89582 62.23735 60.06659
# Shear Modulus (GPa) = 25.66992 30.08148 27.87570
#
# Velocity S-wave (km/s) = 3.51549 3.80560 3.66342
# Velocity P-wave (km/s) = 6.65973 7.01955 6.84201
#
# Compressibility (1/GPa) = 0.01727240
#
# Stress axis : x y z
#
# Youngs Moduli (GPa) = 128.36411 58.88256 70.88443
#
# Poissons Ratio (x) = 0.21583 0.05882
# Poissons Ratio (y) = 0.47052 0.44720
# Poissons Ratio (z) = 0.10652 0.37148
#
# Static dielectric constant tensor:
#      x y z
#    x 4.184420 0.000000 -0.237180 
#    y 0.000000 3.449480 0.000000 
#    z -0.237180 0.000000 3.835200 
# 
# 
# High freq. dielectric constant tensor:
#      x y z
#    x 1.828830 0.000000 -0.014080 
#    y 0.000000 1.780570 0.000000 
#    z -0.014080 0.000000 1.817980 
# 
# From -- ./inp_files/146236.got.cif
#   From: 2010.06.25/outbox.cif.g09.slc.cpg/sg12_74_cif.got.tgz:146236.got - 2010.06.28 00:19:55.
