data_PCOD8114676
_publ_section_title
;
Structure prediction by ZEFSAII (Michael W. Deem and Ramdas Pophale) SiO2 
 PCOD8114676
Probable space group: C 2/M
;
_chemical_formula_sum "Si O2"
_cell_formula_units_Z 56
_cell_length_a 31.000512
_cell_length_b 12.658252
_cell_length_c 14.487150
_cell_angle_alpha 90.000000
_cell_angle_beta 33.692272
_cell_angle_gamma 90.000000
_cell_volume 3153.616968
_symmetry_space_group_name_H-M "C 2/M"
_symmetry_group_IT_number 12
_symmetry_cell_setting 'monoclinic'
loop_
_space_group_symop_operation_xyz
x,y,z
-x,y,-z
-x,-y,-z
x,-y,z
1/2+x,1/2+y,z
1/2-x,1/2+y,-z
1/2-x,1/2-y,-z
1/2+x,1/2-y,z
loop_
_atom_site_type_symbol
_atom_site_label
_atom_site_fract_x
_atom_site_fract_y
_atom_site_fract_z
Si Si1 0.584452 0.118488 0.377155
Si Si2 0.896922 0.763915 0.489830
Si Si3 0.262947 0.875490 0.221673
Si Si4 0.557273 0.125545 0.763148
Si Si5 0.823816 0.277446 0.928323
Si Si6 0.965635 0.121846 0.663462
Si Si7 0.106053 0.376336 0.873615
O O1 0.500000 0.163351 0.500000
O O2 0.622170 0.191277 0.388063
O O3 0.635716 0.122497 0.193323
O O4 0.578252 0.000000 0.426132
O O5 0.825366 0.843064 0.601826
O O6 0.906057 0.688017 0.386668
O O7 0.974237 0.832082 0.368659
O O8 0.313175 0.844331 0.222357
O O9 0.266682 0.000000 0.193551
O O10 0.300339 0.809959 0.072187
O O11 0.603721 0.163979 0.772185
O O12 0.564969 0.000000 0.730886
O O13 0.467642 0.162733 0.934837
O O14 0.882778 0.178813 0.822026
O O15 0.750000 0.250000 0.000000
O O16 0.000000 0.135491 0.500000
O O17 0.950892 0.000000 0.712984
O O18 0.095217 0.500000 0.886690
#
# Coordination Sequence:
#
# PCOD8114676 Si02
#       7
#     8   8   8   8   8   8   8
#     4  11  22  36  53  77 109 140 180 226 266 313
#     4  12  20  36  54  80 110 145 185 212 270 327
#     4  11  23  36  55  80 111 144 181 227 267 316
#     4   9  18  34  59  83 109 140 176 227 273 319
#     4  12  21  38  54  78 107 143 184 222 266 318
#     4  11  22  38  56  75 108 147 183 222 262 319
#     4   8  17  35  56  83 108 135 178 224 275 320
#
# _framework density 17.757387000000001
#
# number of rings (size 3 to 8) (size 9 to 14) (size 15 to 20)
#    0.000    1.429    4.286    3.000    0.000    2.857 
#    0.000    0.000    0.000    0.000    0.000   19.000 
#    0.000    0.000    0.000    0.000    0.000    0.000 
#
# Total GULP energy -347151.746650 kJ/mol
# GULP energy per Si atom -12398.276666 kJ/mol
# Density = 1.771697 g / cm^3
# Si number density = 17.757387 Si / 1000 Ang^3
#
#
#
# Elastic Constant Matrix: (Units=GPa)
#
#
# Indices 1 2 3 4 5 6 
#
# 1 125.8475 46.9842 50.1190 0.0000 -15.7824 0.0000
# 2 46.9842 91.4052 38.8394 0.0000 -2.4054 0.0000
# 3 50.1190 38.8394 89.9867 0.0000 -6.0801 0.0000
# 4 0.0000 0.0000 0.0000 30.0669 0.0000 1.3202
# 5 -15.7824 -2.4054 -6.0801 0.0000 34.5016 0.0000
# 6 0.0000 0.0000 0.0000 1.3202 0.0000 24.3667
#
#
#
# Elastic Compliance Matrix: (Units=1/GPa)
#
#
# Indices 1 2 3 4 5 6 
#
# 1 0.011798 -0.004020 -0.004544 0.000000 0.004316 0.000000
# 2 -0.004020 0.014767 -0.004240 0.000000 -0.001556 0.000000
# 3 -0.004544 -0.004240 0.015498 0.000000 0.000357 0.000000
# 4 0.000000 0.000000 0.000000 0.033338 0.000000 -0.001806
# 5 0.004316 -0.001556 0.000357 0.000000 0.030913 0.000000
# 6 0.000000 0.000000 0.000000 -0.001806 0.000000 0.041137
#
#
# Mechanical properties :
#
#
# Convention : Reuss Voigt Hill
#
# Bulk Modulus (GPa) = 60.77295 64.34719 62.56007
# Shear Modulus (GPa) = 28.00413 29.20683 28.60548
#
# Velocity S-wave (km/s) = 3.97551 4.05998 4.01796
# Velocity P-wave (km/s) = 7.44118 7.63501 7.53872
#
# Compressibility (1/GPa) = 0.01645469
#
# Stress axis : x y z
#
# Youngs Moduli (GPa) = 84.76052 67.71737 64.52470
#
# Poissons Ratio (x) = 0.27221 0.29322
# Poissons Ratio (y) = 0.34072 0.27358
# Poissons Ratio (z) = 0.38518 0.28712
#
# Static dielectric constant tensor:
#      x y z
#    x 3.596920 0.000000 -0.078030 
#    y 0.000000 3.255270 0.000000 
#    z -0.078030 0.000000 3.128900 
# 
# 
# High freq. dielectric constant tensor:
#      x y z
#    x 1.696030 0.000000 -0.006420 
#    y 0.000000 1.675550 0.000000 
#    z -0.006420 0.000000 1.681160 
# 
# From -- ./inp_files/183473.got.cif
#   From: 2010.06.25/outbox.cif.g09.slc.cpg/sg12_92_cif.got.tgz:183473.got - 2010.06.28 00:19:55.
