data_PCOD8114190
_publ_section_title
;
Structure prediction by ZEFSAII (Michael W. Deem and Ramdas Pophale) SiO2 
 PCOD8114190
Probable space group: C 2/M
;
_chemical_formula_sum "Si O2"
_cell_formula_units_Z 56
_cell_length_a 26.557722
_cell_length_b 8.884041
_cell_length_c 13.341267
_cell_angle_alpha 90.000000
_cell_angle_beta 115.233579
_cell_angle_gamma 90.000000
_cell_volume 2847.371711
_symmetry_space_group_name_H-M "C 2/M"
_symmetry_group_IT_number 12
_symmetry_cell_setting 'monoclinic'
loop_
_space_group_symop_operation_xyz
x,y,z
-x,y,-z
-x,-y,-z
x,-y,z
1/2+x,1/2+y,z
1/2-x,1/2+y,-z
1/2-x,1/2-y,-z
1/2+x,1/2-y,z
loop_
_atom_site_type_symbol
_atom_site_label
_atom_site_fract_x
_atom_site_fract_y
_atom_site_fract_z
Si Si1 0.449160 0.668604 0.827359
Si Si2 0.221304 0.176258 0.257139
Si Si3 0.876097 0.825448 0.958105
Si Si4 0.050617 0.177813 0.612220
Si Si5 0.342251 0.327443 0.606198
Si Si6 0.449029 0.175493 0.172928
Si Si7 0.655549 0.824620 0.601356
O O1 0.474646 0.500000 0.848081
O O2 0.421944 0.701968 0.911294
O O3 0.404488 0.683332 0.701163
O O4 0.498172 0.787249 0.851723
O O5 0.183465 0.237981 0.133252
O O6 0.200836 0.238745 0.347682
O O7 0.285958 0.211585 0.293180
O O8 0.207919 0.000000 0.252309
O O9 0.872122 0.000000 0.984537
O O10 0.892827 0.732442 0.070913
O O11 0.042679 0.245004 0.714494
O O12 0.108829 0.227441 0.614782
O O13 0.000000 0.235625 0.500000
O O14 0.049956 0.000000 0.620174
O O15 0.328667 0.500000 0.563811
O O16 0.337783 0.218431 0.508274
O O17 0.443855 0.000000 0.187301
O O18 0.640650 0.000000 0.597301
#
# Coordination Sequence:
#
# PCOD8114190 Si02
#       7
#     8   8   8   8   8   8   8
#     4   9  18  33  55  81 110 148 188 220 256 315
#     4   8  17  34  56  82 112 146 182 221 262 313
#     4   9  18  36  59  80 108 148 188 219 255 314
#     4  11  25  44  62  78 101 140 187 224 259 319
#     4   9  17  32  54  81 113 149 186 216 255 320
#     4  12  24  36  54  82 113 141 175 226 282 323
#     4  11  21  34  55  84 114 141 176 226 280 319
#
# _framework density 19.667261
#
# number of rings (size 3 to 8) (size 9 to 14) (size 15 to 20)
#    0.000    2.143    0.000    5.571    0.000    7.429 
#    0.000    5.000    0.000    0.000    0.000    0.000 
#    0.000    0.000    0.000    0.000    0.000    0.000 
#
# Total GULP energy -347216.482637 kJ/mol
# GULP energy per Si atom -12400.588666 kJ/mol
# Density = 1.962250 g / cm^3
# Si number density = 19.667261 Si / 1000 Ang^3
#
#
#
# Elastic Constant Matrix: (Units=GPa)
#
#
# Indices 1 2 3 4 5 6 
#
# 1 89.0925 33.2650 41.7809 0.0000 15.7032 0.0000
# 2 33.2650 67.8510 45.4976 0.0000 6.1747 0.0000
# 3 41.7809 45.4976 126.8683 0.0000 12.9471 0.0000
# 4 0.0000 0.0000 0.0000 19.4112 0.0000 3.7213
# 5 15.7032 6.1747 12.9471 0.0000 17.3802 0.0000
# 6 0.0000 0.0000 0.0000 3.7213 0.0000 9.3414
#
#
#
# Elastic Compliance Matrix: (Units=1/GPa)
#
#
# Indices 1 2 3 4 5 6 
#
# 1 0.016278 -0.005445 -0.002278 0.000000 -0.011076 0.000000
# 2 -0.005445 0.021281 -0.006027 0.000000 0.001849 0.000000
# 3 -0.002278 -0.006027 0.011218 0.000000 -0.004158 0.000000
# 4 0.000000 0.000000 0.000000 0.055776 0.000000 -0.022220
# 5 -0.011076 0.001849 -0.004158 0.000000 0.069984 0.000000
# 6 0.000000 0.000000 0.000000 -0.022220 0.000000 0.115902
#
#
# Mechanical properties :
#
#
# Convention : Reuss Voigt Hill
#
# Bulk Modulus (GPa) = 46.99990 58.32211 52.66101
# Shear Modulus (GPa) = 15.38310 20.11112 17.74711
#
# Velocity S-wave (km/s) = 2.79976 3.20123 3.00720
# Velocity P-wave (km/s) = 5.86523 6.58655 6.23633
#
# Compressibility (1/GPa) = 0.02127664
#
# Stress axis : x y z
#
# Youngs Moduli (GPa) = 61.43376 46.98996 89.14197
#
# Poissons Ratio (x) = 0.25587 0.20303
# Poissons Ratio (y) = 0.33452 0.53729
# Poissons Ratio (z) = 0.13992 0.28322
#
# Static dielectric constant tensor:
#      x y z
#    x 3.565040 0.000000 0.235860 
#    y 0.000000 3.363670 0.000000 
#    z 0.235860 0.000000 3.737430 
# 
# 
# High freq. dielectric constant tensor:
#      x y z
#    x 1.758590 0.000000 0.016520 
#    y 0.000000 1.746170 0.000000 
#    z 0.016520 0.000000 1.774960 
# 
# From -- ./inp_files/181009.got.cif
#   From: 2010.06.25/outbox.cif.g09.slc.cpg/sg12_91_cif.got.tgz:181009.got - 2010.06.28 00:19:55.
