data_PCOD8114768
_publ_section_title
;
Structure prediction by ZEFSAII (Michael W. Deem and Ramdas Pophale) SiO2 
 PCOD8114768
Probable space group: C 2/M
;
_chemical_formula_sum "Si O2"
_cell_formula_units_Z 56
_cell_length_a 10.985501
_cell_length_b 28.475041
_cell_length_c 9.224830
_cell_angle_alpha 90.000000
_cell_angle_beta 69.756714
_cell_angle_gamma 90.000000
_cell_volume 2707.402259
_symmetry_space_group_name_H-M "C 2/M"
_symmetry_group_IT_number 12
_symmetry_cell_setting 'monoclinic'
loop_
_space_group_symop_operation_xyz
x,y,z
-x,y,-z
-x,-y,-z
x,-y,z
1/2+x,1/2+y,z
1/2-x,1/2+y,-z
1/2-x,1/2-y,-z
1/2+x,1/2-y,z
loop_
_atom_site_type_symbol
_atom_site_label
_atom_site_fract_x
_atom_site_fract_y
_atom_site_fract_z
Si Si1 0.159394 0.633638 0.650959
Si Si2 0.936404 0.053115 0.753566
Si Si3 0.765893 0.135156 0.915370
Si Si4 0.950785 0.779605 0.858403
Si Si5 0.111905 0.322136 0.221476
Si Si6 0.206171 0.202367 0.587273
Si Si7 0.803861 0.948008 0.496502
O O1 0.170801 0.627109 0.818602
O O2 0.281950 0.664418 0.545594
O O3 0.176843 0.585094 0.553914
O O4 0.024637 0.658000 0.665252
O O5 0.868926 0.091950 0.885850
O O6 0.870728 0.055030 0.624836
O O7 0.089159 0.065856 0.670106
O O8 0.921609 0.000000 0.824259
O O9 0.832985 0.185804 0.873328
O O10 0.676688 0.137487 0.095018
O O11 0.906271 0.725867 0.861134
O O12 0.059359 0.792964 0.697667
O O13 0.000000 0.788080 0.000000
O O14 0.201364 0.312251 0.320239
O O15 0.250000 0.250000 0.500000
O O16 0.752378 0.000000 0.485381
#
# Coordination Sequence:
#
# PCOD8114768 Si02
#       7
#     8   8   8   8   8   8   8
#     4  11  22  37  60  89 119 154 197 246 297 353
#     4   8  15  31  58  89 117 147 195 254 295 339
#     4  11  22  38  61  87 119 157 197 241 305 358
#     4  12  24  40  61  82 115 157 200 245 292 348
#     4  12  25  40  57  83 125 160 191 244 299 361
#     4  12  25  41  60  86 112 155 205 247 287 345
#     4   8  15  31  57  89 118 149 195 249 297 343
#
# _framework density 20.684032999999999
#
# number of rings (size 3 to 8) (size 9 to 14) (size 15 to 20)
#    0.000    1.429    2.857    4.714    0.000    2.857 
#    0.000    0.714    0.000    6.429    0.000    0.000 
#    0.000    0.000    0.000    0.000    0.000    0.000 
#
# Total GULP energy -347139.161447 kJ/mol
# GULP energy per Si atom -12397.827195 kJ/mol
# Density = 2.063696 g / cm^3
# Si number density = 20.684033 Si / 1000 Ang^3
#
#
#
# Elastic Constant Matrix: (Units=GPa)
#
#
# Indices 1 2 3 4 5 6 
#
# 1 45.1103 20.5300 6.4153 0.0000 -9.7244 0.0000
# 2 20.5300 124.5756 30.7594 0.0000 -23.0268 0.0000
# 3 6.4153 30.7594 82.5697 0.0000 -15.2881 0.0000
# 4 0.0000 0.0000 0.0000 31.3722 0.0000 -10.8583
# 5 -9.7244 -23.0268 -15.2881 0.0000 33.4718 0.0000
# 6 0.0000 0.0000 0.0000 -10.8583 0.0000 27.3700
#
#
#
# Elastic Compliance Matrix: (Units=1/GPa)
#
#
# Indices 1 2 3 4 5 6 
#
# 1 0.024680 -0.003180 0.000207 0.000000 0.005077 0.000000
# 2 -0.003180 0.010089 -0.002619 0.000000 0.004821 0.000000
# 3 0.000207 -0.002619 0.013926 0.000000 0.004619 0.000000
# 4 0.000000 0.000000 0.000000 0.036949 0.000000 0.014658
# 5 0.005077 0.004821 0.004619 0.000000 0.036777 0.000000
# 6 0.000000 0.000000 0.000000 0.014658 0.000000 0.042352
#
#
# Mechanical properties :
#
#
# Convention : Reuss Voigt Hill
#
# Bulk Modulus (GPa) = 26.65839 40.85168 33.75503
# Shear Modulus (GPa) = 26.53091 31.41287 28.97189
#
# Velocity S-wave (km/s) = 3.58533 3.90128 3.74664
# Velocity P-wave (km/s) = 5.48232 6.33139 5.92209
#
# Compressibility (1/GPa) = 0.03751165
#
# Stress axis : x y z
#
# Youngs Moduli (GPa) = 40.51845 99.11791 71.80969
#
# Poissons Ratio (x) = 0.31519 -0.01487
# Poissons Ratio (y) = 0.12885 0.18805
# Poissons Ratio (z) = -0.00839 0.25957
#
# Static dielectric constant tensor:
#      x y z
#    x 3.535460 0.000000 -0.271120 
#    y 0.000000 4.036290 0.000000 
#    z -0.271120 0.000000 3.781460 
# 
# 
# High freq. dielectric constant tensor:
#      x y z
#    x 1.788240 0.000000 -0.018280 
#    y 0.000000 1.811270 0.000000 
#    z -0.018280 0.000000 1.808590 
# 
# From -- ./inp_files/54149.got.cif
#   From: 2010.06.25/outbox.cif.g09.slc.cpg/sg12_28_cif.got.tgz:54149.got - 2010.06.28 00:19:55.
