data_PCOD8114379
_publ_section_title
;
Structure prediction by ZEFSAII (Michael W. Deem and Ramdas Pophale) SiO2 
 PCOD8114379
Probable space group: C 2/M
;
_chemical_formula_sum "Si O2"
_cell_formula_units_Z 32
_cell_length_a 9.192473
_cell_length_b 22.602937
_cell_length_c 10.597966
_cell_angle_alpha 90.000000
_cell_angle_beta 40.982138
_cell_angle_gamma 90.000000
_cell_volume 1444.131952
_symmetry_space_group_name_H-M "C 2/M"
_symmetry_group_IT_number 12
_symmetry_cell_setting 'monoclinic'
loop_
_space_group_symop_operation_xyz
x,y,z
-x,y,-z
-x,-y,-z
x,-y,z
1/2+x,1/2+y,z
1/2-x,1/2+y,-z
1/2-x,1/2-y,-z
1/2+x,1/2-y,z
loop_
_atom_site_type_symbol
_atom_site_label
_atom_site_fract_x
_atom_site_fract_y
_atom_site_fract_z
Si Si1 0.000000 0.597068 0.000000
Si Si2 0.101638 0.370349 0.669940
Si Si3 0.178254 0.000000 0.208388
Si Si4 0.705181 0.000000 0.575250
Si Si5 0.749471 0.224870 0.141801
Si Si6 0.000000 0.806940 0.500000
O O1 0.074409 0.637882 0.838130
O O2 0.201267 0.557653 0.925488
O O3 0.074516 0.438230 0.636568
O O4 0.354936 0.345735 0.493219
O O5 0.914562 0.330898 0.727639
O O6 0.216504 0.000000 0.332998
O O7 0.919756 0.000000 0.343224
O O8 0.668712 0.270058 0.302169
O O9 0.750000 0.250000 0.000000
O O10 0.000000 0.203409 0.000000
#
# Coordination Sequence:
#
# PCOD8114379 Si02
#       6
#     4   8   4   4   8   4
#     4   9  16  30  54  90 126 162 212 261 324 382
#     4  11  21  37  64  93 131 170 212 275 329 392
#     4   8  14  28  50  83 128 164 205 265 310 378
#     4   9  18  32  53  92 126 164 211 261 336 388
#     4  12  26  46  68  98 132 178 227 273 328 387
#     4  12  24  43  68  99 132 172 226 280 326 380
#
# _framework density 22.158639999999998
#
# number of rings (size 3 to 8) (size 9 to 14) (size 15 to 20)
#    0.000    1.500    2.500    6.000    0.000    0.000 
#    0.000    0.625    0.000    0.750    0.000    0.000 
#    0.000    0.000    0.000    0.000    0.000    0.000 
#
# Total GULP energy -198210.717483 kJ/mol
# GULP energy per Si atom -12388.169843 kJ/mol
# Density = 2.210821 g / cm^3
# Si number density = 22.158640 Si / 1000 Ang^3
#
#
#
# Elastic Constant Matrix: (Units=GPa)
#
#
# Indices 1 2 3 4 5 6 
#
# 1 63.9799 39.1226 23.1669 0.0000 -31.6906 0.0000
# 2 39.1226 154.3612 39.3777 0.0000 -29.0309 0.0000
# 3 23.1669 39.3777 100.3462 0.0000 -24.5170 0.0000
# 4 0.0000 0.0000 0.0000 -40.3409 0.0000 -16.7937
# 5 -31.6906 -29.0309 -24.5170 0.0000 44.4965 0.0000
# 6 0.0000 0.0000 0.0000 -16.7937 0.0000 16.2822
#
#
#
# Elastic Compliance Matrix: (Units=1/GPa)
#
#
# Indices 1 2 3 4 5 6 
#
# 1 0.025760 -0.003374 -0.000784 0.000000 0.015713 0.000000
# 2 -0.003374 0.008186 -0.001983 0.000000 0.001846 0.000000
# 3 -0.000784 -0.001983 0.012101 0.000000 0.004816 0.000000
# 4 0.000000 0.000000 0.000000 -0.017342 0.000000 -0.017887
# 5 0.015713 0.001846 0.004816 0.000000 0.037522 0.000000
# 6 0.000000 0.000000 0.000000 -0.017887 0.000000 0.042968
#
#
# Mechanical properties :
#
#
# Convention : Reuss Voigt Hill
#
# Bulk Modulus (GPa) = 29.61521 58.00239 43.80880
# Shear Modulus (GPa) = 37.67028 18.55558 28.11293
#
# Velocity S-wave (km/s) = 4.12761 2.89692 3.56576
# Velocity P-wave (km/s) = 6.00919 6.11738 6.06352
#
# Compressibility (1/GPa) = 0.03376643
#
# Stress axis : x y z
#
# Youngs Moduli (GPa) = 38.82023 122.15595 82.63709
#
# Poissons Ratio (x) = 0.41210 0.06481
# Poissons Ratio (y) = 0.13096 0.16383
# Poissons Ratio (z) = 0.03044 0.24218
#
# Static dielectric constant tensor:
#      x y z
#    x 3.546420 0.000000 -0.278160 
#    y 0.000000 4.174020 0.000000 
#    z -0.278160 0.000000 4.564300 
# 
# 
# High freq. dielectric constant tensor:
#      x y z
#    x 1.803980 0.000000 -0.017440 
#    y 0.000000 1.881620 0.000000 
#    z -0.017440 0.000000 1.895790 
# 
# From -- ./inp_files/122917.got.cif
#   From: 2010.06.25/outbox.cif.g09.slc.cpg/sg12_62_cif.got.tgz:122917.got - 2010.06.28 00:19:55.
