data_PCOD8114642
_publ_section_title
;
Structure prediction by ZEFSAII (Michael W. Deem and Ramdas Pophale) SiO2 
 PCOD8114642
Probable space group: C 2/M
;
_chemical_formula_sum "Si O2"
_cell_formula_units_Z 48
_cell_length_a 29.925513
_cell_length_b 9.045938
_cell_length_c 9.351289
_cell_angle_alpha 90.000000
_cell_angle_beta 87.759780
_cell_angle_gamma 90.000000
_cell_volume 2529.499755
_symmetry_space_group_name_H-M "C 2/M"
_symmetry_group_IT_number 12
_symmetry_cell_setting 'monoclinic'
loop_
_space_group_symop_operation_xyz
x,y,z
-x,y,-z
-x,-y,-z
x,-y,z
1/2+x,1/2+y,z
1/2-x,1/2+y,-z
1/2-x,1/2-y,-z
1/2+x,1/2-y,z
loop_
_atom_site_type_symbol
_atom_site_label
_atom_site_fract_x
_atom_site_fract_y
_atom_site_fract_z
Si Si1 0.759247 0.175515 0.648593
Si Si2 0.669766 0.171242 0.181414
Si Si3 0.933086 0.668279 0.848838
Si Si4 0.319873 0.824758 0.137100
Si Si5 0.417940 0.172566 0.177620
Si Si6 0.992956 0.174193 0.339440
O O1 0.750000 0.250000 0.500000
O O2 0.806911 0.230079 0.700570
O O3 0.720869 0.231988 0.761861
O O4 0.759104 0.000000 0.632035
O O5 0.616830 0.193002 0.203068
O O6 0.682847 0.000000 0.201704
O O7 0.686138 0.231602 0.024752
O O8 0.948372 0.500000 0.819336
O O9 0.965571 0.776804 0.761904
O O10 0.936228 0.703997 0.016380
O O11 0.366921 0.768446 0.196463
O O12 0.322676 0.000000 0.129556
O O13 0.446666 0.259415 0.289459
O O14 0.420839 0.000000 0.213022
O O15 0.000000 0.230128 0.500000
O O16 0.989191 0.000000 0.332241
#
# Coordination Sequence:
#
# PCOD8114642 Si02
#       6
#     8   8   8   8   8   8
#     4  11  22  35  52  78 111 145 178 212 257 310
#     4   9  18  36  59  81 104 132 172 221 267 309
#     4   9  19  36  59  82 102 131 174 220 263 312
#     4   8  17  35  58  80 103 134 174 219 262 310
#     4   9  18  36  60  81 100 130 177 223 261 308
#     4  11  24  37  49  74 112 145 173 211 260 312
#
# _framework density 18.976084
#
# number of rings (size 3 to 8) (size 9 to 14) (size 15 to 20)
#    0.000    2.500    0.000    4.000    0.000    6.000 
#    0.000   10.000    0.000    0.000    0.000    0.000 
#    0.000    0.000    0.000    0.000    0.000    0.000 
#
# Total GULP energy -297626.207363 kJ/mol
# GULP energy per Si atom -12401.091973 kJ/mol
# Density = 1.893289 g / cm^3
# Si number density = 18.976084 Si / 1000 Ang^3
#
#
#
# Elastic Constant Matrix: (Units=GPa)
#
#
# Indices 1 2 3 4 5 6 
#
# 1 77.9649 29.6872 37.0901 0.0000 26.6922 0.0000
# 2 29.6872 56.6250 34.1711 0.0000 15.7475 0.0000
# 3 37.0901 34.1711 81.1073 0.0000 35.2521 0.0000
# 4 0.0000 0.0000 0.0000 31.9629 0.0000 4.3649
# 5 26.6922 15.7475 35.2521 0.0000 31.5383 0.0000
# 6 0.0000 0.0000 0.0000 4.3649 0.0000 27.8683
#
#
#
# Elastic Compliance Matrix: (Units=1/GPa)
#
#
# Indices 1 2 3 4 5 6 
#
# 1 0.020078 -0.006415 -0.000944 0.000000 -0.012735 0.000000
# 2 -0.006415 0.025758 -0.009118 0.000000 0.002760 0.000000
# 3 -0.000944 -0.009118 0.027765 0.000000 -0.025683 0.000000
# 4 0.000000 0.000000 0.000000 0.031970 0.000000 -0.005007
# 5 -0.012735 0.002760 -0.025683 0.000000 0.069815 0.000000
# 6 0.000000 0.000000 0.000000 -0.005007 0.000000 0.036667
#
#
# Mechanical properties :
#
#
# Convention : Reuss Voigt Hill
#
# Bulk Modulus (GPa) = 24.60193 46.39933 35.50063
# Shear Modulus (GPa) = 19.33808 25.92381 22.63095
#
# Velocity S-wave (km/s) = 3.19576 3.70013 3.45716
# Velocity P-wave (km/s) = 5.15849 6.53905 5.88936
#
# Compressibility (1/GPa) = 0.04064721
#
# Stress axis : x y z
#
# Youngs Moduli (GPa) = 49.80588 38.82243 36.01621
#
# Poissons Ratio (x) = 0.24906 0.03399
# Poissons Ratio (y) = 0.31952 0.32839
# Poissons Ratio (z) = 0.04701 0.35398
#
# Static dielectric constant tensor:
#      x y z
#    x 3.612580 0.000000 0.008130 
#    y 0.000000 3.215030 0.000000 
#    z 0.008130 0.000000 3.526260 
# 
# 
# High freq. dielectric constant tensor:
#      x y z
#    x 1.750050 0.000000 0.007350 
#    y 0.000000 1.717250 0.000000 
#    z 0.007350 0.000000 1.736560 
# 
# From -- ./inp_files/108749.got.cif
#   From: 2010.06.25/outbox.cif.g09.slc.cpg/sg12_55_cif.got.tgz:108749.got - 2010.06.28 00:19:55.
