data_PCOD8114042
_publ_section_title
;
Structure prediction by ZEFSAII (Michael W. Deem and Ramdas Pophale) SiO2 
 PCOD8114042
Probable space group: C 2/M
;
_chemical_formula_sum "Si O2"
_cell_formula_units_Z 56
_cell_length_a 9.351451
_cell_length_b 24.694187
_cell_length_c 15.649357
_cell_angle_alpha 90.000000
_cell_angle_beta 126.016478
_cell_angle_gamma 90.000000
_cell_volume 2923.055789
_symmetry_space_group_name_H-M "C 2/M"
_symmetry_group_IT_number 12
_symmetry_cell_setting 'monoclinic'
loop_
_space_group_symop_operation_xyz
x,y,z
-x,y,-z
-x,-y,-z
x,-y,z
1/2+x,1/2+y,z
1/2-x,1/2+y,-z
1/2-x,1/2-y,-z
1/2+x,1/2-y,z
loop_
_atom_site_type_symbol
_atom_site_label
_atom_site_fract_x
_atom_site_fract_y
_atom_site_fract_z
Si Si1 0.021545 0.305292 0.103842
Si Si2 0.580824 0.564492 0.355775
Si Si3 0.888551 0.563911 0.591339
Si Si4 0.807280 0.000000 0.895515
Si Si5 0.478269 0.000000 0.893232
Si Si6 0.820842 0.192538 0.894797
Si Si7 0.704796 0.901078 0.258559
Si Si8 0.744303 0.596680 0.249918
O O1 0.122063 0.248366 0.129727
O O2 0.152445 0.343153 0.202811
O O3 0.832257 0.299779 0.086825
O O4 0.000000 0.329035 0.000000
O O5 0.562244 0.500000 0.343169
O O6 0.747426 0.581667 0.471698
O O7 0.413787 0.591758 0.341198
O O8 0.587695 0.590388 0.263424
O O9 0.878755 0.500000 0.605518
O O10 0.867783 0.595708 0.672008
O O11 0.083576 0.582587 0.631154
O O12 0.772794 0.053486 0.830427
O O13 0.675266 0.000000 0.927573
O O14 0.000000 0.000000 0.000000
O O15 0.372662 0.947135 0.828946
O O16 0.500000 0.000000 0.000000
O O17 0.752590 0.155027 0.793626
O O18 0.000000 0.167355 0.000000
#
# Coordination Sequence:
#
# PCOD8114042 Si02
#       8
#     8   8   8   4   4   8   8   8
#     4  11  24  42  66  92 122 162 207 253 303 369
#     4  11  24  36  65  96 123 165 210 254 298 372
#     4  11  20  42  63  90 127 163 208 252 308 362
#     4  12  24  38  57  87 126 160 193 245 307 374
#     4  12  24  38  57  87 126 160 193 245 307 374
#     4  11  24  42  66  92 122 162 207 253 303 369
#     4  12  22  40  61  91 127 159 202 253 310 362
#     4  12  22  40  61  91 127 159 202 253 310 362
#
# _framework density 19.158034000000001
#
# number of rings (size 3 to 8) (size 9 to 14) (size 15 to 20)
#    0.000    0.571    5.714    3.429    6.000    2.286 
#    0.000    0.000    0.000    5.143    0.000    0.000 
#    0.000    0.000    0.000    0.000    0.000    0.000 
#
# Total GULP energy -347177.618878 kJ/mol
# GULP energy per Si atom -12399.200674 kJ/mol
# Density = 1.911443 g / cm^3
# Si number density = 19.158034 Si / 1000 Ang^3
#
#
#
# Elastic Constant Matrix: (Units=GPa)
#
#
# Indices 1 2 3 4 5 6 
#
# 1 53.6832 23.4233 39.5873 0.0000 17.8035 0.0000
# 2 23.4233 77.8819 43.1715 0.0000 3.3630 0.0000
# 3 39.5873 43.1715 96.0145 0.0000 8.0923 0.0000
# 4 0.0000 0.0000 0.0000 49.7474 0.0000 4.7466
# 5 17.8035 3.3630 8.0923 0.0000 40.0206 0.0000
# 6 0.0000 0.0000 0.0000 4.7466 0.0000 27.9911
#
#
#
# Elastic Compliance Matrix: (Units=1/GPa)
#
#
# Indices 1 2 3 4 5 6 
#
# 1 0.031766 -0.003110 -0.010712 0.000000 -0.011704 0.000000
# 2 -0.003110 0.017408 -0.006651 0.000000 0.001266 0.000000
# 3 -0.010712 -0.006651 0.017675 0.000000 0.001750 0.000000
# 4 0.000000 0.000000 0.000000 0.020432 0.000000 -0.003465
# 5 -0.011704 0.001266 0.001750 0.000000 0.029733 0.000000
# 6 0.000000 0.000000 0.000000 -0.003465 0.000000 0.036313
#
#
# Mechanical properties :
#
#
# Convention : Reuss Voigt Hill
#
# Bulk Modulus (GPa) = 38.60916 48.88264 43.74590
# Shear Modulus (GPa) = 24.64156 31.64497 28.14327
#
# Velocity S-wave (km/s) = 3.59029 4.06863 3.83692
# Velocity P-wave (km/s) = 6.11422 6.90235 6.52020
#
# Compressibility (1/GPa) = 0.02590059
#
# Stress axis : x y z
#
# Youngs Moduli (GPa) = 31.48025 57.44564 56.57690
#
# Poissons Ratio (x) = 0.17867 0.60607
# Poissons Ratio (y) = 0.09791 0.37632
# Poissons Ratio (z) = 0.33723 0.38210
#
# Static dielectric constant tensor:
#      x y z
#    x 3.977180 0.000000 0.047710 
#    y 0.000000 3.426340 0.000000 
#    z 0.047710 0.000000 3.241960 
# 
# 
# High freq. dielectric constant tensor:
#      x y z
#    x 1.770180 0.000000 -0.000580 
#    y 0.000000 1.725320 0.000000 
#    z -0.000580 0.000000 1.749240 
# 
# From -- ./inp_files/199001.got.cif
#   From: 2010.06.25/outbox.cif.g09.slc.cpg/sg12_100_cif.got.tgz:199001.got - 2010.06.28 00:19:55.
