data_PCOD8114541
_publ_section_title
;
Structure prediction by ZEFSAII (Michael W. Deem and Ramdas Pophale) SiO2 
 PCOD8114541
Probable space group: C 2/M
;
_chemical_formula_sum "Si O2"
_cell_formula_units_Z 48
_cell_length_a 11.969417
_cell_length_b 21.308359
_cell_length_c 13.634778
_cell_angle_alpha 90.000000
_cell_angle_beta 138.391691
_cell_angle_gamma 90.000000
_cell_volume 2309.201422
_symmetry_space_group_name_H-M "C 2/M"
_symmetry_group_IT_number 12
_symmetry_cell_setting 'monoclinic'
loop_
_space_group_symop_operation_xyz
x,y,z
-x,y,-z
-x,-y,-z
x,-y,z
1/2+x,1/2+y,z
1/2-x,1/2+y,-z
1/2-x,1/2-y,-z
1/2+x,1/2-y,z
loop_
_atom_site_type_symbol
_atom_site_label
_atom_site_fract_x
_atom_site_fract_y
_atom_site_fract_z
Si Si1 0.379735 0.838340 0.833487
Si Si2 0.955496 0.500000 0.304219
Si Si3 0.167750 0.198914 0.172757
Si Si4 0.006239 0.636409 0.710535
Si Si5 0.167039 0.871348 0.367119
Si Si6 0.250146 0.500000 0.654594
Si Si7 0.584791 0.429880 0.657708
O O1 0.288087 0.772757 0.798568
O O2 0.479565 0.829197 0.796380
O O3 0.260215 0.897960 0.747615
O O4 0.500000 0.856644 0.000000
O O5 0.781872 0.500000 0.250029
O O6 0.970062 0.562464 0.248641
O O7 0.091423 0.500000 0.479160
O O8 0.328715 0.162629 0.235290
O O9 0.131151 0.180864 0.261738
O O10 0.000000 0.184704 0.000000
O O11 0.846426 0.644811 0.534003
O O12 0.020501 0.877353 0.351402
O O13 0.149024 0.937407 0.300517
O O14 0.500000 0.442881 0.500000
O O15 0.603693 0.500000 0.719757
#
# Coordination Sequence:
#
# PCOD8114541 Si02
#       7
#     8   4   8   8   8   4   8
#     4  11  28  46  64  90 136 182 214 262 329 391
#     4   9  18  34  64  94 127 154 211 262 321 384
#     4  11  27  44  65  93 131 177 220 271 325 380
#     4  11  23  43  68  97 127 171 218 270 325 386
#     4  11  21  41  68  98 131 165 216 270 325 384
#     4   9  16  34  60  97 125 165 197 259 332 370
#     4  11  24  43  69 102 134 167 215 268 323 391
#
# _framework density 20.786405999999999
#
# number of rings (size 3 to 8) (size 9 to 14) (size 15 to 20)
#    0.000    1.333    4.167    0.500    5.833    3.667 
#    0.000    1.667    0.000    0.000    0.000    0.000 
#    0.000    0.000    0.000    0.000    0.000    0.000 
#
# Total GULP energy -297446.114279 kJ/mol
# GULP energy per Si atom -12393.588095 kJ/mol
# Density = 2.073909 g / cm^3
# Si number density = 20.786406 Si / 1000 Ang^3
#
#
#
# Elastic Constant Matrix: (Units=GPa)
#
#
# Indices 1 2 3 4 5 6 
#
# 1 111.1590 25.8153 37.2999 0.0000 0.0578 0.0000
# 2 25.8153 102.0410 48.9288 0.0000 2.5935 0.0000
# 3 37.2999 48.9288 82.0990 0.0000 -15.9821 0.0000
# 4 0.0000 0.0000 0.0000 41.7410 0.0000 5.5900
# 5 0.0578 2.5935 -15.9821 0.0000 24.2537 0.0000
# 6 0.0000 0.0000 0.0000 5.5900 0.0000 37.6683
#
#
#
# Elastic Compliance Matrix: (Units=1/GPa)
#
#
# Indices 1 2 3 4 5 6 
#
# 1 0.010908 0.000101 -0.005762 0.000000 -0.003834 0.000000
# 2 0.000101 0.015167 -0.010784 0.000000 -0.008729 0.000000
# 3 -0.005762 -0.010784 0.024610 0.000000 0.017384 0.000000
# 4 0.000000 0.000000 0.000000 0.024443 0.000000 -0.003627
# 5 -0.003834 -0.008729 0.017384 0.000000 0.053628 0.000000
# 6 0.000000 0.000000 0.000000 -0.003627 0.000000 0.027086
#
#
# Mechanical properties :
#
#
# Convention : Reuss Voigt Hill
#
# Bulk Modulus (GPa) = 56.20017 57.70969 56.95493
# Shear Modulus (GPa) = 25.68507 32.94960 29.31733
#
# Velocity S-wave (km/s) = 3.51902 3.98572 3.75962
# Velocity P-wave (km/s) = 6.60356 7.00034 6.80484
#
# Compressibility (1/GPa) = 0.01779354
#
# Stress axis : x y z
#
# Youngs Moduli (GPa) = 91.67334 65.93066 40.63445
#
# Poissons Ratio (x) = -0.00665 0.23415
# Poissons Ratio (y) = -0.00924 0.43822
# Poissons Ratio (z) = 0.52826 0.71102
#
# Static dielectric constant tensor:
#      x y z
#    x 3.778250 0.000000 -0.111350 
#    y 0.000000 4.007120 0.000000 
#    z -0.111350 0.000000 3.319960 
# 
# 
# High freq. dielectric constant tensor:
#      x y z
#    x 1.822570 0.000000 -0.003120 
#    y 0.000000 1.824880 0.000000 
#    z -0.003120 0.000000 1.789140 
# 
# From -- ./inp_files/208039.got.cif
#   From: 2010.06.25/outbox.cif.g09.slc.cpg/sg12_105_cif.got.tgz:208039.got - 2010.06.28 00:19:55.
