data_PCOD8114500
_publ_section_title
;
Structure prediction by ZEFSAII (Michael W. Deem and Ramdas Pophale) SiO2 
 PCOD8114500
Probable space group: C 2/M
;
_chemical_formula_sum "Si O2"
_cell_formula_units_Z 44
_cell_length_a 19.247695
_cell_length_b 22.403784
_cell_length_c 5.081646
_cell_angle_alpha 90.000000
_cell_angle_beta 64.879796
_cell_angle_gamma 90.000000
_cell_volume 1984.057219
_symmetry_space_group_name_H-M "C 2/M"
_symmetry_group_IT_number 12
_symmetry_cell_setting 'monoclinic'
loop_
_space_group_symop_operation_xyz
x,y,z
-x,y,-z
-x,-y,-z
x,-y,z
1/2+x,1/2+y,z
1/2-x,1/2+y,-z
1/2-x,1/2-y,-z
1/2+x,1/2-y,z
loop_
_atom_site_type_symbol
_atom_site_label
_atom_site_fract_x
_atom_site_fract_y
_atom_site_fract_z
Si Si1 0.321850 0.396593 0.525855
Si Si2 0.547417 0.190596 0.688433
Si Si3 0.430136 0.063959 0.414220
Si Si4 0.260978 0.933965 0.838332
Si Si5 0.554253 0.500000 0.664371
Si Si6 0.802106 0.236942 0.661140
O O1 0.283033 0.391675 0.299256
O O2 0.396659 0.438751 0.408857
O O3 0.338990 0.329354 0.595357
O O4 0.260963 0.423055 0.826227
O O5 0.500000 0.188901 0.500000
O O6 0.562170 0.123031 0.777238
O O7 0.626709 0.219317 0.477722
O O8 0.500000 0.223895 0.000000
O O9 0.500000 0.060410 0.500000
O O10 0.351852 0.073275 0.700279
O O11 0.426812 0.000000 0.260843
O O12 0.235043 0.000000 0.793220
O O13 0.500000 0.500000 0.500000
O O14 0.500000 0.500000 0.000000
O O15 0.750000 0.250000 0.500000
O O16 0.750000 0.250000 0.000000
#
# Coordination Sequence:
#
# PCOD8114500 Si02
#       6
#     8   8   8   8   4   8
#     4  12  24  44  69  98 135 175 224 283 347 412
#     4  11  24  42  63  90 131 171 217 271 326 394
#     4   9  20  37  61  94 129 171 215 263 318 383
#     4  11  21  40  67  97 136 171 216 273 337 397
#     4  12  26  44  70 104 137 174 231 300 366 426
#     4  12  26  45  70 100 136 183 235 280 337 417
#
# _framework density 22.176779
#
# number of rings (size 3 to 8) (size 9 to 14) (size 15 to 20)
#    0.000    0.909    1.818    5.455    0.000    6.182 
#    0.000    5.455    0.000    0.000    0.000    0.000 
#    0.000    0.000    0.000    0.000    0.000    0.000 
#
# Total GULP energy -272609.193446 kJ/mol
# GULP energy per Si atom -12391.326975 kJ/mol
# Density = 2.212630 g / cm^3
# Si number density = 22.176779 Si / 1000 Ang^3
#
#
#
# Elastic Constant Matrix: (Units=GPa)
#
#
# Indices 1 2 3 4 5 6 
#
# 1 124.5588 54.4341 56.1105 0.0000 -17.0586 0.0000
# 2 54.4341 158.0669 45.9448 0.0000 -20.1644 0.0000
# 3 56.1105 45.9448 175.9185 0.0000 -15.1609 0.0000
# 4 0.0000 0.0000 0.0000 15.0728 0.0000 9.0319
# 5 -17.0586 -20.1644 -15.1609 0.0000 38.4851 0.0000
# 6 0.0000 0.0000 0.0000 9.0319 0.0000 5.5378
#
#
#
# Elastic Compliance Matrix: (Units=1/GPa)
#
#
# Indices 1 2 3 4 5 6 
#
# 1 0.010626 -0.002634 -0.002499 0.000000 0.002346 0.000000
# 2 -0.002634 0.007847 -0.000989 0.000000 0.002554 0.000000
# 3 -0.002499 -0.000989 0.006832 0.000000 0.001065 0.000000
# 4 0.000000 0.000000 0.000000 2.920527 0.000000 -4.763212
# 5 0.002346 0.002554 0.001065 0.000000 0.028782 0.000000
# 6 0.000000 0.000000 0.000000 -4.763212 0.000000 7.949101
#
#
# Mechanical properties :
#
#
# Convention : Reuss Voigt Hill
#
# Bulk Modulus (GPa) = 76.56713 85.72479 81.14596
# Shear Modulus (GPa) = 0.45703 31.95613 16.20658
#
# Velocity S-wave (km/s) = 0.45446 3.80013 2.70625
# Velocity P-wave (km/s) = 5.90560 7.61537 6.81432
#
# Compressibility (1/GPa) = 0.01306043
#
# Stress axis : x y z
#
# Youngs Moduli (GPa) = 94.10455 127.44048 146.37455
#
# Poissons Ratio (x) = 0.33565 0.36585
# Poissons Ratio (y) = 0.24785 0.14479
# Poissons Ratio (z) = 0.23520 0.12606
#
# Static dielectric constant tensor:
#      x y z
#    x 3.402480 0.000000 -0.137950 
#    y 0.000000 4.798870 0.000000 
#    z -0.137950 0.000000 3.982130 
# 
# 
# High freq. dielectric constant tensor:
#      x y z
#    x 1.871460 0.000000 -0.011730 
#    y 0.000000 1.886130 0.000000 
#    z -0.011730 0.000000 1.882650 
# 
# From -- ./inp_files/16822.got.cif
#   From: 2010.06.25/outbox.cif.g09.slc.cpg/sg12_9_cif.got.tgz:16822.got - 2010.06.28 00:19:55.
