data_PCOD8114905
_publ_section_title
;
Structure prediction by ZEFSAII (Michael W. Deem and Ramdas Pophale) SiO2 
 PCOD8114905
Probable space group: C 2/M
;
_chemical_formula_sum "Si O2"
_cell_formula_units_Z 32
_cell_length_a 36.044857
_cell_length_b 8.229153
_cell_length_c 5.148173
_cell_angle_alpha 90.000000
_cell_angle_beta 90.012771
_cell_angle_gamma 90.000000
_cell_volume 1527.044052
_symmetry_space_group_name_H-M "C 2/M"
_symmetry_group_IT_number 12
_symmetry_cell_setting 'monoclinic'
loop_
_space_group_symop_operation_xyz
x,y,z
-x,y,-z
-x,-y,-z
x,-y,z
1/2+x,1/2+y,z
1/2-x,1/2+y,-z
1/2-x,1/2-y,-z
1/2+x,1/2-y,z
loop_
_atom_site_type_symbol
_atom_site_label
_atom_site_fract_x
_atom_site_fract_y
_atom_site_fract_z
Si Si1 0.668863 0.189237 0.504494
Si Si2 0.458133 0.193950 0.002411
Si Si3 0.915158 0.693451 0.501446
Si Si4 0.791586 0.811843 0.995522
O O1 0.626947 0.256968 0.499404
O O2 0.684862 0.214143 0.792042
O O3 0.670246 0.000000 0.432915
O O4 0.692322 0.286072 0.291718
O O5 0.436842 0.262814 0.252826
O O6 0.458625 0.000000 0.002773
O O7 0.500000 0.261772 0.000000
O O8 0.436264 0.260970 0.753252
O O9 0.915433 0.500000 0.495343
O O10 0.792667 0.000000 0.068914
O O11 0.750000 0.750000 0.000000
#
# Coordination Sequence:
#
# PCOD8114905 Si02
#       4
#     8   8   8   8
#     4  11  22  39  61  86 118 155 194 237 289 345
#     4   9  15  24  40  67 106 147 182 221 275 333
#     4   9  17  28  45  71 105 145 184 225 277 333
#     4  12  25  42  62  87 117 150 191 237 289 345
#
# _framework density 20.95552
#
# number of rings (size 3 to 8) (size 9 to 14) (size 15 to 20)
#    0.000    1.750    0.000    6.000    0.000    7.000 
#    0.000    0.000    0.000    0.000    0.000    0.000 
#    0.000   70.000    0.000    0.000    0.000    0.000 
#
# Total GULP energy -198466.034455 kJ/mol
# GULP energy per Si atom -12404.127153 kJ/mol
# Density = 2.090782 g / cm^3
# Si number density = 20.955520 Si / 1000 Ang^3
#
#
#
# Elastic Constant Matrix: (Units=GPa)
#
#
# Indices 1 2 3 4 5 6 
#
# 1 192.0418 23.7194 71.6243 0.0000 0.7156 0.0000
# 2 23.7194 38.5252 9.3244 0.0000 -3.8033 0.0000
# 3 71.6243 9.3244 156.8229 0.0000 -0.5527 0.0000
# 4 0.0000 0.0000 0.0000 21.8168 0.0000 -0.3820
# 5 0.7156 -3.8033 -0.5527 0.0000 52.0955 0.0000
# 6 0.0000 0.0000 0.0000 -0.3820 0.0000 13.1191
#
#
#
# Elastic Compliance Matrix: (Units=1/GPa)
#
#
# Indices 1 2 3 4 5 6 
#
# 1 0.006703 -0.003473 -0.002856 0.000000 -0.000376 0.000000
# 2 -0.003473 0.028326 -0.000091 0.000000 0.002115 0.000000
# 3 -0.002856 -0.000091 0.007687 0.000000 0.000114 0.000000
# 4 0.000000 0.000000 0.000000 0.045860 0.000000 0.001335
# 5 -0.000376 0.002115 0.000114 0.000000 0.019356 0.000000
# 6 0.000000 0.000000 0.000000 0.001335 0.000000 0.076264
#
#
# Mechanical properties :
#
#
# Convention : Reuss Voigt Hill
#
# Bulk Modulus (GPa) = 33.47116 66.30290 49.88703
# Shear Modulus (GPa) = 24.15545 36.25441 30.20493
#
# Velocity S-wave (km/s) = 3.39883 4.16392 3.80067
# Velocity P-wave (km/s) = 5.60445 7.40447 6.56643
#
# Compressibility (1/GPa) = 0.02987647
#
# Stress axis : x y z
#
# Youngs Moduli (GPa) = 149.19280 35.30351 130.09189
#
# Poissons Ratio (x) = 0.12260 0.37156
# Poissons Ratio (y) = 0.51809 0.01180
# Poissons Ratio (z) = 0.42611 0.00320
#
# Static dielectric constant tensor:
#      x y z
#    x 4.025720 0.000000 -0.044740 
#    y 0.000000 3.237870 0.000000 
#    z -0.044740 0.000000 4.014960 
# 
# 
# High freq. dielectric constant tensor:
#      x y z
#    x 1.841340 0.000000 -0.000260 
#    y 0.000000 1.773270 0.000000 
#    z -0.000260 0.000000 1.837690 
# 
# From -- ./inp_files/3531.got.cif
#   From: 2010.06.25/outbox.cif.g09.slc.cpg/sg12_2_cif.got.tgz:3531.got - 2010.06.28 00:19:55.
