data_PCOD8114854
_publ_section_title
;
Structure prediction by ZEFSAII (Michael W. Deem and Ramdas Pophale) SiO2 
 PCOD8114854
Probable space group: C 2/M
;
_chemical_formula_sum "Si O2"
_cell_formula_units_Z 48
_cell_length_a 24.763768
_cell_length_b 8.353376
_cell_length_c 12.410893
_cell_angle_alpha 90.000000
_cell_angle_beta 70.877121
_cell_angle_gamma 90.000000
_cell_volume 2425.660560
_symmetry_space_group_name_H-M "C 2/M"
_symmetry_group_IT_number 12
_symmetry_cell_setting 'monoclinic'
loop_
_space_group_symop_operation_xyz
x,y,z
-x,y,-z
-x,-y,-z
x,-y,z
1/2+x,1/2+y,z
1/2-x,1/2+y,-z
1/2-x,1/2-y,-z
1/2+x,1/2-y,z
loop_
_atom_site_type_symbol
_atom_site_label
_atom_site_fract_x
_atom_site_fract_y
_atom_site_fract_z
Si Si1 0.869641 0.316120 0.229180
Si Si2 0.437635 0.186383 0.759360
Si Si3 0.938541 0.812649 0.997302
Si Si4 0.942590 0.815021 0.370405
Si Si5 0.636287 0.687308 0.380760
Si Si6 0.746521 0.686044 0.622667
O O1 0.880595 0.500000 0.251838
O O2 0.905638 0.206716 0.287120
O O3 0.802840 0.277604 0.280600
O O4 0.889702 0.280576 0.094754
O O5 0.432691 0.271176 0.876891
O O6 0.500463 0.209732 0.668936
O O7 0.390721 0.270080 0.715676
O O8 0.424166 0.000000 0.778929
O O9 0.930283 0.000000 0.020924
O O10 0.000000 0.754606 0.000000
O O11 0.906327 0.757906 0.496635
O O12 0.960671 0.000000 0.368363
O O13 0.649683 0.500000 0.380803
O O14 0.694641 0.784995 0.353639
O O15 0.731567 0.500000 0.629401
O O16 0.750000 0.750000 0.500000
#
# Coordination Sequence:
#
# PCOD8114854 Si02
#       6
#     8   8   8   8   8   8
#     4  12  24  39  64  96 128 161 208 261 313 368
#     4  12  25  40  62  93 130 167 210 259 316 376
#     4  11  23  41  66  91 124 166 211 257 312 372
#     4  11  22  38  62  92 128 167 208 257 314 372
#     4  11  24  42  64  91 128 169 212 258 314 375
#     4  12  24  41  65  93 127 166 211 258 310 368
#
# _framework density 19.788425
#
# number of rings (size 3 to 8) (size 9 to 14) (size 15 to 20)
#    0.000    0.500    3.333    6.500    0.000    4.667 
#    0.000    0.833    0.000    0.000    0.000    0.000 
#    0.000    0.000    0.000    0.000    0.000    0.000 
#
# Total GULP energy -297828.578775 kJ/mol
# GULP energy per Si atom -12409.524116 kJ/mol
# Density = 1.974339 g / cm^3
# Si number density = 19.788425 Si / 1000 Ang^3
#
#
#
# Elastic Constant Matrix: (Units=GPa)
#
#
# Indices 1 2 3 4 5 6 
#
# 1 110.4479 11.7233 63.6089 0.0000 2.4543 0.0000
# 2 11.7233 76.9145 25.3451 0.0000 -8.5039 0.0000
# 3 63.6089 25.3451 104.8631 0.0000 -7.4790 0.0000
# 4 0.0000 0.0000 0.0000 31.7962 0.0000 -0.8986
# 5 2.4543 -8.5039 -7.4790 0.0000 37.1751 0.0000
# 6 0.0000 0.0000 0.0000 -0.8986 0.0000 32.7803
#
#
#
# Elastic Compliance Matrix: (Units=1/GPa)
#
#
# Indices 1 2 3 4 5 6 
#
# 1 0.014195 0.000484 -0.008914 0.000000 -0.002620 0.000000
# 2 0.000484 0.014392 -0.003591 0.000000 0.002538 0.000000
# 3 -0.008914 -0.003591 0.016025 0.000000 0.002991 0.000000
# 4 0.000000 0.000000 0.000000 0.031475 0.000000 0.000863
# 5 -0.002620 0.002538 0.002991 0.000000 0.028255 0.000000
# 6 0.000000 0.000000 0.000000 0.000863 0.000000 0.030530
#
#
# Mechanical properties :
#
#
# Convention : Reuss Voigt Hill
#
# Bulk Modulus (GPa) = 48.61730 54.84222 51.72976
# Shear Modulus (GPa) = 30.16242 33.12019 31.64130
#
# Velocity S-wave (km/s) = 3.90839 4.09554 4.00306
# Velocity P-wave (km/s) = 6.70741 7.08090 6.89668
#
# Compressibility (1/GPa) = 0.02056881
#
# Stress axis : x y z
#
# Youngs Moduli (GPa) = 70.44860 69.48507 62.40310
#
# Poissons Ratio (x) = -0.03365 0.55628
# Poissons Ratio (y) = -0.03411 0.22410
# Poissons Ratio (z) = 0.62800 0.24953
#
# Static dielectric constant tensor:
#      x y z
#    x 3.673080 0.000000 -0.103000 
#    y 0.000000 3.767510 0.000000 
#    z -0.103000 0.000000 3.677720 
# 
# 
# High freq. dielectric constant tensor:
#      x y z
#    x 1.769870 0.000000 -0.002950 
#    y 0.000000 1.785850 0.000000 
#    z -0.002950 0.000000 1.773860 
# 
# From -- ./inp_files/172852.got.cif
#   From: 2010.06.25/outbox.cif.g09.slc.cpg/sg12_87_cif.got.tgz:172852.got - 2010.06.28 00:19:55.
