data_PCOD8114633
_publ_section_title
;
Structure prediction by ZEFSAII (Michael W. Deem and Ramdas Pophale) SiO2 
 PCOD8114633
Probable space group: C 2/M
;
_chemical_formula_sum "Si O2"
_cell_formula_units_Z 56
_cell_length_a 27.534209
_cell_length_b 14.974535
_cell_length_c 8.356001
_cell_angle_alpha 90.000000
_cell_angle_beta 59.067301
_cell_angle_gamma 90.000000
_cell_volume 2955.263020
_symmetry_space_group_name_H-M "C 2/M"
_symmetry_group_IT_number 12
_symmetry_cell_setting 'monoclinic'
loop_
_space_group_symop_operation_xyz
x,y,z
-x,y,-z
-x,-y,-z
x,-y,z
1/2+x,1/2+y,z
1/2-x,1/2+y,-z
1/2-x,1/2-y,-z
1/2+x,1/2-y,z
loop_
_atom_site_type_symbol
_atom_site_label
_atom_site_fract_x
_atom_site_fract_y
_atom_site_fract_z
Si Si1 0.838198 0.904083 0.414181
Si Si2 0.127441 0.237891 0.066917
Si Si3 0.766352 0.806126 0.317486
Si Si4 0.567519 0.897772 0.692367
Si Si5 0.942295 0.100755 0.018173
Si Si6 0.846516 0.265044 0.620050
Si Si7 0.062776 0.399446 0.071177
O O1 0.792695 0.897217 0.344884
O O2 0.833637 0.823531 0.542868
O O3 0.827730 0.000000 0.516904
O O4 0.900475 0.901558 0.237255
O O5 0.081550 0.165131 0.081918
O O6 0.142223 0.223183 0.226256
O O7 0.100998 0.336069 0.112336
O O8 0.184483 0.241675 0.867270
O O9 0.750000 0.750000 0.500000
O O10 0.711592 0.823142 0.297071
O O11 0.602360 0.826338 0.529729
O O12 0.501662 0.887549 0.762857
O O13 0.587284 0.000000 0.623918
O O14 0.573930 0.874411 0.867850
O O15 0.951123 0.000000 0.933326
O O16 0.000000 0.138811 0.000000
O O17 0.082554 0.500000 0.070449
#
# Coordination Sequence:
#
# PCOD8114633 Si02
#       7
#     8   8   8   8   8   8   8
#     4   9  19  36  57  79 106 145 190 229 269 322
#     4  11  22  34  57  84 115 147 178 234 295 336
#     4   9  19  38  58  77 103 144 193 231 267 331
#     4   9  19  36  58  81 109 150 193 233 273 331
#     4   9  19  36  57  79 104 145 195 232 262 319
#     4  11  22  35  54  85 119 146 178 229 295 344
#     4   9  19  36  57  81 110 147 195 235 271 329
#
# _framework density 18.949244
#
# number of rings (size 3 to 8) (size 9 to 14) (size 15 to 20)
#    0.000    2.429    0.000    3.857    4.000    2.286 
#    0.000    5.714    0.000    7.714    0.000    0.000 
#    0.000    0.000    0.000    0.000    0.000    0.000 
#
# Total GULP energy -346951.631279 kJ/mol
# GULP energy per Si atom -12391.129689 kJ/mol
# Density = 1.890612 g / cm^3
# Si number density = 18.949244 Si / 1000 Ang^3
#
#
#
# Elastic Constant Matrix: (Units=GPa)
#
#
# Indices 1 2 3 4 5 6 
#
# 1 116.6362 46.8386 59.8642 0.0000 3.2420 0.0000
# 2 46.8386 97.7474 45.7353 0.0000 1.0401 0.0000
# 3 59.8642 45.7353 71.6568 0.0000 -1.9109 0.0000
# 4 0.0000 0.0000 0.0000 14.3678 0.0000 2.4024
# 5 3.2420 1.0401 -1.9109 0.0000 27.5243 0.0000
# 6 0.0000 0.0000 0.0000 2.4024 0.0000 12.9601
#
#
#
# Elastic Compliance Matrix: (Units=1/GPa)
#
#
# Indices 1 2 3 4 5 6 
#
# 1 0.015437 -0.001859 -0.011778 0.000000 -0.002566 0.000000
# 2 -0.001859 0.014850 -0.007949 0.000000 -0.000894 0.000000
# 3 -0.011778 -0.007949 0.028968 0.000000 0.003699 0.000000
# 4 0.000000 0.000000 0.000000 0.071827 0.000000 -0.013315
# 5 -0.002566 -0.000894 0.003699 0.000000 0.036924 0.000000
# 6 0.000000 0.000000 0.000000 -0.013315 0.000000 0.079628
#
#
# Mechanical properties :
#
#
# Convention : Reuss Voigt Hill
#
# Bulk Modulus (GPa) = 62.18158 65.65740 63.91949
# Shear Modulus (GPa) = 16.88240 19.87725 18.37983
#
# Velocity S-wave (km/s) = 2.98808 3.24230 3.11778
# Velocity P-wave (km/s) = 6.69260 6.98147 6.83856
#
# Compressibility (1/GPa) = 0.01608193
#
# Stress axis : x y z
#
# Youngs Moduli (GPa) = 64.78060 67.34035 34.52117
#
# Poissons Ratio (x) = 0.12516 0.40661
# Poissons Ratio (y) = 0.12040 0.27441
# Poissons Ratio (z) = 0.76302 0.53530
#
# Static dielectric constant tensor:
#      x y z
#    x 3.777160 0.000000 -0.147250 
#    y 0.000000 3.643590 0.000000 
#    z -0.147250 0.000000 3.293320 
# 
# 
# High freq. dielectric constant tensor:
#      x y z
#    x 1.741680 0.000000 -0.013120 
#    y 0.000000 1.735780 0.000000 
#    z -0.013120 0.000000 1.719270 
# 
# From -- ./inp_files/104452.got.cif
#   From: 2010.06.25/outbox.cif.g09.slc.cpg/sg12_53_cif.got.tgz:104452.got - 2010.06.28 00:19:55.
