data_PCOD8114518
_publ_section_title
;
Structure prediction by ZEFSAII (Michael W. Deem and Ramdas Pophale) SiO2 
 PCOD8114518
Probable space group: C 2/M
;
_chemical_formula_sum "Si O2"
_cell_formula_units_Z 40
_cell_length_a 13.460807
_cell_length_b 23.288302
_cell_length_c 9.535302
_cell_angle_alpha 90.000000
_cell_angle_beta 140.942957
_cell_angle_gamma 90.000000
_cell_volume 1883.426072
_symmetry_space_group_name_H-M "C 2/M"
_symmetry_group_IT_number 12
_symmetry_cell_setting 'monoclinic'
loop_
_space_group_symop_operation_xyz
x,y,z
-x,y,-z
-x,-y,-z
x,-y,z
1/2+x,1/2+y,z
1/2-x,1/2+y,-z
1/2-x,1/2-y,-z
1/2+x,1/2-y,z
loop_
_atom_site_type_symbol
_atom_site_label
_atom_site_fract_x
_atom_site_fract_y
_atom_site_fract_z
Si Si1 0.912256 0.631973 0.261862
Si Si2 0.655586 0.064300 0.078978
Si Si3 0.570774 0.212205 0.218684
Si Si4 0.126922 0.843221 0.535957
Si Si5 0.942054 0.159545 0.079806
O O1 0.885235 0.578684 0.127850
O O2 0.000000 0.611536 0.500000
O O3 0.019510 0.678781 0.301323
O O4 0.745528 0.660380 0.117457
O O5 0.725391 0.000000 0.158387
O O6 0.500000 0.067899 0.000000
O O7 0.784428 0.107145 0.283423
O O8 0.760417 0.206708 0.405640
O O9 0.505608 0.275756 0.155873
O O10 0.500000 0.182095 0.000000
O O11 0.000000 0.812683 0.500000
O O12 0.026716 0.873324 0.300943
O O13 0.000000 0.129597 0.000000
#
# Coordination Sequence:
#
# PCOD8114518 Si02
#       5
#     8   8   8   8   8
#     4  12  23  43  66  93 136 173 218 278 323 387
#     4  11  24  46  74  96 124 173 225 276 334 385
#     4  11  21  41  62  94 134 177 222 258 317 398
#     4  12  21  41  68  95 133 166 216 282 320 388
#     4  11  25  38  61  99 134 176 217 264 328 387
#
# _framework density 21.237891999999999
#
# number of rings (size 3 to 8) (size 9 to 14) (size 15 to 20)
#    0.000    0.600    6.000    2.400    0.000    4.800 
#    0.000    0.000    0.000    1.200    0.000    0.000 
#    0.000    0.000    0.000    0.000    0.000    0.000 
#
# Total GULP energy -247940.475912 kJ/mol
# GULP energy per Si atom -12397.023796 kJ/mol
# Density = 2.118955 g / cm^3
# Si number density = 21.237892 Si / 1000 Ang^3
#
#
#
# Elastic Constant Matrix: (Units=GPa)
#
#
# Indices 1 2 3 4 5 6 
#
# 1 172.5979 32.0629 64.7489 0.0000 11.0753 0.0000
# 2 32.0629 79.5214 26.3778 0.0000 8.3164 0.0000
# 3 64.7489 26.3778 150.9141 0.0000 -10.9220 0.0000
# 4 0.0000 0.0000 0.0000 -7.3929 0.0000 34.6668
# 5 11.0753 8.3164 -10.9220 0.0000 56.3319 0.0000
# 6 0.0000 0.0000 0.0000 34.6668 0.0000 -41.3905
#
#
#
# Elastic Compliance Matrix: (Units=1/GPa)
#
#
# Indices 1 2 3 4 5 6 
#
# 1 0.007354 -0.001797 -0.002968 0.000000 -0.001756 0.000000
# 2 -0.001797 0.014132 -0.001851 0.000000 -0.002092 0.000000
# 3 -0.002968 -0.001851 0.008403 0.000000 0.002486 0.000000
# 4 0.000000 0.000000 0.000000 0.046205 0.000000 0.038700
# 5 -0.001756 -0.002092 0.002486 0.000000 0.018888 0.000000
# 6 0.000000 0.000000 0.000000 0.038700 0.000000 0.008253
#
#
# Mechanical properties :
#
#
# Convention : Reuss Voigt Hill
#
# Bulk Modulus (GPa) = 60.03091 72.15695 66.09393
# Shear Modulus (GPa) = 40.97708 20.16597 30.57152
#
# Velocity S-wave (km/s) = 4.39730 3.08478 3.79816
# Velocity P-wave (km/s) = 7.35588 6.83646 7.10092
#
# Compressibility (1/GPa) = 0.01665809
#
# Stress axis : x y z
#
# Youngs Moduli (GPa) = 135.98508 70.75965 119.00342
#
# Poissons Ratio (x) = 0.12714 0.35322
# Poissons Ratio (y) = 0.24434 0.22023
# Poissons Ratio (z) = 0.40362 0.13095
#
# Static dielectric constant tensor:
#      x y z
#    x 4.369810 0.000000 -0.295840 
#    y 0.000000 3.513370 0.000000 
#    z -0.295840 0.000000 4.417880 
# 
# 
# High freq. dielectric constant tensor:
#      x y z
#    x 1.858680 0.000000 -0.004230 
#    y 0.000000 1.783530 0.000000 
#    z -0.004230 0.000000 1.856880 
# 
# From -- ./inp_files/54446.got.cif
#   From: 2010.06.25/outbox.cif.g09.slc.cpg/sg12_28_cif.got.tgz:54446.got - 2010.06.28 00:19:55.
