data_PCOD8114684
_publ_section_title
;
Structure prediction by ZEFSAII (Michael W. Deem and Ramdas Pophale) SiO2 
 PCOD8114684
Probable space group: C 2/M
;
_chemical_formula_sum "Si O2"
_cell_formula_units_Z 40
_cell_length_a 20.120539
_cell_length_b 17.774162
_cell_length_c 5.006329
_cell_angle_alpha 90.000000
_cell_angle_beta 99.754036
_cell_angle_gamma 90.000000
_cell_volume 1764.510333
_symmetry_space_group_name_H-M "C 2/M"
_symmetry_group_IT_number 12
_symmetry_cell_setting 'monoclinic'
loop_
_space_group_symop_operation_xyz
x,y,z
-x,y,-z
-x,-y,-z
x,-y,z
1/2+x,1/2+y,z
1/2-x,1/2+y,-z
1/2-x,1/2-y,-z
1/2+x,1/2-y,z
loop_
_atom_site_type_symbol
_atom_site_label
_atom_site_fract_x
_atom_site_fract_y
_atom_site_fract_z
Si Si1 0.223410 0.587571 0.966888
Si Si2 0.694922 0.818597 0.455595
Si Si3 0.038230 0.705985 0.277318
Si Si4 0.056128 0.871696 0.363411
Si Si5 0.627146 0.583302 0.889585
O O1 0.200003 0.500000 0.935763
O O2 0.184183 0.641567 0.735158
O O3 0.300608 0.598465 0.930616
O O4 0.216687 0.617182 0.263073
O O5 0.750000 0.750000 0.500000
O O6 0.619536 0.794837 0.319369
O O7 0.020714 0.793698 0.266839
O O8 0.000000 0.666275 0.500000
O O9 0.000000 0.668299 0.000000
O O10 0.074466 0.909852 0.096388
O O11 0.000000 0.918822 0.500000
O O12 0.117019 0.862787 0.622828
O O13 0.624314 0.500000 0.765931
#
# Coordination Sequence:
#
# PCOD8114684 Si02
#       5
#     8   8   8   8   8
#     4  11  24  42  64  93 131 167 203 266 337 381
#     4  12  24  41  71 101 126 165 224 271 306 383
#     4  11  23  41  63  89 124 160 198 260 329 374
#     4  11  22  36  54  80 117 161 204 248 303 367
#     4  11  22  36  54  80 118 160 203 248 300 366
#
# _framework density 22.669177000000001
#
# number of rings (size 3 to 8) (size 9 to 14) (size 15 to 20)
#    0.000    0.800    0.000    9.600    0.000    5.600 
#    0.000    0.000    0.000   12.000    0.000    0.000 
#    0.000    0.000    0.000    0.000    0.000    0.000 
#
# Total GULP energy -247762.974839 kJ/mol
# GULP energy per Si atom -12388.148742 kJ/mol
# Density = 2.261758 g / cm^3
# Si number density = 22.669177 Si / 1000 Ang^3
#
#
#
# Elastic Constant Matrix: (Units=GPa)
#
#
# Indices 1 2 3 4 5 6 
#
# 1 101.8828 19.0147 11.9003 0.0000 4.9971 0.0000
# 2 19.0147 68.6392 31.8429 0.0000 1.8878 0.0000
# 3 11.9003 31.8429 142.7999 0.0000 -0.8911 0.0000
# 4 0.0000 0.0000 0.0000 33.6998 0.0000 -1.8140
# 5 4.9971 1.8878 -0.8911 0.0000 42.3641 0.0000
# 6 0.0000 0.0000 0.0000 -1.8140 0.0000 21.8658
#
#
#
# Elastic Compliance Matrix: (Units=1/GPa)
#
#
# Indices 1 2 3 4 5 6 
#
# 1 0.010410 -0.002730 -0.000266 0.000000 -0.001112 0.000000
# 2 -0.002730 0.016993 -0.003565 0.000000 -0.000510 0.000000
# 3 -0.000266 -0.003565 0.007822 0.000000 0.000355 0.000000
# 4 0.000000 0.000000 0.000000 0.029807 0.000000 0.002473
# 5 -0.001112 -0.000510 0.000355 0.000000 0.023766 0.000000
# 6 0.000000 0.000000 0.000000 0.002473 0.000000 0.045939
#
#
# Mechanical properties :
#
#
# Convention : Reuss Voigt Hill
#
# Bulk Modulus (GPa) = 45.24056 48.75975 47.00015
# Shear Modulus (GPa) = 32.21094 36.29021 34.25057
#
# Velocity S-wave (km/s) = 3.77359 4.00542 3.89123
# Velocity P-wave (km/s) = 6.24394 6.55341 6.40054
#
# Compressibility (1/GPa) = 0.02210406
#
# Stress axis : x y z
#
# Youngs Moduli (GPa) = 96.05884 58.84743 127.84269
#
# Poissons Ratio (x) = 0.16066 0.03397
# Poissons Ratio (y) = 0.26224 0.45575
# Poissons Ratio (z) = 0.02552 0.20979
#
# Static dielectric constant tensor:
#      x y z
#    x 4.261750 0.000000 -0.074950 
#    y 0.000000 3.714050 0.000000 
#    z -0.074950 0.000000 4.367430 
# 
# 
# High freq. dielectric constant tensor:
#      x y z
#    x 1.898110 0.000000 -0.001220 
#    y 0.000000 1.855680 0.000000 
#    z -0.001220 0.000000 1.920360 
# 
# From -- ./inp_files/20236.got.cif
#   From: 2010.06.25/outbox.cif.g09.slc.cpg/sg12_11_cif.got.tgz:20236.got - 2010.06.28 00:19:55.
