data_PCOD8114043
_publ_section_title
;
Structure prediction by ZEFSAII (Michael W. Deem and Ramdas Pophale) SiO2 
 PCOD8114043
Probable space group: C 2/M
;
_chemical_formula_sum "Si O2"
_cell_formula_units_Z 56
_cell_length_a 17.074685
_cell_length_b 15.238809
_cell_length_c 10.752899
_cell_angle_alpha 90.000000
_cell_angle_beta 103.918584
_cell_angle_gamma 90.000000
_cell_volume 2715.731386
_symmetry_space_group_name_H-M "C 2/M"
_symmetry_group_IT_number 12
_symmetry_cell_setting 'monoclinic'
loop_
_space_group_symop_operation_xyz
x,y,z
-x,y,-z
-x,-y,-z
x,-y,z
1/2+x,1/2+y,z
1/2-x,1/2+y,-z
1/2-x,1/2-y,-z
1/2+x,1/2-y,z
loop_
_atom_site_type_symbol
_atom_site_label
_atom_site_fract_x
_atom_site_fract_y
_atom_site_fract_z
Si Si1 0.700218 0.305876 0.720119
Si Si2 0.969590 0.598807 0.625869
Si Si3 0.591013 0.601163 0.497377
Si Si4 0.360556 0.251152 0.674296
Si Si5 0.887555 0.333860 0.165749
Si Si6 0.412733 0.698486 0.963013
Si Si7 0.266248 0.599363 0.020455
O O1 0.649026 0.383587 0.637747
O O2 0.764891 0.265588 0.649208
O O3 0.638291 0.229602 0.731906
O O4 0.744824 0.340777 0.861395
O O5 0.935101 0.500000 0.621638
O O6 0.041108 0.606335 0.754296
O O7 0.000000 0.619587 0.500000
O O8 0.897492 0.665472 0.624504
O O9 0.500000 0.626055 0.500000
O O10 0.596825 0.500000 0.457445
O O11 0.621280 0.661644 0.396779
O O12 0.399321 0.262695 0.822775
O O13 0.918118 0.279175 0.060085
O O14 0.812068 0.393448 0.095963
O O15 0.500000 0.650330 0.000000
O O16 0.343646 0.629690 0.971718
O O17 0.279102 0.500000 0.067427
#
# Coordination Sequence:
#
# PCOD8114043 Si02
#       7
#     8   8   8   8   8   8   8
#     4  11  22  42  66  90 125 173 216 260 325 385
#     4  11  25  42  64  95 127 167 217 265 320 385
#     4  11  26  44  65  95 128 170 222 270 324 384
#     4  12  22  43  67  93 129 170 212 265 325 381
#     4  11  20  42  65  91 129 168 208 261 325 384
#     4  11  22  40  65  94 125 166 216 253 321 390
#     4  11  23  39  63  94 131 167 211 269 322 382
#
# _framework density 20.620595000000002
#
# number of rings (size 3 to 8) (size 9 to 14) (size 15 to 20)
#    0.000    0.857    4.286    4.286    2.000    2.000 
#    0.000    2.143    0.000    0.000    0.000    0.000 
#    0.000    0.000    0.000    0.000    0.000    0.000 
#
# Total GULP energy -347319.936498 kJ/mol
# GULP energy per Si atom -12404.283446 kJ/mol
# Density = 2.057366 g / cm^3
# Si number density = 20.620595 Si / 1000 Ang^3
#
#
#
# Elastic Constant Matrix: (Units=GPa)
#
#
# Indices 1 2 3 4 5 6 
#
# 1 64.4755 21.4986 32.5264 0.0000 -0.6282 0.0000
# 2 21.4986 105.3964 35.0227 0.0000 -19.2871 0.0000
# 3 32.5264 35.0227 97.6097 0.0000 -8.7284 0.0000
# 4 0.0000 0.0000 0.0000 20.2705 0.0000 7.5319
# 5 -0.6282 -19.2871 -8.7284 0.0000 35.0716 0.0000
# 6 0.0000 0.0000 0.0000 7.5319 0.0000 24.4180
#
#
#
# Elastic Compliance Matrix: (Units=1/GPa)
#
#
# Indices 1 2 3 4 5 6 
#
# 1 0.019197 -0.002456 -0.005734 0.000000 -0.002434 0.000000
# 2 -0.002456 0.012049 -0.002983 0.000000 0.005840 0.000000
# 3 -0.005734 -0.002983 0.013367 0.000000 0.001584 0.000000
# 4 0.000000 0.000000 0.000000 0.055719 0.000000 -0.017187
# 5 -0.002434 0.005840 0.001584 0.000000 0.032075 0.000000
# 6 0.000000 0.000000 0.000000 -0.017187 0.000000 0.046255
#
#
# Mechanical properties :
#
#
# Convention : Reuss Voigt Hill
#
# Bulk Modulus (GPa) = 44.90498 49.50856 47.20677
# Shear Modulus (GPa) = 23.98896 27.84762 25.91829
#
# Velocity S-wave (km/s) = 3.41449 3.67887 3.54914
# Velocity P-wave (km/s) = 6.11302 6.48898 6.30380
#
# Compressibility (1/GPa) = 0.02226924
#
# Stress axis : x y z
#
# Youngs Moduli (GPa) = 52.09037 82.99673 74.80973
#
# Poissons Ratio (x) = 0.20384 0.42893
# Poissons Ratio (y) = 0.12793 0.22312
# Poissons Ratio (z) = 0.29866 0.24754
#
# Static dielectric constant tensor:
#      x y z
#    x 3.931970 0.000000 -0.017280 
#    y 0.000000 3.553760 0.000000 
#    z -0.017280 0.000000 3.810680 
# 
# 
# High freq. dielectric constant tensor:
#      x y z
#    x 1.817360 0.000000 0.002820 
#    y 0.000000 1.796790 0.000000 
#    z 0.002820 0.000000 1.818740 
# 
# From -- ./inp_files/143756.got.cif
#   From: 2010.06.25/outbox.cif.g09.slc.cpg/sg12_72_cif.got.tgz:143756.got - 2010.06.28 00:19:55.
