data_PCOD8114088
_publ_section_title
;
Structure prediction by ZEFSAII (Michael W. Deem and Ramdas Pophale) SiO2 
 PCOD8114088
Probable space group: C 2/M
;
_chemical_formula_sum "Si O2"
_cell_formula_units_Z 48
_cell_length_a 9.518540
_cell_length_b 19.223925
_cell_length_c 14.870945
_cell_angle_alpha 90.000000
_cell_angle_beta 108.732712
_cell_angle_gamma 90.000000
_cell_volume 2576.993752
_symmetry_space_group_name_H-M "C 2/M"
_symmetry_group_IT_number 12
_symmetry_cell_setting 'monoclinic'
loop_
_space_group_symop_operation_xyz
x,y,z
-x,y,-z
-x,-y,-z
x,-y,z
1/2+x,1/2+y,z
1/2-x,1/2+y,-z
1/2-x,1/2-y,-z
1/2+x,1/2-y,z
loop_
_atom_site_type_symbol
_atom_site_label
_atom_site_fract_x
_atom_site_fract_y
_atom_site_fract_z
Si Si1 0.324136 0.180477 0.976897
Si Si2 0.852479 0.822090 0.426569
Si Si3 0.339374 0.418679 0.930609
Si Si4 0.146522 0.798544 0.770902
Si Si5 0.182355 0.164405 0.248721
Si Si6 0.340233 0.158064 0.455640
O O1 0.290064 0.118155 0.038512
O O2 0.500000 0.190316 0.000000
O O3 0.250000 0.250000 0.000000
O O4 0.248062 0.163195 0.865571
O O5 0.836813 0.841924 0.318581
O O6 0.724086 0.856441 0.458897
O O7 0.850856 0.739371 0.435830
O O8 0.000000 0.853530 0.500000
O O9 0.311500 0.500000 0.933675
O O10 0.334909 0.397446 0.825573
O O11 0.500000 0.396052 0.000000
O O12 0.201593 0.719555 0.768890
O O13 0.973963 0.796820 0.764575
O O14 0.243829 0.128047 0.352894
O O15 0.500000 0.122706 0.500000
#
# Coordination Sequence:
#
# PCOD8114088 Si02
#       6
#     8   8   8   8   8   8
#     4  12  23  38  60  89 120 151 189 241 293 345
#     4   9  16  28  42  71 112 147 171 219 276 340
#     4  11  24  42  61  81 113 155 200 242 290 350
#     4  11  21  31  54  84 115 150 185 230 289 345
#     4  11  21  34  55  84 114 152 188 232 289 347
#     4   9  18  28  46  75 116 147 181 222 286 345
#
# _framework density 18.626355
#
# number of rings (size 3 to 8) (size 9 to 14) (size 15 to 20)
#    0.000    1.500    5.000    1.500    7.000    0.333 
#    0.000    0.000    0.000    0.500    0.000    3.500 
#    0.000    0.000    0.000    0.000    0.000    0.000 
#
# Total GULP energy -297501.931940 kJ/mol
# GULP energy per Si atom -12395.913831 kJ/mol
# Density = 1.858396 g / cm^3
# Si number density = 18.626355 Si / 1000 Ang^3
#
#
#
# Elastic Constant Matrix: (Units=GPa)
#
#
# Indices 1 2 3 4 5 6 
#
# 1 149.5767 36.3428 61.8193 0.0000 3.0241 0.0000
# 2 36.3428 48.8018 25.2380 0.0000 -5.9316 0.0000
# 3 61.8193 25.2380 169.0501 0.0000 -1.8814 0.0000
# 4 0.0000 0.0000 0.0000 13.0661 0.0000 -0.6085
# 5 3.0241 -5.9316 -1.8814 0.0000 36.1725 0.0000
# 6 0.0000 0.0000 0.0000 -0.6085 0.0000 13.6708
#
#
#
# Elastic Compliance Matrix: (Units=1/GPa)
#
#
# Indices 1 2 3 4 5 6 
#
# 1 0.009156 -0.005743 -0.002511 0.000000 -0.001838 0.000000
# 2 -0.005743 0.026252 -0.001767 0.000000 0.004693 0.000000
# 3 -0.002511 -0.001767 0.007101 0.000000 0.000290 0.000000
# 4 0.000000 0.000000 0.000000 0.076693 0.000000 0.003414
# 5 -0.001838 0.004693 0.000290 0.000000 0.028584 0.000000
# 6 0.000000 0.000000 0.000000 0.003414 0.000000 0.073300
#
#
# Mechanical properties :
#
#
# Convention : Reuss Voigt Hill
#
# Bulk Modulus (GPa) = 44.51101 68.24765 56.37933
# Shear Modulus (GPa) = 20.11124 28.85045 24.48085
#
# Velocity S-wave (km/s) = 3.28947 3.93988 3.62928
# Velocity P-wave (km/s) = 6.19485 7.57739 6.92073
#
# Compressibility (1/GPa) = 0.02246635
#
# Stress axis : x y z
#
# Youngs Moduli (GPa) = 109.21801 38.09215 140.83033
#
# Poissons Ratio (x) = 0.21877 0.35366
# Poissons Ratio (y) = 0.62726 0.24883
# Poissons Ratio (z) = 0.27428 0.06730
#
# Static dielectric constant tensor:
#      x y z
#    x 3.680730 0.000000 -0.034400 
#    y 0.000000 2.736600 0.000000 
#    z -0.034400 0.000000 3.999110 
# 
# 
# High freq. dielectric constant tensor:
#      x y z
#    x 1.739030 0.000000 -0.003870 
#    y 0.000000 1.641880 0.000000 
#    z -0.003870 0.000000 1.752090 
# 
# From -- ./inp_files/197173.got.cif
#   From: 2010.06.25/outbox.cif.g09.slc.cpg/sg12_99_cif.got.tgz:197173.got - 2010.06.28 00:19:55.
