data_PCOD8114049
_publ_section_title
;
Structure prediction by ZEFSAII (Michael W. Deem and Ramdas Pophale) SiO2 
 PCOD8114049
Probable space group: C 2/M
;
_chemical_formula_sum "Si O2"
_cell_formula_units_Z 56
_cell_length_a 11.588580
_cell_length_b 19.655322
_cell_length_c 11.326463
_cell_angle_alpha 90.000000
_cell_angle_beta 79.171130
_cell_angle_gamma 90.000000
_cell_volume 2533.969614
_symmetry_space_group_name_H-M "C 2/M"
_symmetry_group_IT_number 12
_symmetry_cell_setting 'monoclinic'
loop_
_space_group_symop_operation_xyz
x,y,z
-x,y,-z
-x,-y,-z
x,-y,z
1/2+x,1/2+y,z
1/2-x,1/2+y,-z
1/2-x,1/2-y,-z
1/2+x,1/2-y,z
loop_
_atom_site_type_symbol
_atom_site_label
_atom_site_fract_x
_atom_site_fract_y
_atom_site_fract_z
Si Si1 0.084136 0.418806 0.221917
Si Si2 0.259755 0.672342 0.045358
Si Si3 0.101045 0.799020 0.756169
Si Si4 0.648423 0.848834 0.686900
Si Si5 0.368891 0.369121 0.792493
Si Si6 0.209042 0.629191 0.431995
Si Si7 0.476078 0.500000 0.696985
Si Si8 0.317084 0.500000 0.499408
O O1 0.108446 0.500000 0.193549
O O2 0.143053 0.367384 0.114763
O O3 0.128229 0.395770 0.341959
O O4 0.944329 0.405918 0.251605
O O5 0.357405 0.668127 0.128734
O O6 0.250000 0.750000 0.000000
O O7 0.300041 0.628178 0.927648
O O8 0.122114 0.719395 0.763737
O O9 0.175369 0.831575 0.634377
O O10 0.960956 0.806775 0.763379
O O11 0.779988 0.870665 0.699803
O O12 0.640862 0.828574 0.547773
O O13 0.451510 0.434659 0.779674
O O14 0.237378 0.566119 0.512906
O O15 0.400497 0.500000 0.593926
O O16 0.612649 0.500000 0.638271
#
# Coordination Sequence:
#
# PCOD8114049 Si02
#       8
#     8   8   8   8   8   8   4   4
#     4  11  27  45  68 103 139 181 232 281 342 413
#     4  11  24  49  74  95 134 185 228 287 340 400
#     4  11  25  46  68 101 135 173 233 280 341 406
#     4  12  26  43  70  98 139 181 225 280 342 411
#     4  12  25  43  71 100 133 176 227 280 339 406
#     4  11  23  44  69 100 137 180 225 281 339 410
#     4  11  24  40  65 105 140 174 224 280 339 407
#     4  11  20  42  67  96 143 182 217 277 347 398
#
# _framework density 22.099712
#
# number of rings (size 3 to 8) (size 9 to 14) (size 15 to 20)
#    0.000    0.714    5.000    2.143    5.000    1.714 
#    2.571    1.429    0.000    0.000    0.000    0.000 
#    0.000    0.000    0.000    0.000    0.000    0.000 
#
# Total GULP energy -347069.090718 kJ/mol
# GULP energy per Si atom -12395.324669 kJ/mol
# Density = 2.204941 g / cm^3
# Si number density = 22.099712 Si / 1000 Ang^3
#
#
#
# Elastic Constant Matrix: (Units=GPa)
#
#
# Indices 1 2 3 4 5 6 
#
# 1 104.1407 14.2222 22.7255 0.0000 -10.7788 0.0000
# 2 14.2222 75.2213 23.8079 0.0000 0.3665 0.0000
# 3 22.7255 23.8079 124.4431 0.0000 -7.7289 0.0000
# 4 0.0000 0.0000 0.0000 32.5011 0.0000 3.0674
# 5 -10.7788 0.3665 -7.7289 0.0000 25.4762 0.0000
# 6 0.0000 0.0000 0.0000 3.0674 0.0000 27.8905
#
#
#
# Elastic Compliance Matrix: (Units=1/GPa)
#
#
# Indices 1 2 3 4 5 6 
#
# 1 0.010538 -0.001579 -0.001370 0.000000 0.004066 0.000000
# 2 -0.001579 0.014415 -0.002572 0.000000 -0.001656 0.000000
# 3 -0.001370 -0.002572 0.008912 0.000000 0.002161 0.000000
# 4 0.000000 0.000000 0.000000 0.031091 0.000000 -0.003419
# 5 0.004066 -0.001656 0.002161 0.000000 0.041652 0.000000
# 6 0.000000 0.000000 0.000000 -0.003419 0.000000 0.036231
#
#
# Mechanical properties :
#
#
# Convention : Reuss Voigt Hill
#
# Bulk Modulus (GPa) = 43.81501 47.25736 45.53619
# Shear Modulus (GPa) = 30.96215 33.37686 32.16951
#
# Velocity S-wave (km/s) = 3.74708 3.89045 3.81944
# Velocity P-wave (km/s) = 6.21208 6.45066 6.33249
#
# Compressibility (1/GPa) = 0.02282323
#
# Stress axis : x y z
#
# Youngs Moduli (GPa) = 94.89733 69.37320 112.20433
#
# Poissons Ratio (x) = 0.10951 0.15370
# Poissons Ratio (y) = 0.14981 0.28862
# Poissons Ratio (z) = 0.13000 0.17845
#
# Static dielectric constant tensor:
#      x y z
#    x 3.958850 0.000000 -0.207850 
#    y 0.000000 4.083090 0.000000 
#    z -0.207850 0.000000 4.153750 
# 
# 
# High freq. dielectric constant tensor:
#      x y z
#    x 1.865860 0.000000 -0.006300 
#    y 0.000000 1.871520 0.000000 
#    z -0.006300 0.000000 1.879740 
# 
# From -- ./inp_files/133891.got.cif
#   From: 2010.06.25/outbox.cif.g09.slc.cpg/sg12_67_cif.got.tgz:133891.got - 2010.06.28 00:19:55.
