data_PCOD8114553
_publ_section_title
;
Structure prediction by ZEFSAII (Michael W. Deem and Ramdas Pophale) SiO2 
 PCOD8114553
Probable space group: C 2/M
;
_chemical_formula_sum "Si O2"
_cell_formula_units_Z 40
_cell_length_a 5.056899
_cell_length_b 27.452199
_cell_length_c 15.579391
_cell_angle_alpha 90.000000
_cell_angle_beta 58.250606
_cell_angle_gamma 90.000000
_cell_volume 1839.134918
_symmetry_space_group_name_H-M "C 2/M"
_symmetry_group_IT_number 12
_symmetry_cell_setting 'monoclinic'
loop_
_space_group_symop_operation_xyz
x,y,z
-x,y,-z
-x,-y,-z
x,-y,z
1/2+x,1/2+y,z
1/2-x,1/2+y,-z
1/2-x,1/2-y,-z
1/2+x,1/2-y,z
loop_
_atom_site_type_symbol
_atom_site_label
_atom_site_fract_x
_atom_site_fract_y
_atom_site_fract_z
Si Si1 0.675218 0.621080 0.883349
Si Si2 0.225080 0.148911 0.383951
Si Si3 0.442510 0.946083 0.608481
Si Si4 0.358212 0.401710 0.762437
Si Si5 0.841681 0.282066 0.778408
O O1 0.444417 0.612337 0.844118
O O2 0.987179 0.587660 0.823842
O O3 0.769667 0.677975 0.864356
O O4 0.500000 0.607610 0.000000
O O5 0.385998 0.095972 0.367666
O O6 0.056404 0.142509 0.319738
O O7 0.470696 0.192566 0.332425
O O8 0.000000 0.162654 0.500000
O O9 0.500000 0.933430 0.500000
O O10 0.073917 0.946617 0.694518
O O11 0.576254 0.000000 0.607133
O O12 0.028368 0.238648 0.791125
#
# Coordination Sequence:
#
# PCOD8114553 Si02
#       5
#     8   8   8   8   8
#     4  11  24  43  70  94 124 174 224 280 334 379
#     4  11  23  40  66  93 141 180 213 260 329 390
#     4  11  23  39  69 106 135 172 219 264 325 395
#     4  11  21  42  65  97 132 172 212 266 327 392
#     4  11  24  40  63  96 130 169 225 268 320 392
#
# _framework density 21.749354
#
# number of rings (size 3 to 8) (size 9 to 14) (size 15 to 20)
#    0.000    1.000    6.000    3.000    0.000    2.800 
#    0.000    0.000    0.000    3.600    0.000    0.000 
#    0.000    0.000    0.000    0.000    0.000    0.000 
#
# Total GULP energy -247861.283890 kJ/mol
# GULP energy per Si atom -12393.064195 kJ/mol
# Density = 2.169985 g / cm^3
# Si number density = 21.749354 Si / 1000 Ang^3
#
#
#
# Elastic Constant Matrix: (Units=GPa)
#
#
# Indices 1 2 3 4 5 6 
#
# 1 92.1302 11.3243 33.5675 0.0000 9.2123 0.0000
# 2 11.3243 56.2969 0.1230 0.0000 -0.1601 0.0000
# 3 33.5675 0.1230 160.8358 0.0000 0.9872 0.0000
# 4 0.0000 0.0000 0.0000 -1.6113 0.0000 -27.3651
# 5 9.2123 -0.1601 0.9872 0.0000 37.2926 0.0000
# 6 0.0000 0.0000 0.0000 -27.3651 0.0000 -5.7848
#
#
#
# Elastic Compliance Matrix: (Units=1/GPa)
#
#
# Indices 1 2 3 4 5 6 
#
# 1 0.012397 -0.002497 -0.002567 0.000000 -0.003005 0.000000
# 2 -0.002497 0.018266 0.000503 0.000000 0.000682 0.000000
# 3 -0.002567 0.000503 0.006750 0.000000 0.000458 0.000000
# 4 0.000000 0.000000 0.000000 0.007822 0.000000 -0.037003
# 5 -0.003005 0.000682 0.000458 0.000000 0.027548 0.000000
# 6 0.000000 0.000000 0.000000 -0.037003 0.000000 0.002179
#
#
# Mechanical properties :
#
#
# Convention : Reuss Voigt Hill
#
# Bulk Modulus (GPa) = 35.34617 44.36584 39.85600
# Shear Modulus (GPa) = 53.46793 23.59583 38.53188
#
# Velocity S-wave (km/s) = 4.96357 3.29735 4.21364
# Velocity P-wave (km/s) = 7.00973 5.91098 6.48367
#
# Compressibility (1/GPa) = 0.02829161
#
# Stress axis : x y z
#
# Youngs Moduli (GPa) = 80.66577 54.74649 148.14667
#
# Poissons Ratio (x) = 0.13668 0.38028
# Poissons Ratio (y) = 0.20139 -0.07450
# Poissons Ratio (z) = 0.20706 -0.02753
#
# Static dielectric constant tensor:
#      x y z
#    x 4.043480 0.000000 -0.016300 
#    y 0.000000 3.677940 0.000000 
#    z -0.016300 0.000000 4.158210 
# 
# 
# High freq. dielectric constant tensor:
#      x y z
#    x 1.863400 0.000000 0.002740 
#    y 0.000000 1.824320 0.000000 
#    z 0.002740 0.000000 1.858800 
# 
# From -- ./inp_files/191843.got.cif
#   From: 2010.06.25/outbox.cif.g09.slc.cpg/sg12_96_cif.got.tgz:191843.got - 2010.06.28 00:19:55.
