data_PCOD8114266
_publ_section_title
;
Structure prediction by ZEFSAII (Michael W. Deem and Ramdas Pophale) SiO2 
 PCOD8114266
Probable space group: C 2/M
;
_chemical_formula_sum "Si O2"
_cell_formula_units_Z 40
_cell_length_a 14.536181
_cell_length_b 8.325224
_cell_length_c 18.243890
_cell_angle_alpha 90.000000
_cell_angle_beta 113.089724
_cell_angle_gamma 90.000000
_cell_volume 2030.955767
_symmetry_space_group_name_H-M "C 2/M"
_symmetry_group_IT_number 12
_symmetry_cell_setting 'monoclinic'
loop_
_space_group_symop_operation_xyz
x,y,z
-x,y,-z
-x,-y,-z
x,-y,z
1/2+x,1/2+y,z
1/2-x,1/2+y,-z
1/2-x,1/2-y,-z
1/2+x,1/2-y,z
loop_
_atom_site_type_symbol
_atom_site_label
_atom_site_fract_x
_atom_site_fract_y
_atom_site_fract_z
Si Si1 0.853496 0.689693 0.500457
Si Si2 0.661424 0.812113 0.803341
Si Si3 0.930885 0.813234 0.082113
Si Si4 0.438824 0.809219 0.375702
Si Si5 0.131344 0.314025 0.086142
O O1 0.852409 0.500000 0.501414
O O2 0.750000 0.750000 0.500000
O O3 0.869764 0.750355 0.421927
O O4 0.947082 0.753478 0.578409
O O5 0.590528 0.780718 0.850081
O O6 0.605941 0.742924 0.714092
O O7 0.763939 0.714869 0.842032
O O8 0.685142 0.000000 0.803880
O O9 0.047281 0.791235 0.099926
O O10 0.905069 0.000000 0.083606
O O11 0.861436 0.740272 0.996279
O O12 0.440437 0.000000 0.374739
O O13 0.101269 0.500000 0.081423
#
# Coordination Sequence:
#
# PCOD8114266 Si02
#       5
#     8   8   8   8   8
#     4   9  17  35  58  80 104 139 177 215 262 316
#     4  11  21  36  56  81 111 146 181 224 273 321
#     4  11  22  38  57  80 108 144 185 228 271 322
#     4   8  18  35  55  77 108 142 176 213 262 322
#     4  11  22  38  57  80 108 144 185 228 271 322
#
# _framework density 19.695162
#
# number of rings (size 3 to 8) (size 9 to 14) (size 15 to 20)
#    0.000    2.000    0.000    7.200    0.000    1.600 
#    0.000   10.000    0.000    0.000    0.000    0.000 
#    0.000    0.000    0.000    0.000    0.000    0.000 
#
# Total GULP energy -248011.676595 kJ/mol
# GULP energy per Si atom -12400.583830 kJ/mol
# Density = 1.965033 g / cm^3
# Si number density = 19.695162 Si / 1000 Ang^3
#
#
#
# Elastic Constant Matrix: (Units=GPa)
#
#
# Indices 1 2 3 4 5 6 
#
# 1 117.1601 3.0040 71.2746 0.0000 15.8107 0.0000
# 2 3.0040 55.2917 15.1488 0.0000 4.4812 0.0000
# 3 71.2746 15.1488 172.4947 0.0000 13.2559 0.0000
# 4 0.0000 0.0000 0.0000 19.7354 0.0000 0.5797
# 5 15.8107 4.4812 13.2559 0.0000 15.7626 0.0000
# 6 0.0000 0.0000 0.0000 0.5797 0.0000 33.8453
#
#
#
# Elastic Compliance Matrix: (Units=1/GPa)
#
#
# Indices 1 2 3 4 5 6 
#
# 1 0.012518 0.001313 -0.004591 0.000000 -0.009069 0.000000
# 2 0.001313 0.018929 -0.001807 0.000000 -0.005179 0.000000
# 3 -0.004591 -0.001807 0.007975 0.000000 -0.001588 0.000000
# 4 0.000000 0.000000 0.000000 0.050696 0.000000 -0.000868
# 5 -0.009069 -0.005179 -0.001588 0.000000 0.075346 0.000000
# 6 0.000000 0.000000 0.000000 -0.000868 0.000000 0.029561
#
#
# Mechanical properties :
#
#
# Convention : Reuss Voigt Hill
#
# Bulk Modulus (GPa) = 34.18500 58.20012 46.19256
# Shear Modulus (GPa) = 23.26157 30.90325 27.08241
#
# Velocity S-wave (km/s) = 3.44041 3.96546 3.71223
# Velocity P-wave (km/s) = 5.75992 7.11204 6.47139
#
# Compressibility (1/GPa) = 0.02925260
#
# Stress axis : x y z
#
# Youngs Moduli (GPa) = 79.88214 52.82803 125.39218
#
# Poissons Ratio (x) = -0.06935 0.57567
# Poissons Ratio (y) = -0.10486 0.22656
# Poissons Ratio (z) = 0.36674 0.09545
#
# Static dielectric constant tensor:
#      x y z
#    x -0.074710 0.000000 -0.622120 
#    y 0.000000 3.394410 0.000000 
#    z -0.622120 0.000000 3.796290 
# 
# 
# High freq. dielectric constant tensor:
#      x y z
#    x 1.772340 0.000000 0.002190 
#    y 0.000000 1.754890 0.000000 
#    z 0.002190 0.000000 1.769570 
# 
# From -- ./inp_files/267368.got.cif
#   From: 2010.06.25/outbox.cif.g09.slc.cpg/sg12_134_cif.got.tgz:267368.got - 2010.06.28 00:19:55.
