data_PCOD8114173
_publ_section_title
;
Structure prediction by ZEFSAII (Michael W. Deem and Ramdas Pophale) SiO2 
 PCOD8114173
Probable space group: C 2/M
;
_chemical_formula_sum "Si O2"
_cell_formula_units_Z 48
_cell_length_a 18.379761
_cell_length_b 8.966900
_cell_length_c 16.310415
_cell_angle_alpha 90.000000
_cell_angle_beta 86.579901
_cell_angle_gamma 90.000000
_cell_volume 2683.323370
_symmetry_space_group_name_H-M "C 2/M"
_symmetry_group_IT_number 12
_symmetry_cell_setting 'monoclinic'
loop_
_space_group_symop_operation_xyz
x,y,z
-x,y,-z
-x,-y,-z
x,-y,z
1/2+x,1/2+y,z
1/2-x,1/2+y,-z
1/2-x,1/2-y,-z
1/2+x,1/2-y,z
loop_
_atom_site_type_symbol
_atom_site_label
_atom_site_fract_x
_atom_site_fract_y
_atom_site_fract_z
Si Si1 0.964859 0.675430 0.084816
Si Si2 0.796242 0.675630 0.729955
Si Si3 0.662374 0.664477 0.835369
Si Si4 0.038495 0.325006 0.247238
Si Si5 0.720061 0.177580 0.583773
Si Si6 0.912794 0.167577 0.335243
O O1 0.962567 0.500000 0.078166
O O2 0.880988 0.728512 0.099771
O O3 0.013261 0.728322 0.158694
O O4 0.000000 0.744422 0.000000
O O5 0.787785 0.500000 0.709269
O O6 0.745787 0.715641 0.812674
O O7 0.877834 0.719836 0.747970
O O8 0.772440 0.772076 0.653895
O O9 0.660708 0.500000 0.874571
O O10 0.624388 0.665080 0.750143
O O11 0.025404 0.500000 0.258635
O O12 0.992298 0.242459 0.321042
O O13 0.750000 0.250000 0.500000
O O14 0.637259 0.234929 0.600957
O O15 0.719729 0.000000 0.577223
O O16 0.921246 0.000000 0.369748
#
# Coordination Sequence:
#
# PCOD8114173 Si02
#       6
#     8   8   8   8   8   8
#     4   9  17  29  46  69  96 127 164 203 241 284
#     4   9  18  33  51  72  98 127 162 202 244 289
#     4   8  15  28  46  66  90 124 161 197 238 286
#     4   9  17  31  51  72  97 131 165 199 243 290
#     4  11  21  34  53  75  99 127 160 197 240 288
#     4   9  17  31  50  72  98 127 162 200 237 284
#
# _framework density 17.888263999999999
#
# number of rings (size 3 to 8) (size 9 to 14) (size 15 to 20)
#    0.000    2.833    0.000    3.000    0.000    5.000 
#    0.000    1.667    0.000    5.000    0.000    0.000 
#    0.000    0.000    0.000    0.000    0.000    0.000 
#
# Total GULP energy -297504.151852 kJ/mol
# GULP energy per Si atom -12396.006327 kJ/mol
# Density = 1.784755 g / cm^3
# Si number density = 17.888264 Si / 1000 Ang^3
#
#
#
# Elastic Constant Matrix: (Units=GPa)
#
#
# Indices 1 2 3 4 5 6 
#
# 1 160.9223 53.6018 57.3671 0.0000 -31.8701 0.0000
# 2 53.6018 83.2415 46.2134 0.0000 -16.2001 0.0000
# 3 57.3671 46.2134 86.5071 0.0000 -31.2878 0.0000
# 4 0.0000 0.0000 0.0000 22.8519 0.0000 -8.3333
# 5 -31.8701 -16.2001 -31.2878 0.0000 28.9342 0.0000
# 6 0.0000 0.0000 0.0000 -8.3333 0.0000 29.9266
#
#
#
# Elastic Compliance Matrix: (Units=1/GPa)
#
#
# Indices 1 2 3 4 5 6 
#
# 1 0.009381 -0.003731 -0.002047 0.000000 0.006031 0.000000
# 2 -0.003731 0.018566 -0.008492 0.000000 -0.002897 0.000000
# 3 -0.002047 -0.008492 0.024501 0.000000 0.019485 0.000000
# 4 0.000000 0.000000 0.000000 0.048706 0.000000 0.013563
# 5 0.006031 -0.002897 0.019485 0.000000 0.060651 0.000000
# 6 0.000000 0.000000 0.000000 0.013563 0.000000 0.037192
#
#
# Mechanical properties :
#
#
# Convention : Reuss Voigt Hill
#
# Bulk Modulus (GPa) = 41.82554 71.67061 56.74808
# Shear Modulus (GPa) = 21.23086 27.90844 24.56965
#
# Velocity S-wave (km/s) = 3.44882 3.95416 3.71011
# Velocity P-wave (km/s) = 6.26829 7.81024 7.08136
#
# Compressibility (1/GPa) = 0.02390884
#
# Stress axis : x y z
#
# Youngs Moduli (GPa) = 106.60054 53.86078 40.81467
#
# Poissons Ratio (x) = 0.20094 0.08354
# Poissons Ratio (y) = 0.39769 0.34661
# Poissons Ratio (z) = 0.21819 0.45740
#
# Static dielectric constant tensor:
#      x y z
#    x 3.605710 0.000000 -0.331550 
#    y 0.000000 3.353220 0.000000 
#    z -0.331550 0.000000 3.205010 
# 
# 
# High freq. dielectric constant tensor:
#      x y z
#    x 1.696590 0.000000 -0.028930 
#    y 0.000000 1.690120 0.000000 
#    z -0.028930 0.000000 1.662680 
# 
# From -- ./inp_files/221519.got.cif
#   From: 2010.06.25/outbox.cif.g09.slc.cpg/sg12_111_cif.got.tgz:221519.got - 2010.06.28 00:19:55.
