data_PCOD8114581
_publ_section_title
;
Structure prediction by ZEFSAII (Michael W. Deem and Ramdas Pophale) SiO2 
 PCOD8114581
Probable space group: C 2/M
;
_chemical_formula_sum "Si O2"
_cell_formula_units_Z 56
_cell_length_a 17.820179
_cell_length_b 15.513133
_cell_length_c 11.621342
_cell_angle_alpha 90.000000
_cell_angle_beta 127.177410
_cell_angle_gamma 90.000000
_cell_volume 2559.763662
_symmetry_space_group_name_H-M "C 2/M"
_symmetry_group_IT_number 12
_symmetry_cell_setting 'monoclinic'
loop_
_space_group_symop_operation_xyz
x,y,z
-x,y,-z
-x,-y,-z
x,-y,z
1/2+x,1/2+y,z
1/2-x,1/2+y,-z
1/2-x,1/2-y,-z
1/2+x,1/2-y,z
loop_
_atom_site_type_symbol
_atom_site_label
_atom_site_fract_x
_atom_site_fract_y
_atom_site_fract_z
Si Si1 0.745880 0.174484 0.277245
Si Si2 0.033799 0.238315 0.826566
Si Si3 0.726302 0.899854 0.510016
Si Si4 0.374397 0.662559 0.812946
Si Si5 0.155533 0.596771 0.979699
Si Si6 0.334208 0.594551 0.012998
Si Si7 0.915702 0.721030 0.502091
O O1 0.715946 0.137527 0.373049
O O2 0.680605 0.255309 0.189332
O O3 0.723681 0.107593 0.154694
O O4 0.855258 0.204457 0.381632
O O5 0.117990 0.172976 0.872209
O O6 0.981243 0.192970 0.885881
O O7 0.958729 0.239643 0.656516
O O8 0.071158 0.334039 0.892932
O O9 0.829266 0.877631 0.655335
O O10 0.650102 0.858838 0.525578
O O11 0.706977 0.000000 0.487425
O O12 0.363676 0.594229 0.906056
O O13 0.111602 0.500000 0.944469
O O14 0.221675 0.605987 0.927969
O O15 0.364651 0.500000 0.089179
O O16 0.000000 0.687254 0.500000
#
# Coordination Sequence:
#
# PCOD8114581 Si02
#       7
#     8   8   8   8   8   8   8
#     4  11  21  46  66  90 131 183 223 262 331 404
#     4  12  23  43  67  99 135 172 222 280 332 394
#     4  11  23  41  66  95 133 176 220 272 332 399
#     4  11  22  41  65  94 131 172 222 273 330 395
#     4  11  26  44  68 101 136 179 223 272 339 403
#     4  11  25  42  65  98 134 173 220 273 338 399
#     4  11  24  41  68  98 129 176 224 274 334 391
#
# _framework density 21.877019000000001
#
# number of rings (size 3 to 8) (size 9 to 14) (size 15 to 20)
#    0.000    0.857    4.286    3.429    4.000    2.571 
#    0.000    0.714    0.000    3.000    0.000    0.000 
#    0.000    0.000    0.000    0.000    0.000    0.000 
#
# Total GULP energy -347134.996350 kJ/mol
# GULP energy per Si atom -12397.678441 kJ/mol
# Density = 2.182723 g / cm^3
# Si number density = 21.877019 Si / 1000 Ang^3
#
#
#
# Elastic Constant Matrix: (Units=GPa)
#
#
# Indices 1 2 3 4 5 6 
#
# 1 117.1193 32.0774 15.4088 0.0000 1.4481 0.0000
# 2 32.0774 118.7949 24.1778 0.0000 9.4085 0.0000
# 3 15.4088 24.1778 43.6695 0.0000 5.2193 0.0000
# 4 0.0000 0.0000 0.0000 21.2297 0.0000 -1.0990
# 5 1.4481 9.4085 5.2193 0.0000 28.4927 0.0000
# 6 0.0000 0.0000 0.0000 -1.0990 0.0000 24.2169
#
#
#
# Elastic Compliance Matrix: (Units=1/GPa)
#
#
# Indices 1 2 3 4 5 6 
#
# 1 0.009408 -0.002141 -0.002210 0.000000 0.000634 0.000000
# 2 -0.002141 0.010113 -0.004558 0.000000 -0.002396 0.000000
# 3 -0.002210 -0.004558 0.026591 0.000000 -0.003254 0.000000
# 4 0.000000 0.000000 0.000000 0.047215 0.000000 0.002143
# 5 0.000634 -0.002396 -0.003254 0.000000 0.036452 0.000000
# 6 0.000000 0.000000 0.000000 0.002143 0.000000 0.041391
#
#
# Mechanical properties :
#
#
# Convention : Reuss Voigt Hill
#
# Bulk Modulus (GPa) = 35.34112 46.99018 41.16565
# Shear Modulus (GPa) = 25.19939 28.64917 26.92428
#
# Velocity S-wave (km/s) = 3.39760 3.62270 3.51195
# Velocity P-wave (km/s) = 5.61970 6.24696 5.94162
#
# Compressibility (1/GPa) = 0.02829565
#
# Stress axis : x y z
#
# Youngs Moduli (GPa) = 106.29799 98.88052 37.60630
#
# Poissons Ratio (x) = 0.21167 0.08311
# Poissons Ratio (y) = 0.22755 0.17139
# Poissons Ratio (z) = 0.23492 0.45065
#
# Static dielectric constant tensor:
#      x y z
#    x 4.031280 0.000000 -0.007630 
#    y 0.000000 3.884570 0.000000 
#    z -0.007630 0.000000 4.004560 
# 
# 
# High freq. dielectric constant tensor:
#      x y z
#    x 1.861240 0.000000 -0.003260 
#    y 0.000000 1.854680 0.000000 
#    z -0.003260 0.000000 1.865810 
# 
# From -- ./inp_files/156746.got.cif
#   From: 2010.06.25/outbox.cif.g09.slc.cpg/sg12_79_cif.got.tgz:156746.got - 2010.06.28 00:19:55.
