data_PCOD8114572
_publ_section_title
;
Structure prediction by ZEFSAII (Michael W. Deem and Ramdas Pophale) SiO2 
 PCOD8114572
Probable space group: C 2/M
;
_chemical_formula_sum "Si O2"
_cell_formula_units_Z 56
_cell_length_a 18.898385
_cell_length_b 17.294586
_cell_length_c 13.995209
_cell_angle_alpha 90.000000
_cell_angle_beta 145.557875
_cell_angle_gamma 90.000000
_cell_volume 2587.040908
_symmetry_space_group_name_H-M "C 2/M"
_symmetry_group_IT_number 12
_symmetry_cell_setting 'monoclinic'
loop_
_space_group_symop_operation_xyz
x,y,z
-x,y,-z
-x,-y,-z
x,-y,z
1/2+x,1/2+y,z
1/2-x,1/2+y,-z
1/2-x,1/2-y,-z
1/2+x,1/2-y,z
loop_
_atom_site_type_symbol
_atom_site_label
_atom_site_fract_x
_atom_site_fract_y
_atom_site_fract_z
Si Si1 0.224045 0.088844 0.561511
Si Si2 0.733845 0.087915 0.025921
Si Si3 0.040389 0.645382 0.285809
Si Si4 0.356156 0.660842 0.339805
Si Si5 0.297915 0.820893 0.361882
Si Si6 0.350259 0.589360 0.952055
Si Si7 0.925261 0.188998 0.748429
O O1 0.361794 0.103722 0.674776
O O2 0.220660 0.110379 0.669172
O O3 0.119042 0.139223 0.391410
O O4 0.187806 0.000000 0.506317
O O5 0.585310 0.096883 0.859046
O O6 0.787366 0.109389 0.982435
O O7 0.766866 0.000000 0.090343
O O8 0.797267 0.145723 0.171035
O O9 0.088804 0.645243 0.449040
O O10 0.013381 0.732602 0.221500
O O11 0.500000 0.634923 0.500000
O O12 0.344791 0.751776 0.347570
O O13 0.245688 0.890148 0.239198
O O14 0.192443 0.788607 0.316788
O O15 0.387235 0.500000 0.983641
O O16 0.474771 0.640781 0.078883
#
# Coordination Sequence:
#
# PCOD8114572 Si02
#       7
#     8   8   8   8   8   8   8
#     4  11  22  40  68  99 132 172 213 267 327 382
#     4  11  27  45  63  95 135 173 217 268 326 385
#     4  11  23  44  68  95 133 174 214 264 322 391
#     4  12  25  43  69  97 129 170 220 267 324 388
#     4  11  24  42  68  99 129 170 219 266 324 387
#     4  11  26  43  64  97 133 172 218 272 322 376
#     4  11  21  43  68  97 133 167 217 271 318 383
#
# _framework density 21.646353000000001
#
# number of rings (size 3 to 8) (size 9 to 14) (size 15 to 20)
#    0.000    0.857    2.857    4.286    2.000    8.000 
#    0.000    2.857    0.000    0.000    0.000    0.000 
#    0.000    0.000    0.000    0.000    0.000    0.000 
#
# Total GULP energy -347460.212616 kJ/mol
# GULP energy per Si atom -12409.293308 kJ/mol
# Density = 2.159709 g / cm^3
# Si number density = 21.646353 Si / 1000 Ang^3
#
#
#
# Elastic Constant Matrix: (Units=GPa)
#
#
# Indices 1 2 3 4 5 6 
#
# 1 51.5938 10.5993 25.4364 0.0000 -11.6837 0.0000
# 2 10.5993 73.1625 10.0071 0.0000 -7.9370 0.0000
# 3 25.4364 10.0071 118.1183 0.0000 -9.1135 0.0000
# 4 0.0000 0.0000 0.0000 31.1238 0.0000 -2.9871
# 5 -11.6837 -7.9370 -9.1135 0.0000 36.8399 0.0000
# 6 0.0000 0.0000 0.0000 -2.9871 0.0000 29.7995
#
#
#
# Elastic Compliance Matrix: (Units=1/GPa)
#
#
# Indices 1 2 3 4 5 6 
#
# 1 0.023309 -0.002143 -0.004387 0.000000 0.005846 0.000000
# 2 -0.002143 0.014303 -0.000576 0.000000 0.002259 0.000000
# 3 -0.004387 -0.000576 0.009524 0.000000 0.000841 0.000000
# 4 0.000000 0.000000 0.000000 0.032442 0.000000 0.003252
# 5 0.005846 0.002259 0.000841 0.000000 0.029693 0.000000
# 6 0.000000 0.000000 0.000000 0.003252 0.000000 0.033884
#
#
# Mechanical properties :
#
#
# Convention : Reuss Voigt Hill
#
# Bulk Modulus (GPa) = 30.37232 37.21780 33.79506
# Shear Modulus (GPa) = 29.70169 32.67477 31.18823
#
# Velocity S-wave (km/s) = 3.70825 3.88942 3.79992
# Velocity P-wave (km/s) = 5.69179 6.11564 5.90751
#
# Compressibility (1/GPa) = 0.03292472
#
# Stress axis : x y z
#
# Youngs Moduli (GPa) = 42.90196 69.91779 104.99264
#
# Poissons Ratio (x) = 0.14981 0.46060
# Poissons Ratio (y) = 0.09192 0.06047
# Poissons Ratio (z) = 0.18821 0.04027
#
# Static dielectric constant tensor:
#      x y z
#    x 3.943120 0.000000 -0.046580 
#    y 0.000000 3.804710 0.000000 
#    z -0.046580 0.000000 3.864130 
# 
# 
# High freq. dielectric constant tensor:
#      x y z
#    x 1.859430 0.000000 -0.003600 
#    y 0.000000 1.853290 0.000000 
#    z -0.003600 0.000000 1.851420 
# 
# From -- ./inp_files/234703.got.cif
#   From: 2010.06.25/outbox.cif.g09.slc.cpg/sg12_118_cif.got.tgz:234703.got - 2010.06.28 00:19:55.
