data_PCOD8114272
_publ_section_title
;
Structure prediction by ZEFSAII (Michael W. Deem and Ramdas Pophale) SiO2 
 PCOD8114272
Probable space group: C 2/M
;
_chemical_formula_sum "Si O2"
_cell_formula_units_Z 40
_cell_length_a 14.629308
_cell_length_b 8.942235
_cell_length_c 19.887448
_cell_angle_alpha 90.000000
_cell_angle_beta 56.801571
_cell_angle_gamma 90.000000
_cell_volume 2177.007181
_symmetry_space_group_name_H-M "C 2/M"
_symmetry_group_IT_number 12
_symmetry_cell_setting 'monoclinic'
loop_
_space_group_symop_operation_xyz
x,y,z
-x,y,-z
-x,-y,-z
x,-y,z
1/2+x,1/2+y,z
1/2-x,1/2+y,-z
1/2-x,1/2-y,-z
1/2+x,1/2-y,z
loop_
_atom_site_type_symbol
_atom_site_label
_atom_site_fract_x
_atom_site_fract_y
_atom_site_fract_z
Si Si1 0.541155 0.327076 0.414046
Si Si2 0.848944 0.825213 0.999918
Si Si3 0.594370 0.324255 0.873219
Si Si4 0.832072 0.825951 0.415066
Si Si5 0.218756 0.677404 0.702019
O O1 0.500000 0.249307 0.500000
O O2 0.560697 0.500000 0.422412
O O3 0.454974 0.301594 0.390280
O O4 0.656983 0.261197 0.343513
O O5 0.850384 0.780146 0.077943
O O6 0.831504 0.000000 0.999502
O O7 0.750000 0.750000 0.000000
O O8 0.966513 0.779323 0.922099
O O9 0.607654 0.500000 0.854428
O O10 0.654726 0.230365 0.792727
O O11 0.750000 0.750000 0.500000
O O12 0.833467 0.747647 0.343027
O O13 0.801504 0.000000 0.421694
O O14 0.211086 0.500000 0.700400
#
# Coordination Sequence:
#
# PCOD8114272 Si02
#       5
#     8   8   8   8   8
#     4   9  18  35  55  74 104 145 183 223 276 331
#     4   9  19  37  62  85 113 149 184 222 274 337
#     4   9  20  39  57  81 116 151 181 222 281 335
#     4  11  21  36  57  79 107 145 187 233 282 332
#     4  11  22  37  57  82 111 146 190 235 276 328
#
# _framework density 18.373850000000001
#
# number of rings (size 3 to 8) (size 9 to 14) (size 15 to 20)
#    0.000    2.200    2.000    2.400    0.000    3.200 
#    0.000   13.000    0.000    0.000    0.000    0.000 
#    0.000    0.000    0.000    0.000    0.000    0.000 
#
# Total GULP energy -247955.589385 kJ/mol
# GULP energy per Si atom -12397.779469 kJ/mol
# Density = 1.833203 g / cm^3
# Si number density = 18.373850 Si / 1000 Ang^3
#
#
#
# Elastic Constant Matrix: (Units=GPa)
#
#
# Indices 1 2 3 4 5 6 
#
# 1 147.2231 61.1225 91.8489 0.0000 -2.6176 0.0000
# 2 61.1225 77.3190 64.3211 0.0000 3.0916 0.0000
# 3 91.8489 64.3211 162.3766 0.0000 2.7346 0.0000
# 4 0.0000 0.0000 0.0000 35.7346 0.0000 3.0454
# 5 -2.6176 3.0916 2.7346 0.0000 25.1147 0.0000
# 6 0.0000 0.0000 0.0000 3.0454 0.0000 32.1718
#
#
#
# Elastic Compliance Matrix: (Units=1/GPa)
#
#
# Indices 1 2 3 4 5 6 
#
# 1 0.012134 -0.005887 -0.004574 0.000000 0.002487 0.000000
# 2 -0.005887 0.022206 -0.005420 0.000000 -0.002757 0.000000
# 3 -0.004574 -0.005420 0.010909 0.000000 -0.000997 0.000000
# 4 0.000000 0.000000 0.000000 0.028212 0.000000 -0.002671
# 5 0.002487 -0.002757 -0.000997 0.000000 0.040525 0.000000
# 6 0.000000 0.000000 0.000000 -0.002671 0.000000 0.031336
#
#
# Mechanical properties :
#
#
# Convention : Reuss Voigt Hill
#
# Bulk Modulus (GPa) = 74.13670 91.27820 82.70745
# Shear Modulus (GPa) = 27.53615 29.91262 28.72439
#
# Velocity S-wave (km/s) = 3.87545 4.03923 3.95819
# Velocity P-wave (km/s) = 7.77574 8.45813 8.12410
#
# Compressibility (1/GPa) = 0.01348860
#
# Stress axis : x y z
#
# Youngs Moduli (GPa) = 82.41239 45.03218 91.66415
#
# Poissons Ratio (x) = 0.26510 0.41924
# Poissons Ratio (y) = 0.48516 0.49682
# Poissons Ratio (z) = 0.37692 0.24407
#
# Static dielectric constant tensor:
#      x y z
#    x 3.537820 0.000000 -0.087100 
#    y 0.000000 3.253420 0.000000 
#    z -0.087100 0.000000 3.470490 
# 
# 
# High freq. dielectric constant tensor:
#      x y z
#    x 1.724650 0.000000 -0.001840 
#    y 0.000000 1.698160 0.000000 
#    z -0.001840 0.000000 1.717690 
# 
# From -- ./inp_files/249516.got.cif
#   From: 2010.06.25/outbox.cif.g09.slc.cpg/sg12_125_cif.got.tgz:249516.got - 2010.06.28 00:19:55.
