data_PCOD8114693
_publ_section_title
;
Structure prediction by ZEFSAII (Michael W. Deem and Ramdas Pophale) SiO2 
 PCOD8114693
Probable space group: C 2/M
;
_chemical_formula_sum "Si O2"
_cell_formula_units_Z 64
_cell_length_a 19.408427
_cell_length_b 8.726397
_cell_length_c 20.627283
_cell_angle_alpha 90.000000
_cell_angle_beta 89.849804
_cell_angle_gamma 90.000000
_cell_volume 3493.540966
_symmetry_space_group_name_H-M "C 2/M"
_symmetry_group_IT_number 12
_symmetry_cell_setting 'monoclinic'
loop_
_space_group_symop_operation_xyz
x,y,z
-x,y,-z
-x,-y,-z
x,-y,z
1/2+x,1/2+y,z
1/2-x,1/2+y,-z
1/2-x,1/2-y,-z
1/2+x,1/2-y,z
loop_
_atom_site_type_symbol
_atom_site_label
_atom_site_fract_x
_atom_site_fract_y
_atom_site_fract_z
Si Si1 0.569195 0.181728 0.604237
Si Si2 0.925478 0.678263 0.748504
Si Si3 0.923180 0.180577 0.610783
Si Si4 0.325534 0.818548 0.507211
Si Si5 0.324077 0.179296 0.002275
Si Si6 0.822963 0.317936 0.141697
Si Si7 0.918638 0.322599 0.252276
Si Si8 0.827317 0.319050 0.862402
O O1 0.496016 0.254824 0.584575
O O2 0.628113 0.231803 0.554272
O O3 0.591756 0.244878 0.675176
O O4 0.557364 0.000000 0.605687
O O5 0.912160 0.500000 0.732404
O O6 0.909256 0.776974 0.685251
O O7 0.878730 0.740197 0.807111
O O8 0.003546 0.704459 0.771197
O O9 0.860411 0.253083 0.571340
O O10 0.922545 0.000000 0.601651
O O11 0.250000 0.750000 0.500000
O O12 0.320124 0.000000 0.512228
O O13 0.360437 0.224477 0.933610
O O14 0.314431 0.000000 0.004807
O O15 0.250000 0.250000 0.000000
O O16 0.357125 0.231603 0.071392
O O17 0.822783 0.500000 0.147604
O O18 0.868465 0.243674 0.199479
O O19 0.745596 0.259851 0.148937
O O20 0.900211 0.500000 0.255587
O O21 0.816742 0.500000 0.857174
#
# Coordination Sequence:
#
# PCOD8114693 Si02
#       8
#     8   8   8   8   8   8   8   8
#     4   9  19  37  58  76 100 137 172 203 247 303
#     4   9  18  34  52  69  95 131 166 203 250 301
#     4  11  22  36  56  79 102 132 172 214 253 302
#     4  11  23  38  56  80 110 140 170 208 253 297
#     4   8  14  25  41  64  93 124 160 198 240 292
#     4   9  16  27  46  70  96 127 161 200 245 295
#     4   8  15  30  50  70  93 124 162 198 237 288
#     4   9  17  29  46  68  94 126 164 205 247 293
#
# _framework density 18.319521999999999
#
# number of rings (size 3 to 8) (size 9 to 14) (size 15 to 20)
#    0.000    2.750    0.000    2.625    0.000    4.000 
#    0.000    4.375    0.000    3.750    0.000    0.000 
#    0.000   14.000    0.000    0.000    0.000    0.000 
#
# Total GULP energy -396488.260451 kJ/mol
# GULP energy per Si atom -12390.258139 kJ/mol
# Density = 1.827783 g / cm^3
# Si number density = 18.319522 Si / 1000 Ang^3
#
#
#
# Elastic Constant Matrix: (Units=GPa)
#
#
# Indices 1 2 3 4 5 6 
#
# 1 91.1762 21.1083 60.6015 0.0000 -1.8355 0.0000
# 2 21.1083 35.2204 23.5540 0.0000 -2.2924 0.0000
# 3 60.6015 23.5540 113.1534 0.0000 -4.0154 0.0000
# 4 0.0000 0.0000 0.0000 18.2653 0.0000 0.2567
# 5 -1.8355 -2.2924 -4.0154 0.0000 33.3159 0.0000
# 6 0.0000 0.0000 0.0000 0.2567 0.0000 25.0955
#
#
#
# Elastic Compliance Matrix: (Units=1/GPa)
#
#
# Indices 1 2 3 4 5 6 
#
# 1 0.017754 -0.004993 -0.008483 0.000000 -0.000388 0.000000
# 2 -0.004993 0.034458 -0.004444 0.000000 0.001560 0.000000
# 3 -0.008483 -0.004444 0.014340 0.000000 0.000955 0.000000
# 4 0.000000 0.000000 0.000000 0.054757 0.000000 -0.000560
# 5 -0.000388 0.001560 0.000955 0.000000 0.030217 0.000000
# 6 0.000000 0.000000 0.000000 -0.000560 0.000000 0.039854
#
#
# Mechanical properties :
#
#
# Convention : Reuss Voigt Hill
#
# Bulk Modulus (GPa) = 32.55895 50.00863 41.28379
# Shear Modulus (GPa) = 21.05660 24.28774 22.67217
#
# Velocity S-wave (km/s) = 3.39397 3.64508 3.52177
# Velocity P-wave (km/s) = 5.75935 6.71363 6.25471
#
# Compressibility (1/GPa) = 0.03071352
#
# Stress axis : x y z
#
# Youngs Moduli (GPa) = 56.32455 29.02080 69.73631
#
# Poissons Ratio (x) = 0.14489 0.59158
# Poissons Ratio (y) = 0.28120 0.30988
# Poissons Ratio (z) = 0.47781 0.12896
#
# Static dielectric constant tensor:
#      x y z
#    x 3.266290 0.000000 0.060330 
#    y 0.000000 3.225080 0.000000 
#    z 0.060330 0.000000 4.187840 
# 
# 
# High freq. dielectric constant tensor:
#      x y z
#    x 1.687580 0.000000 0.001170 
#    y 0.000000 1.690180 0.000000 
#    z 0.001170 0.000000 1.734310 
# 
# From -- ./inp_files/314047.got.cif
#   From: 2010.06.25/outbox.cif.g09.slc.cpg/sg12_158_cif.got.tgz:314047.got - 2010.06.28 00:19:55.
