data_PCOD8114896
_publ_section_title
;
Structure prediction by ZEFSAII (Michael W. Deem and Ramdas Pophale) SiO2 
 PCOD8114896
Probable space group: C 2/M
;
_chemical_formula_sum "Si O2"
_cell_formula_units_Z 56
_cell_length_a 19.583751
_cell_length_b 8.441632
_cell_length_c 24.513733
_cell_angle_alpha 90.000000
_cell_angle_beta 44.056831
_cell_angle_gamma 90.000000
_cell_volume 2818.049736
_symmetry_space_group_name_H-M "C 2/M"
_symmetry_group_IT_number 12
_symmetry_cell_setting 'monoclinic'
loop_
_space_group_symop_operation_xyz
x,y,z
-x,y,-z
-x,-y,-z
x,-y,z
1/2+x,1/2+y,z
1/2-x,1/2+y,-z
1/2-x,1/2-y,-z
1/2+x,1/2-y,z
loop_
_atom_site_type_symbol
_atom_site_label
_atom_site_fract_x
_atom_site_fract_y
_atom_site_fract_z
Si Si1 0.181373 0.185797 0.187833
Si Si2 0.333095 0.685608 0.491254
Si Si3 0.692842 0.314589 0.981446
Si Si4 0.783883 0.813485 0.350990
Si Si5 0.461367 0.687333 0.322596
Si Si6 0.989676 0.683728 0.068756
Si Si7 0.292631 0.315409 0.223375
O O1 0.247558 0.282419 0.107872
O O2 0.220996 0.215492 0.225783
O O3 0.069988 0.251745 0.247097
O O4 0.188110 0.000000 0.170359
O O5 0.322678 0.500000 0.505268
O O6 0.250000 0.750000 0.500000
O O7 0.317121 0.765814 0.559581
O O8 0.434373 0.730016 0.401501
O O9 0.672653 0.500000 0.998678
O O10 0.750000 0.250000 0.000000
O O11 0.590585 0.221877 0.041040
O O12 0.880468 0.742084 0.326636
O O13 0.777640 0.748439 0.293167
O O14 0.793581 0.000000 0.344175
O O15 0.461302 0.500000 0.316370
O O16 0.962128 0.500000 0.091586
O O17 0.905595 0.791309 0.142754
O O18 0.000000 0.730800 0.000000
O O19 0.266046 0.500000 0.234096
#
# Coordination Sequence:
#
# PCOD8114896 Si02
#       7
#     8   8   8   8   8   8   8
#     4  11  22  39  60  83 116 154 192 240 291 344
#     4   9  16  31  55  83 112 146 186 232 284 341
#     4  12  26  43  63  88 119 153 193 241 292 346
#     4   9  19  36  57  84 113 147 191 236 283 342
#     4   8  17  34  57  82 110 147 189 233 286 340
#     4  11  23  41  64  88 115 152 197 241 287 345
#     4  11  23  38  59  85 117 156 193 237 291 346
#
# _framework density 19.871898999999999
#
# number of rings (size 3 to 8) (size 9 to 14) (size 15 to 20)
#    0.000    1.857    1.429    3.857    2.000    1.714 
#    0.000    7.857    0.000    4.286    0.000    0.000 
#    0.000    0.000    0.000    0.000    0.000    0.000 
#
# Total GULP energy -347137.770128 kJ/mol
# GULP energy per Si atom -12397.777505 kJ/mol
# Density = 1.982667 g / cm^3
# Si number density = 19.871899 Si / 1000 Ang^3
#
#
#
# Elastic Constant Matrix: (Units=GPa)
#
#
# Indices 1 2 3 4 5 6 
#
# 1 89.8533 6.1554 19.8954 0.0001 12.6226 -0.0003
# 2 6.1554 29.3376 12.7114 0.0003 7.9806 0.0002
# 3 19.8954 12.7114 73.5004 -0.0001 17.0748 -0.0002
# 4 0.0001 0.0003 -0.0001 31.4030 0.0000 2.4853
# 5 12.6226 7.9806 17.0748 0.0000 37.6792 0.0000
# 6 -0.0003 0.0002 -0.0002 2.4853 0.0000 25.3920
#
#
#
# Elastic Compliance Matrix: (Units=1/GPa)
#
#
# Indices 1 2 3 4 5 6 
#
# 1 0.012124 -0.000699 -0.002517 0.000000 -0.002773 0.000000
# 2 -0.000699 0.037934 -0.005096 0.000000 -0.005491 0.000000
# 3 -0.002517 -0.005096 0.016453 0.000000 -0.005534 0.000000
# 4 0.000000 0.000000 0.000000 0.032093 0.000000 -0.003141
# 5 -0.002773 -0.005491 -0.005534 0.000000 0.031140 0.000000
# 6 0.000000 0.000000 0.000000 -0.003141 0.000000 0.039690
#
#
# Mechanical properties :
#
#
# Convention : Reuss Voigt Hill
#
# Bulk Modulus (GPa) = 20.04452 30.02399 25.03425
# Shear Modulus (GPa) = 24.66872 29.15679 26.91275
#
# Velocity S-wave (km/s) = 3.52715 3.83461 3.68409
# Velocity P-wave (km/s) = 5.16687 5.89468 5.54273
#
# Compressibility (1/GPa) = 0.04988896
#
# Stress axis : x y z
#
# Youngs Moduli (GPa) = 82.48142 26.36144 60.77784
#
# Poissons Ratio (x) = 0.01843 0.15296
# Poissons Ratio (y) = 0.05765 0.30970
# Poissons Ratio (z) = 0.20758 0.13433
#
# Static dielectric constant tensor:
#      x y z
#    x 3.725390 0.000000 0.054700 
#    y 0.000000 3.506660 0.000000 
#    z 0.054700 0.000000 4.163960 
# 
# 
# High freq. dielectric constant tensor:
#      x y z
#    x 1.761270 0.000000 0.005870 
#    y 0.000000 1.765420 0.000000 
#    z 0.005870 0.000000 1.787810 
# 
# From -- ./inp_files/342355.got.cif
#   From: 2010.06.25/outbox.cif.g09.slc.cpg/sg12_172_cif.got.tgz:342355.got - 2010.06.28 00:19:55.
