data_PCOD8114554
_publ_section_title
;
Structure prediction by ZEFSAII (Michael W. Deem and Ramdas Pophale) SiO2 
 PCOD8114554
Probable space group: C 2/M
;
_chemical_formula_sum "Si O2"
_cell_formula_units_Z 48
_cell_length_a 9.772031
_cell_length_b 28.335043
_cell_length_c 8.612686
_cell_angle_alpha 90.000000
_cell_angle_beta 92.507506
_cell_angle_gamma 90.000000
_cell_volume 2382.491113
_symmetry_space_group_name_H-M "C 2/M"
_symmetry_group_IT_number 12
_symmetry_cell_setting 'monoclinic'
loop_
_space_group_symop_operation_xyz
x,y,z
-x,y,-z
-x,-y,-z
x,-y,z
1/2+x,1/2+y,z
1/2-x,1/2+y,-z
1/2-x,1/2-y,-z
1/2+x,1/2-y,z
loop_
_atom_site_type_symbol
_atom_site_label
_atom_site_fract_x
_atom_site_fract_y
_atom_site_fract_z
Si Si1 0.762610 0.153297 0.163363
Si Si2 0.619542 0.251933 0.885927
Si Si3 0.476081 0.167280 0.316844
Si Si4 0.010557 0.099325 0.669949
Si Si5 0.717224 0.500000 0.053564
Si Si6 0.232641 0.396924 0.842433
Si Si7 0.049459 0.000000 0.758682
O O1 0.870175 0.196556 0.190195
O O2 0.622655 0.164065 0.243621
O O3 0.846670 0.111100 0.241526
O O4 0.726557 0.139313 0.985748
O O5 0.608174 0.212644 0.750733
O O6 0.500000 0.245226 0.000000
O O7 0.750000 0.250000 0.000000
O O8 0.500000 0.173393 0.500000
O O9 0.388345 0.119691 0.279478
O O10 0.000000 0.123630 0.500000
O O11 0.879299 0.110772 0.768635
O O12 0.031434 0.043952 0.644809
O O13 0.795756 0.451572 0.109270
O O14 0.570669 0.500000 0.122806
O O15 0.691914 0.500000 0.865808
#
# Coordination Sequence:
#
# PCOD8114554 Si02
#       7
#     8   8   8   8   4   8   4
#     4  12  24  41  67  91 125 166 214 255 310 377
#     4  12  23  44  68  94 121 165 211 253 308 376
#     4  12  27  45  63  91 131 164 202 266 324 369
#     4  11  22  36  61  97 130 163 207 262 315 366
#     4   9  18  34  65  93 118 164 220 256 293 373
#     4  11  21  42  66  92 125 169 215 256 303 376
#     4   9  17  34  57  92 129 163 202 262 316 355
#
# _framework density 20.146979999999999
#
# number of rings (size 3 to 8) (size 9 to 14) (size 15 to 20)
#    0.000    0.833    5.000    3.250    0.000    1.333 
#    0.000    2.917    0.000    0.000    0.000    0.000 
#    0.000    0.000    0.000    0.000    0.000    0.000 
#
# Total GULP energy -297463.647554 kJ/mol
# GULP energy per Si atom -12394.318648 kJ/mol
# Density = 2.010112 g / cm^3
# Si number density = 20.146980 Si / 1000 Ang^3
#
#
#
# Elastic Constant Matrix: (Units=GPa)
#
#
# Indices 1 2 3 4 5 6 
#
# 1 74.6543 33.6422 56.6181 0.0000 10.6396 0.0000
# 2 33.6422 105.6982 44.5266 0.0000 0.6529 0.0000
# 3 56.6181 44.5266 138.5309 0.0000 6.3178 0.0000
# 4 0.0000 0.0000 0.0000 21.7796 0.0000 -0.4268
# 5 10.6396 0.6529 6.3178 0.0000 28.6563 0.0000
# 6 0.0000 0.0000 0.0000 -0.4268 0.0000 13.2351
#
#
#
# Elastic Compliance Matrix: (Units=1/GPa)
#
#
# Indices 1 2 3 4 5 6 
#
# 1 0.021515 -0.003731 -0.007307 0.000000 -0.006292 0.000000
# 2 -0.003731 0.011598 -0.002277 0.000000 0.001623 0.000000
# 3 -0.007307 -0.002277 0.010921 0.000000 0.000357 0.000000
# 4 0.000000 0.000000 0.000000 0.045944 0.000000 0.001481
# 5 -0.006292 0.001623 0.000357 0.000000 0.037117 0.000000
# 6 0.000000 0.000000 0.000000 0.001481 0.000000 0.075605
#
#
# Mechanical properties :
#
#
# Convention : Reuss Voigt Hill
#
# Bulk Modulus (GPa) = 57.46021 65.38414 61.42217
# Shear Modulus (GPa) = 21.26498 25.00729 23.13613
#
# Velocity S-wave (km/s) = 3.25236 3.52695 3.39243
# Velocity P-wave (km/s) = 6.53347 7.00784 6.77481
#
# Compressibility (1/GPa) = 0.01740335
#
# Stress axis : x y z
#
# Youngs Moduli (GPa) = 46.47975 86.22547 91.57032
#
# Poissons Ratio (x) = 0.32169 0.66911
# Poissons Ratio (y) = 0.17341 0.20850
# Poissons Ratio (z) = 0.33963 0.19633
#
# Static dielectric constant tensor:
#      x y z
#    x 3.484770 0.000000 0.066030 
#    y 0.000000 3.691700 0.000000 
#    z 0.066030 0.000000 3.639830 
# 
# 
# High freq. dielectric constant tensor:
#      x y z
#    x 1.778970 0.000000 0.007570 
#    y 0.000000 1.799230 0.000000 
#    z 0.007570 0.000000 1.786440 
# 
# From -- ./inp_files/42291.got.cif
#   From: 2010.06.25/outbox.cif.g09.slc.cpg/sg12_22_cif.got.tgz:42291.got - 2010.06.28 00:19:55.
