data_PCOD8114615
_publ_section_title
;
Structure prediction by ZEFSAII (Michael W. Deem and Ramdas Pophale) SiO2 
 PCOD8114615
Probable space group: C 2/M
;
_chemical_formula_sum "Si O2"
_cell_formula_units_Z 48
_cell_length_a 21.223821
_cell_length_b 17.393840
_cell_length_c 22.403090
_cell_angle_alpha 90.000000
_cell_angle_beta 18.671343
_cell_angle_gamma 90.000000
_cell_volume 2647.681963
_symmetry_space_group_name_H-M "C 2/M"
_symmetry_group_IT_number 12
_symmetry_cell_setting 'monoclinic'
loop_
_space_group_symop_operation_xyz
x,y,z
-x,y,-z
-x,-y,-z
x,-y,z
1/2+x,1/2+y,z
1/2-x,1/2+y,-z
1/2-x,1/2-y,-z
1/2+x,1/2-y,z
loop_
_atom_site_type_symbol
_atom_site_label
_atom_site_fract_x
_atom_site_fract_y
_atom_site_fract_z
Si Si1 0.602742 0.590946 0.500002
Si Si2 0.569092 0.091042 0.500544
Si Si3 0.380429 0.091128 0.790659
Si Si4 0.540473 0.408780 0.788391
Si Si5 0.292820 0.909196 0.206950
Si Si6 0.760927 0.160215 0.500633
O O1 0.615426 0.500000 0.503045
O O2 0.381595 0.616509 0.680933
O O3 0.746836 0.614175 0.316308
O O4 0.666200 0.641860 0.498732
O O5 0.500000 0.128883 0.500000
O O6 0.421763 0.117406 0.685463
O O7 0.790002 0.118729 0.317790
O O8 0.565168 0.000000 0.498198
O O9 0.544243 0.124932 0.687459
O O10 0.390834 0.000000 0.786905
O O11 0.167288 0.122668 0.001099
O O12 0.541141 0.500000 0.782186
O O13 0.581412 0.375540 0.686381
O O14 0.305462 0.000000 0.192459
O O15 0.500000 0.871859 0.000000
O O16 0.750000 0.250000 0.500000
#
# Coordination Sequence:
#
# PCOD8114615 Si02
#       6
#     8   8   8   8   8   8
#     4   9  17  31  52  77 102 129 168 211 254 306
#     4   8  14  26  47  75 100 123 158 206 258 300
#     4   9  18  33  52  74 100 130 170 217 259 301
#     4   9  18  33  52  74 100 130 170 217 259 301
#     4   8  15  29  52  81 103 120 155 211 265 310
#     4  11  22  34  50  73 105 145 173 208 252 310
#
# _framework density 18.129065000000001
#
# number of rings (size 3 to 8) (size 9 to 14) (size 15 to 20)
#    0.000    3.000    0.000    3.500    0.000    2.667 
#    0.000    6.667   14.667    0.000    0.000    0.000 
#    0.000    0.000    0.000    0.000    0.000    0.000 
#
# Total GULP energy -297516.393245 kJ/mol
# GULP energy per Si atom -12396.516385 kJ/mol
# Density = 1.808780 g / cm^3
# Si number density = 18.129065 Si / 1000 Ang^3
#
#
#
# Elastic Constant Matrix: (Units=GPa)
#
#
# Indices 1 2 3 4 5 6 
#
# 1 174.4755 35.4425 86.6781 0.0956 6.2586 -0.0257
# 2 35.4425 37.0391 28.1884 0.1301 0.9080 -0.0067
# 3 86.6781 28.1884 191.8695 0.4900 -5.4939 -0.1745
# 4 0.0956 0.1301 0.4900 7.7662 -0.1566 0.4748
# 5 6.2586 0.9080 -5.4939 -0.1566 16.2477 -0.0455
# 6 -0.0257 -0.0067 -0.1745 0.4748 -0.0455 11.6608
#
#
#
# Elastic Compliance Matrix: (Units=1/GPa)
#
#
# Indices 1 2 3 4 5 6 
#
# 1 0.008615 -0.005735 -0.003166 0.000111 -0.004068 -0.000052
# 2 -0.005735 0.034385 -0.002476 -0.000359 -0.000553 -0.000017
# 3 -0.003166 -0.002476 0.007115 -0.000300 0.003761 0.000125
# 4 0.000111 -0.000359 -0.000300 0.129130 0.001106 -0.005258
# 5 -0.004068 -0.000553 0.003761 0.001106 0.064428 0.000253
# 6 -0.000052 -0.000017 0.000125 -0.005258 0.000253 0.085975
#
#
# Mechanical properties :
#
#
# Convention : Reuss Voigt Hill
#
# Bulk Modulus (GPa) = 36.54828 78.22245 57.38536
# Shear Modulus (GPa) = 13.83042 24.00662 18.91852
#
# Velocity S-wave (km/s) = 2.76504 3.64291 3.23390
# Velocity P-wave (km/s) = 5.51341 7.80613 6.75771
#
# Compressibility (1/GPa) = 0.02736107
#
# Stress axis : x y z
#
# Youngs Moduli (GPa) = 116.07319 29.08220 140.55682
#
# Poissons Ratio (x) = 0.16678 0.44504
# Poissons Ratio (y) = 0.66567 0.34800
# Poissons Ratio (z) = 0.36752 0.07200
#
# Static dielectric constant tensor:
#      x y z
#    x 3.464340 -0.000590 -0.057470 
#    y -0.000590 2.865590 0.001040 
#    z -0.057470 0.001040 3.927080 
# 
# 
# High freq. dielectric constant tensor:
#      x y z
#    x 1.707400 -0.000020 -0.000300 
#    y -0.000020 1.656460 0.000080 
#    z -0.000300 0.000080 1.710160 
# 
# From -- ./inp_files/322523.got.cif
#   From: 2010.06.25/outbox.cif.g09.slc.cpg/sg12_162_cif.got.tgz:322523.got - 2010.06.28 00:19:55.
