data_PCOD8114908
_publ_section_title
;
Structure prediction by ZEFSAII (Michael W. Deem and Ramdas Pophale) SiO2 
 PCOD8114908
Probable space group: C 2/M
;
_chemical_formula_sum "Si O2"
_cell_formula_units_Z 40
_cell_length_a 18.161410
_cell_length_b 9.668801
_cell_length_c 27.691783
_cell_angle_alpha 90.000000
_cell_angle_beta 155.176451
_cell_angle_gamma 90.000000
_cell_volume 2041.463205
_symmetry_space_group_name_H-M "C 2/M"
_symmetry_group_IT_number 12
_symmetry_cell_setting 'monoclinic'
loop_
_space_group_symop_operation_xyz
x,y,z
-x,y,-z
-x,-y,-z
x,-y,z
1/2+x,1/2+y,z
1/2-x,1/2+y,-z
1/2-x,1/2-y,-z
1/2+x,1/2-y,z
loop_
_atom_site_type_symbol
_atom_site_label
_atom_site_fract_x
_atom_site_fract_y
_atom_site_fract_z
Si Si1 0.690039 0.500000 0.266471
Si Si2 0.025101 0.721222 0.570926
Si Si3 0.368260 0.219780 0.966165
Si Si4 0.176712 0.000000 0.007277
Si Si5 0.868531 0.000000 0.219012
Si Si6 0.756511 0.000000 0.589396
Si Si7 0.975099 0.500000 0.105371
Si Si8 0.145816 0.000000 0.680728
O O1 0.796225 0.635942 0.312944
O O2 0.500200 0.500000 0.129368
O O3 0.671991 0.500000 0.313363
O O4 0.029042 0.865505 0.601123
O O5 0.000000 0.751315 0.500000
O O6 0.858902 0.634888 0.490790
O O7 0.195829 0.137212 0.846820
O O8 0.500000 0.233866 0.000000
O O9 0.310729 0.369227 0.950225
O O10 0.454915 0.138389 0.061994
O O11 0.342931 0.000000 0.071226
O O12 0.790821 0.000000 0.226310
O O13 0.078201 0.000000 0.347495
O O14 0.175267 0.500000 0.244689
#
# Coordination Sequence:
#
# PCOD8114908 Si02
#       8
#     4   8   8   4   4   4   4   4
#     4   9  18  37  60  82 113 154 191 240 306 344
#     4   9  20  37  60  85 112 145 194 253 302 349
#     4  11  22  42  58  88 129 167 196 242 306 361
#     4  12  24  35  64  98 120 155 216 257 269 352
#     4  11  23  39  62  77 120 173 191 233 314 372
#     4   9  20  41  59  83 113 149 197 250 301 353
#     4  11  22  39  61  91 123 163 207 242 298 365
#     4  12  21  36  60  84 115 159 197 237 310 362
#
# _framework density 19.593789000000001
#
# number of rings (size 3 to 8) (size 9 to 14) (size 15 to 20)
#    0.000    1.600    2.000    5.400    0.000    4.000 
#    0.000    1.000    0.000    0.000    0.000    0.000 
#    0.000    0.000    0.000    0.000    0.000    0.000 
#
# Total GULP energy -248047.843412 kJ/mol
# GULP energy per Si atom -12402.392171 kJ/mol
# Density = 1.954919 g / cm^3
# Si number density = 19.593789 Si / 1000 Ang^3
#
#
#
# Elastic Constant Matrix: (Units=GPa)
#
#
# Indices 1 2 3 4 5 6 
#
# 1 104.5894 56.5332 35.1146 0.0009 22.6063 -0.0037
# 2 56.5332 178.6639 57.8868 -0.0019 -3.0036 0.0030
# 3 35.1146 57.8868 109.5218 -0.0115 18.3687 0.0258
# 4 0.0009 -0.0019 -0.0115 17.1482 0.0025 -9.8614
# 5 22.6063 -3.0036 18.3687 0.0025 29.8248 0.0009
# 6 -0.0037 0.0030 0.0258 -9.8614 0.0009 43.7633
#
#
#
# Elastic Compliance Matrix: (Units=1/GPa)
#
#
# Indices 1 2 3 4 5 6 
#
# 1 0.014698 -0.004752 -0.000281 0.000002 -0.011446 0.000002
# 2 -0.004752 0.008577 -0.004192 -0.000002 0.007048 0.000001
# 3 -0.000281 -0.004192 0.012793 0.000006 -0.008088 -0.000006
# 4 0.000002 -0.000002 0.000006 0.066997 -0.000011 0.015097
# 5 -0.011446 0.007048 -0.008088 -0.000011 0.047896 0.000000
# 6 0.000002 0.000001 -0.000006 0.015097 0.000000 0.026252
#
#
# Mechanical properties :
#
#
# Convention : Reuss Voigt Hill
#
# Bulk Modulus (GPa) = 56.75933 76.87159 66.81546
# Shear Modulus (GPa) = 24.80940 34.36331 29.58635
#
# Velocity S-wave (km/s) = 3.56221 4.19237 3.89007
# Velocity P-wave (km/s) = 6.77865 7.92164 7.37233
#
# Compressibility (1/GPa) = 0.01761825
#
# Stress axis : x y z
#
# Youngs Moduli (GPa) = 68.03500 116.58459 78.16903
#
# Poissons Ratio (x) = 0.55404 0.02197
# Poissons Ratio (y) = 0.32332 0.32768
# Poissons Ratio (z) = 0.01912 0.48871
#
# Static dielectric constant tensor:
#      x y z
#    x 3.417350 0.000000 0.032280 
#    y 0.000000 3.687150 -0.000010 
#    z 0.032280 -0.000010 3.456960 
# 
# 
# High freq. dielectric constant tensor:
#      x y z
#    x 1.753920 0.000000 0.006510 
#    y 0.000000 1.772210 0.000000 
#    z 0.006510 0.000000 1.760240 
# 
# From -- ./inp_files/292111.got.cif
#   From: 2010.06.25/outbox.cif.g09.slc.cpg/sg12_147_cif.got.tgz:292111.got - 2010.06.28 00:19:55.
