data_PCOD8114954
_publ_section_title
;
Structure prediction by ZEFSAII (Michael W. Deem and Ramdas Pophale) SiO2 
 PCOD8114954
Probable space group: C 2/M
;
_chemical_formula_sum "Si O2"
_cell_formula_units_Z 48
_cell_length_a 13.924564
_cell_length_b 20.334866
_cell_length_c 11.451062
_cell_angle_alpha 90.000000
_cell_angle_beta 35.450560
_cell_angle_gamma 90.000000
_cell_volume 1880.601876
_symmetry_space_group_name_H-M "C 2/M"
_symmetry_group_IT_number 12
_symmetry_cell_setting 'monoclinic'
loop_
_space_group_symop_operation_xyz
x,y,z
-x,y,-z
-x,-y,-z
x,-y,z
1/2+x,1/2+y,z
1/2-x,1/2+y,-z
1/2-x,1/2-y,-z
1/2+x,1/2-y,z
loop_
_atom_site_type_symbol
_atom_site_label
_atom_site_fract_x
_atom_site_fract_y
_atom_site_fract_z
Si Si1 0.796646 0.258673 0.320582
Si Si2 0.448675 0.697217 0.698879
Si Si3 0.421219 0.075728 0.700863
Si Si4 0.677692 0.691676 0.931282
Si Si5 0.777080 0.928168 0.772443
Si Si6 0.931895 0.391630 0.217725
O O1 0.750000 0.250000 0.500000
O O2 0.613300 0.284813 0.460680
O O3 0.863838 0.199713 0.168080
O O4 0.938060 0.314723 0.175875
O O5 0.301893 0.748060 0.825978
O O6 0.401434 0.624131 0.703860
O O7 0.471548 0.697598 0.822572
O O8 0.500000 0.091151 0.500000
O O9 0.260558 0.121410 0.876751
O O10 0.569640 0.096250 0.641995
O O11 0.366192 0.000000 0.769572
O O12 0.735391 0.920423 0.675119
O O13 0.856460 0.000000 0.715055
O O14 0.599391 0.925376 0.010136
#
# Coordination Sequence:
#
# PCOD8114954 Si02
#       6
#     8   8   8   8   8   8
#     4  12  26  41  67 101 141 177 229 292 347 418
#     4  11  24  42  68  97 133 184 226 282 353 414
#     4  11  22  39  67  98 131 177 229 281 340 409
#     4  11  23  42  67  94 137 173 230 281 342 414
#     4  11  23  42  69  98 134 180 234 290 346 417
#     4  11  22  40  65  98 136 175 226 286 348 404
#
# _framework density 25.523744000000001
#
# number of rings (size 3 to 8) (size 9 to 14) (size 15 to 20)
#    0.000    0.833    3.333    5.500    2.333    0.667 
#    0.000    3.333    0.000    1.000    0.000    4.667 
#    0.000    0.000    0.000    0.000    0.000    0.000 
#
# Total GULP energy -297340.815929 kJ/mol
# GULP energy per Si atom -12389.200664 kJ/mol
# Density = 2.546565 g / cm^3
# Si number density = 25.523744 Si / 1000 Ang^3
#
#
#
# Elastic Constant Matrix: (Units=GPa)
#
#
# Indices 1 2 3 4 5 6 
#
# 1 104.7460 23.0570 48.8014 0.0136 44.4976 0.0016
# 2 23.0570 139.4739 32.3633 0.0061 11.9512 -0.0004
# 3 48.8014 32.3633 150.4559 0.0168 13.1203 -0.0023
# 4 0.0136 0.0061 0.0168 18.4029 -0.0117 6.2878
# 5 44.4976 11.9512 13.1203 -0.0117 44.6692 0.0012
# 6 0.0016 -0.0004 -0.0023 6.2878 0.0012 25.2080
#
#
#
# Elastic Compliance Matrix: (Units=1/GPa)
#
#
# Indices 1 2 3 4 5 6 
#
# 1 0.019387 -0.000612 -0.004605 -0.000023 -0.017797 0.000005
# 2 -0.000612 0.007676 -0.001362 -0.000002 -0.001045 0.000001
# 3 -0.004605 -0.001362 0.008212 -0.000003 0.002540 0.000002
# 4 -0.000023 -0.000002 -0.000003 0.059402 0.000040 -0.014817
# 5 -0.017797 -0.001045 0.002540 0.000040 0.039649 -0.000010
# 6 0.000005 0.000001 0.000002 -0.014817 -0.000010 0.043366
#
#
# Mechanical properties :
#
#
# Convention : Reuss Voigt Hill
#
# Bulk Modulus (GPa) = 45.21052 67.01325 56.11189
# Shear Modulus (GPa) = 25.22446 37.01964 31.12205
#
# Velocity S-wave (km/s) = 3.14709 3.81254 3.49569
# Velocity P-wave (km/s) = 5.56392 6.75965 6.19072
#
# Compressibility (1/GPa) = 0.02211875
#
# Stress axis : x y z
#
# Youngs Moduli (GPa) = 51.58056 130.26963 121.77975
#
# Poissons Ratio (x) = 0.07966 0.56078
# Poissons Ratio (y) = 0.03154 0.16583
# Poissons Ratio (z) = 0.23752 0.17739
#
# Static dielectric constant tensor:
#      x y z
#    x 5.932770 -0.000040 0.492990 
#    y -0.000040 4.734620 0.000030 
#    z 0.492990 0.000030 5.007730 
# 
# 
# High freq. dielectric constant tensor:
#      x y z
#    x 2.053740 0.000000 0.025510 
#    y 0.000000 2.003910 0.000000 
#    z 0.025510 0.000000 2.029100 
# 
# From -- ./inp_files/147934.got.cif
#   From: 2010.06.25/outbox.cif.g09.slc.cpg/sg12_74_cif.got.tgz:147934.got - 2010.06.28 00:19:55.
