data_PCOD8114537
_publ_section_title
;
Structure prediction by ZEFSAII (Michael W. Deem and Ramdas Pophale) SiO2 
 PCOD8114537
Probable space group: C 2/M
;
_chemical_formula_sum "Si O2"
_cell_formula_units_Z 64
_cell_length_a 10.999160
_cell_length_b 24.431340
_cell_length_c 11.146706
_cell_angle_alpha 90.000000
_cell_angle_beta 75.857728
_cell_angle_gamma 90.000000
_cell_volume 2904.605621
_symmetry_space_group_name_H-M "C 2/M"
_symmetry_group_IT_number 12
_symmetry_cell_setting 'monoclinic'
loop_
_space_group_symop_operation_xyz
x,y,z
-x,y,-z
-x,-y,-z
x,-y,z
1/2+x,1/2+y,z
1/2-x,1/2+y,-z
1/2-x,1/2-y,-z
1/2+x,1/2-y,z
loop_
_atom_site_type_symbol
_atom_site_label
_atom_site_fract_x
_atom_site_fract_y
_atom_site_fract_z
Si Si1 0.342422 0.147996 0.012040
Si Si2 0.375623 0.635458 0.096878
Si Si3 0.291918 0.752247 0.182862
Si Si4 0.521137 0.087483 0.357908
Si Si5 0.171061 0.561100 0.788219
Si Si6 0.474520 0.199098 0.761647
Si Si7 0.862825 0.935465 0.554818
Si Si8 0.707524 0.561595 0.686027
O O1 0.276916 0.200017 0.089458
O O2 0.383557 0.102057 0.098706
O O3 0.242485 0.116218 0.953676
O O4 0.455317 0.171194 0.899763
O O5 0.363862 0.700365 0.112833
O O6 0.381493 0.603724 0.221875
O O7 0.500000 0.618650 0.000000
O O8 0.388677 0.770929 0.266400
O O9 0.146539 0.736103 0.249758
O O10 0.500000 0.071699 0.500000
O O11 0.426451 0.055033 0.296635
O O12 0.512842 0.152828 0.341753
O O13 0.656855 0.065638 0.287346
O O14 0.193007 0.500000 0.836195
O O15 0.296660 0.586424 0.693129
O O16 0.783183 0.920183 0.455570
O O17 0.000000 0.909337 0.500000
O O18 0.873365 0.000000 0.568984
O O19 0.652696 0.500000 0.710399
#
# Coordination Sequence:
#
# PCOD8114537 Si02
#       8
#     8   8   8   8   8   8   8   8
#     4  11  22  39  63  95 129 163 212 263 320 379
#     4  11  23  39  63  97 128 169 215 262 327 385
#     4  11  21  41  68  92 125 165 218 264 315 389
#     4  12  23  44  69  92 128 170 218 270 314 382
#     4  11  24  39  64  97 130 171 211 260 324 384
#     4  11  23  42  68  99 125 170 213 271 328 381
#     4   9  20  40  63  87 121 170 221 262 305 374
#     4  11  23  40  64  94 128 170 217 262 315 383
#
# _framework density 22.033973
#
# number of rings (size 3 to 8) (size 9 to 14) (size 15 to 20)
#    0.000    1.125    5.000    3.750    1.750    1.250 
#    0.000    1.250    2.750    0.000    0.000    0.000 
#    0.000    0.000    0.000    0.000    0.000    0.000 
#
# Total GULP energy -396541.856231 kJ/mol
# GULP energy per Si atom -12391.933007 kJ/mol
# Density = 2.198382 g / cm^3
# Si number density = 22.033973 Si / 1000 Ang^3
#
#
#
# Elastic Constant Matrix: (Units=GPa)
#
#
# Indices 1 2 3 4 5 6 
#
# 1 97.6584 19.1191 7.6801 0.0000 -2.0071 0.0000
# 2 19.1191 91.8516 32.2324 0.0000 6.1852 0.0000
# 3 7.6801 32.2324 56.1385 0.0000 7.2742 0.0000
# 4 0.0000 0.0000 0.0000 25.0064 0.0000 -1.1728
# 5 -2.0071 6.1852 7.2742 0.0000 29.2128 0.0000
# 6 0.0000 0.0000 0.0000 -1.1728 0.0000 19.8352
#
#
#
# Elastic Compliance Matrix: (Units=1/GPa)
#
#
# Indices 1 2 3 4 5 6 
#
# 1 0.010724 -0.002186 -0.000380 0.000000 0.001294 0.000000
# 2 -0.002186 0.014106 -0.007640 0.000000 -0.001234 0.000000
# 3 -0.000380 -0.007640 0.022781 0.000000 -0.004081 0.000000
# 4 0.000000 0.000000 0.000000 0.040101 0.000000 0.002371
# 5 0.001294 -0.001234 -0.004081 0.000000 0.035598 0.000000
# 6 0.000000 0.000000 0.000000 0.002371 0.000000 0.050556
#
#
# Mechanical properties :
#
#
# Convention : Reuss Voigt Hill
#
# Bulk Modulus (GPa) = 36.76605 40.41240 38.58922
# Shear Modulus (GPa) = 24.58884 27.25202 25.92043
#
# Velocity S-wave (km/s) = 3.34421 3.52066 3.43357
# Velocity P-wave (km/s) = 5.62441 5.90826 5.76808
#
# Compressibility (1/GPa) = 0.02719901
#
# Stress axis : x y z
#
# Youngs Moduli (GPa) = 93.24674 70.88967 43.89714
#
# Poissons Ratio (x) = 0.15498 0.01666
# Poissons Ratio (y) = 0.20386 0.33539
# Poissons Ratio (z) = 0.03540 0.54162
#
# Static dielectric constant tensor:
#      x y z
#    x 4.239730 0.000000 0.004000 
#    y 0.000000 3.771970 0.000000 
#    z 0.004000 0.000000 3.882980 
# 
# 
# High freq. dielectric constant tensor:
#      x y z
#    x 1.883170 0.000000 0.002720 
#    y 0.000000 1.851270 0.000000 
#    z 0.002720 0.000000 1.843790 
# 
# From -- ./inp_files/135932.got.cif
#   From: 2010.06.25/outbox.cif.g09.slc.cpg/sg12_68_cif.got.tgz:135932.got - 2010.06.28 00:19:55.
