data_PCOD8114491
_publ_section_title
;
Structure prediction by ZEFSAII (Michael W. Deem and Ramdas Pophale) SiO2 
 PCOD8114491
Probable space group: C 2/M
;
_chemical_formula_sum "Si O2"
_cell_formula_units_Z 56
_cell_length_a 9.928741
_cell_length_b 16.776806
_cell_length_c 25.061855
_cell_angle_alpha 90.000000
_cell_angle_beta 43.329088
_cell_angle_gamma 90.000000
_cell_volume 2864.571274
_symmetry_space_group_name_H-M "C 2/M"
_symmetry_group_IT_number 12
_symmetry_cell_setting 'monoclinic'
loop_
_space_group_symop_operation_xyz
x,y,z
-x,y,-z
-x,-y,-z
x,-y,z
1/2+x,1/2+y,z
1/2-x,1/2+y,-z
1/2-x,1/2-y,-z
1/2+x,1/2-y,z
loop_
_atom_site_type_symbol
_atom_site_label
_atom_site_fract_x
_atom_site_fract_y
_atom_site_fract_z
Si Si1 0.176110 0.690872 0.689556
Si Si2 0.608318 0.906178 0.813216
Si Si3 0.008647 0.590756 0.645254
Si Si4 0.041391 0.288356 0.550072
Si Si5 0.341380 0.301406 0.829085
Si Si6 0.185718 0.143453 0.910885
Si Si7 0.898408 0.911931 0.180981
O O1 0.185156 0.628925 0.735505
O O2 0.383064 0.734383 0.626194
O O3 0.145741 0.642357 0.644242
O O4 0.001475 0.754724 0.747495
O O5 0.724344 0.864213 0.827455
O O6 0.377616 0.887935 0.886570
O O7 0.650889 0.000000 0.802972
O O8 0.081568 0.500000 0.625494
O O9 0.783434 0.598487 0.727120
O O10 0.033177 0.623820 0.578341
O O11 0.250000 0.250000 0.500000
O O12 0.000000 0.297700 0.500000
O O13 0.193149 0.238173 0.898199
O O14 0.440245 0.346878 0.850172
O O15 0.175225 0.098175 0.857892
O O16 0.000000 0.121477 0.000000
O O17 0.989187 0.000000 0.161156
#
# Coordination Sequence:
#
# PCOD8114491 Si02
#       7
#     8   8   8   8   8   8   8
#     4  11  21  40  66  90 124 164 210 253 304 374
#     4  11  23  39  64  96 124 159 210 261 310 366
#     4  11  22  40  65  93 125 162 207 258 307 370
#     4  12  25  42  66  95 127 168 210 254 316 375
#     4  11  22  38  64  93 124 160 206 257 310 368
#     4  11  24  41  63  90 124 167 213 256 304 372
#     4  11  22  39  63  92 124 163 203 253 317 370
#
# _framework density 19.549174000000001
#
# number of rings (size 3 to 8) (size 9 to 14) (size 15 to 20)
#    0.000    0.857    5.714    3.857    0.000    3.714 
#    0.000    2.143    0.000    2.571    0.000    0.000 
#    0.000    0.000    0.000    0.000    0.000    0.000 
#
# Total GULP energy -347325.446205 kJ/mol
# GULP energy per Si atom -12404.480222 kJ/mol
# Density = 1.950468 g / cm^3
# Si number density = 19.549174 Si / 1000 Ang^3
#
#
#
# Elastic Constant Matrix: (Units=GPa)
#
#
# Indices 1 2 3 4 5 6 
#
# 1 96.8411 39.2420 17.6665 0.0006 -7.4289 -0.0009
# 2 39.2420 126.2937 31.9541 0.0001 -2.6547 -0.0004
# 3 17.6665 31.9541 85.5752 -0.0019 -9.5998 0.0006
# 4 0.0006 0.0001 -0.0019 -4.7316 -0.0006 -12.9918
# 5 -7.4289 -2.6547 -9.5998 -0.0006 21.3877 0.0000
# 6 -0.0009 -0.0004 0.0006 -12.9918 0.0000 29.0624
#
#
#
# Elastic Compliance Matrix: (Units=1/GPa)
#
#
# Indices 1 2 3 4 5 6 
#
# 1 0.012155 -0.003498 -0.000820 0.000000 0.003420 0.000000
# 2 -0.003498 0.009754 -0.003075 0.000000 -0.001385 0.000000
# 3 -0.000820 -0.003075 0.013614 -0.000002 0.005444 -0.000001
# 4 0.000000 0.000000 -0.000002 -0.094883 -0.000004 -0.042416
# 5 0.003420 -0.001385 0.005444 -0.000004 0.050216 -0.000002
# 6 0.000000 0.000000 -0.000001 -0.042416 -0.000002 0.015448
#
#
# Mechanical properties :
#
#
# Convention : Reuss Voigt Hill
#
# Bulk Modulus (GPa) = 48.22134 54.04837 51.13485
# Shear Modulus (GPa) = 178.56363 23.80019 101.18191
#
# Velocity S-wave (km/s) = 9.56760 3.49299 7.20208
# Velocity P-wave (km/s) = 12.11496 6.63139 9.76595
#
# Compressibility (1/GPa) = 0.02073771
#
# Stress axis : x y z
#
# Youngs Moduli (GPa) = 82.26784 102.52358 73.45414
#
# Poissons Ratio (x) = 0.35859 0.06021
# Poissons Ratio (y) = 0.28774 0.22590
# Poissons Ratio (z) = 0.06744 0.31530
#
# Static dielectric constant tensor:
#      x y z
#    x 3.589190 0.000000 -0.038400 
#    y 0.000000 3.760940 0.000000 
#    z -0.038400 0.000000 3.529500 
# 
# 
# High freq. dielectric constant tensor:
#      x y z
#    x 1.769890 0.000000 -0.000380 
#    y 0.000000 1.774050 0.000000 
#    z -0.000380 0.000000 1.748230 
# 
# From -- ./inp_files/257024.got.cif
#   From: 2010.06.25/outbox.cif.g09.slc.cpg/sg12_129_cif.got.tgz:257024.got - 2010.06.28 00:19:55.
