data_PCOD8114213
_publ_section_title
;
Structure prediction by ZEFSAII (Michael W. Deem and Ramdas Pophale) SiO2 
 PCOD8114213
Probable space group: C 2/M
;
_chemical_formula_sum "Si O2"
_cell_formula_units_Z 52
_cell_length_a 27.742088
_cell_length_b 10.957195
_cell_length_c 9.554282
_cell_angle_alpha 90.000000
_cell_angle_beta 78.619230
_cell_angle_gamma 90.000000
_cell_volume 2847.162065
_symmetry_space_group_name_H-M "C 2/M"
_symmetry_group_IT_number 12
_symmetry_cell_setting 'monoclinic'
loop_
_space_group_symop_operation_xyz
x,y,z
-x,y,-z
-x,-y,-z
x,-y,z
1/2+x,1/2+y,z
1/2-x,1/2+y,-z
1/2-x,1/2-y,-z
1/2+x,1/2-y,z
loop_
_atom_site_type_symbol
_atom_site_label
_atom_site_fract_x
_atom_site_fract_y
_atom_site_fract_z
Si Si1 0.636851 0.144327 0.056730
Si Si2 0.785898 0.635179 0.474903
Si Si3 0.056060 0.804133 0.988198
Si Si4 0.226417 0.363381 0.823255
Si Si5 0.045087 0.000000 0.224609
Si Si6 0.381475 0.500000 0.569641
Si Si7 0.566739 0.500000 0.750917
Si Si8 0.828809 0.758525 0.692699
O O1 0.635005 0.204539 0.211179
O O2 0.633480 0.000000 0.070228
O O3 0.591177 0.188257 0.988518
O O4 0.688331 0.187591 0.959101
O O5 0.762360 0.500000 0.521475
O O6 0.750000 0.750000 0.500000
O O7 0.804623 0.632457 0.304501
O O8 0.828133 0.661043 0.565224
O O9 0.073956 0.880662 0.843160
O O10 0.060863 0.882922 0.126203
O O11 0.000000 0.759992 0.000000
O O12 0.243925 0.500000 0.853925
O O13 0.273921 0.276424 0.786914
O O14 0.070443 0.000000 0.360960
O O15 0.987178 0.000000 0.285336
O O16 0.394848 0.500000 0.397970
O O17 0.348173 0.384348 0.620674
#
# Coordination Sequence:
#
# PCOD8114213 Si02
#       8
#     8   8   8   8   4   4   4   8
#     4  11  22  35  56  78 107 150 195 228 275 333
#     4   9  19  35  55  74 107 149 189 233 281 332
#     4   9  19  38  59  82 112 142 179 236 286 332
#     4   9  19  36  53  76 108 147 187 231 275 323
#     4   9  17  39  59  85 111 145 169 238 294 331
#     4  12  21  32  60  90 114 146 183 228 286 350
#     4   9  21  35  61  87 115 133 187 226 291 347
#     4  11  21  35  54  80 118 146 188 230 281 331
#
# _framework density 18.2638
#
# number of rings (size 3 to 8) (size 9 to 14) (size 15 to 20)
#    0.000    2.154    2.308    2.077    3.231    0.308 
#    0.000    0.000    5.077    0.000    0.000    2.154 
#    0.000    0.000    0.000    0.000    0.000    0.000 
#
# Total GULP energy -322212.804447 kJ/mol
# GULP energy per Si atom -12392.800171 kJ/mol
# Density = 1.822223 g / cm^3
# Si number density = 18.263800 Si / 1000 Ang^3
#
#
#
# Elastic Constant Matrix: (Units=GPa)
#
#
# Indices 1 2 3 4 5 6 
#
# 1 80.8010 42.2212 39.2897 0.0000 8.5406 0.0000
# 2 42.2212 110.4825 42.9044 0.0000 1.8411 0.0000
# 3 39.2897 42.9044 98.4486 0.0000 6.5451 0.0000
# 4 0.0000 0.0000 0.0000 19.0004 0.0000 5.0218
# 5 8.5406 1.8411 6.5451 0.0000 30.2709 0.0000
# 6 0.0000 0.0000 0.0000 5.0218 0.0000 28.8061
#
#
#
# Elastic Compliance Matrix: (Units=1/GPa)
#
#
# Indices 1 2 3 4 5 6 
#
# 1 0.017554 -0.004840 -0.004653 0.000000 -0.003652 0.000000
# 2 -0.004840 0.012234 -0.003491 0.000000 0.001377 0.000000
# 3 -0.004653 -0.003491 0.013631 0.000000 -0.001422 0.000000
# 4 0.000000 0.000000 0.000000 0.055172 0.000000 -0.009618
# 5 -0.003652 0.001377 -0.001422 0.000000 0.034289 0.000000
# 6 0.000000 0.000000 0.000000 -0.009618 0.000000 0.036392
#
#
# Mechanical properties :
#
#
# Convention : Reuss Voigt Hill
#
# Bulk Modulus (GPa) = 57.31151 59.84031 58.57591
# Shear Modulus (GPa) = 24.86837 26.63659 25.75248
#
# Velocity S-wave (km/s) = 3.69402 3.82309 3.75911
# Velocity P-wave (km/s) = 7.04573 7.23351 7.14024
#
# Compressibility (1/GPa) = 0.01744850
#
# Stress axis : x y z
#
# Youngs Moduli (GPa) = 56.96668 81.74024 73.36349
#
# Poissons Ratio (x) = 0.39566 0.34139
# Poissons Ratio (y) = 0.27574 0.25614
# Poissons Ratio (z) = 0.26509 0.28538
#
# Static dielectric constant tensor:
#      x y z
#    x 3.209040 0.000000 0.248670 
#    y 0.000000 3.332070 0.000000 
#    z 0.248670 0.000000 3.589590 
# 
# 
# High freq. dielectric constant tensor:
#      x y z
#    x 1.686820 0.000000 0.019580 
#    y 0.000000 1.704010 0.000000 
#    z 0.019580 0.000000 1.713860 
# 
# From -- ./inp_files/102607.got.cif
#   From: 2010.06.25/outbox.cif.g09.slc.cpg/sg12_52_cif.got.tgz:102607.got - 2010.06.28 00:19:55.
