data_PCOD8114763
_publ_section_title
;
Structure prediction by ZEFSAII (Michael W. Deem and Ramdas Pophale) SiO2 
 PCOD8114763
Probable space group: C 2/M
;
_chemical_formula_sum "Si O2"
_cell_formula_units_Z 56
_cell_length_a 15.901003
_cell_length_b 8.973420
_cell_length_c 20.219858
_cell_angle_alpha 90.000000
_cell_angle_beta 78.440105
_cell_angle_gamma 90.000000
_cell_volume 2826.576273
_symmetry_space_group_name_H-M "C 2/M"
_symmetry_group_IT_number 12
_symmetry_cell_setting 'monoclinic'
loop_
_space_group_symop_operation_xyz
x,y,z
-x,y,-z
-x,-y,-z
x,-y,z
1/2+x,1/2+y,z
1/2-x,1/2+y,-z
1/2-x,1/2-y,-z
1/2+x,1/2-y,z
loop_
_atom_site_type_symbol
_atom_site_label
_atom_site_fract_x
_atom_site_fract_y
_atom_site_fract_z
Si Si1 0.373913 0.323513 0.344322
Si Si2 0.028172 0.326199 0.784743
Si Si3 0.515057 0.824353 0.068951
Si Si4 0.202250 0.823573 0.342994
Si Si5 0.797282 0.672592 0.933359
Si Si6 0.329354 0.827165 0.785610
Si Si7 0.481932 0.322918 0.576166
O O1 0.363656 0.500000 0.349112
O O2 0.408162 0.275656 0.267226
O O3 0.280635 0.249951 0.371661
O O4 0.441988 0.264306 0.388154
O O5 0.049321 0.500000 0.769504
O O6 0.046170 0.281578 0.859349
O O7 0.929944 0.293123 0.780205
O O8 0.606773 0.770313 0.077274
O O9 0.510944 0.000000 0.060120
O O10 0.500000 0.745700 0.000000
O O11 0.208699 0.776416 0.265508
O O12 0.111391 0.764215 0.386011
O O13 0.210073 0.000000 0.348014
O O14 0.787771 0.500000 0.948887
O O15 0.772946 0.709725 0.860895
O O16 0.750000 0.750000 0.000000
O O17 0.317178 0.000000 0.768303
O O18 0.500000 0.261081 0.500000
O O19 0.481549 0.500000 0.577411
#
# Coordination Sequence:
#
# PCOD8114763 Si02
#       7
#     8   8   8   8   8   8   8
#     4  11  22  37  59  88 119 152 189 235 290 342
#     4   9  17  32  55  79 107 146 190 237 283 337
#     4   8  15  29  49  72 100 137 181 225 274 328
#     4  11  22  37  60  89 115 149 198 239 281 345
#     4   9  18  31  48  73 105 144 184 229 282 335
#     4   9  18  34  54  76 110 151 192 241 293 338
#     4   9  20  40  63  86 118 156 190 233 288 344
#
# _framework density 19.811954
#
# number of rings (size 3 to 8) (size 9 to 14) (size 15 to 20)
#    0.000    2.571    1.429    2.571    0.000    2.286 
#    0.000    3.571    0.000    6.857    0.000    0.000 
#    0.000    0.000    0.000    0.000    0.000    0.000 
#
# Total GULP energy -346910.626622 kJ/mol
# GULP energy per Si atom -12389.665236 kJ/mol
# Density = 1.976686 g / cm^3
# Si number density = 19.811954 Si / 1000 Ang^3
#
#
#
# Elastic Constant Matrix: (Units=GPa)
#
#
# Indices 1 2 3 4 5 6 
#
# 1 140.7780 14.3059 19.6093 0.0000 -1.9780 0.0000
# 2 14.3059 76.3403 81.2275 0.0000 1.9232 0.0000
# 3 19.6093 81.2275 248.0218 0.0000 8.6485 0.0000
# 4 0.0000 0.0000 0.0000 23.8259 0.0000 -0.3876
# 5 -1.9780 1.9232 8.6485 0.0000 27.6382 0.0000
# 6 0.0000 0.0000 0.0000 -0.3876 0.0000 24.8610
#
#
#
# Elastic Compliance Matrix: (Units=1/GPa)
#
#
# Indices 1 2 3 4 5 6 
#
# 1 0.007260 -0.001138 -0.000224 0.000000 0.000669 0.000000
# 2 -0.001138 0.020296 -0.006577 0.000000 0.000564 0.000000
# 3 -0.000224 -0.006577 0.006256 0.000000 -0.001516 0.000000
# 4 0.000000 0.000000 0.000000 0.041982 0.000000 0.000654
# 5 0.000669 0.000564 -0.001516 0.000000 0.036665 0.000000
# 6 0.000000 0.000000 0.000000 0.000654 0.000000 0.040234
#
#
# Mechanical properties :
#
#
# Convention : Reuss Voigt Hill
#
# Bulk Modulus (GPa) = 55.76313 77.26951 66.51632
# Shear Modulus (GPa) = 28.64520 38.59820 33.62170
#
# Velocity S-wave (km/s) = 3.80656 4.41866 4.12399
# Velocity P-wave (km/s) = 6.89400 8.06963 7.50487
#
# Compressibility (1/GPa) = 0.01793300
#
# Stress axis : x y z
#
# Youngs Moduli (GPa) = 137.74595 49.27071 159.83694
#
# Poissons Ratio (x) = 0.05609 0.03587
# Poissons Ratio (y) = 0.15682 1.05119
# Poissons Ratio (z) = 0.03092 0.32404
#
# Static dielectric constant tensor:
#      x y z
#    x 3.653160 0.000000 0.075040 
#    y 0.000000 3.175580 0.000000 
#    z 0.075040 0.000000 3.884140 
# 
# 
# High freq. dielectric constant tensor:
#      x y z
#    x 1.765850 0.000000 0.001250 
#    y 0.000000 1.736370 0.000000 
#    z 0.001250 0.000000 1.784930 
# 
# From -- ./inp_files/313280.got.cif
#   From: 2010.06.25/outbox.cif.g09.slc.cpg/sg12_157_cif.got.tgz:313280.got - 2010.06.28 00:19:55.
