data_PCOD8114534
_publ_section_title
;
Structure prediction by ZEFSAII (Michael W. Deem and Ramdas Pophale) SiO2 
 PCOD8114534
Probable space group: C 2/M
;
_chemical_formula_sum "Si O2"
_cell_formula_units_Z 44
_cell_length_a 8.987079
_cell_length_b 23.828233
_cell_length_c 11.750237
_cell_angle_alpha 90.000000
_cell_angle_beta 54.615364
_cell_angle_gamma 90.000000
_cell_volume 2051.471391
_symmetry_space_group_name_H-M "C 2/M"
_symmetry_group_IT_number 12
_symmetry_cell_setting 'monoclinic'
loop_
_space_group_symop_operation_xyz
x,y,z
-x,y,-z
-x,-y,-z
x,-y,z
1/2+x,1/2+y,z
1/2-x,1/2+y,-z
1/2-x,1/2-y,-z
1/2+x,1/2-y,z
loop_
_atom_site_type_symbol
_atom_site_label
_atom_site_fract_x
_atom_site_fract_y
_atom_site_fract_z
Si Si1 0.068881 0.715331 0.594280
Si Si2 0.840286 0.788724 0.862477
Si Si3 0.500000 0.146130 0.000000
Si Si4 0.981730 0.387103 0.762413
Si Si5 0.688063 0.500000 0.682647
Si Si6 0.579932 0.000000 0.629010
Si Si7 0.913873 0.890638 0.155877
O O1 0.250000 0.750000 0.500000
O O2 0.112539 0.661071 0.653149
O O3 0.000000 0.697328 0.500000
O O4 0.920761 0.751825 0.726835
O O5 0.987229 0.834166 0.843422
O O6 0.750000 0.750000 0.000000
O O7 0.670476 0.818821 0.877740
O O8 0.432891 0.112984 0.918298
O O9 0.088672 0.444941 0.701567
O O10 0.798259 0.377766 0.770547
O O11 0.737902 0.500000 0.527942
O O12 0.572040 0.443871 0.764404
O O13 0.884151 0.500000 0.655596
O O14 0.000000 0.911253 0.000000
#
# Coordination Sequence:
#
# PCOD8114534 Si02
#       7
#     8   8   4   8   4   4   8
#     4  12  26  42  66  99 134 175 220 277 335 396
#     4  12  26  43  68  97 139 177 225 274 333 395
#     4  12  24  43  66  96 132 179 220 270 332 400
#     4  11  24  42  68  97 133 173 218 271 334 396
#     4   9  21  38  69  94 132 165 218 279 324 395
#     4   9  22  41  63  99 129 172 213 268 340 395
#     4  11  21  41  67 101 125 168 225 276 324 385
#
# _framework density 21.44802
#
# number of rings (size 3 to 8) (size 9 to 14) (size 15 to 20)
#    0.000    0.909    3.636    2.455   11.455    0.364 
#    0.000    0.909    0.000    1.091    0.000    0.000 
#    0.000    0.000    0.000    0.000    0.000    0.000 
#
# Total GULP energy -272693.601606 kJ/mol
# GULP energy per Si atom -12395.163709 kJ/mol
# Density = 2.139920 g / cm^3
# Si number density = 21.448020 Si / 1000 Ang^3
#
#
#
# Elastic Constant Matrix: (Units=GPa)
#
#
# Indices 1 2 3 4 5 6 
#
# 1 60.2274 33.3120 20.3388 0.0000 10.6475 0.0000
# 2 33.3120 172.4884 79.2223 0.0000 6.7557 0.0000
# 3 20.3388 79.2223 153.5220 0.0000 12.7246 0.0000
# 4 0.0000 0.0000 0.0000 38.3776 0.0000 -1.6929
# 5 10.6475 6.7557 12.7246 0.0000 32.1708 0.0000
# 6 0.0000 0.0000 0.0000 -1.6929 0.0000 19.1934
#
#
#
# Elastic Compliance Matrix: (Units=1/GPa)
#
#
# Indices 1 2 3 4 5 6 
#
# 1 0.019602 -0.003390 -0.000381 0.000000 -0.005625 0.000000
# 2 -0.003390 0.008185 -0.003851 0.000000 0.000927 0.000000
# 3 -0.000381 -0.003851 0.008761 0.000000 -0.002530 0.000000
# 4 0.000000 0.000000 0.000000 0.026159 0.000000 0.002307
# 5 -0.005625 0.000927 -0.002530 0.000000 0.033752 0.000000
# 6 0.000000 0.000000 0.000000 0.002307 0.000000 0.052305
#
#
# Mechanical properties :
#
#
# Convention : Reuss Voigt Hill
#
# Bulk Modulus (GPa) = 46.94239 72.44266 59.69252
# Shear Modulus (GPa) = 29.22094 34.83934 32.03014
#
# Velocity S-wave (km/s) = 3.69508 4.03471 3.86863
# Velocity P-wave (km/s) = 6.33553 7.45348 6.91713
#
# Compressibility (1/GPa) = 0.02130271
#
# Stress axis : x y z
#
# Youngs Moduli (GPa) = 51.01507 122.17764 114.13770
#
# Poissons Ratio (x) = 0.41422 0.04351
# Poissons Ratio (y) = 0.17296 0.43958
# Poissons Ratio (z) = 0.01945 0.47054
#
# Static dielectric constant tensor:
#      x y z
#    x 3.997750 0.000000 -0.011630 
#    y 0.000000 4.097390 0.000000 
#    z -0.011630 0.000000 3.488510 
# 
# 
# High freq. dielectric constant tensor:
#      x y z
#    x 1.813600 0.000000 -0.001460 
#    y 0.000000 1.848380 0.000000 
#    z -0.001460 0.000000 1.862300 
# 
# From -- ./inp_files/124112.got.cif
#   From: 2010.06.25/outbox.cif.g09.slc.cpg/sg12_63_cif.got.tgz:124112.got - 2010.06.28 00:19:55.
