data_PCOD8114530
_publ_section_title
;
Structure prediction by ZEFSAII (Michael W. Deem and Ramdas Pophale) SiO2 
 PCOD8114530
Probable space group: C 2/M
;
_chemical_formula_sum "Si O2"
_cell_formula_units_Z 48
_cell_length_a 12.003081
_cell_length_b 21.526364
_cell_length_c 16.809444
_cell_angle_alpha 90.000000
_cell_angle_beta 147.346910
_cell_angle_gamma 90.000000
_cell_volume 2343.416053
_symmetry_space_group_name_H-M "C 2/M"
_symmetry_group_IT_number 12
_symmetry_cell_setting 'monoclinic'
loop_
_space_group_symop_operation_xyz
x,y,z
-x,y,-z
-x,-y,-z
x,-y,z
1/2+x,1/2+y,z
1/2-x,1/2+y,-z
1/2-x,1/2-y,-z
1/2+x,1/2-y,z
loop_
_atom_site_type_symbol
_atom_site_label
_atom_site_fract_x
_atom_site_fract_y
_atom_site_fract_z
Si Si1 0.960755 0.623896 0.646231
Si Si2 0.235459 0.160892 0.661062
Si Si3 0.702022 0.204630 0.674576
Si Si4 0.286835 0.928806 0.826335
Si Si5 0.173664 0.500000 0.821901
Si Si6 0.967783 0.000000 0.849365
Si Si7 0.093515 0.888622 0.304989
O O1 0.857088 0.667008 0.651009
O O2 0.795159 0.602999 0.480784
O O3 0.148580 0.664224 0.721107
O O4 0.038109 0.561798 0.735585
O O5 0.266440 0.224215 0.731294
O O6 0.322648 0.102551 0.762652
O O7 0.000000 0.146699 0.500000
O O8 0.500000 0.208237 0.500000
O O9 0.887378 0.174529 0.734626
O O10 0.113426 0.888628 0.767506
O O11 0.210983 0.000000 0.771079
O O12 0.500000 0.926292 0.000000
O O13 0.329934 0.500000 0.843632
O O14 0.292788 0.500000 0.978589
O O15 0.912614 0.058356 0.763698
#
# Coordination Sequence:
#
# PCOD8114530 Si02
#       7
#     8   8   8   8   4   4   8
#     4  11  23  39  66  99 125 165 211 269 308 372
#     4  11  24  41  64  93 129 165 211 259 309 379
#     4   9  22  39  65  94 125 162 207 263 316 368
#     4  11  26  43  62  89 127 172 207 255 319 381
#     4  11  25  39  63  99 133 161 216 260 319 364
#     4  11  23  41  61  95 133 176 200 261 321 372
#     4  11  21  41  66  91 125 167 215 256 316 371
#
# _framework density 20.482918000000002
#
# number of rings (size 3 to 8) (size 9 to 14) (size 15 to 20)
#    0.000    1.333    4.167    0.500    5.833    3.000 
#    0.000    2.500    0.000    0.000    0.000    0.000 
#    0.000    0.000    0.000    0.000    0.000    0.000 
#
# Total GULP energy -297593.872966 kJ/mol
# GULP energy per Si atom -12399.744707 kJ/mol
# Density = 2.043630 g / cm^3
# Si number density = 20.482918 Si / 1000 Ang^3
#
#
#
# Elastic Constant Matrix: (Units=GPa)
#
#
# Indices 1 2 3 4 5 6 
#
# 1 106.2623 43.5481 32.9127 0.0077 -9.2713 -0.0015
# 2 43.5481 127.7004 52.8004 0.0135 -5.4776 0.0039
# 3 32.9127 52.8004 82.0509 0.0008 -5.1755 -0.0025
# 4 0.0077 0.0135 0.0008 12.2755 0.0074 -0.0338
# 5 -9.2713 -5.4776 -5.1755 0.0074 24.9387 -0.0013
# 6 -0.0015 0.0039 -0.0025 -0.0338 -0.0013 31.6769
#
#
#
# Elastic Compliance Matrix: (Units=1/GPa)
#
#
# Indices 1 2 3 4 5 6 
#
# 1 0.011641 -0.002706 -0.002729 -0.000006 0.003167 0.000001
# 2 -0.002706 0.011320 -0.006187 -0.000010 0.000197 -0.000002
# 3 -0.002729 -0.006187 0.017341 0.000007 0.001225 0.000002
# 4 -0.000006 -0.000010 0.000007 0.081463 -0.000027 0.000087
# 5 0.003167 0.000197 0.001225 -0.000027 0.041573 0.000002
# 6 0.000001 -0.000002 0.000002 0.000087 0.000002 0.031569
#
#
# Mechanical properties :
#
#
# Convention : Reuss Voigt Hill
#
# Bulk Modulus (GPa) = 58.61861 63.83734 61.22797
# Shear Modulus (GPa) = 22.33780 26.22837 24.28308
#
# Velocity S-wave (km/s) = 3.30594 3.58229 3.44689
# Velocity P-wave (km/s) = 6.57668 6.95300 6.76746
#
# Compressibility (1/GPa) = 0.01705943
#
# Stress axis : x y z
#
# Youngs Moduli (GPa) = 85.90341 88.33904 57.66816
#
# Poissons Ratio (x) = 0.23902 0.15735
# Poissons Ratio (y) = 0.23243 0.35678
# Poissons Ratio (z) = 0.23439 0.54654
#
# Static dielectric constant tensor:
#      x y z
#    x 3.953000 -0.000310 -0.059880 
#    y -0.000310 4.042550 0.000020 
#    z -0.059880 0.000020 3.616310 
# 
# 
# High freq. dielectric constant tensor:
#      x y z
#    x 1.814580 0.000000 -0.005620 
#    y 0.000000 1.806960 0.000000 
#    z -0.005620 0.000000 1.779050 
# 
# From -- ./inp_files/207952.got.cif
#   From: 2010.06.25/outbox.cif.g09.slc.cpg/sg12_104_cif.got.tgz:207952.got - 2010.06.28 00:19:55.
