data_PCOD8114489
_publ_section_title
;
Structure prediction by ZEFSAII (Michael W. Deem and Ramdas Pophale) SiO2 
 PCOD8114489
Probable space group: C 2/M
;
_chemical_formula_sum "Si O2"
_cell_formula_units_Z 64
_cell_length_a 14.426202
_cell_length_b 17.799135
_cell_length_c 11.617741
_cell_angle_alpha 90.000000
_cell_angle_beta 87.784486
_cell_angle_gamma 90.000000
_cell_volume 2980.902927
_symmetry_space_group_name_H-M "C 2/M"
_symmetry_group_IT_number 12
_symmetry_cell_setting 'monoclinic'
loop_
_space_group_symop_operation_xyz
x,y,z
-x,y,-z
-x,-y,-z
x,-y,z
1/2+x,1/2+y,z
1/2-x,1/2+y,-z
1/2-x,1/2-y,-z
1/2+x,1/2-y,z
loop_
_atom_site_type_symbol
_atom_site_label
_atom_site_fract_x
_atom_site_fract_y
_atom_site_fract_z
Si Si1 0.689369 0.587386 0.617992
Si Si2 0.982633 0.684455 0.139683
Si Si3 0.687018 0.912413 0.888867
Si Si4 0.347391 0.172807 0.707210
Si Si5 0.097246 0.814586 0.434637
Si Si6 0.614738 0.414047 0.217118
Si Si7 0.063907 0.853284 0.828764
Si Si8 0.259230 0.323497 0.072369
O O1 0.678498 0.500000 0.583630
O O2 0.797118 0.600654 0.651069
O O3 0.670678 0.642178 0.511071
O O4 0.614407 0.607071 0.718964
O O5 0.895198 0.631118 0.170970
O O6 0.962735 0.766352 0.192239
O O7 0.065147 0.651362 0.215613
O O8 0.000000 0.685965 0.000000
O O9 0.785868 0.886054 0.832354
O O10 0.667646 0.000000 0.878764
O O11 0.692418 0.888300 0.023082
O O12 0.364983 0.233792 0.607414
O O13 0.269147 0.202948 0.798972
O O14 0.079584 0.866641 0.326426
O O15 0.000000 0.800445 0.500000
O O16 0.623092 0.500000 0.251488
O O17 0.529623 0.399115 0.132100
O O18 0.135267 0.854434 0.932767
O O19 0.250000 0.250000 0.000000
#
# Coordination Sequence:
#
# PCOD8114489 Si02
#       8
#     8   8   8   8   8   8   8   8
#     4  11  25  44  68 100 136 175 218 282 353 404
#     4  12  23  43  69  97 133 183 230 279 333 399
#     4  11  26  43  65  99 138 184 230 276 338 404
#     4  11  24  42  67 101 130 174 230 281 327 400
#     4  12  23  43  71  99 132 178 229 284 341 405
#     4  11  24  41  64  97 138 176 220 280 348 409
#     4  11  23  37  67  96 132 173 222 275 338 407
#     4  11  21  40  65  94 134 178 220 276 334 402
#
# _framework density 21.470003999999999
#
# number of rings (size 3 to 8) (size 9 to 14) (size 15 to 20)
#    0.000    0.750    5.000    1.875    3.500    3.750 
#    2.250    1.250    0.000    0.375    0.000    0.000 
#    0.000    0.000    0.000    0.000    0.000    0.000 
#
# Total GULP energy -396552.951392 kJ/mol
# GULP energy per Si atom -12392.279731 kJ/mol
# Density = 2.142114 g / cm^3
# Si number density = 21.470004 Si / 1000 Ang^3
#
#
#
# Elastic Constant Matrix: (Units=GPa)
#
#
# Indices 1 2 3 4 5 6 
#
# 1 159.2615 59.7809 43.2220 0.0000 14.8604 0.0000
# 2 59.7809 101.5096 34.8938 0.0000 -9.4176 0.0000
# 3 43.2220 34.8938 76.7810 0.0000 0.8480 0.0000
# 4 0.0000 0.0000 0.0000 24.7111 0.0000 2.7525
# 5 14.8604 -9.4176 0.8480 0.0000 36.5371 0.0000
# 6 0.0000 0.0000 0.0000 2.7525 0.0000 40.2308
#
#
#
# Elastic Compliance Matrix: (Units=1/GPa)
#
#
# Indices 1 2 3 4 5 6 
#
# 1 0.009438 -0.005002 -0.002984 0.000000 -0.005059 0.000000
# 2 -0.005002 0.014696 -0.003928 0.000000 0.005914 0.000000
# 3 -0.002984 -0.003928 0.016491 0.000000 -0.000182 0.000000
# 4 0.000000 0.000000 0.000000 0.040778 0.000000 -0.002790
# 5 -0.005059 0.005914 -0.000182 0.000000 0.030955 0.000000
# 6 0.000000 0.000000 0.000000 -0.002790 0.000000 0.025047
#
#
# Mechanical properties :
#
#
# Convention : Reuss Voigt Hill
#
# Bulk Modulus (GPa) = 59.53501 68.14952 63.84227
# Shear Modulus (GPa) = 29.96979 33.60616 31.78797
#
# Velocity S-wave (km/s) = 3.74022 3.96063 3.85200
# Velocity P-wave (km/s) = 6.81483 7.26127 7.04159
#
# Compressibility (1/GPa) = 0.01679684
#
# Stress axis : x y z
#
# Youngs Moduli (GPa) = 105.94977 68.04546 60.63875
#
# Poissons Ratio (x) = 0.34037 0.18095
# Poissons Ratio (y) = 0.52997 0.23821
# Poissons Ratio (z) = 0.31616 0.26730
#
# Static dielectric constant tensor:
#      x y z
#    x 4.327950 0.000000 0.202130 
#    y 0.000000 3.409470 0.000000 
#    z 0.202130 0.000000 4.074090 
# 
# 
# High freq. dielectric constant tensor:
#      x y z
#    x 1.864350 0.000000 0.011690 
#    y 0.000000 1.830500 0.000000 
#    z 0.011690 0.000000 1.832250 
# 
# From -- ./inp_files/146178.got.cif
#   From: 2010.06.25/outbox.cif.g09.slc.cpg/sg12_74_cif.got.tgz:146178.got - 2010.06.28 00:19:55.
