data_PCOD8114868
_publ_section_title
;
Structure prediction by ZEFSAII (Michael W. Deem and Ramdas Pophale) SiO2 
 PCOD8114868
Probable space group: C 2/M
;
_chemical_formula_sum "Si O2"
_cell_formula_units_Z 56
_cell_length_a 15.401467
_cell_length_b 8.628675
_cell_length_c 22.689035
_cell_angle_alpha 90.000000
_cell_angle_beta 111.540501
_cell_angle_gamma 90.000000
_cell_volume 2804.652605
_symmetry_space_group_name_H-M "C 2/M"
_symmetry_group_IT_number 12
_symmetry_cell_setting 'monoclinic'
loop_
_space_group_symop_operation_xyz
x,y,z
-x,y,-z
-x,-y,-z
x,-y,z
1/2+x,1/2+y,z
1/2-x,1/2+y,-z
1/2-x,1/2-y,-z
1/2+x,1/2-y,z
loop_
_atom_site_type_symbol
_atom_site_label
_atom_site_fract_x
_atom_site_fract_y
_atom_site_fract_z
Si Si1 0.583274 0.184224 0.652761
Si Si2 0.345088 0.182256 0.875813
Si Si3 0.154690 0.180389 0.999990
Si Si4 0.119705 0.683501 0.429142
Si Si5 0.353514 0.182443 0.203514
Si Si6 0.483791 0.320478 0.140714
Si Si7 0.700681 0.183507 0.572760
O O1 0.480098 0.251293 0.615090
O O2 0.620405 0.241605 0.724859
O O3 0.651107 0.248963 0.618822
O O4 0.579615 0.000000 0.649429
O O5 0.376931 0.235049 0.948488
O O6 0.237901 0.227565 0.839925
O O7 0.410323 0.264224 0.843369
O O8 0.356780 0.000000 0.872686
O O9 0.169702 0.000000 0.017142
O O10 0.250000 0.250000 0.000000
O O11 0.073875 0.209508 0.932939
O O12 0.120848 0.500000 0.426183
O O13 0.195346 0.748828 0.402344
O O14 0.142667 0.740390 0.501157
O O15 0.439544 0.222089 0.182461
O O16 0.333788 0.000000 0.196905
O O17 0.483695 0.500000 0.158633
O O18 0.706385 0.000000 0.575471
#
# Coordination Sequence:
#
# PCOD8114868 Si02
#       7
#     8   8   8   8   8   8   8
#     4   9  19  35  56  81 109 148 192 229 278 339
#     4  12  25  41  62  88 118 154 196 240 290 348
#     4  11  22  38  64  92 121 151 188 239 293 347
#     4   9  17  32  55  82 112 144 183 231 281 335
#     4  11  23  40  60  83 116 155 197 244 289 343
#     4  11  24  42  63  88 117 151 193 239 291 350
#     4   9  17  32  55  82 112 145 183 229 281 336
#
# _framework density 19.966823000000002
#
# number of rings (size 3 to 8) (size 9 to 14) (size 15 to 20)
#    0.000    1.714    1.429    3.429    0.000    6.286 
#    0.000    6.429    0.000    3.429    0.000    0.000 
#    0.000    0.000    0.000    0.000    0.000    0.000 
#
# Total GULP energy -347317.515445 kJ/mol
# GULP energy per Si atom -12404.196980 kJ/mol
# Density = 1.992138 g / cm^3
# Si number density = 19.966823 Si / 1000 Ang^3
#
#
#
# Elastic Constant Matrix: (Units=GPa)
#
#
# Indices 1 2 3 4 5 6 
#
# 1 140.1977 16.2637 47.9842 0.0000 -16.6834 0.0000
# 2 16.2637 50.6847 23.6080 0.0000 -2.1042 0.0000
# 3 47.9842 23.6080 96.4142 0.0000 -19.1746 0.0000
# 4 0.0000 0.0000 0.0000 19.4001 0.0000 -0.8333
# 5 -16.6834 -2.1042 -19.1746 0.0000 17.8410 0.0000
# 6 0.0000 0.0000 0.0000 -0.8333 0.0000 34.9373
#
#
#
# Elastic Compliance Matrix: (Units=1/GPa)
#
#
# Indices 1 2 3 4 5 6 
#
# 1 0.008935 -0.001173 -0.003212 0.000000 0.004765 0.000000
# 2 -0.001173 0.022664 -0.005917 0.000000 -0.004783 0.000000
# 3 -0.003212 -0.005917 0.016131 0.000000 0.013635 0.000000
# 4 0.000000 0.000000 0.000000 0.051599 0.000000 0.001231
# 5 0.004765 -0.004783 0.013635 0.000000 0.074597 0.000000
# 6 0.000000 0.000000 0.000000 0.001231 0.000000 0.028652
#
#
# Mechanical properties :
#
#
# Convention : Reuss Voigt Hill
#
# Bulk Modulus (GPa) = 36.86520 51.44538 44.15529
# Shear Modulus (GPa) = 21.53095 27.73174 24.63135
#
# Velocity S-wave (km/s) = 3.28737 3.73083 3.51609
# Velocity P-wave (km/s) = 5.73693 6.66184 6.21661
#
# Compressibility (1/GPa) = 0.02712585
#
# Stress axis : x y z
#
# Youngs Moduli (GPa) = 111.91591 44.12358 61.99217
#
# Poissons Ratio (x) = 0.05177 0.19912
# Poissons Ratio (y) = 0.13130 0.36679
# Poissons Ratio (z) = 0.35948 0.26107
#
# Static dielectric constant tensor:
#      x y z
#    x 3.799410 0.000000 -0.032580 
#    y 0.000000 3.458790 0.000000 
#    z -0.032580 0.000000 3.758200 
# 
# 
# High freq. dielectric constant tensor:
#      x y z
#    x 1.795530 0.000000 -0.002000 
#    y 0.000000 1.765830 0.000000 
#    z -0.002000 0.000000 1.774120 
# 
# From -- ./inp_files/339008.got.cif
#   From: 2010.06.25/outbox.cif.g09.slc.cpg/sg12_170_cif.got.tgz:339008.got - 2010.06.28 00:19:55.
