data_PCOD8114781
_publ_section_title
;
Structure prediction by ZEFSAII (Michael W. Deem and Ramdas Pophale) SiO2 
 PCOD8114781
Probable space group: C 2/M
;
_chemical_formula_sum "Si O2"
_cell_formula_units_Z 56
_cell_length_a 22.880408
_cell_length_b 8.736418
_cell_length_c 15.010073
_cell_angle_alpha 90.000000
_cell_angle_beta 115.769513
_cell_angle_gamma 90.000000
_cell_volume 2702.015993
_symmetry_space_group_name_H-M "C 2/M"
_symmetry_group_IT_number 12
_symmetry_cell_setting 'monoclinic'
loop_
_space_group_symop_operation_xyz
x,y,z
-x,y,-z
-x,-y,-z
x,-y,z
1/2+x,1/2+y,z
1/2-x,1/2+y,-z
1/2-x,1/2-y,-z
1/2+x,1/2-y,z
loop_
_atom_site_type_symbol
_atom_site_label
_atom_site_fract_x
_atom_site_fract_y
_atom_site_fract_z
Si Si1 0.738829 0.180035 0.088745
Si Si2 0.690538 0.180667 0.704290
Si Si3 0.572908 0.679175 0.528825
Si Si4 0.015359 0.823158 0.151085
Si Si5 0.584081 0.827108 0.349979
Si Si6 0.395318 0.322470 0.953909
Si Si7 0.272880 0.824988 0.605885
O O1 0.793860 0.246104 0.190124
O O2 0.667766 0.218899 0.078806
O O3 0.747328 0.000000 0.088939
O O4 0.750000 0.250000 0.000000
O O5 0.619102 0.232215 0.627612
O O6 0.744379 0.232634 0.669348
O O7 0.692787 0.000000 0.714066
O O8 0.500000 0.732790 0.500000
O O9 0.582314 0.500000 0.550503
O O10 0.591174 0.719313 0.440010
O O11 0.025654 0.726253 0.247576
O O12 0.066646 0.773268 0.109683
O O13 0.025734 0.000000 0.181332
O O14 0.942323 0.793464 0.069352
O O15 0.649671 0.815953 0.336141
O O16 0.571052 0.000000 0.373811
O O17 0.374657 0.500000 0.936095
O O18 0.250000 0.750000 0.500000
O O19 0.248136 0.000000 0.593477
#
# Coordination Sequence:
#
# PCOD8114781 Si02
#       7
#     8   8   8   8   8   8   8
#     4  12  26  44  66  92 123 164 212 262 314 372
#     4  12  25  43  67  95 127 165 206 259 317 373
#     4  11  25  44  65  88 119 162 208 254 307 371
#     4   9  19  36  62  91 124 164 201 247 308 371
#     4  11  23  37  58  91 126 162 205 252 306 367
#     4   9  19  39  63  91 124 160 205 254 309 369
#     4  11  22  37  61  94 129 166 206 255 311 369
#
# _framework density 20.725265
#
# number of rings (size 3 to 8) (size 9 to 14) (size 15 to 20)
#    0.000    1.286    1.429    5.571    0.000    7.429 
#    0.000    2.857    0.000    0.000    0.000    0.000 
#    0.000    0.000    0.000    0.000    0.000    0.000 
#
# Total GULP energy -347360.123633 kJ/mol
# GULP energy per Si atom -12405.718701 kJ/mol
# Density = 2.067809 g / cm^3
# Si number density = 20.725265 Si / 1000 Ang^3
#
#
#
# Elastic Constant Matrix: (Units=GPa)
#
#
# Indices 1 2 3 4 5 6 
#
# 1 85.2029 40.8268 34.8467 0.0000 7.6347 0.0000
# 2 40.8268 137.5927 59.4475 0.0000 3.3498 0.0000
# 3 34.8467 59.4475 154.2326 0.0000 2.7384 0.0000
# 4 0.0000 0.0000 0.0000 37.5075 0.0000 2.0234
# 5 7.6347 3.3498 2.7384 0.0000 28.7279 0.0000
# 6 0.0000 0.0000 0.0000 2.0234 0.0000 34.7609
#
#
#
# Elastic Compliance Matrix: (Units=1/GPa)
#
#
# Indices 1 2 3 4 5 6 
#
# 1 0.014425 -0.003381 -0.001898 0.000000 -0.003258 0.000000
# 2 -0.003381 0.009526 -0.002909 0.000000 0.000065 0.000000
# 3 -0.001898 -0.002909 0.008032 0.000000 0.000078 0.000000
# 4 0.000000 0.000000 0.000000 0.026745 0.000000 -0.001557
# 5 -0.003258 0.000065 0.000078 0.000000 0.035660 0.000000
# 6 0.000000 0.000000 0.000000 -0.001557 0.000000 0.028859
#
#
# Mechanical properties :
#
#
# Convention : Reuss Voigt Hill
#
# Bulk Modulus (GPa) = 64.07139 71.91892 67.99515
# Shear Modulus (GPa) = 34.52403 36.32640 35.42521
#
# Velocity S-wave (km/s) = 4.08584 4.19114 4.13883
# Velocity P-wave (km/s) = 7.29661 7.62871 7.46451
#
# Compressibility (1/GPa) = 0.01560759
#
# Stress axis : x y z
#
# Youngs Moduli (GPa) = 69.32428 104.97259 124.49429
#
# Poissons Ratio (x) = 0.35489 0.23631
# Poissons Ratio (y) = 0.23437 0.36217
# Poissons Ratio (z) = 0.13159 0.30538
#
# Static dielectric constant tensor:
#      x y z
#    x 3.760990 0.000000 0.087670 
#    y 0.000000 3.762410 0.000000 
#    z 0.087670 0.000000 3.856620 
# 
# 
# High freq. dielectric constant tensor:
#      x y z
#    x 1.804570 0.000000 0.008230 
#    y 0.000000 1.816400 0.000000 
#    z 0.008230 0.000000 1.824290 
# 
# From -- ./inp_files/239044.got.cif
#   From: 2010.06.25/outbox.cif.g09.slc.cpg/sg12_120_cif.got.tgz:239044.got - 2010.06.28 00:19:55.
