data_PCOD8114156
_publ_section_title
;
Structure prediction by ZEFSAII (Michael W. Deem and Ramdas Pophale) SiO2 
 PCOD8114156
Probable space group: C 2/M
;
_chemical_formula_sum "Si O2"
_cell_formula_units_Z 48
_cell_length_a 16.799664
_cell_length_b 11.811754
_cell_length_c 27.750220
_cell_angle_alpha 90.000000
_cell_angle_beta 27.465661
_cell_angle_gamma 90.000000
_cell_volume 2539.724745
_symmetry_space_group_name_H-M "C 2/M"
_symmetry_group_IT_number 12
_symmetry_cell_setting 'monoclinic'
loop_
_space_group_symop_operation_xyz
x,y,z
-x,y,-z
-x,-y,-z
x,-y,z
1/2+x,1/2+y,z
1/2-x,1/2+y,-z
1/2-x,1/2-y,-z
1/2+x,1/2-y,z
loop_
_atom_site_type_symbol
_atom_site_label
_atom_site_fract_x
_atom_site_fract_y
_atom_site_fract_z
Si Si1 0.385910 0.628166 0.014306
Si Si2 0.746534 0.372266 0.604103
Si Si3 0.940863 0.230888 0.810968
Si Si4 0.238808 0.000000 0.105435
Si Si5 0.371780 0.000000 0.137609
Si Si6 0.904368 0.373669 0.625115
Si Si7 0.388443 0.767970 0.180298
O O1 0.363974 0.500000 0.007037
O O2 0.471683 0.704289 0.927394
O O3 0.500000 0.632542 0.000000
O O4 0.200912 0.678420 0.129231
O O5 0.688209 0.500000 0.621053
O O6 0.583386 0.286294 0.691707
O O7 0.815499 0.376095 0.621197
O O8 0.897885 0.328657 0.486992
O O9 0.855223 0.108728 0.866505
O O10 0.028689 0.279053 0.811743
O O11 0.240660 0.000000 0.162754
O O12 0.433078 0.000000 0.983893
O O13 0.337881 0.109755 0.187886
O O14 0.908984 0.500000 0.644202
O O15 0.793998 0.297861 0.720894
#
# Coordination Sequence:
#
# PCOD8114156 Si02
#       7
#     8   8   8   4   4   8   8
#     4  11  24  38  53  76 113 153 180 220 286 343
#     4   8  14  28  51  84 110 137 180 236 280 312
#     4  11  21  33  60  86 110 137 192 239 269 322
#     4  11  22  38  58  81 110 152 190 226 283 339
#     4  11  24  38  54  79 118 156 180 226 291 345
#     4   8  15  29  52  81 114 139 179 235 281 319
#     4  11  22  34  58  84 112 143 190 233 274 327
#
# _framework density 18.899685999999999
#
# number of rings (size 3 to 8) (size 9 to 14) (size 15 to 20)
#    0.000    2.000    2.500    3.000    3.500    0.000 
#    0.000    0.000    1.833    6.000    0.000    0.000 
#    0.000    0.000    0.000    0.000    0.000    0.000 
#
# Total GULP energy -297509.899932 kJ/mol
# GULP energy per Si atom -12396.245831 kJ/mol
# Density = 1.885667 g / cm^3
# Si number density = 18.899686 Si / 1000 Ang^3
#
#
#
# Elastic Constant Matrix: (Units=GPa)
#
#
# Indices 1 2 3 4 5 6 
#
# 1 40.3618 26.0983 21.6516 -0.0004 2.8166 -0.0010
# 2 26.0983 119.1279 62.1594 -0.0052 1.8055 -0.0009
# 3 21.6516 62.1594 149.2967 -0.0111 -9.5629 -0.0038
# 4 -0.0004 -0.0052 -0.0111 59.5996 0.0045 15.7399
# 5 2.8166 1.8055 -9.5629 0.0045 6.7819 0.0024
# 6 -0.0010 -0.0009 -0.0038 15.7399 0.0024 5.4527
#
#
#
# Elastic Compliance Matrix: (Units=1/GPa)
#
#
# Indices 1 2 3 4 5 6 
#
# 1 0.030872 -0.004620 -0.003624 -0.000009 -0.016701 0.000036
# 2 -0.004620 0.012078 -0.004883 0.000002 -0.008182 -0.000003
# 3 -0.003624 -0.004883 0.010373 0.000003 0.017431 -0.000010
# 4 -0.000009 0.000002 0.000003 0.070599 0.000032 -0.203791
# 5 -0.016701 -0.008182 0.017431 0.000032 0.181144 -0.000165
# 6 0.000036 -0.000003 -0.000010 -0.203791 -0.000165 0.771657
#
#
# Mechanical properties :
#
#
# Convention : Reuss Voigt Hill
#
# Bulk Modulus (GPa) = 36.93927 58.73392 47.83659
# Shear Modulus (GPa) = 4.49641 27.62532 16.06086
#
# Velocity S-wave (km/s) = 1.54410 3.82734 2.91829
# Velocity P-wave (km/s) = 4.77141 7.11867 6.05978
#
# Compressibility (1/GPa) = 0.02707146
#
# Stress axis : x y z
#
# Youngs Moduli (GPa) = 32.39149 82.79369 96.40320
#
# Poissons Ratio (x) = 0.38247 0.34933
# Poissons Ratio (y) = 0.14963 0.47073
# Poissons Ratio (z) = 0.11738 0.40427
#
# Static dielectric constant tensor:
#      x y z
#    x 3.181940 0.000000 -0.110930 
#    y 0.000000 3.571530 0.000010 
#    z -0.110930 0.000010 3.959840 
# 
# 
# High freq. dielectric constant tensor:
#      x y z
#    x 1.702190 0.000000 -0.011000 
#    y 0.000000 1.724990 0.000000 
#    z -0.011000 0.000000 1.746290 
# 
# From -- ./inp_files/360987.got.cif
#   From: 2010.06.25/outbox.cif.g09.slc.cpg/sg12_181_cif.got.tgz:360987.got - 2010.06.28 00:19:55.
