data_PCOD8114121
_publ_section_title
;
Structure prediction by ZEFSAII (Michael W. Deem and Ramdas Pophale) SiO2 
 PCOD8114121
Probable space group: C 2/M
;
_chemical_formula_sum "Si O2"
_cell_formula_units_Z 48
_cell_length_a 33.089952
_cell_length_b 8.832960
_cell_length_c 21.893658
_cell_angle_alpha 90.000000
_cell_angle_beta 155.627748
_cell_angle_gamma 90.000000
_cell_volume 2640.685146
_symmetry_space_group_name_H-M "C 2/M"
_symmetry_group_IT_number 12
_symmetry_cell_setting 'monoclinic'
loop_
_space_group_symop_operation_xyz
x,y,z
-x,y,-z
-x,-y,-z
x,-y,z
1/2+x,1/2+y,z
1/2-x,1/2+y,-z
1/2-x,1/2-y,-z
1/2+x,1/2-y,z
loop_
_atom_site_type_symbol
_atom_site_label
_atom_site_fract_x
_atom_site_fract_y
_atom_site_fract_z
Si Si1 0.559637 0.826676 0.895447
Si Si2 0.788304 0.826111 0.203347
Si Si3 0.656251 0.821870 0.839539
Si Si4 0.482756 0.677946 0.674807
Si Si5 0.574941 0.180298 0.053700
Si Si6 0.709509 0.679063 0.657857
O O1 0.494331 0.722560 0.761463
O O2 0.525948 0.000000 0.841612
O O3 0.672626 0.809856 0.032200
O O4 0.542303 0.769843 0.940804
O O5 0.847501 0.725197 0.236568
O O6 0.814967 0.762885 0.307376
O O7 0.821036 0.000000 0.240313
O O8 0.558327 0.766728 0.736974
O O9 0.664119 0.000000 0.857066
O O10 0.750000 0.750000 0.000000
O O11 0.499096 0.500000 0.688695
O O12 0.374032 0.728522 0.504400
O O13 0.684736 0.242469 0.218602
O O14 0.574481 0.000000 0.056770
O O15 0.500000 0.250550 0.000000
O O16 0.719232 0.500000 0.676568
#
# Coordination Sequence:
#
# PCOD8114121 Si02
#       6
#     8   8   8   8   8   8
#     4   9  17  30  51  76 101 131 171 214 254 299
#     4   9  17  33  53  71  97 135 178 215 247 291
#     4  12  23  34  50  74 102 133 176 216 253 300
#     4  11  21  33  50  73 105 140 172 209 255 303
#     4   8  14  29  55  81 101 128 172 216 249 297
#     4   8  17  32  50  74 103 137 173 209 253 303
#
# _framework density 18.177101
#
# number of rings (size 3 to 8) (size 9 to 14) (size 15 to 20)
#    0.000    2.500    1.667    4.000    0.000    0.667 
#    0.000    5.833    0.000    2.500    0.000    0.000 
#    0.000    0.000    0.000    0.000    0.000    0.000 
#
# Total GULP energy -297549.092573 kJ/mol
# GULP energy per Si atom -12397.878857 kJ/mol
# Density = 1.813573 g / cm^3
# Si number density = 18.177101 Si / 1000 Ang^3
#
#
#
# Elastic Constant Matrix: (Units=GPa)
#
#
# Indices 1 2 3 4 5 6 
#
# 1 143.7871 36.0413 64.6283 0.0000 -1.2792 0.0000
# 2 36.0413 70.2965 39.7998 0.0000 -0.4781 0.0000
# 3 64.6283 39.7998 126.5302 0.0000 -7.7638 0.0000
# 4 0.0000 0.0000 0.0000 23.1144 0.0000 -6.2198
# 5 -1.2792 -0.4781 -7.7638 0.0000 21.4380 0.0000
# 6 0.0000 0.0000 0.0000 -6.2198 0.0000 18.4309
#
#
#
# Elastic Compliance Matrix: (Units=1/GPa)
#
#
# Indices 1 2 3 4 5 6 
#
# 1 0.009409 -0.002526 -0.004071 0.000000 -0.000969 0.000000
# 2 -0.002526 0.018041 -0.004469 0.000000 -0.001367 0.000000
# 3 -0.004071 -0.004469 0.011625 0.000000 0.003868 0.000000
# 4 0.000000 0.000000 0.000000 0.047584 0.000000 0.016058
# 5 -0.000969 -0.001367 0.003868 0.000000 0.047958 0.000000
# 6 0.000000 0.000000 0.000000 0.016058 0.000000 0.059676
#
#
# Mechanical properties :
#
#
# Convention : Reuss Voigt Hill
#
# Bulk Modulus (GPa) = 59.01402 69.06140 64.03771
# Shear Modulus (GPa) = 22.51519 25.93962 24.22740
#
# Velocity S-wave (km/s) = 3.52327 3.78173 3.65479
# Velocity P-wave (km/s) = 7.00627 7.55941 7.28809
#
# Compressibility (1/GPa) = 0.01694513
#
# Stress axis : x y z
#
# Youngs Moduli (GPa) = 106.28190 55.42896 86.01865
#
# Poissons Ratio (x) = 0.14000 0.35017
# Poissons Ratio (y) = 0.26845 0.38438
# Poissons Ratio (z) = 0.43265 0.24769
#
# Static dielectric constant tensor:
#      x y z
#    x 3.636110 0.000000 0.031320 
#    y 0.000000 3.044620 0.000000 
#    z 0.031320 0.000000 3.573910 
# 
# 
# High freq. dielectric constant tensor:
#      x y z
#    x 1.701420 0.000000 -0.011960 
#    y 0.000000 1.670480 0.000000 
#    z -0.011960 0.000000 1.699900 
# 
# From -- ./inp_files/295903.got.cif
#   From: 2010.06.25/outbox.cif.g09.slc.cpg/sg12_148_cif.got.tgz:295903.got - 2010.06.28 00:19:55.
