data_PCOD8114288
_publ_section_title
;
Structure prediction by ZEFSAII (Michael W. Deem and Ramdas Pophale) SiO2 
 PCOD8114288
Probable space group: C 2/M
;
_chemical_formula_sum "Si O2"
_cell_formula_units_Z 56
_cell_length_a 12.364035
_cell_length_b 14.087950
_cell_length_c 15.130849
_cell_angle_alpha 90.000000
_cell_angle_beta 93.633395
_cell_angle_gamma 90.000000
_cell_volume 2630.252835
_symmetry_space_group_name_H-M "C 2/M"
_symmetry_group_IT_number 12
_symmetry_cell_setting 'monoclinic'
loop_
_space_group_symop_operation_xyz
x,y,z
-x,y,-z
-x,-y,-z
x,-y,z
1/2+x,1/2+y,z
1/2-x,1/2+y,-z
1/2-x,1/2-y,-z
1/2+x,1/2-y,z
loop_
_atom_site_type_symbol
_atom_site_label
_atom_site_fract_x
_atom_site_fract_y
_atom_site_fract_z
Si Si1 0.454406 0.104920 0.095034
Si Si2 0.238675 0.742860 0.290470
Si Si3 0.219430 0.850379 0.033531
Si Si4 0.665055 0.603272 0.839574
Si Si5 0.892502 0.608653 0.379394
Si Si6 0.447028 0.295363 0.829150
Si Si7 0.141401 0.608148 0.420328
O O1 0.323314 0.106718 0.089470
O O2 0.506444 0.188494 0.155440
O O3 0.489424 0.000000 0.133069
O O4 0.500000 0.119547 0.000000
O O5 0.258710 0.680635 0.203282
O O6 0.333781 0.819137 0.309846
O O7 0.127316 0.796837 0.262311
O O8 0.225959 0.676705 0.375636
O O9 0.116478 0.840146 0.091401
O O10 0.250000 0.750000 0.000000
O O11 0.187938 0.909243 0.944985
O O12 0.684926 0.500000 0.797387
O O13 0.542414 0.632301 0.814556
O O14 0.870710 0.500000 0.348592
O O15 0.846147 0.625364 0.474877
O O16 0.019683 0.630787 0.382755
O O17 0.171075 0.500000 0.398819
#
# Coordination Sequence:
#
# PCOD8114288 Si02
#       7
#     8   8   8   8   8   8   8
#     4  11  21  36  58  83 107 143 192 246 296 343
#     4  12  22  38  62  90 125 157 194 243 304 353
#     4  12  21  41  62  81 114 156 204 251 298 346
#     4  12  26  41  59  85 118 157 203 253 300 353
#     4   9  20  40  64  92 122 155 196 239 288 358
#     4  12  24  40  58  82 120 158 198 248 295 353
#     4   9  19  38  65  93 121 155 197 240 290 353
#
# _framework density 21.290728999999999
#
# number of rings (size 3 to 8) (size 9 to 14) (size 15 to 20)
#    0.000    1.000    4.286    3.429    0.000    4.571 
#    0.000    3.571    0.000    0.000    0.000    9.000 
#    0.000    0.000    0.000    0.000    0.000    0.000 
#
# Total GULP energy -347182.159797 kJ/mol
# GULP energy per Si atom -12399.362850 kJ/mol
# Density = 2.124227 g / cm^3
# Si number density = 21.290729 Si / 1000 Ang^3
#
#
#
# Elastic Constant Matrix: (Units=GPa)
#
#
# Indices 1 2 3 4 5 6 
#
# 1 80.0673 23.4393 6.2534 0.0000 11.4019 0.0000
# 2 23.4393 111.6783 23.5316 0.0000 15.1386 0.0000
# 3 6.2534 23.5316 55.6861 0.0000 6.1390 0.0000
# 4 0.0000 0.0000 0.0000 18.7266 0.0000 -2.4246
# 5 11.4019 15.1386 6.1390 0.0000 36.9977 0.0000
# 6 0.0000 0.0000 0.0000 -2.4246 0.0000 22.1129
#
#
#
# Elastic Compliance Matrix: (Units=1/GPa)
#
#
# Indices 1 2 3 4 5 6 
#
# 1 0.013660 -0.002398 -0.000168 0.000000 -0.003201 0.000000
# 2 -0.002398 0.010688 -0.003918 0.000000 -0.002984 0.000000
# 3 -0.000168 -0.003918 0.019812 0.000000 -0.001632 0.000000
# 4 0.000000 0.000000 0.000000 0.054169 0.000000 0.005939
# 5 -0.003201 -0.002984 -0.001632 0.000000 0.029507 0.000000
# 6 0.000000 0.000000 0.000000 0.005939 0.000000 0.045874
#
#
# Mechanical properties :
#
#
# Convention : Reuss Voigt Hill
#
# Bulk Modulus (GPa) = 32.05877 39.32006 35.68941
# Shear Modulus (GPa) = 25.37102 28.51461 26.94282
#
# Velocity S-wave (km/s) = 3.45577 3.66361 3.56121
# Velocity P-wave (km/s) = 5.56897 6.03360 5.80593
#
# Compressibility (1/GPa) = 0.03119272
#
# Stress axis : x y z
#
# Youngs Moduli (GPa) = 73.20450 93.56611 50.47360
#
# Poissons Ratio (x) = 0.22435 0.00847
# Poissons Ratio (y) = 0.17553 0.19776
# Poissons Ratio (z) = 0.01229 0.36660
#
# Static dielectric constant tensor:
#      x y z
#    x 4.453190 0.000000 1.931490 
#    y 0.000000 3.709680 0.000000 
#    z 1.931490 0.000000 9.198830 
# 
# 
# High freq. dielectric constant tensor:
#      x y z
#    x 1.836080 0.000000 -0.003880 
#    y 0.000000 1.839660 0.000000 
#    z -0.003880 0.000000 1.820570 
# 
# From -- ./inp_files/205016.got.cif
#   From: 2010.06.25/outbox.cif.g09.slc.cpg/sg12_103_cif.got.tgz:205016.got - 2010.06.28 00:19:55.
