data_PCOD8114833
_publ_section_title
;
Structure prediction by ZEFSAII (Michael W. Deem and Ramdas Pophale) SiO2 
 PCOD8114833
Probable space group: C 2/M
;
_chemical_formula_sum "Si O2"
_cell_formula_units_Z 56
_cell_length_a 29.242809
_cell_length_b 8.716794
_cell_length_c 19.763491
_cell_angle_alpha 90.000000
_cell_angle_beta 32.668744
_cell_angle_gamma 90.000000
_cell_volume 2719.300911
_symmetry_space_group_name_H-M "C 2/M"
_symmetry_group_IT_number 12
_symmetry_cell_setting 'monoclinic'
loop_
_space_group_symop_operation_xyz
x,y,z
-x,y,-z
-x,-y,-z
x,-y,z
1/2+x,1/2+y,z
1/2-x,1/2+y,-z
1/2-x,1/2-y,-z
1/2+x,1/2-y,z
loop_
_atom_site_type_symbol
_atom_site_label
_atom_site_fract_x
_atom_site_fract_y
_atom_site_fract_z
Si Si1 0.636571 0.823111 0.454716
Si Si2 0.430023 0.834260 0.030734
Si Si3 0.803598 0.683143 0.292670
Si Si4 0.337608 0.818062 0.864441
Si Si5 0.591287 0.177379 0.365924
Si Si6 0.001952 0.819677 0.707399
Si Si7 0.438190 0.816463 0.234324
O O1 0.711616 0.757285 0.407450
O O2 0.653301 0.800985 0.353551
O O3 0.550070 0.733015 0.579574
O O4 0.623414 0.000000 0.489920
O O5 0.351961 0.748649 0.165288
O O6 0.397381 0.000000 0.045529
O O7 0.500000 0.864174 0.000000
O O8 0.477058 0.750382 0.909683
O O9 0.797597 0.500000 0.295266
O O10 0.853477 0.731221 0.298738
O O11 0.362570 0.752438 0.758144
O O12 0.410952 0.763248 0.824486
O O13 0.329567 0.000000 0.874874
O O14 0.250000 0.750000 0.000000
O O15 0.500000 0.251670 0.500000
O O16 0.574677 0.000000 0.369698
O O17 0.062893 0.765407 0.692411
O O18 0.988430 0.000000 0.725566
O O19 0.442963 0.000000 0.235093
#
# Coordination Sequence:
#
# PCOD8114833 Si02
#       7
#     8   8   8   8   8   8   8
#     4  11  22  38  61  86 113 153 202 248 301 361
#     4   7  12  27  52  78 105 142 188 235 286 344
#     4   9  18  34  56  86 120 152 194 246 295 351
#     4  11  23  43  68  95 128 159 198 248 304 365
#     4   9  18  38  66  89 114 156 201 245 299 358
#     4  12  25  40  58  85 119 156 201 250 303 357
#     4   9  18  35  59  83 115 161 200 238 295 356
#
# _framework density 20.593527999999999
#
# number of rings (size 3 to 8) (size 9 to 14) (size 15 to 20)
#    0.000    2.286    1.429    3.857    0.000    2.286 
#    0.000    7.143    0.000    2.571    0.000    0.000 
#    0.000    0.000    0.000    0.000    0.000    0.000 
#
# Total GULP energy -346932.418332 kJ/mol
# GULP energy per Si atom -12390.443512 kJ/mol
# Density = 2.054666 g / cm^3
# Si number density = 20.593528 Si / 1000 Ang^3
#
#
#
# Elastic Constant Matrix: (Units=GPa)
#
#
# Indices 1 2 3 4 5 6 
#
# 1 106.5471 36.4953 50.4646 -0.0053 -5.3748 0.0024
# 2 36.4953 67.8655 35.7592 0.0036 -3.3693 0.0137
# 3 50.4646 35.7592 126.5307 -0.0041 -7.2525 0.0064
# 4 -0.0053 0.0036 -0.0041 19.2128 0.0022 -6.5834
# 5 -5.3748 -3.3693 -7.2525 0.0022 35.4985 -0.0039
# 6 0.0024 0.0137 0.0064 -6.5834 -0.0039 23.0737
#
#
#
# Elastic Compliance Matrix: (Units=1/GPa)
#
#
# Indices 1 2 3 4 5 6 
#
# 1 0.012862 -0.004934 -0.003694 0.000005 0.000724 0.000004
# 2 -0.004934 0.019221 -0.003443 -0.000010 0.000374 -0.000013
# 3 -0.003694 -0.003443 0.010421 0.000002 0.001243 0.000000
# 4 0.000005 -0.000010 0.000002 0.057689 -0.000002 0.016460
# 5 0.000724 0.000374 0.001243 -0.000002 0.028569 0.000004
# 6 0.000004 -0.000013 0.000000 0.016460 0.000004 0.048036
#
#
# Mechanical properties :
#
#
# Convention : Reuss Voigt Hill
#
# Bulk Modulus (GPa) = 54.46038 60.70907 57.58472
# Shear Modulus (GPa) = 24.14769 27.43859 25.79314
#
# Velocity S-wave (km/s) = 3.42802 3.65415 3.54289
# Velocity P-wave (km/s) = 6.49394 6.88095 6.69024
#
# Compressibility (1/GPa) = 0.01836197
#
# Stress axis : x y z
#
# Youngs Moduli (GPa) = 77.75059 52.02619 95.96401
#
# Poissons Ratio (x) = 0.25671 0.35446
# Poissons Ratio (y) = 0.38364 0.33038
# Poissons Ratio (z) = 0.28718 0.17911
#
# Static dielectric constant tensor:
#      x y z
#    x 3.664470 -0.000010 0.136250 
#    y -0.000010 3.277770 0.000040 
#    z 0.136250 0.000040 4.089190 
# 
# 
# High freq. dielectric constant tensor:
#      x y z
#    x 1.801420 0.000000 0.005640 
#    y 0.000000 1.764970 0.000000 
#    z 0.005640 0.000000 1.812170 
# 
# From -- ./inp_files/292410.got.cif
#   From: 2010.06.25/outbox.cif.g09.slc.cpg/sg12_147_cif.got.tgz:292410.got - 2010.06.28 00:19:55.
