data_PCOD8114839
_publ_section_title
;
Structure prediction by ZEFSAII (Michael W. Deem and Ramdas Pophale) SiO2 
 PCOD8114839
Probable space group: C 2/M
;
_chemical_formula_sum "Si O2"
_cell_formula_units_Z 40
_cell_length_a 9.669882
_cell_length_b 15.929140
_cell_length_c 12.508643
_cell_angle_alpha 90.000000
_cell_angle_beta 89.323756
_cell_angle_gamma 90.000000
_cell_volume 1926.608409
_symmetry_space_group_name_H-M "C 2/M"
_symmetry_group_IT_number 12
_symmetry_cell_setting 'monoclinic'
loop_
_space_group_symop_operation_xyz
x,y,z
-x,y,-z
-x,-y,-z
x,-y,z
1/2+x,1/2+y,z
1/2-x,1/2+y,-z
1/2-x,1/2-y,-z
1/2+x,1/2-y,z
loop_
_atom_site_type_symbol
_atom_site_label
_atom_site_fract_x
_atom_site_fract_y
_atom_site_fract_z
Si Si1 0.111452 0.151543 0.580052
Si Si2 0.537629 0.193886 0.723407
Si Si3 0.649222 0.094346 0.551830
Si Si4 0.264008 0.093697 0.771536
Si Si5 0.133260 0.209961 0.929051
O O1 0.046061 0.236677 0.629047
O O2 0.251913 0.160693 0.509282
O O3 0.148993 0.091106 0.679098
O O4 0.000000 0.110813 0.500000
O O5 0.633568 0.118399 0.677605
O O6 0.381677 0.161413 0.741078
O O7 0.597642 0.225424 0.834558
O O8 0.500000 0.099636 0.500000
O O9 0.709508 0.000000 0.542483
O O10 0.190089 0.122663 0.881230
O O11 0.324999 0.000000 0.786647
O O12 0.250000 0.250000 0.000000
O O13 0.000000 0.188853 0.000000
#
# Coordination Sequence:
#
# PCOD8114839 Si02
#       5
#     8   8   8   8   8
#     4  11  25  38  63  97 137 176 216 259 318 385
#     4  11  23  39  67  93 126 172 226 259 313 394
#     4  11  22  38  61  92 135 175 213 262 320 381
#     4  11  24  43  68  98 133 170 215 274 327 383
#     4  11  24  45  69  97 126 168 217 275 335 392
#
# _framework density 20.761872
#
# number of rings (size 3 to 8) (size 9 to 14) (size 15 to 20)
#    0.000    1.000    4.000    2.400    5.600    2.000 
#    0.000    3.000    0.000    0.000    0.000    0.000 
#    0.000    0.000    0.000    0.000    0.000    0.000 
#
# Total GULP energy -247891.566256 kJ/mol
# GULP energy per Si atom -12394.578313 kJ/mol
# Density = 2.071462 g / cm^3
# Si number density = 20.761872 Si / 1000 Ang^3
#
#
#
# Elastic Constant Matrix: (Units=GPa)
#
#
# Indices 1 2 3 4 5 6 
#
# 1 125.0680 57.0887 57.8899 0.0000 -21.1243 0.0000
# 2 57.0887 114.2754 47.2064 0.0000 -9.9134 0.0000
# 3 57.8899 47.2064 137.2113 0.0000 -11.7517 0.0000
# 4 0.0000 0.0000 0.0000 16.5740 0.0000 -7.5418
# 5 -21.1243 -9.9134 -11.7517 0.0000 49.7017 0.0000
# 6 0.0000 0.0000 0.0000 -7.5418 0.0000 25.0494
#
#
#
# Elastic Compliance Matrix: (Units=1/GPa)
#
#
# Indices 1 2 3 4 5 6 
#
# 1 0.012117 -0.004385 -0.003304 0.000000 0.003494 0.000000
# 2 -0.004385 0.011862 -0.002233 0.000000 -0.000026 0.000000
# 3 -0.003304 -0.002233 0.009484 0.000000 0.000393 0.000000
# 4 0.000000 0.000000 0.000000 0.069914 0.000000 0.021049
# 5 0.003494 -0.000026 0.000393 0.000000 0.021693 0.000000
# 6 0.000000 0.000000 0.000000 0.021049 0.000000 0.046259
#
#
# Mechanical properties :
#
#
# Convention : Reuss Voigt Hill
#
# Bulk Modulus (GPa) = 73.43371 77.88052 75.65711
# Shear Modulus (GPa) = 25.54782 32.55633 29.05207
#
# Velocity S-wave (km/s) = 3.51168 3.96420 3.74478
# Velocity P-wave (km/s) = 7.20339 7.65153 7.43084
#
# Compressibility (1/GPa) = 0.01361772
#
# Stress axis : x y z
#
# Youngs Moduli (GPa) = 82.52954 84.30497 105.44106
#
# Poissons Ratio (x) = 0.36969 0.34840
# Poissons Ratio (y) = 0.36191 0.23545
# Poissons Ratio (z) = 0.27270 0.18825
#
# Static dielectric constant tensor:
#      x y z
#    x 3.845250 0.000000 -0.205400 
#    y 0.000000 3.775540 0.000000 
#    z -0.205400 0.000000 3.977940 
# 
# 
# High freq. dielectric constant tensor:
#      x y z
#    x 1.818090 0.000000 -0.014820 
#    y 0.000000 1.798920 0.000000 
#    z -0.014820 0.000000 1.817630 
# 
# From -- ./inp_files/119133.got.cif
#   From: 2010.06.25/outbox.cif.g09.slc.cpg/sg12_60_cif.got.tgz:119133.got - 2010.06.28 00:19:55.
