data_PCOD8114324
_publ_section_title
;
Structure prediction by ZEFSAII (Michael W. Deem and Ramdas Pophale) SiO2 
 PCOD8114324
Probable space group: C 2/M
;
_chemical_formula_sum "Si O2"
_cell_formula_units_Z 48
_cell_length_a 22.007045
_cell_length_b 17.842837
_cell_length_c 8.760005
_cell_angle_alpha 90.000000
_cell_angle_beta 47.399579
_cell_angle_gamma 90.000000
_cell_volume 2531.991004
_symmetry_space_group_name_H-M "C 2/M"
_symmetry_group_IT_number 12
_symmetry_cell_setting 'monoclinic'
loop_
_space_group_symop_operation_xyz
x,y,z
-x,y,-z
-x,-y,-z
x,-y,z
1/2+x,1/2+y,z
1/2-x,1/2+y,-z
1/2-x,1/2-y,-z
1/2+x,1/2-y,z
loop_
_atom_site_type_symbol
_atom_site_label
_atom_site_fract_x
_atom_site_fract_y
_atom_site_fract_z
Si Si1 0.274497 0.585603 0.119285
Si Si2 0.705594 0.819702 0.497074
Si Si3 0.330264 0.830158 0.946871
Si Si4 0.595959 0.580102 0.344115
Si Si5 0.842372 0.774087 0.669548
Si Si6 0.090561 0.410893 0.912994
O O1 0.258264 0.500000 0.192111
O O2 0.269663 0.634152 0.281967
O O3 0.206642 0.609452 0.108914
O O4 0.364521 0.598041 0.889269
O O5 0.750000 0.750000 0.500000
O O6 0.636399 0.781473 0.505556
O O7 0.661005 0.877743 0.684012
O O8 0.374068 0.764317 0.773285
O O9 0.256682 0.788829 0.163453
O O10 0.396322 0.870776 0.945030
O O11 0.500000 0.571653 0.500000
O O12 0.633237 0.500000 0.338396
O O13 0.614925 0.645976 0.430966
O O14 0.103289 0.500000 0.907950
O O15 0.000000 0.392653 0.000000
#
# Coordination Sequence:
#
# PCOD8114324 Si02
#       6
#     8   8   8   8   8   8
#     4   9  18  34  58  82 107 147 192 233 279 338
#     4  11  21  37  55  81 113 148 189 239 284 339
#     4   9  17  34  59  81 107 144 193 242 279 340
#     4   9  18  32  53  83 114 141 179 232 285 336
#     4   9  18  33  56  83 107 142 194 241 282 337
#     4  11  24  39  56  83 120 158 194 239 295 348
#
# _framework density 18.957412000000001
#
# number of rings (size 3 to 8) (size 9 to 14) (size 15 to 20)
#    0.000    2.333    1.667    2.000    0.000    2.000 
#    0.000    2.500    0.000    9.000    0.000    3.500 
#    0.000    0.000    0.000    0.000    0.000    0.000 
#
# Total GULP energy -297314.309812 kJ/mol
# GULP energy per Si atom -12388.096242 kJ/mol
# Density = 1.891426 g / cm^3
# Si number density = 18.957412 Si / 1000 Ang^3
#
#
#
# Elastic Constant Matrix: (Units=GPa)
#
#
# Indices 1 2 3 4 5 6 
#
# 1 93.3781 48.4092 35.5991 0.0000 9.7058 0.0000
# 2 48.4092 141.5340 39.1045 0.0000 9.3352 0.0000
# 3 35.5991 39.1045 61.0771 0.0000 3.1009 0.0000
# 4 0.0000 0.0000 0.0000 21.9978 0.0000 6.4463
# 5 9.7058 9.3352 3.1009 0.0000 20.9485 0.0000
# 6 0.0000 0.0000 0.0000 6.4463 0.0000 35.9977
#
#
#
# Elastic Compliance Matrix: (Units=1/GPa)
#
#
# Indices 1 2 3 4 5 6 
#
# 1 0.015372 -0.003080 -0.006746 0.000000 -0.004751 0.000000
# 2 -0.003080 0.009397 -0.004112 0.000000 -0.002152 0.000000
# 3 -0.006746 -0.004112 0.022857 0.000000 0.001574 0.000000
# 4 0.000000 0.000000 0.000000 0.047977 0.000000 -0.008591
# 5 -0.004751 -0.002152 0.001574 0.000000 0.050663 0.000000
# 6 0.000000 0.000000 0.000000 -0.008591 0.000000 0.029318
#
#
# Mechanical properties :
#
#
# Convention : Reuss Voigt Hill
#
# Bulk Modulus (GPa) = 50.63386 60.24607 55.43997
# Shear Modulus (GPa) = 23.80458 27.31389 25.55923
#
# Velocity S-wave (km/s) = 3.54741 3.79991 3.67583
# Velocity P-wave (km/s) = 6.59895 7.14850 6.87921
#
# Compressibility (1/GPa) = 0.01974963
#
# Stress axis : x y z
#
# Youngs Moduli (GPa) = 65.05439 106.41706 43.74965
#
# Poissons Ratio (x) = 0.32781 0.29514
# Poissons Ratio (y) = 0.20039 0.17989
# Poissons Ratio (z) = 0.43886 0.43756
#
# Static dielectric constant tensor:
#      x y z
#    x 3.230930 0.000000 0.197240 
#    y 0.000000 4.139240 0.000000 
#    z 0.197240 0.000000 3.424550 
# 
# 
# High freq. dielectric constant tensor:
#      x y z
#    x 1.700440 0.000000 0.014270 
#    y 0.000000 1.770530 0.000000 
#    z 0.014270 0.000000 1.718090 
# 
# From -- ./inp_files/87734.got.cif
#   From: 2010.06.25/outbox.cif.g09.slc.cpg/sg12_44_cif.got.tgz:87734.got - 2010.06.28 00:19:55.
