data_PCOD8114135
_publ_section_title
;
Structure prediction by ZEFSAII (Michael W. Deem and Ramdas Pophale) SiO2 
 PCOD8114135
Probable space group: C 2/M
;
_chemical_formula_sum "Si O2"
_cell_formula_units_Z 56
_cell_length_a 18.455502
_cell_length_b 8.996998
_cell_length_c 20.111405
_cell_angle_alpha 90.000000
_cell_angle_beta 115.474949
_cell_angle_gamma 90.000000
_cell_volume 3014.703921
_symmetry_space_group_name_H-M "C 2/M"
_symmetry_group_IT_number 12
_symmetry_cell_setting 'monoclinic'
loop_
_space_group_symop_operation_xyz
x,y,z
-x,y,-z
-x,-y,-z
x,-y,z
1/2+x,1/2+y,z
1/2-x,1/2+y,-z
1/2-x,1/2-y,-z
1/2+x,1/2-y,z
loop_
_atom_site_type_symbol
_atom_site_label
_atom_site_fract_x
_atom_site_fract_y
_atom_site_fract_z
Si Si1 0.639726 0.176969 0.130599
Si Si2 0.510952 0.672707 0.867867
Si Si3 0.703213 0.332751 0.576928
Si Si4 0.778526 0.833492 0.719742
Si Si5 0.675473 0.325669 0.005406
Si Si6 0.371117 0.833974 0.566789
Si Si7 0.944099 0.163864 0.706923
O O1 0.550168 0.227923 0.113993
O O2 0.705892 0.235290 0.208813
O O3 0.661065 0.244742 0.068573
O O4 0.643231 0.000000 0.129414
O O5 0.484813 0.500000 0.865761
O O6 0.507489 0.717953 0.788163
O O7 0.599930 0.701622 0.927900
O O8 0.677055 0.500000 0.583316
O O9 0.708715 0.241895 0.648028
O O10 0.635306 0.261334 0.503043
O O11 0.787726 0.330259 0.572815
O O12 0.858178 0.840336 0.707813
O O13 0.751604 0.000000 0.729400
O O14 0.690772 0.500000 0.023159
O O15 0.750000 0.250000 0.000000
O O16 0.441762 0.771437 0.642271
O O17 0.394860 0.000000 0.555829
O O18 0.966937 0.000000 0.689882
#
# Coordination Sequence:
#
# PCOD8114135 Si02
#       7
#     8   8   8   8   8   8   8
#     4  11  21  33  52  77 102 130 167 207 247 296
#     4   9  19  35  54  74  99 132 167 205 250 298
#     4   9  15  22  33  52  81 118 157 195 235 282
#     4   9  16  27  42  61  88 122 159 199 242 287
#     4  11  23  39  56  75 101 131 164 204 252 302
#     4   9  15  21  31  51  81 118 155 191 234 282
#     4   8  14  25  40  59  84 117 156 195 236 283
#
# _framework density 18.575621999999999
#
# number of rings (size 3 to 8) (size 9 to 14) (size 15 to 20)
#    0.000    2.571    0.000    4.286    0.000    9.714 
#    0.000    0.000    0.000    0.000    0.000    0.000 
#    0.000    1.143    0.000   12.286    0.000   15.143 
#
# Total GULP energy -347124.745294 kJ/mol
# GULP energy per Si atom -12397.312332 kJ/mol
# Density = 1.853334 g / cm^3
# Si number density = 18.575622 Si / 1000 Ang^3
#
#
#
# Elastic Constant Matrix: (Units=GPa)
#
#
# Indices 1 2 3 4 5 6 
#
# 1 33.8455 40.0391 45.6457 0.0000 6.3342 0.0000
# 2 40.0391 169.2035 94.9224 0.0000 1.8351 0.0000
# 3 45.6457 94.9224 177.9690 0.0000 3.3651 0.0000
# 4 0.0000 0.0000 0.0000 38.2191 0.0000 -3.2729
# 5 6.3342 1.8351 3.3651 0.0000 -1.9926 0.0000
# 6 0.0000 0.0000 0.0000 -3.2729 0.0000 15.5499
#
#
#
# Elastic Compliance Matrix: (Units=1/GPa)
#
#
# Indices 1 2 3 4 5 6 
#
# 1 0.028910 -0.003852 -0.006813 0.000000 0.076846 0.000000
# 2 -0.003852 0.008947 -0.003593 0.000000 -0.010075 0.000000
# 3 -0.006813 -0.003593 0.009453 0.000000 -0.009003 0.000000
# 4 0.000000 0.000000 0.000000 0.026645 0.000000 0.005608
# 5 0.076846 -0.010075 -0.009003 0.000000 -0.282050 0.000000
# 6 0.000000 0.000000 0.000000 0.005608 0.000000 0.065490
#
#
# Mechanical properties :
#
#
# Convention : Reuss Voigt Hill
#
# Bulk Modulus (GPa) = 53.21322 82.47026 67.84174
# Shear Modulus (GPa) = -46.37239 23.71599 -11.32820
#
# Velocity S-wave (km/s) = -5.00183 3.57701 -2.47218
# Velocity P-wave (km/s) = 2.15610 7.84560 5.33407
#
# Compressibility (1/GPa) = 0.01879232
#
# Stress axis : x y z
#
# Youngs Moduli (GPa) = 34.58994 111.77259 105.78429
#
# Poissons Ratio (x) = 0.43059 0.72073
# Poissons Ratio (y) = 0.13325 0.38012
# Poissons Ratio (z) = 0.23567 0.40164
#
# Static dielectric constant tensor:
#      x y z
#    x 2.598950 0.000000 0.052910 
#    y 0.000000 3.619630 0.000000 
#    z 0.052910 0.000000 3.919760 
# 
# 
# High freq. dielectric constant tensor:
#      x y z
#    x 1.639530 0.000000 -0.001230 
#    y 0.000000 1.733460 0.000000 
#    z -0.001230 0.000000 1.746030 
# 
# From -- ./inp_files/314432.got.cif
#   From: 2010.06.25/outbox.cif.g09.slc.cpg/sg12_158_cif.got.tgz:314432.got - 2010.06.28 00:19:55.
