data_PCOD8114523
_publ_section_title
;
Structure prediction by ZEFSAII (Michael W. Deem and Ramdas Pophale) SiO2 
 PCOD8114523
Probable space group: C 2/M
;
_chemical_formula_sum "Si O2"
_cell_formula_units_Z 56
_cell_length_a 18.016326
_cell_length_b 19.123850
_cell_length_c 15.128368
_cell_angle_alpha 90.000000
_cell_angle_beta 31.196678
_cell_angle_gamma 90.000000
_cell_volume 2699.880015
_symmetry_space_group_name_H-M "C 2/M"
_symmetry_group_IT_number 12
_symmetry_cell_setting 'monoclinic'
loop_
_space_group_symop_operation_xyz
x,y,z
-x,y,-z
-x,-y,-z
x,-y,z
1/2+x,1/2+y,z
1/2-x,1/2+y,-z
1/2-x,1/2-y,-z
1/2+x,1/2-y,z
loop_
_atom_site_type_symbol
_atom_site_label
_atom_site_fract_x
_atom_site_fract_y
_atom_site_fract_z
Si Si1 0.225625 0.418484 0.310005
Si Si2 0.812688 0.646113 0.966063
Si Si3 0.055244 0.578470 0.319856
Si Si4 0.976602 0.212872 0.768792
Si Si5 0.162092 0.582149 0.867927
Si Si6 0.634457 0.686724 0.428333
Si Si7 0.616215 0.291532 0.814246
O O1 0.267715 0.500000 0.269974
O O2 0.167475 0.389118 0.275089
O O3 0.367297 0.374465 0.186596
O O4 0.107486 0.394322 0.504065
O O5 0.884795 0.582098 0.840344
O O6 0.902399 0.711688 0.836495
O O7 0.648388 0.654688 0.103460
O O8 0.822840 0.628701 0.058859
O O9 0.043107 0.500000 0.365624
O O10 0.080347 0.190558 0.583737
O O11 0.070332 0.217379 0.760635
O O12 0.200330 0.500000 0.843781
O O13 0.274565 0.615174 0.682843
O O14 0.000000 0.589784 0.000000
O O15 0.500000 0.692167 0.500000
O O16 0.737586 0.752447 0.309817
O O17 0.500000 0.260107 0.000000
#
# Coordination Sequence:
#
# PCOD8114523 Si02
#       7
#     8   8   8   8   8   8   8
#     4   9  20  37  58  90 129 169 210 259 325 401
#     4  11  21  41  64  93 129 163 221 272 330 399
#     4   9  18  34  60  88 118 162 209 254 315 391
#     4  11  25  40  63  96 129 171 217 274 330 397
#     4  11  25  46  71  97 133 180 228 282 339 399
#     4  12  25  44  67  97 132 177 224 281 337 397
#     4  12  25  40  65  96 132 170 216 274 341 398
#
# _framework density 20.741662000000002
#
# number of rings (size 3 to 8) (size 9 to 14) (size 15 to 20)
#    0.000    1.286    1.429    5.571    6.000    1.714 
#    0.000    3.571    0.000    0.000    0.000    0.000 
#    0.000    0.000    0.000    0.000    0.000    0.000 
#
# Total GULP energy -347019.821615 kJ/mol
# GULP energy per Si atom -12393.565058 kJ/mol
# Density = 2.069445 g / cm^3
# Si number density = 20.741662 Si / 1000 Ang^3
#
#
#
# Elastic Constant Matrix: (Units=GPa)
#
#
# Indices 1 2 3 4 5 6 
#
# 1 95.1225 26.7663 55.9040 -0.0072 -2.0476 0.0041
# 2 26.7663 74.7833 43.9898 -0.0038 -2.6299 0.0021
# 3 55.9040 43.9898 133.6874 -0.0121 12.3926 0.0077
# 4 -0.0072 -0.0038 -0.0121 35.1323 0.0078 -1.3551
# 5 -2.0476 -2.6299 12.3926 0.0078 43.6204 -0.0044
# 6 0.0041 0.0021 0.0077 -1.3551 -0.0044 29.6518
#
#
#
# Elastic Compliance Matrix: (Units=1/GPa)
#
#
# Indices 1 2 3 4 5 6 
#
# 1 0.014361 -0.001752 -0.005630 0.000000 0.002168 0.000000
# 2 -0.001752 0.017092 -0.005114 -0.000001 0.002401 0.000001
# 3 -0.005630 -0.005114 0.011883 0.000003 -0.003949 -0.000002
# 4 0.000000 -0.000001 0.000003 0.028514 -0.000006 0.001303
# 5 0.002168 0.002401 -0.003949 -0.000006 0.024293 0.000004
# 6 0.000000 0.000001 -0.000002 0.001303 0.000004 0.033784
#
#
# Mechanical properties :
#
#
# Convention : Reuss Voigt Hill
#
# Bulk Modulus (GPa) = 54.51336 61.87928 58.19632
# Shear Modulus (GPa) = 31.04930 33.47644 32.26287
#
# Velocity S-wave (km/s) = 3.87325 4.02178 3.94821
# Velocity P-wave (km/s) = 6.80748 7.17387 6.99308
#
# Compressibility (1/GPa) = 0.01834413
#
# Stress axis : x y z
#
# Youngs Moduli (GPa) = 69.63232 58.50796 84.15330
#
# Poissons Ratio (x) = 0.10252 0.47376
# Poissons Ratio (y) = 0.12202 0.43035
# Poissons Ratio (z) = 0.39201 0.29920
#
# Static dielectric constant tensor:
#      x y z
#    x 3.647210 -0.000010 -0.072130 
#    y -0.000010 3.726430 0.000010 
#    z -0.072130 0.000010 3.973910 
# 
# 
# High freq. dielectric constant tensor:
#      x y z
#    x 1.808120 0.000000 0.000030 
#    y 0.000000 1.807670 0.000000 
#    z 0.000030 0.000000 1.826390 
# 
# From -- ./inp_files/227595.got.cif
#   From: 2010.06.25/outbox.cif.g09.slc.cpg/sg12_114_cif.got.tgz:227595.got - 2010.06.28 00:19:55.
