data_PCOD8114431
_publ_section_title
;
Structure prediction by ZEFSAII (Michael W. Deem and Ramdas Pophale) SiO2 
 PCOD8114431
Probable space group: C 2/M
;
_chemical_formula_sum "Si O2"
_cell_formula_units_Z 56
_cell_length_a 8.629412
_cell_length_b 20.408497
_cell_length_c 16.694499
_cell_angle_alpha 90.000000
_cell_angle_beta 67.034210
_cell_angle_gamma 90.000000
_cell_volume 2707.083660
_symmetry_space_group_name_H-M "C 2/M"
_symmetry_group_IT_number 12
_symmetry_cell_setting 'monoclinic'
loop_
_space_group_symop_operation_xyz
x,y,z
-x,y,-z
-x,-y,-z
x,-y,z
1/2+x,1/2+y,z
1/2-x,1/2+y,-z
1/2-x,1/2-y,-z
1/2+x,1/2-y,z
loop_
_atom_site_type_symbol
_atom_site_label
_atom_site_fract_x
_atom_site_fract_y
_atom_site_fract_z
Si Si1 0.834418 0.729494 0.563864
Si Si2 0.187281 0.926309 0.201028
Si Si3 0.345515 0.397324 0.972797
Si Si4 0.929404 0.573254 0.849371
Si Si5 0.019024 0.193106 0.326874
Si Si6 0.460096 0.741303 0.923003
Si Si7 0.813239 0.303876 0.807615
O O1 0.750000 0.750000 0.500000
O O2 0.902959 0.793299 0.600325
O O3 0.686755 0.688710 0.638930
O O4 0.000000 0.688255 0.500000
O O5 0.129212 0.927513 0.120404
O O6 0.381178 0.904493 0.167548
O O7 0.084969 0.873580 0.274540
O O8 0.158240 0.000000 0.241190
O O9 0.335338 0.318949 0.965387
O O10 0.500000 0.416971 0.000000
O O11 0.176569 0.424389 0.047047
O O12 0.928810 0.500000 0.814734
O O13 0.852079 0.618426 0.792660
O O14 0.073252 0.259806 0.271643
O O15 0.617538 0.713301 0.839556
O O16 0.365376 0.794191 0.889693
O O17 0.500000 0.775211 0.000000
#
# Coordination Sequence:
#
# PCOD8114431 Si02
#       7
#     8   8   8   8   8   8   8
#     4   9  20  39  66  95 119 145 175 224 287 368
#     4  11  24  40  58  85 120 162 206 251 301 349
#     4  11  22  40  52  76 112 162 219 260 301 341
#     4  11  24  39  54  76 114 166 215 255 298 347
#     4  11  21  38  64  92 121 147 189 240 299 355
#     4  11  22  35  51  80 109 154 203 253 306 335
#     4  12  22  37  57  84 115 148 199 257 300 347
#
# _framework density 20.686468000000001
#
# number of rings (size 3 to 8) (size 9 to 14) (size 15 to 20)
#    0.000    1.143    4.286    3.857    0.000    2.286 
#    0.000    0.000    0.000    4.286    0.000    4.000 
#    0.000    0.000    0.000    0.000    0.000    0.000 
#
# Total GULP energy -346906.063850 kJ/mol
# GULP energy per Si atom -12389.502280 kJ/mol
# Density = 2.063938 g / cm^3
# Si number density = 20.686468 Si / 1000 Ang^3
#
#
#
# Elastic Constant Matrix: (Units=GPa)
#
#
# Indices 1 2 3 4 5 6 
#
# 1 85.9328 19.2687 37.9678 0.0000 -25.6529 0.0000
# 2 19.2687 83.1409 36.8708 0.0000 -6.3628 0.0000
# 3 37.9678 36.8708 105.1209 0.0000 -26.2658 0.0000
# 4 0.0000 0.0000 0.0000 14.5116 0.0000 -6.6975
# 5 -25.6529 -6.3628 -26.2658 0.0000 43.3580 0.0000
# 6 0.0000 0.0000 0.0000 -6.6975 0.0000 22.7808
#
#
#
# Elastic Compliance Matrix: (Units=1/GPa)
#
#
# Indices 1 2 3 4 5 6 
#
# 1 0.015534 -0.001599 -0.003314 0.000000 0.006949 0.000000
# 2 -0.001599 0.014453 -0.004947 0.000000 -0.001822 0.000000
# 3 -0.003314 -0.004947 0.013873 0.000000 0.005718 0.000000
# 4 0.000000 0.000000 0.000000 0.079728 0.000000 0.023440
# 5 0.006949 -0.001822 0.005718 0.000000 0.030372 0.000000
# 6 0.000000 0.000000 0.000000 0.023440 0.000000 0.050788
#
#
# Mechanical properties :
#
#
# Convention : Reuss Voigt Hill
#
# Bulk Modulus (GPa) = 41.42269 51.37879 46.40074
# Shear Modulus (GPa) = 21.50413 28.13592 24.82002
#
# Velocity S-wave (km/s) = 3.22767 3.69197 3.46760
# Velocity P-wave (km/s) = 5.82735 6.56239 6.20576
#
# Compressibility (1/GPa) = 0.02414136
#
# Stress axis : x y z
#
# Youngs Moduli (GPa) = 64.37530 69.19090 72.07994
#
# Poissons Ratio (x) = 0.11063 0.23884
# Poissons Ratio (y) = 0.10293 0.35658
# Poissons Ratio (z) = 0.21331 0.34229
#
# Static dielectric constant tensor:
#      x y z
#    x 3.418960 0.000000 1.002140 
#    y 0.000000 3.671700 0.000000 
#    z 1.002140 0.000000 2.275850 
# 
# 
# High freq. dielectric constant tensor:
#      x y z
#    x 1.832110 0.000000 -0.013990 
#    y 0.000000 1.782200 0.000000 
#    z -0.013990 0.000000 1.795130 
# 
# From -- ./inp_files/257990.got.cif
#   From: 2010.06.25/outbox.cif.g09.slc.cpg/sg12_129_cif.got.tgz:257990.got - 2010.06.28 00:19:55.
