data_PCOD8114080
_publ_section_title
;
Structure prediction by ZEFSAII (Michael W. Deem and Ramdas Pophale) SiO2 
 PCOD8114080
Probable space group: C 2/M
;
_chemical_formula_sum "Si O2"
_cell_formula_units_Z 64
_cell_length_a 28.991369
_cell_length_b 9.090769
_cell_length_c 15.550281
_cell_angle_alpha 90.000000
_cell_angle_beta 117.709096
_cell_angle_gamma 90.000000
_cell_volume 3628.338304
_symmetry_space_group_name_H-M "C 2/M"
_symmetry_group_IT_number 12
_symmetry_cell_setting 'monoclinic'
loop_
_space_group_symop_operation_xyz
x,y,z
-x,y,-z
-x,-y,-z
x,-y,z
1/2+x,1/2+y,z
1/2-x,1/2+y,-z
1/2-x,1/2-y,-z
1/2+x,1/2-y,z
loop_
_atom_site_type_symbol
_atom_site_label
_atom_site_fract_x
_atom_site_fract_y
_atom_site_fract_z
Si Si1 0.891668 0.168511 0.362814
Si Si2 0.343708 0.670327 0.562613
Si Si3 0.437336 0.825384 0.560759
Si Si4 0.319322 0.328072 0.733407
Si Si5 0.216530 0.831289 0.659794
Si Si6 0.535071 0.669704 0.724224
Si Si7 0.475134 0.829930 0.111806
Si Si8 0.919234 0.669600 0.886737
O O1 0.926213 0.269197 0.455108
O O2 0.830780 0.212427 0.317053
O O3 0.910930 0.187408 0.281805
O O4 0.898059 0.000000 0.400536
O O5 0.360908 0.500000 0.575672
O O6 0.394136 0.769693 0.590232
O O7 0.320637 0.716125 0.634352
O O8 0.300534 0.702616 0.452935
O O9 0.492478 0.765319 0.638659
O O10 0.438508 0.000000 0.562100
O O11 0.318579 0.500000 0.746915
O O12 0.266572 0.263999 0.728464
O O13 0.369237 0.267357 0.825853
O O14 0.232451 0.000000 0.684846
O O15 0.517475 0.500000 0.712473
O O16 0.544659 0.728551 0.828122
O O17 0.534270 0.787047 0.138031
O O18 0.472977 0.000000 0.137813
O O19 0.437173 0.800089 0.999325
O O20 0.904427 0.500000 0.861150
#
# Coordination Sequence:
#
# PCOD8114080 Si02
#       8
#     8   8   8   8   8   8   8   8
#     4   9  20  37  52  69  98 136 172 205 247 297
#     4   9  19  34  49  70 103 138 168 201 247 299
#     4  11  21  31  48  75 104 134 170 208 243 286
#     4  11  21  31  49  77 103 129 167 209 246 292
#     4   9  18  34  52  68  95 135 172 205 245 293
#     4  11  21  33  52  75 101 133 166 203 250 300
#     4   9  19  36  56  78 102 128 163 203 243 293
#     4   9  19  36  55  75 103 135 161 194 246 301
#
# _framework density 17.638928
#
# number of rings (size 3 to 8) (size 9 to 14) (size 15 to 20)
#    0.000    2.250    0.000    4.875    0.000    8.500 
#    0.000    1.250    0.000    0.750    0.000    0.000 
#    0.000    0.000    0.000    0.000    0.000    0.000 
#
# Total GULP energy -396855.723738 kJ/mol
# GULP energy per Si atom -12401.741367 kJ/mol
# Density = 1.759878 g / cm^3
# Si number density = 17.638928 Si / 1000 Ang^3
#
#
#
# Elastic Constant Matrix: (Units=GPa)
#
#
# Indices 1 2 3 4 5 6 
#
# 1 113.0049 60.2273 63.2187 0.0000 0.4201 0.0000
# 2 60.2273 95.0726 46.3419 0.0000 0.9360 0.0000
# 3 63.2187 46.3419 72.0458 0.0000 1.9718 0.0000
# 4 0.0000 0.0000 0.0000 30.7062 0.0000 1.3662
# 5 0.4201 0.9360 1.9718 0.0000 28.3711 0.0000
# 6 0.0000 0.0000 0.0000 1.3662 0.0000 24.7848
#
#
#
# Elastic Compliance Matrix: (Units=1/GPa)
#
#
# Indices 1 2 3 4 5 6 
#
# 1 0.019374 -0.005803 -0.013290 0.000000 0.000828 0.000000
# 2 -0.005803 0.017062 -0.005880 0.000000 -0.000068 0.000000
# 3 -0.013290 -0.005880 0.029369 0.000000 -0.001650 0.000000
# 4 0.000000 0.000000 0.000000 0.032647 0.000000 -0.001800
# 5 0.000828 -0.000068 -0.001650 0.000000 0.035352 0.000000
# 6 0.000000 0.000000 0.000000 -0.001800 0.000000 0.040446
#
#
# Mechanical properties :
#
#
# Convention : Reuss Voigt Hill
#
# Bulk Modulus (GPa) = 63.06164 68.85547 65.95856
# Shear Modulus (GPa) = 21.78809 24.12813 22.95811
#
# Velocity S-wave (km/s) = 3.51839 3.70251 3.61163
# Velocity P-wave (km/s) = 7.23426 7.57621 7.40721
#
# Compressibility (1/GPa) = 0.01585750
#
# Stress axis : x y z
#
# Youngs Moduli (GPa) = 51.61588 58.61141 34.04893
#
# Poissons Ratio (x) = 0.34013 0.45251
# Poissons Ratio (y) = 0.29954 0.20022
# Poissons Ratio (z) = 0.68598 0.34466
#
# Static dielectric constant tensor:
#      x y z
#    x 3.341640 0.000000 -0.086720 
#    y 0.000000 3.254740 0.000000 
#    z -0.086720 0.000000 3.066260 
# 
# 
# High freq. dielectric constant tensor:
#      x y z
#    x 1.682750 0.000000 -0.001450 
#    y 0.000000 1.684820 0.000000 
#    z -0.001450 0.000000 1.659600 
# 
# From -- ./inp_files/249135.got.cif
#   From: 2010.06.25/outbox.cif.g09.slc.cpg/sg12_125_cif.got.tgz:249135.got - 2010.06.28 00:19:55.
