data_PCOD8114016
_publ_section_title
;
Structure prediction by ZEFSAII (Michael W. Deem and Ramdas Pophale) SiO2 
 PCOD8114016
Probable space group: C 2/M
;
_chemical_formula_sum "Si O2"
_cell_formula_units_Z 40
_cell_length_a 23.770151
_cell_length_b 10.080479
_cell_length_c 10.914300
_cell_angle_alpha 90.000000
_cell_angle_beta 50.993937
_cell_angle_gamma 90.000000
_cell_volume 2032.237085
_symmetry_space_group_name_H-M "C 2/M"
_symmetry_group_IT_number 12
_symmetry_cell_setting 'monoclinic'
loop_
_space_group_symop_operation_xyz
x,y,z
-x,y,-z
-x,-y,-z
x,-y,z
1/2+x,1/2+y,z
1/2-x,1/2+y,-z
1/2-x,1/2-y,-z
1/2+x,1/2-y,z
loop_
_atom_site_type_symbol
_atom_site_label
_atom_site_fract_x
_atom_site_fract_y
_atom_site_fract_z
Si Si1 0.074913 0.273992 0.953049
Si Si2 0.868632 0.000000 0.216342
Si Si3 0.656307 0.500000 0.463538
Si Si4 0.177868 0.500000 0.722155
Si Si5 0.297014 0.000000 0.598172
Si Si6 0.393169 0.223397 0.567317
Si Si7 0.547170 0.845826 0.259491
O O1 0.139361 0.367639 0.820703
O O2 0.087699 0.126819 0.888219
O O3 0.070943 0.270008 0.105044
O O4 0.000000 0.329618 0.000000
O O5 0.866960 0.000000 0.364361
O O6 0.788867 0.000000 0.268882
O O7 0.742330 0.500000 0.330781
O O8 0.622610 0.374056 0.443170
O O9 0.178751 0.500000 0.575173
O O10 0.325406 0.132176 0.624933
O O11 0.406868 0.216340 0.693320
O O12 0.461948 0.170338 0.398274
O O13 0.565863 0.000000 0.220413
#
# Coordination Sequence:
#
# PCOD8114016 Si02
#       7
#     8   4   4   4   4   8   8
#     4  12  24  40  65  91 127 160 199 257 312 354
#     4  11  25  41  59  96 128 160 202 251 306 371
#     4  11  24  42  61  93 130 156 204 255 301 364
#     4  11  23  39  63  94 120 162 212 247 296 373
#     4  11  20  40  67  85 122 170 206 245 303 358
#     4  11  22  40  67  90 121 165 203 253 304 353
#     4  11  22  41  65  94 120 156 217 252 291 372
#
# _framework density 19.682742000000001
#
# number of rings (size 3 to 8) (size 9 to 14) (size 15 to 20)
#    0.000    0.800    3.000    6.000    0.000    6.400 
#    0.000    6.000    0.000    0.000    0.000    0.000 
#    0.000    0.000    0.000    0.000    0.000    0.000 
#
# Total GULP energy -248162.913941 kJ/mol
# GULP energy per Si atom -12408.145697 kJ/mol
# Density = 1.963794 g / cm^3
# Si number density = 19.682742 Si / 1000 Ang^3
#
#
#
# Elastic Constant Matrix: (Units=GPa)
#
#
# Indices 1 2 3 4 5 6 
#
# 1 110.3734 29.5010 41.3438 0.0000 10.6670 0.0000
# 2 29.5010 121.7086 23.5628 0.0000 13.5970 0.0000
# 3 41.3438 23.5628 101.3729 0.0000 12.1907 0.0000
# 4 0.0000 0.0000 0.0000 -61.7091 0.0000 46.3471
# 5 10.6670 13.5970 12.1907 0.0000 18.7984 0.0000
# 6 0.0000 0.0000 0.0000 46.3471 0.0000 5.3583
#
#
#
# Elastic Compliance Matrix: (Units=1/GPa)
#
#
# Indices 1 2 3 4 5 6 
#
# 1 0.011211 -0.001674 -0.003865 0.000000 -0.002644 0.000000
# 2 -0.001674 0.009378 -0.000863 0.000000 -0.005274 0.000000
# 3 -0.003865 -0.000863 0.012259 0.000000 -0.005132 0.000000
# 4 0.000000 0.000000 0.000000 -0.002162 0.000000 0.018698
# 5 -0.002644 -0.005274 -0.005132 0.000000 0.061839 0.000000
# 6 0.000000 0.000000 0.000000 0.018698 0.000000 0.024896
#
#
# Mechanical properties :
#
#
# Convention : Reuss Voigt Hill
#
# Bulk Modulus (GPa) = 49.89006 58.03002 53.96004
# Shear Modulus (GPa) = 36.52127 8.42602 22.47364
#
# Velocity S-wave (km/s) = 4.31222 2.07128 3.38271
# Velocity P-wave (km/s) = 7.08490 5.93860 6.53692
#
# Compressibility (1/GPa) = 0.02004407
#
# Stress axis : x y z
#
# Youngs Moduli (GPa) = 89.19888 106.62895 81.57449
#
# Poissons Ratio (x) = 0.17846 0.31530
# Poissons Ratio (y) = 0.14929 0.07040
# Poissons Ratio (z) = 0.34477 0.09202
#
# Static dielectric constant tensor:
#      x y z
#    x 3.724610 0.000000 0.025610 
#    y 0.000000 3.477180 0.000000 
#    z 0.025610 0.000000 3.629120 
# 
# 
# High freq. dielectric constant tensor:
#      x y z
#    x 1.780000 0.000000 0.002420 
#    y 0.000000 1.778430 0.000000 
#    z 0.002420 0.000000 1.767730 
# 
# From -- ./inp_files/179696.got.cif
#   From: 2010.06.25/outbox.cif.g09.slc.cpg/sg12_90_cif.got.tgz:179696.got - 2010.06.28 00:19:55.
