data_PCOD8114861
_publ_section_title
;
Structure prediction by ZEFSAII (Michael W. Deem and Ramdas Pophale) SiO2 
 PCOD8114861
Probable space group: C 2/M
;
_chemical_formula_sum "Si O2"
_cell_formula_units_Z 48
_cell_length_a 20.140788
_cell_length_b 7.685621
_cell_length_c 15.998974
_cell_angle_alpha 90.000000
_cell_angle_beta 76.817090
_cell_angle_gamma 90.000000
_cell_volume 2411.287931
_symmetry_space_group_name_H-M "C 2/M"
_symmetry_group_IT_number 12
_symmetry_cell_setting 'monoclinic'
loop_
_space_group_symop_operation_xyz
x,y,z
-x,y,-z
-x,-y,-z
x,-y,z
1/2+x,1/2+y,z
1/2-x,1/2+y,-z
1/2-x,1/2-y,-z
1/2+x,1/2-y,z
loop_
_atom_site_type_symbol
_atom_site_label
_atom_site_fract_x
_atom_site_fract_y
_atom_site_fract_z
Si Si1 0.310116 0.795485 0.420070
Si Si2 0.781218 0.706624 0.240061
Si Si3 0.591541 0.206518 0.898378
Si Si4 0.140200 0.808457 0.216179
Si Si5 0.443698 0.196834 0.913108
Si Si6 0.591951 0.500000 0.553030
Si Si7 0.065647 0.000000 0.369608
O O1 0.250000 0.750000 0.500000
O O2 0.286142 0.739352 0.334966
O O3 0.375017 0.677893 0.423406
O O4 0.329839 0.000000 0.419341
O O5 0.776488 0.500000 0.235045
O O6 0.845233 0.787590 0.171195
O O7 0.711309 0.784454 0.220602
O O8 0.519811 0.277066 0.879272
O O9 0.599050 0.000000 0.887691
O O10 0.594712 0.274280 0.994035
O O11 0.101104 0.701300 0.156985
O O12 0.153938 0.000000 0.173328
O O13 0.092950 0.828014 0.312822
O O14 0.457973 0.000000 0.934079
O O15 0.598202 0.500000 0.451499
O O16 0.515127 0.500000 0.606574
#
# Coordination Sequence:
#
# PCOD8114861 Si02
#       7
#     8   8   8   8   8   4   4
#     4  11  22  38  63  91 120 154 202 245 296 354
#     4   9  18  33  54  80 109 150 195 235 286 353
#     4   8  16  31  53  77 108 144 191 238 279 341
#     4   9  19  34  53  72 112 149 179 228 297 349
#     4   9  17  32  53  79 107 146 187 236 289 338
#     4  11  22  42  64  85 118 165 191 251 297 360
#     4   9  22  40  58  78 121 156 189 239 318 351
#
# _framework density 19.906376000000002
#
# number of rings (size 3 to 8) (size 9 to 14) (size 15 to 20)
#    0.500    2.167    0.833    2.000    2.333    0.667 
#    1.500    4.167    1.833    0.000    0.000    0.000 
#    0.000    0.000    0.000    0.000    0.000    0.000 
#
# Total GULP energy -297366.930790 kJ/mol
# GULP energy per Si atom -12390.288783 kJ/mol
# Density = 1.986107 g / cm^3
# Si number density = 19.906376 Si / 1000 Ang^3
#
#
#
# Elastic Constant Matrix: (Units=GPa)
#
#
# Indices 1 2 3 4 5 6 
#
# 1 168.5906 21.4154 107.1602 0.0000 5.8384 0.0000
# 2 21.4154 49.6657 12.6747 0.0000 6.3777 0.0000
# 3 107.1602 12.6747 162.5717 0.0000 1.0938 0.0000
# 4 0.0000 0.0000 0.0000 17.2661 0.0000 8.2443
# 5 5.8384 6.3777 1.0938 0.0000 41.6222 0.0000
# 6 0.0000 0.0000 0.0000 8.2443 0.0000 14.1814
#
#
#
# Elastic Compliance Matrix: (Units=1/GPa)
#
#
# Indices 1 2 3 4 5 6 
#
# 1 0.010620 -0.002734 -0.006781 0.000000 -0.000893 0.000000
# 2 -0.002734 0.021657 0.000134 0.000000 -0.002938 0.000000
# 3 -0.006781 0.000134 0.010606 0.000000 0.000652 0.000000
# 4 0.000000 0.000000 0.000000 0.080171 0.000000 -0.046607
# 5 -0.000893 -0.002938 0.000652 0.000000 0.024584 0.000000
# 6 0.000000 0.000000 0.000000 -0.046607 0.000000 0.097609
#
#
# Mechanical properties :
#
#
# Convention : Reuss Voigt Hill
#
# Bulk Modulus (GPa) = 41.46004 73.70319 57.58161
# Shear Modulus (GPa) = 18.37896 30.58579 24.48238
#
# Velocity S-wave (km/s) = 3.04183 3.92405 3.51076
# Velocity P-wave (km/s) = 5.76279 7.59185 6.73966
#
# Compressibility (1/GPa) = 0.02411961
#
# Stress axis : x y z
#
# Youngs Moduli (GPa) = 94.16270 46.17491 94.28546
#
# Poissons Ratio (x) = 0.12625 0.63935
# Poissons Ratio (y) = 0.25745 -0.01259
# Poissons Ratio (z) = 0.63852 -0.00616
#
# Static dielectric constant tensor:
#      x y z
#    x 3.739420 0.000000 -0.114570 
#    y 0.000000 3.258960 0.000000 
#    z -0.114570 0.000000 3.663670 
# 
# 
# High freq. dielectric constant tensor:
#      x y z
#    x 1.783220 0.000000 -0.000850 
#    y 0.000000 1.738370 0.000000 
#    z -0.000850 0.000000 1.783790 
# 
# From -- ./inp_files/221774.got.cif
#   From: 2010.06.25/outbox.cif.g09.slc.cpg/sg12_111_cif.got.tgz:221774.got - 2010.06.28 00:19:55.
