data_PCOD8114231
_publ_section_title
;
Structure prediction by ZEFSAII (Michael W. Deem and Ramdas Pophale) SiO2 
 PCOD8114231
Probable space group: C 2/M
;
_chemical_formula_sum "Si O2"
_cell_formula_units_Z 56
_cell_length_a 11.370929
_cell_length_b 23.477642
_cell_length_c 20.107432
_cell_angle_alpha 90.000000
_cell_angle_beta 148.248430
_cell_angle_gamma 90.000000
_cell_volume 2824.805812
_symmetry_space_group_name_H-M "C 2/M"
_symmetry_group_IT_number 12
_symmetry_cell_setting 'monoclinic'
loop_
_space_group_symop_operation_xyz
x,y,z
-x,y,-z
-x,-y,-z
x,-y,z
1/2+x,1/2+y,z
1/2-x,1/2+y,-z
1/2-x,1/2-y,-z
1/2+x,1/2-y,z
loop_
_atom_site_type_symbol
_atom_site_label
_atom_site_fract_x
_atom_site_fract_y
_atom_site_fract_z
Si Si1 0.202830 0.343136 0.274257
Si Si2 0.429881 0.437578 0.891482
Si Si3 0.511482 0.754121 0.642783
Si Si4 0.269662 0.335485 0.996239
Si Si5 0.975544 0.625701 0.666860
Si Si6 0.256183 0.762674 0.895431
Si Si7 0.040149 0.936615 0.441017
O O1 0.342333 0.283552 0.338260
O O2 0.119770 0.349489 0.309797
O O3 0.352844 0.395434 0.320620
O O4 0.995925 0.345060 0.124023
O O5 0.445189 0.500000 0.864038
O O6 0.175339 0.417840 0.771165
O O7 0.500000 0.444123 0.000000
O O8 0.595030 0.394096 0.934155
O O9 0.250000 0.750000 0.500000
O O10 0.563566 0.821690 0.663869
O O11 0.585386 0.732919 0.751953
O O12 0.301869 0.302759 0.941111
O O13 0.360636 0.296503 0.100172
O O14 0.778691 0.590434 0.536753
O O15 0.500000 0.789805 0.000000
O O16 0.000000 0.939891 0.500000
O O17 0.021843 0.000000 0.401175
#
# Coordination Sequence:
#
# PCOD8114231 Si02
#       7
#     8   8   8   8   8   8   8
#     4  11  21  35  56  87 117 152 188 247 295 356
#     4  11  22  36  58  89 119 154 198 248 299 349
#     4  12  23  36  58  91 122 154 197 249 300 361
#     4  11  22  37  60  85 120 156 198 240 300 363
#     4  11  21  36  55  82 124 151 191 239 306 354
#     4  11  22  37  60  84 118 159 195 238 304 361
#     4   9  19  34  53  77 110 152 191 235 296 355
#
# _framework density 19.824370999999999
#
# number of rings (size 3 to 8) (size 9 to 14) (size 15 to 20)
#    0.000    1.143    5.714    1.714    2.000    1.143 
#    0.000    0.000    0.000    1.286    0.000    1.000 
#    0.000    0.000    0.000    0.000    0.000    0.000 
#
# Total GULP energy -347013.696139 kJ/mol
# GULP energy per Si atom -12393.346291 kJ/mol
# Density = 1.977925 g / cm^3
# Si number density = 19.824371 Si / 1000 Ang^3
#
#
#
# Elastic Constant Matrix: (Units=GPa)
#
#
# Indices 1 2 3 4 5 6 
#
# 1 45.5974 43.8724 38.0299 -0.0027 15.6634 -0.0017
# 2 43.8724 162.0967 39.2831 -0.0064 21.7277 0.0011
# 3 38.0299 39.2831 120.7184 -0.0329 19.0208 0.0062
# 4 -0.0027 -0.0064 -0.0329 58.1933 -0.0121 16.5701
# 5 15.6634 21.7277 19.0208 -0.0121 32.6877 -0.0050
# 6 -0.0017 0.0011 0.0062 16.5701 -0.0050 26.9103
#
#
#
# Elastic Compliance Matrix: (Units=1/GPa)
#
#
# Indices 1 2 3 4 5 6 
#
# 1 0.039190 -0.007338 -0.008552 -0.000008 -0.008925 0.000008
# 2 -0.007338 0.008457 -0.000120 0.000001 -0.002036 -0.000001
# 3 -0.008552 -0.000120 0.011404 0.000008 -0.002459 -0.000009
# 4 -0.000008 0.000001 0.000008 0.020838 0.000005 -0.012831
# 5 -0.008925 -0.002036 -0.002459 0.000005 0.037653 0.000004
# 6 0.000008 -0.000001 -0.000009 -0.012831 0.000004 0.045061
#
#
# Mechanical properties :
#
#
# Convention : Reuss Voigt Hill
#
# Bulk Modulus (GPa) = 36.99290 63.42037 50.20663
# Shear Modulus (GPa) = 24.55393 37.37341 30.96367
#
# Velocity S-wave (km/s) = 3.52315 4.34663 3.95637
# Velocity P-wave (km/s) = 5.93725 7.56647 6.80083
#
# Compressibility (1/GPa) = 0.02703221
#
# Stress axis : x y z
#
# Youngs Moduli (GPa) = 25.51652 118.24365 87.68746
#
# Poissons Ratio (x) = 0.86770 0.74989
# Poissons Ratio (y) = 0.18725 0.01048
# Poissons Ratio (z) = 0.21821 0.01414
#
# Static dielectric constant tensor:
#      x y z
#    x 3.266660 0.000010 0.215330 
#    y 0.000010 4.130290 0.000040 
#    z 0.215330 0.000040 3.655720 
# 
# 
# High freq. dielectric constant tensor:
#      x y z
#    x 1.729930 0.000000 0.029710 
#    y 0.000000 1.778000 0.000000 
#    z 0.029710 0.000000 1.781700 
# 
# From -- ./inp_files/307241.got.cif
#   From: 2010.06.25/outbox.cif.g09.slc.cpg/sg12_154_cif.got.tgz:307241.got - 2010.06.28 00:19:55.
