data_PCOD8114842
_publ_section_title
;
Structure prediction by ZEFSAII (Michael W. Deem and Ramdas Pophale) SiO2 
 PCOD8114842
Probable space group: C 2/M
;
_chemical_formula_sum "Si O2"
_cell_formula_units_Z 64
_cell_length_a 14.578232
_cell_length_b 8.695913
_cell_length_c 26.440746
_cell_angle_alpha 90.000000
_cell_angle_beta 77.047827
_cell_angle_gamma 90.000000
_cell_volume 3266.639551
_symmetry_space_group_name_H-M "C 2/M"
_symmetry_group_IT_number 12
_symmetry_cell_setting 'monoclinic'
loop_
_space_group_symop_operation_xyz
x,y,z
-x,y,-z
-x,-y,-z
x,-y,z
1/2+x,1/2+y,z
1/2-x,1/2+y,-z
1/2-x,1/2-y,-z
1/2+x,1/2-y,z
loop_
_atom_site_type_symbol
_atom_site_label
_atom_site_fract_x
_atom_site_fract_y
_atom_site_fract_z
Si Si1 0.640082 0.179045 0.879176
Si Si2 0.524698 0.182706 0.442177
Si Si3 0.409183 0.817652 0.718194
Si Si4 0.152439 0.319622 0.995098
Si Si5 0.793119 0.318232 0.638033
Si Si6 0.909099 0.318070 0.361146
Si Si7 0.050335 0.180898 0.096782
Si Si8 0.828719 0.318928 0.833546
O O1 0.540933 0.234913 0.868813
O O2 0.719214 0.277824 0.840870
O O3 0.656059 0.000000 0.866226
O O4 0.637247 0.218533 0.938687
O O5 0.500000 0.254298 0.500000
O O6 0.629832 0.235198 0.413191
O O7 0.446785 0.239316 0.411193
O O8 0.521754 0.000000 0.444376
O O9 0.331032 0.758053 0.687727
O O10 0.514171 0.761625 0.690058
O O11 0.383710 0.758461 0.777209
O O12 0.406276 0.000000 0.716803
O O13 0.151040 0.500000 0.006112
O O14 0.069786 0.241546 0.037792
O O15 0.250000 0.250000 0.000000
O O16 0.782695 0.500000 0.639339
O O17 0.692261 0.249275 0.638127
O O18 0.900714 0.500000 0.361235
O O19 0.136971 0.224044 0.122161
O O20 0.035311 0.000000 0.097190
O O21 0.842495 0.500000 0.840503
#
# Coordination Sequence:
#
# PCOD8114842 Si02
#       8
#     8   8   8   8   8   8   8   8
#     4  11  24  41  60  85 114 144 181 223 271 328
#     4   8  15  29  49  73 105 146 182 213 259 322
#     4   8  18  36  55  75 102 140 178 217 268 326
#     4  11  22  38  62  86 114 147 182 223 270 325
#     4   9  17  32  53  76 104 137 179 223 265 317
#     4   9  17  32  53  76 104 138 180 222 264 317
#     4  12  25  40  59  85 115 147 184 223 269 328
#     4  11  22  39  61  82 109 142 181 229 280 329
#
# _framework density 19.591999000000001
#
# number of rings (size 3 to 8) (size 9 to 14) (size 15 to 20)
#    0.000    2.125    1.250    4.125    0.000    4.500 
#    0.000    7.500    0.000    0.750    0.000    0.000 
#    0.000    0.000    0.000    0.000    0.000    0.000 
#
# Total GULP energy -396766.794913 kJ/mol
# GULP energy per Si atom -12398.962341 kJ/mol
# Density = 1.954741 g / cm^3
# Si number density = 19.591999 Si / 1000 Ang^3
#
#
#
# Elastic Constant Matrix: (Units=GPa)
#
#
# Indices 1 2 3 4 5 6 
#
# 1 126.3873 22.1347 35.0064 0.0000 -19.2745 0.0000
# 2 22.1347 53.7755 33.1101 0.0000 -2.5662 0.0000
# 3 35.0064 33.1101 115.3299 0.0000 -14.9666 0.0000
# 4 0.0000 0.0000 0.0000 16.4888 0.0000 -3.3145
# 5 -19.2745 -2.5662 -14.9666 0.0000 22.6857 0.0000
# 6 0.0000 0.0000 0.0000 -3.3145 0.0000 36.2979
#
#
#
# Elastic Compliance Matrix: (Units=1/GPa)
#
#
# Indices 1 2 3 4 5 6 
#
# 1 0.009873 -0.002979 -0.001199 0.000000 0.007260 0.000000
# 2 -0.002979 0.023561 -0.006390 0.000000 -0.004081 0.000000
# 3 -0.001199 -0.006390 0.011640 0.000000 0.005937 0.000000
# 4 0.000000 0.000000 0.000000 0.061781 0.000000 0.005642
# 5 0.007260 -0.004081 0.005937 0.000000 0.053705 0.000000
# 6 0.000000 0.000000 0.000000 0.005642 0.000000 0.028065
#
#
# Mechanical properties :
#
#
# Convention : Reuss Voigt Hill
#
# Bulk Modulus (GPa) = 41.77405 52.88835 47.33120
# Shear Modulus (GPa) = 22.96301 28.77724 25.87012
#
# Velocity S-wave (km/s) = 3.42725 3.83668 3.63773
# Velocity P-wave (km/s) = 6.08520 6.83230 6.46954
#
# Compressibility (1/GPa) = 0.02393830
#
# Stress axis : x y z
#
# Youngs Moduli (GPa) = 101.28243 42.44219 85.91238
#
# Poissons Ratio (x) = 0.12644 0.10305
# Poissons Ratio (y) = 0.30172 0.54895
# Poissons Ratio (z) = 0.12148 0.27119
#
# Static dielectric constant tensor:
#      x y z
#    x 3.735710 0.000000 -0.069480 
#    y 0.000000 3.248800 0.000000 
#    z -0.069480 0.000000 3.948430 
# 
# 
# High freq. dielectric constant tensor:
#      x y z
#    x 1.773230 0.000000 -0.008660 
#    y 0.000000 1.738330 0.000000 
#    z -0.008660 0.000000 1.761990 
# 
# From -- ./inp_files/359756.got.cif
#   From: 2010.06.25/outbox.cif.g09.slc.cpg/sg12_180_cif.got.tgz:359756.got - 2010.06.28 00:19:55.
