data_PCOD8114149
_publ_section_title
;
Structure prediction by ZEFSAII (Michael W. Deem and Ramdas Pophale) SiO2 
 PCOD8114149
Probable space group: C 2/M
;
_chemical_formula_sum "Si O2"
_cell_formula_units_Z 48
_cell_length_a 7.603480
_cell_length_b 28.166287
_cell_length_c 19.043736
_cell_angle_alpha 90.000000
_cell_angle_beta 38.134052
_cell_angle_gamma 90.000000
_cell_volume 2518.451280
_symmetry_space_group_name_H-M "C 2/M"
_symmetry_group_IT_number 12
_symmetry_cell_setting 'monoclinic'
loop_
_space_group_symop_operation_xyz
x,y,z
-x,y,-z
-x,-y,-z
x,-y,z
1/2+x,1/2+y,z
1/2-x,1/2+y,-z
1/2-x,1/2-y,-z
1/2+x,1/2-y,z
loop_
_atom_site_type_symbol
_atom_site_label
_atom_site_fract_x
_atom_site_fract_y
_atom_site_fract_z
Si Si1 0.435786 0.201341 0.131736
Si Si2 0.212445 0.945187 0.995786
Si Si3 0.350967 0.600098 0.225363
Si Si4 0.952194 0.196769 0.879565
Si Si5 0.727984 0.054995 0.633602
Si Si6 0.253186 0.605777 0.772447
O O1 0.267637 0.191973 0.113902
O O2 0.370709 0.253983 0.182216
O O3 0.330904 0.160705 0.218764
O O4 0.775371 0.196639 0.008629
O O5 0.498968 0.915162 0.899262
O O6 0.297196 0.000000 0.966291
O O7 0.000000 0.931330 0.000000
O O8 0.064070 0.933952 0.116063
O O9 0.338007 0.651788 0.191464
O O10 0.456794 0.602641 0.272850
O O11 0.034703 0.579297 0.323490
O O12 0.794978 0.077885 0.687546
O O13 0.000000 0.062206 0.500000
O O14 0.655019 0.000000 0.669053
#
# Coordination Sequence:
#
# PCOD8114149 Si02
#       6
#     8   8   8   8   8   8
#     4   9  18  31  51  85 122 154 188 227 282 354
#     4  11  21  33  54  86 122 157 191 232 294 365
#     4  11  22  38  60  88 121 156 196 241 300 360
#     4   9  18  31  51  85 122 154 188 227 282 354
#     4  11  26  45  63  85 113 154 211 261 301 348
#     4  11  22  38  60  88 121 156 196 241 300 360
#
# _framework density 19.059332999999999
#
# number of rings (size 3 to 8) (size 9 to 14) (size 15 to 20)
#    0.000    1.667    3.333    1.500    2.333    4.000 
#    0.000    1.667    0.000    1.000    0.000    0.000 
#    0.000    0.000    0.000    0.000    0.000    0.000 
#
# Total GULP energy -297589.790222 kJ/mol
# GULP energy per Si atom -12399.574593 kJ/mol
# Density = 1.901595 g / cm^3
# Si number density = 19.059333 Si / 1000 Ang^3
#
#
#
# Elastic Constant Matrix: (Units=GPa)
#
#
# Indices 1 2 3 4 5 6 
#
# 1 85.0520 46.5056 30.4155 0.0000 -2.9296 0.0000
# 2 46.5056 143.4294 48.6376 0.0000 -7.2032 0.0000
# 3 30.4155 48.6376 68.1999 -0.0001 -3.4123 0.0000
# 4 0.0000 0.0000 -0.0001 10.3753 0.0001 -1.0250
# 5 -2.9296 -7.2032 -3.4123 0.0001 10.4255 0.0000
# 6 0.0000 0.0000 0.0000 -1.0250 0.0000 28.5017
#
#
#
# Elastic Compliance Matrix: (Units=1/GPa)
#
#
# Indices 1 2 3 4 5 6 
#
# 1 0.015194 -0.003446 -0.004294 0.000000 0.000483 0.000000
# 2 -0.003446 0.010169 -0.005502 0.000000 0.004257 0.000000
# 3 -0.004294 -0.005502 0.020589 0.000000 0.001730 0.000000
# 4 0.000000 0.000000 0.000000 0.096726 -0.000001 0.003478
# 5 0.000483 0.004257 0.001730 -0.000001 0.099562 0.000000
# 6 0.000000 0.000000 0.000000 0.003478 0.000000 0.035211
#
#
# Mechanical properties :
#
#
# Convention : Reuss Voigt Hill
#
# Bulk Modulus (GPa) = 51.37123 60.86652 56.11887
# Shear Modulus (GPa) = 16.10694 21.26867 18.68781
#
# Velocity S-wave (km/s) = 2.91021 3.34416 3.13470
# Velocity P-wave (km/s) = 6.18904 6.84951 6.52764
#
# Compressibility (1/GPa) = 0.01946615
#
# Stress axis : x y z
#
# Youngs Moduli (GPa) = 65.81480 98.33733 48.57034
#
# Poissons Ratio (x) = 0.33887 0.20858
# Poissons Ratio (y) = 0.22680 0.26725
# Poissons Ratio (z) = 0.28264 0.54109
#
# Static dielectric constant tensor:
#      x y z
#    x 3.508000 0.000000 -0.050610 
#    y 0.000000 3.898220 0.000000 
#    z -0.050610 0.000000 3.086770 
# 
# 
# High freq. dielectric constant tensor:
#      x y z
#    x 1.747950 0.000000 -0.004250 
#    y 0.000000 1.763970 0.000000 
#    z -0.004250 0.000000 1.685470 
# 
# From -- ./inp_files/302853.got.cif
#   From: 2010.06.25/outbox.cif.g09.slc.cpg/sg12_152_cif.got.tgz:302853.got - 2010.06.28 00:19:55.
