data_PCOD8114039
_publ_section_title
;
Structure prediction by ZEFSAII (Michael W. Deem and Ramdas Pophale) SiO2 
 PCOD8114039
Probable space group: C 2/M
;
_chemical_formula_sum "Si O2"
_cell_formula_units_Z 40
_cell_length_a 8.346579
_cell_length_b 18.427166
_cell_length_c 16.299598
_cell_angle_alpha 90.000000
_cell_angle_beta 41.472086
_cell_angle_gamma 90.000000
_cell_volume 1660.233801
_symmetry_space_group_name_H-M "C 2/M"
_symmetry_group_IT_number 12
_symmetry_cell_setting 'monoclinic'
loop_
_space_group_symop_operation_xyz
x,y,z
-x,y,-z
-x,-y,-z
x,-y,z
1/2+x,1/2+y,z
1/2-x,1/2+y,-z
1/2-x,1/2-y,-z
1/2+x,1/2-y,z
loop_
_atom_site_type_symbol
_atom_site_label
_atom_site_fract_x
_atom_site_fract_y
_atom_site_fract_z
Si Si1 0.117774 0.142129 0.677539
Si Si2 0.318116 0.000000 0.330262
Si Si3 0.356355 0.500000 0.420445
Si Si4 0.926167 0.912906 0.911739
Si Si5 0.118610 0.631574 0.169146
Si Si6 0.655516 0.720999 0.362486
O O1 0.240191 0.071862 0.588292
O O2 0.924792 0.111069 0.817549
O O3 0.331719 0.190842 0.636467
O O4 0.981290 0.193661 0.665208
O O5 0.196701 0.000000 0.464406
O O6 0.478620 0.069623 0.268738
O O7 0.149170 0.000000 0.313492
O O8 0.131379 0.863908 0.877108
O O9 0.967213 0.000000 0.905907
O O10 0.675564 0.888822 0.051844
O O11 0.940859 0.700210 0.246967
O O12 0.500000 0.690543 0.500000
#
# Coordination Sequence:
#
# PCOD8114039 Si02
#       6
#     8   4   4   8   8   8
#     4  12  26  46  72 106 147 191 241 300 352 429
#     4  11  20  41  72 106 144 191 234 298 364 424
#     4  11  24  42  72 111 144 183 252 291 356 436
#     4  11  23  44  71 110 148 182 247 299 358 424
#     4  11  22  44  75 103 146 196 231 300 366 427
#     4  12  27  49  72 102 149 195 239 294 366 430
#
# _framework density 24.092993
#
# number of rings (size 3 to 8) (size 9 to 14) (size 15 to 20)
#    0.000    0.600    5.000    3.600    0.000    3.200 
#    0.000    3.500    0.000    0.000    0.000    0.000 
#    0.000    0.000    0.000    0.000    0.000    0.000 
#
# Total GULP energy -247806.481727 kJ/mol
# GULP energy per Si atom -12390.324086 kJ/mol
# Density = 2.403816 g / cm^3
# Si number density = 24.092993 Si / 1000 Ang^3
#
#
#
# Elastic Constant Matrix: (Units=GPa)
#
#
# Indices 1 2 3 4 5 6 
#
# 1 64.4296 37.1797 32.7070 0.0006 19.7500 0.0000
# 2 37.1797 123.4260 23.9322 0.0006 9.7993 -0.0008
# 3 32.7070 23.9322 122.4622 -0.0021 23.7509 0.0007
# 4 0.0006 0.0006 -0.0021 30.2078 0.0001 11.7199
# 5 19.7500 9.7993 23.7509 0.0001 42.9441 -0.0004
# 6 0.0000 -0.0008 0.0007 11.7199 -0.0004 33.6029
#
#
#
# Elastic Compliance Matrix: (Units=1/GPa)
#
#
# Indices 1 2 3 4 5 6 
#
# 1 0.022784 -0.005594 -0.003593 -0.000001 -0.007215 0.000000
# 2 -0.005594 0.009844 -0.000552 0.000000 0.000632 0.000000
# 3 -0.003593 -0.000552 0.009956 0.000001 -0.003728 -0.000001
# 4 -0.000001 0.000000 0.000001 0.038285 0.000000 -0.013353
# 5 -0.007215 0.000632 -0.003728 0.000000 0.028522 0.000001
# 6 0.000000 0.000000 -0.000001 -0.013353 0.000001 0.034416
#
#
# Mechanical properties :
#
#
# Convention : Reuss Voigt Hill
#
# Bulk Modulus (GPa) = 43.27713 55.32841 49.30277
# Shear Modulus (GPa) = 29.24188 35.78421 32.51305
#
# Velocity S-wave (km/s) = 3.48761 3.85808 3.67751
# Velocity P-wave (km/s) = 5.84974 6.54681 6.20807
#
# Compressibility (1/GPa) = 0.02310689
#
# Stress axis : x y z
#
# Youngs Moduli (GPa) = 43.88994 101.58479 100.43883
#
# Poissons Ratio (x) = 0.56825 0.36084
# Poissons Ratio (y) = 0.24551 0.05547
# Poissons Ratio (z) = 0.15768 0.05611
#
# Static dielectric constant tensor:
#      x y z
#    x 4.320740 0.000000 -0.044650 
#    y 0.000000 4.133290 0.000000 
#    z -0.044650 0.000000 5.038400 
# 
# 
# High freq. dielectric constant tensor:
#      x y z
#    x 1.940160 0.000000 0.015070 
#    y 0.000000 1.957390 0.000000 
#    z 0.015070 0.000000 1.972500 
# 
# From -- ./inp_files/257870.got.cif
#   From: 2010.06.25/outbox.cif.g09.slc.cpg/sg12_129_cif.got.tgz:257870.got - 2010.06.28 00:19:55.
