data_PCOD8114802
_publ_section_title
;
Structure prediction by ZEFSAII (Michael W. Deem and Ramdas Pophale) SiO2 
 PCOD8114802
Probable space group: C 2/M
;
_chemical_formula_sum "Si O2"
_cell_formula_units_Z 64
_cell_length_a 9.941618
_cell_length_b 26.348585
_cell_length_c 14.609869
_cell_angle_alpha 90.000000
_cell_angle_beta 58.127056
_cell_angle_gamma 90.000000
_cell_volume 3249.985942
_symmetry_space_group_name_H-M "C 2/M"
_symmetry_group_IT_number 12
_symmetry_cell_setting 'monoclinic'
loop_
_space_group_symop_operation_xyz
x,y,z
-x,y,-z
-x,-y,-z
x,-y,z
1/2+x,1/2+y,z
1/2-x,1/2+y,-z
1/2-x,1/2-y,-z
1/2+x,1/2-y,z
loop_
_atom_site_type_symbol
_atom_site_label
_atom_site_fract_x
_atom_site_fract_y
_atom_site_fract_z
Si Si1 0.429854 0.687149 0.240713
Si Si2 0.942481 0.795295 0.615351
Si Si3 0.057919 0.321625 0.381455
Si Si4 0.062902 0.282483 0.079248
Si Si5 0.153451 0.444373 0.820746
Si Si6 0.123921 0.348096 0.730650
Si Si7 0.290964 0.055654 0.991755
Si Si8 0.630888 0.654663 0.023472
O O1 0.463134 0.679806 0.335535
O O2 0.244850 0.675668 0.292718
O O3 0.498174 0.740034 0.173400
O O4 0.536598 0.644832 0.152236
O O5 0.991423 0.736781 0.601666
O O6 0.754931 0.803633 0.686090
O O7 0.000000 0.820397 0.500000
O O8 0.000000 0.344972 0.500000
O O9 0.964507 0.350986 0.335043
O O10 0.996004 0.335589 0.143353
O O11 0.253259 0.295315 0.011177
O O12 0.000000 0.273675 0.000000
O O13 0.221095 0.500000 0.768242
O O14 0.203461 0.402536 0.726825
O O15 0.214279 0.429235 0.899470
O O16 0.965239 0.448034 0.889989
O O17 0.204802 0.100901 0.967440
O O18 0.210094 0.000000 0.006079
O O19 0.500000 0.673821 0.000000
#
# Coordination Sequence:
#
# PCOD8114802 Si02
#       8
#     8   8   8   8   8   8   8   8
#     4  12  24  38  54  79 117 156 189 229 282 339
#     4  11  22  38  58  82 109 146 195 245 289 335
#     4  11  23  40  58  82 112 147 194 246 289 334
#     4  12  23  38  54  79 116 160 194 220 262 339
#     4   9  18  34  60  86 109 146 198 239 273 329
#     4  12  21  36  62  83 113 152 192 236 285 338
#     4   9  18  35  56  82 115 149 187 234 275 325
#     4  12  25  35  54  84 121 155 186 224 280 343
#
# _framework density 19.692392999999999
#
# number of rings (size 3 to 8) (size 9 to 14) (size 15 to 20)
#    0.000    1.000    3.750    5.250    0.000    2.250 
#    0.000    0.000    0.000    0.750    0.000    1.750 
#    0.000    0.000    0.000    0.000    0.000    0.000 
#
# Total GULP energy -396567.873783 kJ/mol
# GULP energy per Si atom -12392.746056 kJ/mol
# Density = 1.964757 g / cm^3
# Si number density = 19.692393 Si / 1000 Ang^3
#
#
#
# Elastic Constant Matrix: (Units=GPa)
#
#
# Indices 1 2 3 4 5 6 
#
# 1 99.0017 21.3600 17.7593 0.0000 10.8017 0.0000
# 2 21.3600 75.1897 16.6201 0.0000 4.6175 0.0000
# 3 17.7593 16.6201 76.2009 0.0000 14.4393 0.0000
# 4 0.0000 0.0000 0.0000 13.1102 0.0000 2.4312
# 5 10.8017 4.6175 14.4393 0.0000 37.0841 0.0000
# 6 0.0000 0.0000 0.0000 2.4312 0.0000 16.2702
#
#
#
# Elastic Compliance Matrix: (Units=1/GPa)
#
#
# Indices 1 2 3 4 5 6 
#
# 1 0.011220 -0.002694 -0.001589 0.000000 -0.002314 0.000000
# 2 -0.002694 0.014632 -0.002556 0.000000 -0.000042 0.000000
# 3 -0.001589 -0.002556 0.015010 0.000000 -0.005064 0.000000
# 4 0.000000 0.000000 0.000000 0.078450 0.000000 -0.011723
# 5 -0.002314 -0.000042 -0.005064 0.000000 0.029617 0.000000
# 6 0.000000 0.000000 0.000000 -0.011723 0.000000 0.063214
#
#
# Mechanical properties :
#
#
# Convention : Reuss Voigt Hill
#
# Bulk Modulus (GPa) = 36.78410 40.20792 38.49601
# Shear Modulus (GPa) = 21.28733 26.26976 23.77855
#
# Velocity S-wave (km/s) = 3.29141 3.65637 3.47868
# Velocity P-wave (km/s) = 5.75886 6.18770 5.97713
#
# Compressibility (1/GPa) = 0.02718566
#
# Stress axis : x y z
#
# Youngs Moduli (GPa) = 89.13028 68.34107 66.62055
#
# Poissons Ratio (x) = 0.18411 0.10584
# Poissons Ratio (y) = 0.24011 0.17026
# Poissons Ratio (z) = 0.14161 0.17465
#
# Static dielectric constant tensor:
#      x y z
#    x 3.534820 0.000000 -0.015540 
#    y 0.000000 3.976650 0.000000 
#    z -0.015540 0.000000 3.821330 
# 
# 
# High freq. dielectric constant tensor:
#      x y z
#    x 1.768680 0.000000 0.001890 
#    y 0.000000 1.743470 0.000000 
#    z 0.001890 0.000000 1.758180 
# 
# From -- ./inp_files/200923.got.cif
#   From: 2010.06.25/outbox.cif.g09.slc.cpg/sg12_101_cif.got.tgz:200923.got - 2010.06.28 00:19:55.
