data_PCOD8114923
_publ_section_title
;
Structure prediction by ZEFSAII (Michael W. Deem and Ramdas Pophale) SiO2 
 PCOD8114923
Probable space group: C 2/M
;
_chemical_formula_sum "Si O2"
_cell_formula_units_Z 48
_cell_length_a 14.600370
_cell_length_b 8.603522
_cell_length_c 18.537949
_cell_angle_alpha 90.000000
_cell_angle_beta 93.724766
_cell_angle_gamma 90.000000
_cell_volume 2323.718191
_symmetry_space_group_name_H-M "C 2/M"
_symmetry_group_IT_number 12
_symmetry_cell_setting 'monoclinic'
loop_
_space_group_symop_operation_xyz
x,y,z
-x,y,-z
-x,-y,-z
x,-y,z
1/2+x,1/2+y,z
1/2-x,1/2+y,-z
1/2-x,1/2-y,-z
1/2+x,1/2-y,z
loop_
_atom_site_type_symbol
_atom_site_label
_atom_site_fract_x
_atom_site_fract_y
_atom_site_fract_z
Si Si1 0.607769 0.322024 0.515588
Si Si2 0.990538 0.683717 0.885438
Si Si3 0.855896 0.682910 0.631997
Si Si4 0.674663 0.182184 0.665557
Si Si5 0.148655 0.317674 0.999721
Si Si6 0.988274 0.181333 0.267142
O O1 0.500000 0.307811 0.500000
O O2 0.638225 0.500000 0.530158
O O3 0.658016 0.256823 0.447541
O O4 0.635939 0.219204 0.584689
O O5 0.990834 0.500000 0.870177
O O6 0.980636 0.777870 0.811501
O O7 0.084984 0.735619 0.929502
O O8 0.902718 0.731911 0.929265
O O9 0.846056 0.500000 0.624993
O O10 0.777467 0.753149 0.679449
O O11 0.953151 0.725802 0.670902
O O12 0.616294 0.267136 0.724922
O O13 0.672951 0.000000 0.680067
O O14 0.158317 0.500000 0.998270
O O15 0.250000 0.250000 0.000000
O O16 0.000969 0.000000 0.282417
#
# Coordination Sequence:
#
# PCOD8114923 Si02
#       6
#     8   8   8   8   8   8
#     4  11  22  39  64  90 121 157 201 255 308 366
#     4   9  20  40  61  87 123 164 199 239 296 358
#     4  12  25  42  64  89 120 160 206 255 309 366
#     4  12  25  42  64  89 120 160 206 255 309 366
#     4   9  19  37  64  92 122 157 199 243 291 350
#     4  12  25  42  62  90 125 162 204 252 305 364
#
# _framework density 20.656548999999998
#
# number of rings (size 3 to 8) (size 9 to 14) (size 15 to 20)
#    0.000    1.167    1.667    6.500    0.000    3.333 
#    0.000    5.000    0.000    0.000    0.000    0.000 
#    0.000    0.000    0.000    0.000    0.000    0.000 
#
# Total GULP energy -297712.101478 kJ/mol
# GULP energy per Si atom -12404.670895 kJ/mol
# Density = 2.060953 g / cm^3
# Si number density = 20.656549 Si / 1000 Ang^3
#
#
#
# Elastic Constant Matrix: (Units=GPa)
#
#
# Indices 1 2 3 4 5 6 
#
# 1 110.3551 31.0303 22.5366 0.0000 -18.9556 0.0000
# 2 31.0303 69.7519 21.3564 0.0000 -4.0209 0.0000
# 3 22.5366 21.3564 82.0293 0.0000 -16.5126 0.0000
# 4 0.0000 0.0000 0.0000 32.1915 0.0000 -0.8495
# 5 -18.9556 -4.0209 -16.5126 0.0000 26.5102 0.0000
# 6 0.0000 0.0000 0.0000 -0.8495 0.0000 37.8333
#
#
#
# Elastic Compliance Matrix: (Units=1/GPa)
#
#
# Indices 1 2 3 4 5 6 
#
# 1 0.011738 -0.004633 -0.000538 0.000000 0.007355 0.000000
# 2 -0.004633 0.017408 -0.003881 0.000000 -0.003090 0.000000
# 3 -0.000538 -0.003881 0.015039 0.000000 0.008394 0.000000
# 4 0.000000 0.000000 0.000000 0.031083 0.000000 0.000698
# 5 0.007355 -0.003090 0.008394 0.000000 0.047740 0.000000
# 6 0.000000 0.000000 0.000000 0.000698 0.000000 0.026447
#
#
# Mechanical properties :
#
#
# Convention : Reuss Voigt Hill
#
# Bulk Modulus (GPa) = 38.34410 45.77587 42.05999
# Shear Modulus (GPa) = 28.36848 31.78786 30.07817
#
# Velocity S-wave (km/s) = 3.70988 3.92711 3.82004
# Velocity P-wave (km/s) = 6.07898 6.53999 6.31369
#
# Compressibility (1/GPa) = 0.02607963
#
# Stress axis : x y z
#
# Youngs Moduli (GPa) = 85.19636 57.44548 66.49466
#
# Poissons Ratio (x) = 0.26614 0.03578
# Poissons Ratio (y) = 0.39471 0.25809
# Poissons Ratio (z) = 0.04584 0.22296
#
# Static dielectric constant tensor:
#      x y z
#    x 3.633200 0.000000 -0.146330 
#    y 0.000000 3.675720 0.000000 
#    z -0.146330 0.000000 3.675500 
# 
# 
# High freq. dielectric constant tensor:
#      x y z
#    x 1.822720 0.000000 -0.010510 
#    y 0.000000 1.811240 0.000000 
#    z -0.010510 0.000000 1.801180 
# 
# From -- ./inp_files/267616.got.cif
#   From: 2010.06.25/outbox.cif.g09.slc.cpg/sg12_134_cif.got.tgz:267616.got - 2010.06.28 00:19:55.
