data_PCOD8114931
_publ_section_title
;
Structure prediction by ZEFSAII (Michael W. Deem and Ramdas Pophale) SiO2 
 PCOD8114931
Probable space group: C 2/M
;
_chemical_formula_sum "Si O2"
_cell_formula_units_Z 40
_cell_length_a 11.149071
_cell_length_b 20.644010
_cell_length_c 7.910351
_cell_angle_alpha 90.000000
_cell_angle_beta 78.084271
_cell_angle_gamma 90.000000
_cell_volume 1781.427585
_symmetry_space_group_name_H-M "C 2/M"
_symmetry_group_IT_number 12
_symmetry_cell_setting 'monoclinic'
loop_
_space_group_symop_operation_xyz
x,y,z
-x,y,-z
-x,-y,-z
x,-y,z
1/2+x,1/2+y,z
1/2-x,1/2+y,-z
1/2-x,1/2-y,-z
1/2+x,1/2-y,z
loop_
_atom_site_type_symbol
_atom_site_label
_atom_site_fract_x
_atom_site_fract_y
_atom_site_fract_z
Si Si1 0.288051 0.627142 0.252052
Si Si2 0.083826 0.000000 0.724846
Si Si3 0.058089 0.574304 0.165797
Si Si4 0.139491 0.741716 0.899025
Si Si5 0.324936 0.500000 0.683876
Si Si6 0.319647 0.121295 0.345933
O O1 0.370210 0.564172 0.195451
O O2 0.173558 0.621858 0.155748
O O3 0.370344 0.689763 0.194083
O O4 0.242121 0.631854 0.456751
O O5 0.131156 0.000000 0.520713
O O6 0.937569 0.000000 0.779594
O O7 0.098122 0.500000 0.183832
O O8 0.957839 0.595551 0.333800
O O9 0.000000 0.586746 0.000000
O O10 0.184579 0.687720 0.755369
O O11 0.250000 0.750000 0.000000
O O12 0.000000 0.725190 0.000000
O O13 0.247374 0.564775 0.743025
#
# Coordination Sequence:
#
# PCOD8114931 Si02
#       6
#     8   4   8   8   4   8
#     4  11  23  43  70  99 130 174 227 274 330 398
#     4   9  20  39  62  98 131 163 214 277 326 389
#     4  11  22  39  65 100 139 172 210 270 341 403
#     4  12  28  48  66  94 140 182 225 277 342 403
#     4   9  20  37  65  97 132 162 212 276 335 380
#     4  11  22  42  71 100 129 173 225 279 328 397
#
# _framework density 22.453903
#
# number of rings (size 3 to 8) (size 9 to 14) (size 15 to 20)
#    0.000    1.200    2.000    4.200    2.800    0.800 
#    0.000    2.500    0.000    0.000    0.000    0.000 
#    0.000    0.000    0.000    0.000    0.000    0.000 
#
# Total GULP energy -247995.713986 kJ/mol
# GULP energy per Si atom -12399.785699 kJ/mol
# Density = 2.240280 g / cm^3
# Si number density = 22.453903 Si / 1000 Ang^3
#
#
#
# Elastic Constant Matrix: (Units=GPa)
#
#
# Indices 1 2 3 4 5 6 
#
# 1 131.0832 41.4864 15.0504 0.0000 13.9758 0.0000
# 2 41.4864 181.1385 35.6919 0.0000 2.7980 0.0000
# 3 15.0504 35.6919 57.5304 0.0000 6.2416 0.0000
# 4 0.0000 0.0000 0.0000 35.5083 0.0000 -8.0759
# 5 13.9758 2.7980 6.2416 0.0000 25.8191 0.0000
# 6 0.0000 0.0000 0.0000 -8.0759 0.0000 37.8154
#
#
#
# Elastic Compliance Matrix: (Units=1/GPa)
#
#
# Indices 1 2 3 4 5 6 
#
# 1 0.008744 -0.001798 -0.000698 0.000000 -0.004369 0.000000
# 2 -0.001798 0.006661 -0.003789 0.000000 0.001167 0.000000
# 3 -0.000698 -0.003789 0.020364 0.000000 -0.004134 0.000000
# 4 0.000000 0.000000 0.000000 0.029600 0.000000 0.006321
# 5 -0.004369 0.001167 -0.004134 0.000000 0.041969 0.000000
# 6 0.000000 0.000000 0.000000 0.006321 0.000000 0.027794
#
#
# Mechanical properties :
#
#
# Convention : Reuss Voigt Hill
#
# Bulk Modulus (GPa) = 43.10457 61.57885 52.34171
# Shear Modulus (GPa) = 32.16801 38.33012 35.24906
#
# Velocity S-wave (km/s) = 3.78911 4.13614 3.96642
# Velocity P-wave (km/s) = 6.19530 7.09185 6.65868
#
# Compressibility (1/GPa) = 0.02319940
#
# Stress axis : x y z
#
# Youngs Moduli (GPa) = 114.36873 150.13129 49.10667
#
# Poissons Ratio (x) = 0.26986 0.03429
# Poissons Ratio (y) = 0.20558 0.18605
# Poissons Ratio (z) = 0.07985 0.56881
#
# Static dielectric constant tensor:
#      x y z
#    x 4.195890 0.000000 -0.150260 
#    y 0.000000 4.346870 0.000000 
#    z -0.150260 0.000000 3.826980 
# 
# 
# High freq. dielectric constant tensor:
#      x y z
#    x 1.889560 0.000000 -0.006080 
#    y 0.000000 1.904910 0.000000 
#    z -0.006080 0.000000 1.876190 
# 
# From -- ./inp_files/48638.got.cif
#   From: 2010.06.25/outbox.cif.g09.slc.cpg/sg12_25_cif.got.tgz:48638.got - 2010.06.28 00:19:55.
