data_PCOD8114848
_publ_section_title
;
Structure prediction by ZEFSAII (Michael W. Deem and Ramdas Pophale) SiO2 
 PCOD8114848
Probable space group: C 2/M
;
_chemical_formula_sum "Si O2"
_cell_formula_units_Z 64
_cell_length_a 18.050706
_cell_length_b 18.925068
_cell_length_c 14.216527
_cell_angle_alpha 90.000000
_cell_angle_beta 39.657787
_cell_angle_gamma 90.000000
_cell_volume 3099.434689
_symmetry_space_group_name_H-M "C 2/M"
_symmetry_group_IT_number 12
_symmetry_cell_setting 'monoclinic'
loop_
_space_group_symop_operation_xyz
x,y,z
-x,y,-z
-x,-y,-z
x,-y,z
1/2+x,1/2+y,z
1/2-x,1/2+y,-z
1/2-x,1/2-y,-z
1/2+x,1/2-y,z
loop_
_atom_site_type_symbol
_atom_site_label
_atom_site_fract_x
_atom_site_fract_y
_atom_site_fract_z
Si Si1 0.661299 0.648713 0.320459
Si Si2 0.654460 0.579977 0.512630
Si Si3 0.907073 0.080888 0.808979
Si Si4 0.868759 0.313356 0.611580
Si Si5 0.171686 0.316880 0.563472
Si Si6 0.220990 0.823589 0.924135
Si Si7 0.383380 0.079926 0.056838
Si Si8 0.413596 0.804896 0.882605
O O1 0.598877 0.609344 0.468559
O O2 0.627941 0.625769 0.248250
O O3 0.638593 0.730535 0.358088
O O4 0.794786 0.625735 0.205931
O O5 0.694645 0.500000 0.457655
O O6 0.545847 0.586070 0.690498
O O7 0.768249 0.619039 0.439911
O O8 0.868771 0.000000 0.831752
O O9 0.842964 0.111477 0.962897
O O10 0.836351 0.335404 0.538206
O O11 0.770684 0.349271 0.774437
O O12 0.000000 0.340642 0.500000
O O13 0.250000 0.250000 0.500000
O O14 0.047504 0.295424 0.726434
O O15 0.336839 0.797899 0.864455
O O16 0.130903 0.757468 0.003579
O O17 0.339366 0.000000 0.081816
O O18 0.500000 0.079933 0.000000
O O19 0.397295 0.117627 0.942660
#
# Coordination Sequence:
#
# PCOD8114848 Si02
#       8
#     8   8   8   8   8   8   8   8
#     4  12  21  37  64  97 132 166 203 259 325 393
#     4  11  24  42  63  95 134 171 211 264 323 387
#     4  11  23  41  67  96 129 170 215 263 322 389
#     4  12  24  42  67  95 129 168 214 269 315 378
#     4  12  25  42  64  94 128 173 218 262 318 381
#     4  11  22  41  63  93 122 165 216 269 308 369
#     4  11  23  37  56  91 134 170 201 249 323 391
#     4  11  22  38  62  88 128 169 211 257 314 372
#
# _framework density 20.648927
#
# number of rings (size 3 to 8) (size 9 to 14) (size 15 to 20)
#    0.000    0.625    5.000    4.500    0.000    2.500 
#    0.000    2.500    0.000    2.250    0.000    0.000 
#    0.000    0.000    0.000    0.000    0.000    0.000 
#
# Total GULP energy -396719.108644 kJ/mol
# GULP energy per Si atom -12397.472145 kJ/mol
# Density = 2.060193 g / cm^3
# Si number density = 20.648927 Si / 1000 Ang^3
#
#
#
# Elastic Constant Matrix: (Units=GPa)
#
#
# Indices 1 2 3 4 5 6 
#
# 1 76.3156 17.8084 30.8130 0.0000 6.9314 0.0000
# 2 17.8084 76.8487 16.8905 0.0000 3.1923 0.0000
# 3 30.8130 16.8905 142.2201 -0.0001 -0.5447 0.0000
# 4 0.0000 0.0000 -0.0001 29.2316 0.0000 0.5424
# 5 6.9314 3.1923 -0.5447 0.0000 38.2685 0.0000
# 6 0.0000 0.0000 0.0000 0.5424 0.0000 23.7441
#
#
#
# Elastic Compliance Matrix: (Units=1/GPa)
#
#
# Indices 1 2 3 4 5 6 
#
# 1 0.015179 -0.002758 -0.002971 0.000000 -0.002562 0.000000
# 2 -0.002758 0.013912 -0.001057 0.000000 -0.000676 0.000000
# 3 -0.002971 -0.001057 0.007803 0.000000 0.000737 0.000000
# 4 0.000000 0.000000 0.000000 0.034224 0.000000 -0.000782
# 5 -0.002562 -0.000676 0.000737 0.000000 0.026662 0.000000
# 6 0.000000 0.000000 0.000000 -0.000782 0.000000 0.042134
#
#
# Mechanical properties :
#
#
# Convention : Reuss Voigt Hill
#
# Bulk Modulus (GPa) = 42.87765 47.37868 45.12817
# Shear Modulus (GPa) = 31.00557 33.57367 32.28962
#
# Velocity S-wave (km/s) = 3.87920 4.03665 3.95871
# Velocity P-wave (km/s) = 6.39331 6.68736 6.54199
#
# Compressibility (1/GPa) = 0.02332217
#
# Stress axis : x y z
#
# Youngs Moduli (GPa) = 65.87920 71.87938 128.14889
#
# Poissons Ratio (x) = 0.19825 0.38072
# Poissons Ratio (y) = 0.18170 0.13549
# Poissons Ratio (z) = 0.19572 0.07600
#
# Static dielectric constant tensor:
#      x y z
#    x 3.990800 0.000000 -0.121570 
#    y 0.000000 3.480670 0.000000 
#    z -0.121570 0.000000 4.266200 
# 
# 
# High freq. dielectric constant tensor:
#      x y z
#    x 1.794010 0.000000 -0.012570 
#    y 0.000000 1.790580 0.000000 
#    z -0.012570 0.000000 1.833670 
# 
# From -- ./inp_files/226816.got.cif
#   From: 2010.06.25/outbox.cif.g09.slc.cpg/sg12_114_cif.got.tgz:226816.got - 2010.06.28 00:19:55.
