data_PCOD8114994
_publ_section_title
;
Structure prediction by ZEFSAII (Michael W. Deem and Ramdas Pophale) SiO2 
 PCOD8114994
Probable space group: C 2/M
;
_chemical_formula_sum "Si O2"
_cell_formula_units_Z 56
_cell_length_a 13.762212
_cell_length_b 17.859532
_cell_length_c 12.071849
_cell_angle_alpha 90.000000
_cell_angle_beta 118.574649
_cell_angle_gamma 90.000000
_cell_volume 2605.691040
_symmetry_space_group_name_H-M "C 2/M"
_symmetry_group_IT_number 12
_symmetry_cell_setting 'monoclinic'
loop_
_space_group_symop_operation_xyz
x,y,z
-x,y,-z
-x,-y,-z
x,-y,z
1/2+x,1/2+y,z
1/2-x,1/2+y,-z
1/2-x,1/2-y,-z
1/2+x,1/2-y,z
loop_
_atom_site_type_symbol
_atom_site_label
_atom_site_fract_x
_atom_site_fract_y
_atom_site_fract_z
Si Si1 0.987176 0.412163 0.765352
Si Si2 0.123810 0.810277 0.100734
Si Si3 0.413577 0.801235 0.545978
Si Si4 0.766651 0.586023 0.027764
Si Si5 0.702500 0.147977 0.190643
Si Si6 0.626357 0.585018 0.551365
Si Si7 0.830170 0.165288 0.635903
O O1 0.966671 0.500000 0.742284
O O2 0.955274 0.375366 0.631268
O O3 0.913887 0.381010 0.825997
O O4 0.113203 0.392076 0.861054
O O5 0.175815 0.862116 0.035176
O O6 0.194389 0.734392 0.151504
O O7 0.124165 0.854737 0.217677
O O8 0.000000 0.789449 0.000000
O O9 0.500000 0.776135 0.500000
O O10 0.298629 0.816151 0.422058
O O11 0.399882 0.735853 0.628651
O O12 0.738178 0.500000 0.038011
O O13 0.761677 0.598198 0.893687
O O14 0.796465 0.140747 0.336364
O O15 0.500000 0.607281 0.500000
O O16 0.651156 0.500000 0.600165
O O17 0.653745 0.594887 0.436576
#
# Coordination Sequence:
#
# PCOD8114994 Si02
#       7
#     8   8   8   8   8   8   8
#     4  11  22  41  69 101 139 180 229 285 349 416
#     4  12  27  46  70 103 138 188 238 285 345 415
#     4  11  22  40  66  96 135 177 226 283 351 413
#     4  11  26  44  68 103 141 187 233 286 350 412
#     4  12  23  45  73 103 139 180 235 289 345 411
#     4  11  25  43  71 106 137 183 236 286 352 421
#     4  11  23  43  65  97 135 180 227 285 349 407
#
# _framework density 21.491417999999999
#
# number of rings (size 3 to 8) (size 9 to 14) (size 15 to 20)
#    0.000    0.714    2.857    5.143    2.000    3.429 
#    0.000    0.000    0.000    0.000    0.000    0.000 
#    0.000    0.000    0.000    0.000    0.000    0.000 
#
# Total GULP energy -347405.977204 kJ/mol
# GULP energy per Si atom -12407.356329 kJ/mol
# Density = 2.144250 g / cm^3
# Si number density = 21.491418 Si / 1000 Ang^3
#
#
#
# Elastic Constant Matrix: (Units=GPa)
#
#
# Indices 1 2 3 4 5 6 
#
# 1 120.6679 37.6782 28.3055 0.0000 0.2279 0.0000
# 2 37.6782 93.8519 26.3643 0.0000 9.2460 0.0000
# 3 28.3055 26.3643 109.1416 0.0000 -3.0492 0.0000
# 4 0.0000 0.0000 0.0000 31.6024 0.0000 -6.0836
# 5 0.2279 9.2460 -3.0492 0.0000 29.6783 0.0000
# 6 0.0000 0.0000 0.0000 -6.0836 0.0000 27.4428
#
#
#
# Elastic Compliance Matrix: (Units=1/GPa)
#
#
# Indices 1 2 3 4 5 6 
#
# 1 0.009781 -0.003546 -0.001656 0.000000 0.000860 0.000000
# 2 -0.003546 0.013174 -0.002383 0.000000 -0.004322 0.000000
# 3 -0.001656 -0.002383 0.010218 0.000000 0.001805 0.000000
# 4 0.000000 0.000000 0.000000 0.033054 0.000000 0.007327
# 5 0.000860 -0.004322 0.001805 0.000000 0.035220 0.000000
# 6 0.000000 0.000000 0.000000 0.007327 0.000000 0.038064
#
#
# Mechanical properties :
#
#
# Convention : Reuss Voigt Hill
#
# Bulk Modulus (GPa) = 55.54948 56.48417 56.01682
# Shear Modulus (GPa) = 31.11710 33.16559 32.14135
#
# Velocity S-wave (km/s) = 3.80924 3.93262 3.87142
# Velocity P-wave (km/s) = 6.72684 6.85273 6.79008
#
# Compressibility (1/GPa) = 0.01800197
#
# Stress axis : x y z
#
# Youngs Moduli (GPa) = 102.23486 75.90636 97.86585
#
# Poissons Ratio (x) = 0.26919 0.16208
# Poissons Ratio (y) = 0.36256 0.23325
# Poissons Ratio (z) = 0.16931 0.18091
#
# Static dielectric constant tensor:
#      x y z
#    x 3.963470 0.000000 -0.005380 
#    y 0.000000 3.798880 0.000000 
#    z -0.005380 0.000000 3.963720 
# 
# 
# High freq. dielectric constant tensor:
#      x y z
#    x 1.851220 0.000000 0.001080 
#    y 0.000000 1.842880 0.000000 
#    z 0.001080 0.000000 1.850620 
# 
# From -- ./inp_files/146222.got.cif
#   From: 2010.06.25/outbox.cif.g09.slc.cpg/sg12_74_cif.got.tgz:146222.got - 2010.06.28 00:19:55.
