data_PCOD8114960
_publ_section_title
;
Structure prediction by ZEFSAII (Michael W. Deem and Ramdas Pophale) SiO2 
 PCOD8114960
Probable space group: C 2/M
;
_chemical_formula_sum "Si O2"
_cell_formula_units_Z 56
_cell_length_a 9.597619
_cell_length_b 22.638630
_cell_length_c 16.816795
_cell_angle_alpha 90.000000
_cell_angle_beta 50.431770
_cell_angle_gamma 90.000000
_cell_volume 2816.670787
_symmetry_space_group_name_H-M "C 2/M"
_symmetry_group_IT_number 12
_symmetry_cell_setting 'monoclinic'
loop_
_space_group_symop_operation_xyz
x,y,z
-x,y,-z
-x,-y,-z
x,-y,z
1/2+x,1/2+y,z
1/2-x,1/2+y,-z
1/2-x,1/2-y,-z
1/2+x,1/2-y,z
loop_
_atom_site_type_symbol
_atom_site_label
_atom_site_fract_x
_atom_site_fract_y
_atom_site_fract_z
Si Si1 0.643283 0.374326 0.323317
Si Si2 0.090375 0.566957 0.653424
Si Si3 0.558858 0.252810 0.612003
Si Si4 0.711231 0.434919 0.582655
Si Si5 0.807768 0.355942 0.693017
Si Si6 0.853911 0.679279 0.113902
Si Si7 0.507308 0.271606 0.811418
O O1 0.775567 0.392133 0.345822
O O2 0.551731 0.311095 0.374166
O O3 0.492749 0.424786 0.372779
O O4 0.755278 0.372185 0.199653
O O5 0.080509 0.500000 0.690601
O O6 0.152058 0.567894 0.540066
O O7 0.891511 0.597140 0.725567
O O8 0.750000 0.250000 0.500000
O O9 0.447193 0.196425 0.624650
O O10 0.584184 0.251042 0.697952
O O11 0.721752 0.500000 0.617955
O O12 0.766124 0.385212 0.624025
O O13 0.620613 0.329964 0.796597
O O14 0.705692 0.715482 0.116965
O O15 0.960090 0.721325 0.136086
O O16 0.000000 0.651715 0.000000
#
# Coordination Sequence:
#
# PCOD8114960 Si02
#       7
#     8   8   8   8   8   8   8
#     4  11  22  41  61  90 122 157 206 256 306 368
#     4  11  25  40  60  87 123 171 213 247 292 359
#     4  11  24  37  58  93 135 170 192 243 309 375
#     4  11  23  40  60  85 123 170 215 247 288 357
#     4  12  22  39  58  87 130 162 207 243 295 359
#     4  11  23  42  64  91 121 159 203 255 315 375
#     4  11  22  40  57  92 126 161 197 241 306 373
#
# _framework density 19.881629
#
# number of rings (size 3 to 8) (size 9 to 14) (size 15 to 20)
#    0.000    0.857    5.714    3.857    2.000    3.429 
#    0.000    0.714    0.000    1.714    0.000    1.000 
#    0.000    0.000    0.000    0.000    0.000    0.000 
#
# Total GULP energy -347219.658284 kJ/mol
# GULP energy per Si atom -12400.702082 kJ/mol
# Density = 1.983638 g / cm^3
# Si number density = 19.881629 Si / 1000 Ang^3
#
#
#
# Elastic Constant Matrix: (Units=GPa)
#
#
# Indices 1 2 3 4 5 6 
#
# 1 76.7925 -5.3966 -8.9750 0.0000 4.7677 0.0000
# 2 -5.3966 68.9399 2.0903 0.0000 10.4879 0.0000
# 3 -8.9750 2.0903 60.8569 0.0000 -13.9118 0.0000
# 4 0.0000 0.0000 0.0000 15.8688 0.0000 5.3423
# 5 4.7677 10.4879 -13.9118 0.0000 21.9480 0.0000
# 6 0.0000 0.0000 0.0000 5.3423 0.0000 33.9836
#
#
#
# Elastic Compliance Matrix: (Units=1/GPa)
#
#
# Indices 1 2 3 4 5 6 
#
# 1 0.013448 0.001437 0.001297 0.000000 -0.002786 0.000000
# 2 0.001437 0.016164 -0.002550 0.000000 -0.009652 0.000000
# 3 0.001297 -0.002550 0.019793 0.000000 0.013482 0.000000
# 4 0.000000 0.000000 0.000000 0.066538 0.000000 -0.010460
# 5 -0.002786 -0.009652 0.013482 0.000000 0.059325 0.000000
# 6 0.000000 0.000000 0.000000 -0.010460 0.000000 0.031070
#
#
# Mechanical properties :
#
#
# Convention : Reuss Voigt Hill
#
# Bulk Modulus (GPa) = 20.09118 20.22520 20.15819
# Shear Modulus (GPa) = 22.46583 28.95144 25.70864
#
# Velocity S-wave (km/s) = 3.36516 3.82015 3.59985
# Velocity P-wave (km/s) = 5.02259 5.44545 5.23829
#
# Compressibility (1/GPa) = 0.04977309
#
# Stress axis : x y z
#
# Youngs Moduli (GPa) = 74.36244 61.86744 50.52316
#
# Poissons Ratio (x) = -0.08891 -0.06553
# Poissons Ratio (y) = -0.10687 0.12882
# Poissons Ratio (z) = -0.09645 0.15774
#
# Static dielectric constant tensor:
#      x y z
#    x 4.017290 0.000000 -0.123130 
#    y 0.000000 3.880570 0.000000 
#    z -0.123130 0.000000 3.407240 
# 
# 
# High freq. dielectric constant tensor:
#      x y z
#    x 1.808050 0.000000 -0.002950 
#    y 0.000000 1.768770 0.000000 
#    z -0.002950 0.000000 1.731230 
# 
# From -- ./inp_files/198374.got.cif
#   From: 2010.06.25/outbox.cif.g09.slc.cpg/sg12_100_cif.got.tgz:198374.got - 2010.06.28 00:19:55.
