data_PCOD8114542
_publ_section_title
;
Structure prediction by ZEFSAII (Michael W. Deem and Ramdas Pophale) SiO2 
 PCOD8114542
Probable space group: C 2/M
;
_chemical_formula_sum "Si O2"
_cell_formula_units_Z 44
_cell_length_a 18.274854
_cell_length_b 14.943123
_cell_length_c 24.861190
_cell_angle_alpha 90.000000
_cell_angle_beta 18.310017
_cell_angle_gamma 90.000000
_cell_volume 2132.877585
_symmetry_space_group_name_H-M "C 2/M"
_symmetry_group_IT_number 12
_symmetry_cell_setting 'monoclinic'
loop_
_space_group_symop_operation_xyz
x,y,z
-x,y,-z
-x,-y,-z
x,-y,z
1/2+x,1/2+y,z
1/2-x,1/2+y,-z
1/2-x,1/2-y,-z
1/2+x,1/2-y,z
loop_
_atom_site_type_symbol
_atom_site_label
_atom_site_fract_x
_atom_site_fract_y
_atom_site_fract_z
Si Si1 0.201541 0.348554 0.512742
Si Si2 0.646889 0.158156 0.816375
Si Si3 0.994223 0.500000 0.276068
Si Si4 0.863657 0.345443 0.648640
Si Si5 0.272868 0.000000 0.315374
Si Si6 0.298444 0.600830 0.821556
Si Si7 0.022059 0.000000 0.920572
O O1 0.250000 0.250000 0.500000
O O2 0.451070 0.392373 0.325409
O O3 0.064043 0.409829 0.650870
O O4 0.053575 0.343387 0.562503
O O5 0.740973 0.250036 0.726517
O O6 0.627874 0.088913 0.781056
O O7 0.819183 0.124417 0.743651
O O8 0.385397 0.168566 0.022706
O O9 0.843724 0.500000 0.327639
O O10 0.267621 0.500000 0.071405
O O11 0.659069 0.413544 0.804936
O O12 0.000000 0.374018 0.500000
O O13 0.000000 0.000000 0.500000
O O14 0.202382 0.500000 0.895168
O O15 0.000000 0.000000 0.000000
#
# Coordination Sequence:
#
# PCOD8114542 Si02
#       7
#     8   8   4   8   4   8   4
#     4  12  25  43  70 104 140 183 244 290 351 432
#     4  11  23  41  67 106 141 182 227 288 360 426
#     4  12  28  45  76 105 137 197 238 293 356 434
#     4  12  28  48  73 102 143 188 239 303 356 406
#     4  12  24  42  67 104 151 177 225 293 369 427
#     4  11  21  41  69 101 141 188 232 283 356 427
#     4  12  27  52  74  98 139 193 252 289 343 426
#
# _framework density 20.629408000000002
#
# number of rings (size 3 to 8) (size 9 to 14) (size 15 to 20)
#    0.000    0.364    6.364    2.455    7.636    1.455 
#    0.000    1.818    0.000    0.000    0.000    0.000 
#    0.000    0.000    0.000    0.000    0.000    0.000 
#
# Total GULP energy -272896.506365 kJ/mol
# GULP energy per Si atom -12404.386653 kJ/mol
# Density = 2.058245 g / cm^3
# Si number density = 20.629408 Si / 1000 Ang^3
#
#
#
# Elastic Constant Matrix: (Units=GPa)
#
#
# Indices 1 2 3 4 5 6 
#
# 1 132.1002 47.2973 54.9089 -0.0526 0.3813 -0.1024
# 2 47.2973 139.7775 51.0708 -0.3519 7.9087 0.2017
# 3 54.9089 51.0708 138.0516 -0.3812 -9.8569 -0.1268
# 4 -0.0526 -0.3519 -0.3812 32.7695 -0.0691 -9.5767
# 5 0.3813 7.9087 -9.8569 -0.0691 44.2000 -0.0661
# 6 -0.1024 0.2017 -0.1268 -9.5767 -0.0661 8.3640
#
#
#
# Elastic Compliance Matrix: (Units=1/GPa)
#
#
# Indices 1 2 3 4 5 6 
#
# 1 0.009600 -0.002106 -0.003067 -0.000014 -0.000390 0.000103
# 2 -0.002106 0.008951 -0.002629 -0.000045 -0.002170 -0.000350
# 3 -0.003067 -0.002629 0.009626 0.000211 0.002644 0.000435
# 4 -0.000014 -0.000045 0.000211 0.045869 0.000206 0.052525
# 5 -0.000390 -0.002170 0.002644 0.000206 0.023607 0.000510
# 6 0.000103 -0.000350 0.000435 0.052525 0.000510 0.179722
#
#
# Mechanical properties :
#
#
# Convention : Reuss Voigt Hill
#
# Bulk Modulus (GPa) = 79.53768 79.60928 79.57348
# Shear Modulus (GPa) = 16.82543 34.17686 25.50115
#
# Velocity S-wave (km/s) = 2.85898 4.07468 3.51971
# Velocity P-wave (km/s) = 7.03829 7.79816 7.42795
#
# Compressibility (1/GPa) = 0.01257266
#
# Stress axis : x y z
#
# Youngs Moduli (GPa) = 104.16581 111.72492 103.88617
#
# Poissons Ratio (x) = 0.23529 0.31863
# Poissons Ratio (y) = 0.21937 0.27311
# Poissons Ratio (z) = 0.31948 0.29372
#
# Static dielectric constant tensor:
#      x y z
#    x 3.710540 0.001550 -0.036910 
#    y 0.001550 4.185260 -0.000450 
#    z -0.036910 -0.000450 3.939310 
# 
# 
# High freq. dielectric constant tensor:
#      x y z
#    x 1.800020 -0.000020 -0.006770 
#    y -0.000020 1.818080 0.000170 
#    z -0.006770 0.000170 1.820690 
# 
# From -- ./inp_files/343954.got.cif
#   From: 2010.06.25/outbox.cif.g09.slc.cpg/sg12_172_cif.got.tgz:343954.got - 2010.06.28 00:19:55.
