data_PCOD8114342
_publ_section_title
;
Structure prediction by ZEFSAII (Michael W. Deem and Ramdas Pophale) SiO2 
 PCOD8114342
Probable space group: C 2/M
;
_chemical_formula_sum "Si O2"
_cell_formula_units_Z 48
_cell_length_a 15.166656
_cell_length_b 8.658031
_cell_length_c 19.298863
_cell_angle_alpha 90.000000
_cell_angle_beta 79.501711
_cell_angle_gamma 90.000000
_cell_volume 2491.777284
_symmetry_space_group_name_H-M "C 2/M"
_symmetry_group_IT_number 12
_symmetry_cell_setting 'monoclinic'
loop_
_space_group_symop_operation_xyz
x,y,z
-x,y,-z
-x,-y,-z
x,-y,z
1/2+x,1/2+y,z
1/2-x,1/2+y,-z
1/2-x,1/2-y,-z
1/2+x,1/2-y,z
loop_
_atom_site_type_symbol
_atom_site_label
_atom_site_fract_x
_atom_site_fract_y
_atom_site_fract_z
Si Si1 0.783349 0.682495 0.826178
Si Si2 0.668971 0.682725 0.326708
Si Si3 0.889121 0.316999 0.087856
Si Si4 0.509531 0.317070 0.575741
Si Si5 0.707465 0.682601 0.575256
Si Si6 0.409499 0.182456 0.930151
O O1 0.792696 0.500000 0.816037
O O2 0.818454 0.765230 0.753171
O O3 0.680540 0.726878 0.854152
O O4 0.843996 0.748294 0.880540
O O5 0.675841 0.500000 0.331667
O O6 0.571993 0.744785 0.365568
O O7 0.745895 0.754924 0.362964
O O8 0.873826 0.500000 0.096732
O O9 0.988071 0.267972 0.099811
O O10 0.877523 0.258786 0.010166
O O11 0.500000 0.246517 0.500000
O O12 0.504405 0.500000 0.571732
O O13 0.603779 0.264453 0.594989
O O14 0.716434 0.500000 0.570522
O O15 0.750000 0.750000 0.500000
O O16 0.405186 0.000000 0.932418
#
# Coordination Sequence:
#
# PCOD8114342 Si02
#       6
#     8   8   8   8   8   8
#     4  11  22  36  53  81 118 149 182 232 284 331
#     4  11  23  40  58  80 110 150 192 230 279 335
#     4   9  17  35  60  84 109 148 192 229 275 332
#     4   9  18  36  60  82 108 142 179 224 276 330
#     4  11  21  37  61  87 113 142 179 227 278 332
#     4   8  17  34  58  83 112 148 189 232 275 328
#
# _framework density 19.263358
#
# number of rings (size 3 to 8) (size 9 to 14) (size 15 to 20)
#    0.000    2.167    1.667    3.000    0.000    1.333 
#    0.000   11.667    0.000    0.000    0.000    0.000 
#    0.000    0.000    0.000    0.000    0.000    0.000 
#
# Total GULP energy -297602.633959 kJ/mol
# GULP energy per Si atom -12400.109748 kJ/mol
# Density = 1.921951 g / cm^3
# Si number density = 19.263358 Si / 1000 Ang^3
#
#
#
# Elastic Constant Matrix: (Units=GPa)
#
#
# Indices 1 2 3 4 5 6 
#
# 1 134.1373 33.6529 59.8733 0.0000 -18.9983 0.0000
# 2 33.6529 44.3098 16.0007 0.0000 -0.9175 0.0000
# 3 59.8733 16.0007 111.3593 0.0000 -19.0779 0.0000
# 4 0.0000 0.0000 0.0000 27.0515 0.0000 0.5575
# 5 -18.9983 -0.9175 -19.0779 0.0000 31.9961 0.0000
# 6 0.0000 0.0000 0.0000 0.5575 0.0000 24.5933
#
#
#
# Elastic Compliance Matrix: (Units=1/GPa)
#
#
# Indices 1 2 3 4 5 6 
#
# 1 0.011956 -0.007307 -0.004676 0.000000 0.004102 0.000000
# 2 -0.007307 0.028335 -0.000832 0.000000 -0.004022 0.000000
# 3 -0.004676 -0.000832 0.012400 0.000000 0.004594 0.000000
# 4 0.000000 0.000000 0.000000 0.036984 0.000000 -0.000838
# 5 0.004102 -0.004022 0.004594 0.000000 0.036313 0.000000
# 6 0.000000 0.000000 0.000000 -0.000838 0.000000 0.040680
#
#
# Mechanical properties :
#
#
# Convention : Reuss Voigt Hill
#
# Bulk Modulus (GPa) = 36.95134 56.54003 46.74568
# Shear Modulus (GPa) = 24.83613 28.74682 26.79148
#
# Velocity S-wave (km/s) = 3.59457 3.86723 3.73339
# Velocity P-wave (km/s) = 6.03753 7.02534 6.55008
#
# Compressibility (1/GPa) = 0.02706262
#
# Stress axis : x y z
#
# Youngs Moduli (GPa) = 83.63739 35.29167 80.64272
#
# Poissons Ratio (x) = 0.25789 0.37707
# Poissons Ratio (y) = 0.61117 0.06706
# Poissons Ratio (z) = 0.39107 0.02935
#
# Static dielectric constant tensor:
#      x y z
#    x 3.995670 0.000000 0.095140 
#    y 0.000000 3.243390 0.000000 
#    z 0.095140 0.000000 3.611440 
# 
# 
# High freq. dielectric constant tensor:
#      x y z
#    x 1.765590 0.000000 -0.003970 
#    y 0.000000 1.724300 0.000000 
#    z -0.003970 0.000000 1.750150 
# 
# From -- ./inp_files/308280.got.cif
#   From: 2010.06.25/outbox.cif.g09.slc.cpg/sg12_155_cif.got.tgz:308280.got - 2010.06.28 00:19:55.
