data_PCOD8114067
_publ_section_title
;
Structure prediction by ZEFSAII (Michael W. Deem and Ramdas Pophale) SiO2 
 PCOD8114067
Probable space group: C 2/M
;
_chemical_formula_sum "Si O2"
_cell_formula_units_Z 48
_cell_length_a 24.984891
_cell_length_b 9.138470
_cell_length_c 26.927904
_cell_angle_alpha 90.000000
_cell_angle_beta 27.372043
_cell_angle_gamma 90.000000
_cell_volume 2826.772452
_symmetry_space_group_name_H-M "C 2/M"
_symmetry_group_IT_number 12
_symmetry_cell_setting 'monoclinic'
loop_
_space_group_symop_operation_xyz
x,y,z
-x,y,-z
-x,-y,-z
x,-y,z
1/2+x,1/2+y,z
1/2-x,1/2+y,-z
1/2-x,1/2-y,-z
1/2+x,1/2-y,z
loop_
_atom_site_type_symbol
_atom_site_label
_atom_site_fract_x
_atom_site_fract_y
_atom_site_fract_z
Si Si1 0.141320 0.331481 0.112298
Si Si2 0.685278 0.672843 0.266524
Si Si3 0.010639 0.170221 0.144077
Si Si4 0.466540 0.160939 0.470363
Si Si5 0.230252 0.827568 0.705242
Si Si6 0.234806 0.166466 0.893470
O O1 0.145157 0.500000 0.093144
O O2 0.026369 0.256875 0.183400
O O3 0.153094 0.315893 0.162276
O O4 0.250000 0.250000 0.000000
O O5 0.687121 0.500000 0.269445
O O6 0.550735 0.725727 0.373049
O O7 0.750259 0.740431 0.260122
O O8 0.754017 0.722411 0.161061
O O9 0.891494 0.223852 0.217323
O O10 0.006223 0.000000 0.160948
O O11 0.115663 0.206095 0.020043
O O12 0.500000 0.152311 0.500000
O O13 0.330859 0.209816 0.581562
O O14 0.482335 0.000000 0.432832
O O15 0.231729 0.000000 0.716644
O O16 0.228824 0.000000 0.878423
#
# Coordination Sequence:
#
# PCOD8114067 Si02
#       6
#     8   8   8   8   8   8
#     4   9  17  30  49  70  92 122 158 194 230 271
#     4  11  21  30  45  70  97 124 156 197 235 266
#     4   9  18  32  51  73  95 122 155 191 232 278
#     4   8  15  30  50  67  87 120 158 191 227 278
#     4   9  18  33  51  70  94 125 156 186 230 287
#     4   9  18  32  48  67  94 127 157 185 226 280
#
# _framework density 16.980497
#
# number of rings (size 3 to 8) (size 9 to 14) (size 15 to 20)
#    0.000    2.833    0.000    4.000    0.000    7.667 
#    0.000    3.333    0.000    1.000    0.000    0.000 
#    0.000    0.000    0.000    0.000    0.000    0.000 
#
# Total GULP energy -297451.966295 kJ/mol
# GULP energy per Si atom -12393.831929 kJ/mol
# Density = 1.694185 g / cm^3
# Si number density = 16.980497 Si / 1000 Ang^3
#
#
#
# Elastic Constant Matrix: (Units=GPa)
#
#
# Indices 1 2 3 4 5 6 
#
# 1 99.0716 49.2066 45.6250 0.0046 -27.3542 -0.0036
# 2 49.2066 84.5470 25.9739 0.0106 -13.7660 -0.0118
# 3 45.6250 25.9739 61.0654 0.0053 -25.6150 -0.0045
# 4 0.0046 0.0106 0.0053 18.8131 0.0014 2.3944
# 5 -27.3542 -13.7660 -25.6150 0.0014 14.9089 -0.0002
# 6 -0.0036 -0.0118 -0.0045 2.3944 -0.0002 28.6747
#
#
#
# Elastic Compliance Matrix: (Units=1/GPa)
#
#
# Indices 1 2 3 4 5 6 
#
# 1 0.024614 -0.008307 0.003112 -0.000006 0.042837 0.000001
# 2 -0.008307 0.016785 -0.002954 -0.000007 -0.004817 0.000006
# 3 0.003112 -0.002954 0.059282 -0.000025 0.104834 0.000011
# 4 -0.000006 -0.000007 -0.000025 0.053726 -0.000065 -0.004486
# 5 0.042837 -0.004817 0.104834 -0.000065 0.321338 0.000028
# 6 0.000001 0.000006 0.000011 -0.004486 0.000028 0.035249
#
#
# Mechanical properties :
#
#
# Convention : Reuss Voigt Hill
#
# Bulk Modulus (GPa) = 11.85067 54.03280 32.94173
# Shear Modulus (GPa) = 9.00221 20.73788 14.87004
#
# Velocity S-wave (km/s) = 2.30500 3.49847 2.96246
# Velocity P-wave (km/s) = 3.75209 6.94324 5.58063
#
# Compressibility (1/GPa) = 0.08438342
#
# Stress axis : x y z
#
# Youngs Moduli (GPa) = 40.62736 59.57574 16.86849
#
# Poissons Ratio (x) = 0.49487 -0.05249
# Poissons Ratio (y) = 0.33747 0.04983
# Poissons Ratio (z) = -0.12641 0.17599
#
# Static dielectric constant tensor:
#      x y z
#    x 3.795330 -0.000050 -0.364180 
#    y -0.000050 3.215160 0.000010 
#    z -0.364180 0.000010 3.278890 
# 
# 
# High freq. dielectric constant tensor:
#      x y z
#    x 1.642190 0.000000 -0.011090 
#    y 0.000000 1.653020 0.000000 
#    z -0.011090 0.000000 1.634460 
# 
# From -- ./inp_files/172206.got.cif
#   From: 2010.06.25/outbox.cif.g09.slc.cpg/sg12_87_cif.got.tgz:172206.got - 2010.06.28 00:19:55.
