data_PCOD8114912
_publ_section_title
;
Structure prediction by ZEFSAII (Michael W. Deem and Ramdas Pophale) SiO2 
 PCOD8114912
Probable space group: C 2/M
;
_chemical_formula_sum "Si O2"
_cell_formula_units_Z 64
_cell_length_a 9.758463
_cell_length_b 17.370234
_cell_length_c 32.222650
_cell_angle_alpha 90.000000
_cell_angle_beta 145.421137
_cell_angle_gamma 90.000000
_cell_volume 3099.879782
_symmetry_space_group_name_H-M "C 2/M"
_symmetry_group_IT_number 12
_symmetry_cell_setting 'monoclinic'
loop_
_space_group_symop_operation_xyz
x,y,z
-x,y,-z
-x,-y,-z
x,-y,z
1/2+x,1/2+y,z
1/2-x,1/2+y,-z
1/2-x,1/2-y,-z
1/2+x,1/2-y,z
loop_
_atom_site_type_symbol
_atom_site_label
_atom_site_fract_x
_atom_site_fract_y
_atom_site_fract_z
Si Si1 0.236320 0.317149 0.530817
Si Si2 0.062419 0.591357 0.080282
Si Si3 0.630585 0.087654 0.768146
Si Si4 0.278583 0.860595 0.298166
Si Si5 0.247359 0.411056 0.457292
Si Si6 0.186596 0.910947 0.775137
Si Si7 0.134176 0.091113 0.920822
Si Si8 0.276481 0.314917 0.297724
O O1 0.250000 0.250000 0.500000
O O2 0.242197 0.395896 0.505512
O O3 0.457788 0.318893 0.617429
O O4 0.000000 0.309848 0.500000
O O5 0.082522 0.500000 0.086362
O O6 0.142304 0.621949 0.145280
O O7 0.242776 0.625185 0.090222
O O8 0.787702 0.617439 0.999779
O O9 0.725900 0.090776 0.745001
O O10 0.408996 0.146126 0.716482
O O11 0.852283 0.114969 0.853361
O O12 0.550752 0.000000 0.758319
O O13 0.543091 0.860256 0.384387
O O14 0.199971 0.772716 0.270737
O O15 0.093588 0.901377 0.283229
O O16 0.500000 0.385125 0.500000
O O17 0.195654 0.500000 0.435750
O O18 0.247784 0.860917 0.750707
O O19 0.240232 0.000000 0.778375
O O20 0.148905 0.000000 0.920633
#
# Coordination Sequence:
#
# PCOD8114912 Si02
#       8
#     8   8   8   8   8   8   8   8
#     4  12  26  45  68  89 122 167 217 264 324 394
#     4   8  14  29  57  92 125 159 210 265 310 365
#     4  11  22  39  64  96 126 162 214 268 315 368
#     4  12  23  40  64  88 123 166 213 255 311 384
#     4  11  24  42  68  98 126 161 212 270 326 387
#     4  11  22  39  62  94 126 163 211 265 316 373
#     4   8  14  29  58  93 123 160 211 265 309 363
#     4  12  27  40  63  89 132 167 202 259 328 388
#
# _framework density 20.645961
#
# number of rings (size 3 to 8) (size 9 to 14) (size 15 to 20)
#    0.000    1.375    2.500    4.875    1.750    2.250 
#    0.000    0.625    0.000    7.500    0.000    0.000 
#    0.000    0.000    0.000    0.000    0.000    0.000 
#
# Total GULP energy -396769.142945 kJ/mol
# GULP energy per Si atom -12399.035717 kJ/mol
# Density = 2.059897 g / cm^3
# Si number density = 20.645961 Si / 1000 Ang^3
#
#
#
# Elastic Constant Matrix: (Units=GPa)
#
#
# Indices 1 2 3 4 5 6 
#
# 1 78.1214 21.1332 11.8173 0.0000 -2.2326 -0.0262
# 2 21.1332 74.5484 19.5076 0.0011 -3.4043 -0.0048
# 3 11.8173 19.5076 115.3493 -0.0046 -6.2113 0.2346
# 4 0.0000 0.0011 -0.0046 16.9730 -0.0001 -29.9249
# 5 -2.2326 -3.4043 -6.2113 -0.0001 36.1299 0.0006
# 6 -0.0262 -0.0048 0.2346 -29.9249 0.0006 930.4379
#
#
#
# Elastic Compliance Matrix: (Units=1/GPa)
#
#
# Indices 1 2 3 4 5 6 
#
# 1 0.013938 -0.003731 -0.000777 0.000001 0.000376 0.000001
# 2 -0.003731 0.015064 -0.002121 -0.000001 0.000824 0.000000
# 3 -0.000777 -0.002121 0.009179 -0.000002 0.001330 -0.000002
# 4 0.000001 -0.000001 -0.000002 0.062459 0.000000 0.002009
# 5 0.000376 0.000824 0.001330 0.000000 0.028008 0.000000
# 6 0.000001 0.000000 -0.000002 0.002009 0.000000 0.001139
#
#
# Mechanical properties :
#
#
# Convention : Reuss Voigt Hill
#
# Bulk Modulus (GPa) = 40.12106 41.43726 40.77916
# Shear Modulus (GPa) = 33.03542 211.07889 122.05715
#
# Velocity S-wave (km/s) = 4.00445 10.12222 7.69724
# Velocity P-wave (km/s) = 6.39186 12.51904 9.93937
#
# Compressibility (1/GPa) = 0.02492457
#
# Stress axis : x y z
#
# Youngs Moduli (GPa) = 71.74586 66.38174 108.94151
#
# Poissons Ratio (x) = 0.24766 0.08462
# Poissons Ratio (y) = 0.26767 0.23107
# Poissons Ratio (z) = 0.05573 0.14080
#
# Static dielectric constant tensor:
#      x y z
#    x 3.688370 0.000000 -0.001880 
#    y 0.000000 3.560560 -0.000010 
#    z -0.001880 -0.000010 4.191630 
# 
# 
# High freq. dielectric constant tensor:
#      x y z
#    x 1.796040 0.000000 0.001150 
#    y 0.000000 1.786370 0.000000 
#    z 0.001150 0.000000 1.825390 
# 
# From -- ./inp_files/372978.got.cif
#   From: 2010.06.25/outbox.cif.g09.slc.cpg/sg12_187_cif.got.tgz:372978.got - 2010.06.28 00:19:55.
