data_PCOD8114654
_publ_section_title
;
Structure prediction by ZEFSAII (Michael W. Deem and Ramdas Pophale) SiO2 
 PCOD8114654
Probable space group: C 2/M
;
_chemical_formula_sum "Si O2"
_cell_formula_units_Z 48
_cell_length_a 29.747032
_cell_length_b 8.935301
_cell_length_c 19.383516
_cell_angle_alpha 90.000000
_cell_angle_beta 148.613389
_cell_angle_gamma 90.000000
_cell_volume 2683.272817
_symmetry_space_group_name_H-M "C 2/M"
_symmetry_group_IT_number 12
_symmetry_cell_setting 'monoclinic'
loop_
_space_group_symop_operation_xyz
x,y,z
-x,y,-z
-x,-y,-z
x,-y,z
1/2+x,1/2+y,z
1/2-x,1/2+y,-z
1/2-x,1/2-y,-z
1/2+x,1/2-y,z
loop_
_atom_site_type_symbol
_atom_site_label
_atom_site_fract_x
_atom_site_fract_y
_atom_site_fract_z
Si Si1 0.259180 0.173872 0.085136
Si Si2 0.211373 0.823026 0.382251
Si Si3 0.224235 0.323187 0.677268
Si Si4 0.403679 0.821427 0.378857
Si Si5 0.872919 0.825236 0.970818
Si Si6 0.469237 0.825541 0.882666
O O1 0.343400 0.235225 0.236764
O O2 0.172339 0.204502 0.014964
O O3 0.271882 0.000000 0.088755
O O4 0.250000 0.250000 0.000000
O O5 0.250000 0.750000 0.500000
O O6 0.272672 0.773434 0.398389
O O7 0.115682 0.767561 0.243763
O O8 0.210167 0.000000 0.389339
O O9 0.225888 0.500000 0.687029
O O10 0.138267 0.264126 0.603661
O O11 0.309599 0.264459 0.827877
O O12 0.500000 0.753066 0.500000
O O13 0.407201 0.000000 0.382155
O O14 0.895123 0.000000 0.990307
O O15 0.959632 0.728198 0.079396
O O16 0.450479 0.000000 0.847165
O O17 0.500000 0.788607 0.000000
#
# Coordination Sequence:
#
# PCOD8114654 Si02
#       6
#     8   8   8   8   8   8
#     4   9  18  32  52  78 108 138 171 215 266 317
#     4  11  22  37  55  76 110 147 179 218 268 321
#     4   8  15  29  51  74  98 136 179 214 254 311
#     4   8  14  28  51  76  99 129 174 217 249 298
#     4   9  17  33  55  77 102 141 185 216 258 321
#     4  11  22  35  55  83 108 132 178 232 273 322
#
# _framework density 17.888601999999999
#
# number of rings (size 3 to 8) (size 9 to 14) (size 15 to 20)
#    0.000    2.667    1.667    3.000    0.000    1.333 
#    3.000    0.000    0.000    0.500    0.000    0.000 
#    0.000    0.000    0.000    0.000    0.000    0.000 
#
# Total GULP energy -297487.127456 kJ/mol
# GULP energy per Si atom -12395.296977 kJ/mol
# Density = 1.784789 g / cm^3
# Si number density = 17.888602 Si / 1000 Ang^3
#
#
#
# Elastic Constant Matrix: (Units=GPa)
#
#
# Indices 1 2 3 4 5 6 
#
# 1 158.3002 50.0825 88.1161 0.0000 -1.2036 0.0000
# 2 50.0825 46.6198 34.2327 0.0000 -4.8667 0.0000
# 3 88.1161 34.2327 110.1551 0.0000 4.9635 0.0000
# 4 0.0000 0.0000 0.0000 21.1668 0.0000 -6.4367
# 5 -1.2036 -4.8667 4.9635 0.0000 35.1220 0.0000
# 6 0.0000 0.0000 0.0000 -6.4367 0.0000 25.3255
#
#
#
# Elastic Compliance Matrix: (Units=1/GPa)
#
#
# Indices 1 2 3 4 5 6 
#
# 1 0.013614 -0.008507 -0.008267 0.000000 0.000456 0.000000
# 2 -0.008507 0.034048 -0.004001 0.000000 0.004992 0.000000
# 3 -0.008267 -0.004001 0.017081 0.000000 -0.003252 0.000000
# 4 0.000000 0.000000 0.000000 0.051201 0.000000 0.013013
# 5 0.000456 0.004992 -0.003252 0.000000 0.029639 0.000000
# 6 0.000000 0.000000 0.000000 0.013013 0.000000 0.042793
#
#
# Mechanical properties :
#
#
# Convention : Reuss Voigt Hill
#
# Bulk Modulus (GPa) = 43.11660 73.32641 58.22151
# Shear Modulus (GPa) = 21.03880 25.83243 23.43562
#
# Velocity S-wave (km/s) = 3.43315 3.80422 3.62344
# Velocity P-wave (km/s) = 6.31431 7.77018 7.07977
#
# Compressibility (1/GPa) = 0.02319292
#
# Stress axis : x y z
#
# Youngs Moduli (GPa) = 73.45624 29.37042 58.54521
#
# Poissons Ratio (x) = 0.24985 0.48398
# Poissons Ratio (y) = 0.62488 0.23424
# Poissons Ratio (z) = 0.60724 0.11751
#
# Static dielectric constant tensor:
#      x y z
#    x 3.586980 0.000000 0.211840 
#    y 0.000000 2.985110 0.000000 
#    z 0.211840 0.000000 3.267580 
# 
# 
# High freq. dielectric constant tensor:
#      x y z
#    x 1.704740 0.000000 0.008670 
#    y 0.000000 1.661110 0.000000 
#    z 0.008670 0.000000 1.681650 
# 
# From -- ./inp_files/274075.got.cif
#   From: 2010.06.25/outbox.cif.g09.slc.cpg/sg12_138_cif.got.tgz:274075.got - 2010.06.28 00:19:55.
