data_PCOD8114884
_publ_section_title
;
Structure prediction by ZEFSAII (Michael W. Deem and Ramdas Pophale) SiO2 
 PCOD8114884
Probable space group: C 2/M
;
_chemical_formula_sum "Si O2"
_cell_formula_units_Z 36
_cell_length_a 15.348035
_cell_length_b 17.919392
_cell_length_c 6.548391
_cell_angle_alpha 90.000000
_cell_angle_beta 64.710384
_cell_angle_gamma 90.000000
_cell_volume 1628.380667
_symmetry_space_group_name_H-M "C 2/M"
_symmetry_group_IT_number 12
_symmetry_cell_setting 'monoclinic'
loop_
_space_group_symop_operation_xyz
x,y,z
-x,y,-z
-x,-y,-z
x,-y,z
1/2+x,1/2+y,z
1/2-x,1/2+y,-z
1/2-x,1/2-y,-z
1/2+x,1/2-y,z
loop_
_atom_site_type_symbol
_atom_site_label
_atom_site_fract_x
_atom_site_fract_y
_atom_site_fract_z
Si Si1 0.437791 0.500000 0.763104
Si Si2 0.329193 0.157305 0.903635
Si Si3 0.431391 0.000000 0.264212
Si Si4 0.000000 0.621528 0.500000
Si Si5 0.818751 0.770804 0.240966
Si Si6 0.216384 0.500000 0.905469
Si Si7 0.000000 0.129428 0.000000
O O1 0.500000 0.500000 0.500000
O O2 0.330248 0.500000 0.786520
O O3 0.456296 0.424203 0.870239
O O4 0.422460 0.177485 0.675720
O O5 0.234451 0.183518 0.882749
O O6 0.343862 0.191591 0.113801
O O7 0.326604 0.068618 0.925743
O O8 0.446928 0.926578 0.381157
O O9 0.321163 0.000000 0.291362
O O10 0.500000 0.000000 0.000000
O O11 0.750000 0.750000 0.500000
O O12 0.916234 0.818551 0.188314
#
# Coordination Sequence:
#
# PCOD8114884 Si02
#       7
#     4   8   4   4   8   4   4
#     4  11  27  46  78 108 139 193 244 315 359 421
#     4  11  26  45  67 108 145 184 247 301 363 441
#     4  11  22  38  66 106 140 174 224 285 364 431
#     4  11  24  42  68 104 138 185 236 292 354 445
#     4  11  28  47  70 105 147 197 242 302 373 437
#     4  12  23  47  72 102 151 179 247 302 365 436
#     4  11  26  50  76 109 144 188 260 293 366 446
#
# _framework density 22.107852999999999
#
# number of rings (size 3 to 8) (size 9 to 14) (size 15 to 20)
#    0.000    0.889    4.444    0.667    9.333    0.000 
#    0.000    0.000    0.000    0.000    0.000    0.000 
#    0.000    0.000    0.000    0.000    0.000    0.000 
#
# Total GULP energy -223164.997658 kJ/mol
# GULP energy per Si atom -12398.055425 kJ/mol
# Density = 2.205753 g / cm^3
# Si number density = 22.107853 Si / 1000 Ang^3
#
#
#
# Elastic Constant Matrix: (Units=GPa)
#
#
# Indices 1 2 3 4 5 6 
#
# 1 152.1893 36.0829 52.2705 0.0000 -5.5534 0.0000
# 2 36.0829 111.5800 46.9693 0.0000 -8.5713 0.0000
# 3 52.2705 46.9693 154.3519 0.0000 -19.8850 0.0000
# 4 0.0000 0.0000 0.0000 31.6898 0.0000 -9.8898
# 5 -5.5534 -8.5713 -19.8850 0.0000 48.4019 0.0000
# 6 0.0000 0.0000 0.0000 -9.8898 0.0000 22.5643
#
#
#
# Elastic Compliance Matrix: (Units=1/GPa)
#
#
# Indices 1 2 3 4 5 6 
#
# 1 0.007678 -0.001600 -0.002150 0.000000 -0.000286 0.000000
# 2 -0.001600 0.010627 -0.002611 0.000000 0.000625 0.000000
# 3 -0.002150 -0.002611 0.008352 0.000000 0.002722 0.000000
# 4 0.000000 0.000000 0.000000 0.036556 0.000000 0.016022
# 5 -0.000286 0.000625 0.002722 0.000000 0.021857 0.000000
# 6 0.000000 0.000000 0.000000 0.016022 0.000000 0.051340
#
#
# Mechanical properties :
#
#
# Convention : Reuss Voigt Hill
#
# Bulk Modulus (GPa) = 71.76465 76.52961 74.14713
# Shear Modulus (GPa) = 32.51445 39.38444 35.94945
#
# Velocity S-wave (km/s) = 3.83916 4.22532 4.03686
# Velocity P-wave (km/s) = 7.22383 7.64827 7.43908
#
# Compressibility (1/GPa) = 0.01393444
#
# Stress axis : x y z
#
# Youngs Moduli (GPa) = 130.24019 94.10133 119.72918
#
# Poissons Ratio (x) = 0.15054 0.25743
# Poissons Ratio (y) = 0.20836 0.31266
# Poissons Ratio (z) = 0.28003 0.24574
#
# Static dielectric constant tensor:
#      x y z
#    x 7.137120 0.000000 -1.111380 
#    y 0.000000 4.064310 0.000000 
#    z -1.111380 0.000000 4.456900 
# 
# 
# High freq. dielectric constant tensor:
#      x y z
#    x 1.885020 0.000000 -0.001570 
#    y 0.000000 1.873450 0.000000 
#    z -0.001570 0.000000 1.872230 
# 
# From -- ./inp_files/15097.got.cif
#   From: 2010.06.25/outbox.cif.g09.slc.cpg/sg12_8_cif.got.tgz:15097.got - 2010.06.28 00:19:55.
