data_PCOD8114485
_publ_section_title
;
Structure prediction by ZEFSAII (Michael W. Deem and Ramdas Pophale) SiO2 
 PCOD8114485
Probable space group: C 2/M
;
_chemical_formula_sum "Si O2"
_cell_formula_units_Z 40
_cell_length_a 19.662478
_cell_length_b 11.524697
_cell_length_c 17.108944
_cell_angle_alpha 90.000000
_cell_angle_beta 150.229004
_cell_angle_gamma 90.000000
_cell_volume 1925.043315
_symmetry_space_group_name_H-M "C 2/M"
_symmetry_group_IT_number 12
_symmetry_cell_setting 'monoclinic'
loop_
_space_group_symop_operation_xyz
x,y,z
-x,y,-z
-x,-y,-z
x,-y,z
1/2+x,1/2+y,z
1/2-x,1/2+y,-z
1/2-x,1/2-y,-z
1/2+x,1/2-y,z
loop_
_atom_site_type_symbol
_atom_site_label
_atom_site_fract_x
_atom_site_fract_y
_atom_site_fract_z
Si Si1 0.247119 0.250245 0.674792
Si Si2 0.009810 0.633933 0.163675
Si Si3 0.992675 0.266037 0.309429
Si Si4 0.073474 0.500000 0.686465
Si Si5 0.777536 0.500000 0.314254
Si Si6 0.712125 0.632370 0.798197
O O1 0.372061 0.165538 0.780190
O O2 0.300131 0.383736 0.734949
O O3 0.179453 0.210803 0.689508
O O4 0.134327 0.243063 0.494776
O O5 0.029841 0.500000 0.210957
O O6 0.022613 0.726941 0.246924
O O7 0.867529 0.651482 0.978401
O O8 0.916779 0.386531 0.251317
O O9 0.886994 0.165406 0.228479
O O10 0.206202 0.500000 0.763010
O O11 0.930805 0.500000 0.499269
O O12 0.683212 0.500000 0.746767
#
# Coordination Sequence:
#
# PCOD8114485 Si02
#       6
#     8   8   8   4   4   8
#     4  11  22  39  64  92 120 156 205 250 295 356
#     4  11  24  42  61  87 127 165 194 241 311 366
#     4  11  21  40  65  90 118 154 208 253 291 355
#     4   9  16  34  63  88 112 151 198 248 299 345
#     4   9  18  34  60  91 116 148 198 252 295 343
#     4  11  24  41  62  89 123 162 201 245 300 361
#
# _framework density 20.778752999999998
#
# number of rings (size 3 to 8) (size 9 to 14) (size 15 to 20)
#    0.000    1.400    3.000    3.000    0.000    4.000 
#    1.800    3.000    0.000    0.000    0.000    0.000 
#    0.000    0.000    0.000    0.000    0.000    0.000 
#
# Total GULP energy -248029.924998 kJ/mol
# GULP energy per Si atom -12401.496250 kJ/mol
# Density = 2.073146 g / cm^3
# Si number density = 20.778753 Si / 1000 Ang^3
#
#
#
# Elastic Constant Matrix: (Units=GPa)
#
#
# Indices 1 2 3 4 5 6 
#
# 1 81.5553 21.6396 12.8890 0.0000 -0.1763 0.0000
# 2 21.6396 107.3246 36.1197 0.0000 1.7609 0.0000
# 3 12.8890 36.1197 50.4803 -0.0001 2.5708 -0.0001
# 4 0.0000 0.0000 -0.0001 27.4024 0.0000 1.1530
# 5 -0.1763 1.7609 2.5708 0.0000 32.9709 0.0000
# 6 0.0000 0.0000 -0.0001 1.1530 0.0000 38.1314
#
#
#
# Elastic Compliance Matrix: (Units=1/GPa)
#
#
# Indices 1 2 3 4 5 6 
#
# 1 0.013097 -0.001996 -0.001933 0.000000 0.000327 0.000000
# 2 -0.001996 0.012577 -0.008489 0.000000 -0.000021 0.000000
# 3 -0.001933 -0.008489 0.026459 0.000000 -0.001620 0.000000
# 4 0.000000 0.000000 0.000000 0.036540 0.000000 -0.001105
# 5 0.000327 -0.000021 -0.001620 0.000000 0.030459 0.000000
# 6 0.000000 0.000000 0.000000 -0.001105 0.000000 0.026258
#
#
# Mechanical properties :
#
#
# Convention : Reuss Voigt Hill
#
# Bulk Modulus (GPa) = 36.63044 42.29522 39.46283
# Shear Modulus (GPa) = 27.88238 30.94841 29.41540
#
# Velocity S-wave (km/s) = 3.66713 3.86350 3.76659
# Velocity P-wave (km/s) = 5.96636 6.34833 6.16031
#
# Compressibility (1/GPa) = 0.02729970
#
# Stress axis : x y z
#
# Youngs Moduli (GPa) = 76.35147 79.51010 37.79374
#
# Poissons Ratio (x) = 0.15868 0.07305
# Poissons Ratio (y) = 0.15237 0.32081
# Poissons Ratio (z) = 0.14758 0.67492
#
# Static dielectric constant tensor:
#      x y z
#    x 3.696520 0.000000 -0.077650 
#    y 0.000000 3.891130 0.000000 
#    z -0.077650 0.000000 3.424150 
# 
# 
# High freq. dielectric constant tensor:
#      x y z
#    x 1.814920 0.000000 -0.007130 
#    y 0.000000 1.818440 0.000000 
#    z -0.007130 0.000000 1.794820 
# 
# From -- ./inp_files/83747.got.cif
#   From: 2010.06.25/outbox.cif.g09.slc.cpg/sg12_42_cif.got.tgz:83747.got - 2010.06.28 00:19:55.
