data_PCOD8114145
_publ_section_title
;
Structure prediction by ZEFSAII (Michael W. Deem and Ramdas Pophale) SiO2 
 PCOD8114145
Probable space group: C 2/M
;
_chemical_formula_sum "Si O2"
_cell_formula_units_Z 56
_cell_length_a 27.662771
_cell_length_b 20.881968
_cell_length_c 8.902830
_cell_angle_alpha 90.000000
_cell_angle_beta 142.137654
_cell_angle_gamma 90.000000
_cell_volume 3156.445994
_symmetry_space_group_name_H-M "C 2/M"
_symmetry_group_IT_number 12
_symmetry_cell_setting 'monoclinic'
loop_
_space_group_symop_operation_xyz
x,y,z
-x,y,-z
-x,-y,-z
x,-y,z
1/2+x,1/2+y,z
1/2-x,1/2+y,-z
1/2-x,1/2-y,-z
1/2+x,1/2-y,z
loop_
_atom_site_type_symbol
_atom_site_label
_atom_site_fract_x
_atom_site_fract_y
_atom_site_fract_z
Si Si1 0.084768 0.000000 0.995688
Si Si2 0.298867 0.818637 0.490247
Si Si3 0.596870 0.500000 0.375403
Si Si4 0.941247 0.755879 0.225321
Si Si5 0.443271 0.252658 0.731139
Si Si6 0.845771 0.877336 0.997733
Si Si7 0.791401 0.689500 0.806518
Si Si8 0.343970 0.631096 0.351606
O O1 0.116490 0.940445 0.978640
O O2 0.991087 0.000000 0.776513
O O3 0.112593 0.000000 0.235764
O O4 0.386089 0.805860 0.637915
O O5 0.255673 0.751905 0.358397
O O6 0.307696 0.842977 0.684275
O O7 0.246406 0.872109 0.276151
O O8 0.637502 0.562543 0.537553
O O9 0.898396 0.819905 0.058221
O O10 0.000000 0.775283 0.500000
O O11 0.995691 0.722021 0.235721
O O12 0.871819 0.705784 0.094216
O O13 0.401126 0.314172 0.554984
O O14 0.500000 0.279605 0.000000
O O15 0.849624 0.872658 0.186700
O O16 0.744151 0.646217 0.807993
#
# Coordination Sequence:
#
# PCOD8114145 Si02
#       8
#     4   8   4   8   8   8   8   8
#     4  11  25  39  59  77 106 141 188 221 262 316
#     4   9  19  34  52  75 107 143 180 217 266 321
#     4  11  25  39  57  81 101 144 187 222 261 316
#     4  11  21  33  53  83 112 142 178 222 273 315
#     4  11  21  33  55  81 110 144 179 220 268 321
#     4  11  23  37  53  78 111 146 178 224 268 317
#     4   9  19  34  52  75 107 144 179 218 264 323
#     4  11  23  36  55  77 111 144 181 222 268 319
#
# _framework density 17.741474
#
# number of rings (size 3 to 8) (size 9 to 14) (size 15 to 20)
#    0.000    1.571    2.857    2.143    8.000    2.286 
#    0.000    0.000    0.000    0.000    0.000    2.000 
#    0.000    0.000    0.000    0.000    0.000    0.000 
#
# Total GULP energy -346901.547616 kJ/mol
# GULP energy per Si atom -12389.340986 kJ/mol
# Density = 1.770109 g / cm^3
# Si number density = 17.741474 Si / 1000 Ang^3
#
#
#
# Elastic Constant Matrix: (Units=GPa)
#
#
# Indices 1 2 3 4 5 6 
#
# 1 139.3775 42.6090 39.0024 0.0000 10.3073 0.0000
# 2 42.6090 55.6874 38.4061 0.0000 7.8794 0.0000
# 3 39.0024 38.4061 86.9892 0.0000 11.6825 0.0000
# 4 0.0000 0.0000 0.0000 39.6839 0.0000 5.5782
# 5 10.3073 7.8794 11.6825 0.0000 27.4840 0.0000
# 6 0.0000 0.0000 0.0000 5.5782 0.0000 30.4090
#
#
#
# Elastic Compliance Matrix: (Units=1/GPa)
#
#
# Indices 1 2 3 4 5 6 
#
# 1 0.009539 -0.006168 -0.001390 0.000000 -0.001218 0.000000
# 2 -0.006168 0.029999 -0.010218 0.000000 -0.001944 0.000000
# 3 -0.001390 -0.010218 0.017146 0.000000 -0.003837 0.000000
# 4 0.000000 0.000000 0.000000 0.025866 0.000000 -0.004745
# 5 -0.001218 -0.001944 -0.003837 0.000000 0.039030 0.000000
# 6 0.000000 0.000000 0.000000 -0.004745 0.000000 0.033755
#
#
# Mechanical properties :
#
#
# Convention : Reuss Voigt Hill
#
# Bulk Modulus (GPa) = 47.32294 58.00990 52.66642
# Shear Modulus (GPa) = 25.26115 30.31781 27.78948
#
# Velocity S-wave (km/s) = 3.77748 4.13833 3.96202
# Velocity P-wave (km/s) = 6.76442 7.45672 7.11899
#
# Compressibility (1/GPa) = 0.02113140
#
# Stress axis : x y z
#
# Youngs Moduli (GPa) = 104.82737 33.33453 58.32336
#
# Poissons Ratio (x) = 0.20560 0.08109
# Poissons Ratio (y) = 0.64656 0.59596
# Poissons Ratio (z) = 0.14575 0.34062
#
# Static dielectric constant tensor:
#      x y z
#    x 4.426020 0.000000 -0.356530 
#    y 0.000000 2.953950 0.000000 
#    z -0.356530 0.000000 3.797990 
# 
# 
# High freq. dielectric constant tensor:
#      x y z
#    x 1.705960 0.000000 -0.001620 
#    y 0.000000 1.636250 0.000000 
#    z -0.001620 0.000000 1.695090 
# 
# From -- ./inp_files/105995.got.cif
#   From: 2010.06.25/outbox.cif.g09.slc.cpg/sg12_53_cif.got.tgz:105995.got - 2010.06.28 00:19:55.
