data_PCOD8114025
_publ_section_title
;
Structure prediction by ZEFSAII (Michael W. Deem and Ramdas Pophale) SiO2 
 PCOD8114025
Probable space group: C 2/M
;
_chemical_formula_sum "Si O2"
_cell_formula_units_Z 56
_cell_length_a 13.868045
_cell_length_b 21.684279
_cell_length_c 13.248097
_cell_angle_alpha 90.000000
_cell_angle_beta 41.303766
_cell_angle_gamma 90.000000
_cell_volume 2629.609451
_symmetry_space_group_name_H-M "C 2/M"
_symmetry_group_IT_number 12
_symmetry_cell_setting 'monoclinic'
loop_
_space_group_symop_operation_xyz
x,y,z
-x,y,-z
-x,-y,-z
x,-y,z
1/2+x,1/2+y,z
1/2-x,1/2+y,-z
1/2-x,1/2-y,-z
1/2+x,1/2-y,z
loop_
_atom_site_type_symbol
_atom_site_label
_atom_site_fract_x
_atom_site_fract_y
_atom_site_fract_z
Si Si1 0.082694 0.427184 0.193283
Si Si2 0.660001 0.117792 0.915785
Si Si3 0.149987 0.787814 0.704956
Si Si4 0.358125 0.722377 0.834369
Si Si5 0.812054 0.339907 0.396768
Si Si6 0.834833 0.934490 0.602088
Si Si7 0.369649 0.833313 0.682769
O O1 0.072765 0.500000 0.221519
O O2 0.164238 0.394376 0.223803
O O3 0.925229 0.395540 0.315774
O O4 0.159602 0.414276 0.025903
O O5 0.768208 0.176235 0.834731
O O6 0.729279 0.070911 0.781967
O O7 0.500000 0.136980 0.000000
O O8 0.139528 0.713169 0.720432
O O9 0.278798 0.808346 0.528512
O O10 0.209470 0.815723 0.763193
O O11 0.991655 0.811095 0.790313
O O12 0.424144 0.777822 0.713736
O O13 0.250000 0.750000 0.000000
O O14 0.670600 0.375140 0.466086
O O15 0.000000 0.939310 0.500000
O O16 0.788749 0.000000 0.587046
O O17 0.500000 0.845083 0.500000
#
# Coordination Sequence:
#
# PCOD8114025 Si02
#       7
#     8   8   8   8   8   8   8
#     4  12  25  45  67 101 145 184 239 285 331 424
#     4  12  25  43  69 103 137 183 229 288 364 405
#     4  11  23  40  68  97 142 172 228 288 351 410
#     4  12  25  42  66 102 140 175 228 295 352 420
#     4  11  20  41  63 100 132 179 219 288 349 399
#     4  11  24  41  65  98 132 174 228 280 349 425
#     4  12  24  44  70 105 134 183 231 284 354 414
#
# _framework density 21.295938
#
# number of rings (size 3 to 8) (size 9 to 14) (size 15 to 20)
#    0.000    0.429    5.714    3.429    2.000    2.000 
#    0.000    0.000    0.000    2.571    0.000    0.000 
#    0.000    0.000    0.000    0.000    0.000    0.000 
#
# Total GULP energy -347018.893079 kJ/mol
# GULP energy per Si atom -12393.531896 kJ/mol
# Density = 2.124747 g / cm^3
# Si number density = 21.295938 Si / 1000 Ang^3
#
#
#
# Elastic Constant Matrix: (Units=GPa)
#
#
# Indices 1 2 3 4 5 6 
#
# 1 131.7315 56.1510 23.4654 -0.0013 -5.6378 0.0006
# 2 56.1510 148.1632 18.0068 -0.0018 -1.9877 0.0012
# 3 23.4654 18.0068 63.9188 -0.0073 -3.9479 0.0052
# 4 -0.0013 -0.0018 -0.0073 25.3133 0.0034 -3.8704
# 5 -5.6378 -1.9877 -3.9479 0.0034 33.6657 -0.0023
# 6 0.0006 0.0012 0.0052 -3.8704 -0.0023 42.4987
#
#
#
# Elastic Compliance Matrix: (Units=1/GPa)
#
#
# Indices 1 2 3 4 5 6 
#
# 1 0.009477 -0.003275 -0.002489 -0.000001 0.001102 0.000000
# 2 -0.003275 0.008121 -0.001098 0.000000 -0.000198 0.000000
# 3 -0.002489 -0.001098 0.016961 0.000004 0.001507 -0.000002
# 4 -0.000001 0.000000 0.000004 0.040063 -0.000003 0.003649
# 5 0.001102 -0.000198 0.001507 -0.000003 0.030053 0.000001
# 6 0.000000 0.000000 -0.000002 0.003649 0.000001 0.023862
#
#
# Mechanical properties :
#
#
# Convention : Reuss Voigt Hill
#
# Bulk Modulus (GPa) = 47.99140 59.89554 53.94347
# Shear Modulus (GPa) = 33.51067 36.70821 35.10944
#
# Velocity S-wave (km/s) = 3.97113 4.15627 4.06476
# Velocity P-wave (km/s) = 6.60385 7.15676 6.88586
#
# Compressibility (1/GPa) = 0.02083707
#
# Stress axis : x y z
#
# Youngs Moduli (GPa) = 105.51350 123.13635 58.95908
#
# Poissons Ratio (x) = 0.40321 0.14673
# Poissons Ratio (y) = 0.34551 0.06473
# Poissons Ratio (z) = 0.26260 0.13519
#
# Static dielectric constant tensor:
#      x y z
#    x 4.271550 -0.000010 -0.208140 
#    y -0.000010 4.349190 0.000070 
#    z -0.208140 0.000070 5.789680 
# 
# 
# High freq. dielectric constant tensor:
#      x y z
#    x 1.845740 0.000000 -0.002430 
#    y 0.000000 1.828420 0.000000 
#    z -0.002430 0.000000 1.829590 
# 
# From -- ./inp_files/217676.got.cif
#   From: 2010.06.25/outbox.cif.g09.slc.cpg/sg12_109_cif.got.tgz:217676.got - 2010.06.28 00:19:55.
