data_PCOD8114593
_publ_section_title
;
Structure prediction by ZEFSAII (Michael W. Deem and Ramdas Pophale) SiO2 
 PCOD8114593
Probable space group: C 2/M
;
_chemical_formula_sum "Si O2"
_cell_formula_units_Z 64
_cell_length_a 14.238877
_cell_length_b 9.246165
_cell_length_c 29.759230
_cell_angle_alpha 90.000000
_cell_angle_beta 118.439987
_cell_angle_gamma 90.000000
_cell_volume 3445.119176
_symmetry_space_group_name_H-M "C 2/M"
_symmetry_group_IT_number 12
_symmetry_cell_setting 'monoclinic'
loop_
_space_group_symop_operation_xyz
x,y,z
-x,y,-z
-x,-y,-z
x,-y,z
1/2+x,1/2+y,z
1/2-x,1/2+y,-z
1/2-x,1/2-y,-z
1/2+x,1/2-y,z
loop_
_atom_site_type_symbol
_atom_site_label
_atom_site_fract_x
_atom_site_fract_y
_atom_site_fract_z
Si Si1 0.235431 0.172043 0.597087
Si Si2 0.463772 0.667630 0.866129
Si Si3 0.599012 0.341081 0.489002
Si Si4 0.033537 0.167014 0.782619
Si Si5 0.768732 0.331585 0.865806
Si Si6 0.966010 0.328176 0.680820
Si Si7 0.950885 0.172850 0.380556
Si Si8 0.196981 0.170584 0.946648
O O1 0.195235 0.237666 0.539130
O O2 0.351963 0.226975 0.636551
O O3 0.156965 0.221063 0.619091
O O4 0.230577 0.000000 0.591727
O O5 0.443899 0.500000 0.870413
O O6 0.472989 0.699029 0.815306
O O7 0.364797 0.751392 0.863855
O O8 0.573036 0.717140 0.915267
O O9 0.500000 0.355933 0.500000
O O10 0.639030 0.500000 0.484281
O O11 0.553774 0.267207 0.433058
O O12 0.158669 0.204164 0.815250
O O13 0.981406 0.272476 0.734556
O O14 0.018507 0.000000 0.765139
O O15 0.793423 0.500000 0.869007
O O16 0.758522 0.282492 0.915324
O O17 0.977733 0.500000 0.682760
O O18 0.052566 0.253747 0.667984
O O19 0.956263 0.000000 0.375235
O O20 0.205975 0.000000 0.955586
O O21 0.250000 0.250000 0.000000
#
# Coordination Sequence:
#
# PCOD8114593 Si02
#       8
#     8   8   8   8   8   8   8   8
#     4   8  16  31  49  70  97 127 160 199 243 296
#     4   9  19  36  57  79 104 136 175 216 256 296
#     4   7  11  24  48  71  89 119 163 199 230 286
#     4   9  20  39  55  69  97 134 170 210 253 301
#     4   9  19  36  57  78 102 136 176 213 252 299
#     4  11  22  33  48  74 103 127 158 206 258 301
#     4   9  17  32  53  72  93 127 166 199 239 298
#     4   9  19  35  53  79 115 148 175 208 250 295
#
# _framework density 18.577005
#
# number of rings (size 3 to 8) (size 9 to 14) (size 15 to 20)
#    0.000    3.125    0.000    3.375    0.000    4.000 
#    0.000   10.000    0.000    4.125    0.000    0.000 
#    0.000    0.000    0.000    0.000    0.000    0.000 
#
# Total GULP energy -396542.939895 kJ/mol
# GULP energy per Si atom -12391.966872 kJ/mol
# Density = 1.853472 g / cm^3
# Si number density = 18.577005 Si / 1000 Ang^3
#
#
#
# Elastic Constant Matrix: (Units=GPa)
#
#
# Indices 1 2 3 4 5 6 
#
# 1 101.3657 38.1942 37.3801 0.0000 -1.9193 0.0000
# 2 38.1942 49.3347 40.1214 0.0000 -2.3050 0.0000
# 3 37.3801 40.1214 105.4941 0.0000 -5.7482 0.0000
# 4 0.0000 0.0000 0.0000 28.4102 0.0000 0.4426
# 5 -1.9193 -2.3050 -5.7482 0.0000 18.1655 0.0000
# 6 0.0000 0.0000 0.0000 0.4426 0.0000 27.8868
#
#
#
# Elastic Compliance Matrix: (Units=1/GPa)
#
#
# Indices 1 2 3 4 5 6 
#
# 1 0.014036 -0.009877 -0.001226 0.000000 -0.000158 0.000000
# 2 -0.009877 0.036298 -0.010288 0.000000 0.000307 0.000000
# 3 -0.001226 -0.010288 0.013989 0.000000 0.002992 0.000000
# 4 0.000000 0.000000 0.000000 0.035207 0.000000 -0.000559
# 5 -0.000158 0.000307 0.002992 0.000000 0.056018 0.000000
# 6 0.000000 0.000000 0.000000 -0.000559 0.000000 0.035868
#
#
# Mechanical properties :
#
#
# Convention : Reuss Voigt Hill
#
# Bulk Modulus (GPa) = 46.42286 54.17623 50.29955
# Shear Modulus (GPa) = 20.71435 24.25907 22.48671
#
# Velocity S-wave (km/s) = 3.34286 3.61760 3.48294
# Velocity P-wave (km/s) = 6.32007 6.83196 6.58100
#
# Compressibility (1/GPa) = 0.02154111
#
# Stress axis : x y z
#
# Youngs Moduli (GPa) = 71.24601 27.55004 71.48343
#
# Poissons Ratio (x) = 0.27211 0.08761
# Poissons Ratio (y) = 0.70370 0.73543
# Poissons Ratio (z) = 0.08732 0.28344
#
# Static dielectric constant tensor:
#      x y z
#    x 3.385980 0.000000 0.043770 
#    y 0.000000 3.033970 0.000000 
#    z 0.043770 0.000000 3.602950 
# 
# 
# High freq. dielectric constant tensor:
#      x y z
#    x 1.720160 0.000000 -0.001650 
#    y 0.000000 1.689720 0.000000 
#    z -0.001650 0.000000 1.728950 
# 
# From -- ./inp_files/375083.got.cif
#   From: 2010.06.25/outbox.cif.g09.slc.cpg/sg12_188_cif.got.tgz:375083.got - 2010.06.28 00:19:55.
