data_PCOD8114701
_publ_section_title
;
Structure prediction by ZEFSAII (Michael W. Deem and Ramdas Pophale) SiO2 
 PCOD8114701
Probable space group: C 2/M
;
_chemical_formula_sum "Si O2"
_cell_formula_units_Z 32
_cell_length_a 14.078792
_cell_length_b 18.468798
_cell_length_c 9.955220
_cell_angle_alpha 90.000000
_cell_angle_beta 134.999996
_cell_angle_gamma 90.000000
_cell_volume 1830.374338
_symmetry_space_group_name_H-M "C 2/M"
_symmetry_group_IT_number 12
_symmetry_cell_setting 'monoclinic'
loop_
_space_group_symop_operation_xyz
x,y,z
-x,y,-z
-x,-y,-z
x,-y,z
1/2+x,1/2+y,z
1/2-x,1/2+y,-z
1/2-x,1/2-y,-z
1/2+x,1/2-y,z
loop_
_atom_site_type_symbol
_atom_site_label
_atom_site_fract_x
_atom_site_fract_y
_atom_site_fract_z
Si Si1 0.709093 0.418496 0.780444
Si Si2 0.428648 0.418496 0.637741
Si Si3 0.848931 0.277711 0.985922
Si Si4 0.136991 0.222289 0.288060
O O1 0.764109 0.500000 0.854317
O O2 0.581991 0.405094 0.749019
O O3 0.667031 0.405094 0.585038
O O4 0.826332 0.362945 0.936612
O O5 0.409791 0.500000 0.673900
O O6 0.389721 0.362945 0.716054
O O7 0.002530 0.268197 0.184698
O O8 0.750000 0.250000 0.000000
O O9 0.817832 0.231804 0.820362
O O10 0.250000 0.250000 0.500000
#
# Coordination Sequence:
#
# PCOD8114701 Si02
#       4
#     8   8   8   8
#     4   9  17  33  58  84 110 148 192 234 280 331
#     4   9  17  33  58  84 110 148 192 234 280 331
#     4  11  22  36  56  85 116 147 190 229 282 337
#     4  11  22  36  56  85 116 147 190 229 282 337
#
# _framework density 17.482762999999998
#
# number of rings (size 3 to 8) (size 9 to 14) (size 15 to 20)
#    0.000    2.000    5.000    1.500    0.000    1.000 
#    0.000    7.500    0.000    0.000    0.000    3.500 
#    0.000    0.000    0.000    0.000    0.000    0.000 
#
# Total GULP energy -198401.313513 kJ/mol
# GULP energy per Si atom -12400.082095 kJ/mol
# Density = 1.744297 g / cm^3
# Si number density = 17.482763 Si / 1000 Ang^3
#
#
#
# Elastic Constant Matrix: (Units=GPa)
#
#
# Indices 1 2 3 4 5 6 
#
# 1 104.1901 59.2913 57.2471 0.0000 -11.5770 0.0000
# 2 59.2913 166.5692 59.2919 0.0000 0.0001 0.0000
# 3 57.2471 59.2919 104.1909 0.0000 11.5773 0.0000
# 4 0.0000 0.0000 0.0000 33.5773 0.0000 0.0000
# 5 -11.5770 0.0001 11.5773 0.0000 29.5818 0.0000
# 6 0.0000 0.0000 0.0000 0.0000 0.0000 33.5771
#
#
#
# Elastic Compliance Matrix: (Units=1/GPa)
#
#
# Indices 1 2 3 4 5 6 
#
# 1 0.017393 -0.002986 -0.009005 0.000000 0.010331 0.000000
# 2 -0.002986 0.008129 -0.002986 0.000000 0.000000 0.000000
# 3 -0.009005 -0.002986 0.017393 0.000000 -0.010331 0.000000
# 4 0.000000 0.000000 0.000000 0.029782 0.000000 0.000000
# 5 0.010331 0.000000 -0.010331 0.000000 0.041891 0.000000
# 6 0.000000 0.000000 0.000000 0.000000 0.000000 0.029782
#
#
# Mechanical properties :
#
#
# Convention : Reuss Voigt Hill
#
# Bulk Modulus (GPa) = 77.15152 80.73453 78.94302
# Shear Modulus (GPa) = 27.98879 32.62188 30.30533
#
# Velocity S-wave (km/s) = 4.00551 4.32435 4.16798
# Velocity P-wave (km/s) = 8.10049 8.43878 8.27137
#
# Compressibility (1/GPa) = 0.01296151
#
# Stress axis : x y z
#
# Youngs Moduli (GPa) = 57.49537 123.01674 57.49551
#
# Poissons Ratio (x) = 0.36727 0.51777
# Poissons Ratio (y) = 0.17165 0.17166
# Poissons Ratio (z) = 0.51776 0.36728
#
# Static dielectric constant tensor:
#      x y z
#    x 3.170580 0.000000 0.000000 
#    y 0.000000 3.421210 0.000000 
#    z 0.000000 0.000000 3.170580 
# 
# 
# High freq. dielectric constant tensor:
#      x y z
#    x 1.663870 0.000000 0.000000 
#    y 0.000000 1.685000 0.000000 
#    z 0.000000 0.000000 1.663870 
# 
# From -- ./inp_files/46740.got.cif
#   From: 2010.06.25/outbox.cif.g09.slc.cpg/sg12_24_cif.got.tgz:46740.got - 2010.06.28 00:19:55.
