data_PCOD8114189
_publ_section_title
;
Structure prediction by ZEFSAII (Michael W. Deem and Ramdas Pophale) SiO2 
 PCOD8114189
Probable space group: C 2/M
;
_chemical_formula_sum "Si O2"
_cell_formula_units_Z 48
_cell_length_a 20.593253
_cell_length_b 8.759728
_cell_length_c 19.349402
_cell_angle_alpha 90.000000
_cell_angle_beta 130.921997
_cell_angle_gamma 90.000000
_cell_volume 2637.401498
_symmetry_space_group_name_H-M "C 2/M"
_symmetry_group_IT_number 12
_symmetry_cell_setting 'monoclinic'
loop_
_space_group_symop_operation_xyz
x,y,z
-x,y,-z
-x,-y,-z
x,-y,z
1/2+x,1/2+y,z
1/2-x,1/2+y,-z
1/2-x,1/2-y,-z
1/2+x,1/2-y,z
loop_
_atom_site_type_symbol
_atom_site_label
_atom_site_fract_x
_atom_site_fract_y
_atom_site_fract_z
Si Si1 0.780155 0.180066 0.729266
Si Si2 0.219207 0.181878 0.549708
Si Si3 0.736444 0.176240 0.063981
Si Si4 0.855905 0.823227 0.268795
Si Si5 0.030969 0.178876 0.449227
Si Si6 0.598362 0.818987 0.076889
O O1 0.779148 0.256506 0.653112
O O2 0.693073 0.223056 0.708662
O O3 0.863574 0.240840 0.828231
O O4 0.787256 0.000000 0.725981
O O5 0.250000 0.250000 0.500000
O O6 0.122277 0.247420 0.491031
O O7 0.223613 0.000000 0.550942
O O8 0.821263 0.212520 0.168236
O O9 0.652513 0.236433 0.047237
O O10 0.724459 0.000000 0.041387
O O11 0.750000 0.250000 0.000000
O O12 0.957433 0.785288 0.340869
O O13 0.838487 0.000000 0.276354
O O14 0.000000 0.251610 0.500000
O O15 0.044193 0.000000 0.468495
O O16 0.607346 0.000000 0.092143
O O17 0.500000 0.767027 0.000000
#
# Coordination Sequence:
#
# PCOD8114189 Si02
#       6
#     8   8   8   8   8   8
#     4  11  21  34  55  83 112 143 181 225 275 327
#     4  11  22  38  57  79 113 148 183 226 276 328
#     4   9  18  32  53  78 108 139 170 214 270 323
#     4   9  17  34  57  80 103 140 186 223 267 320
#     4   9  16  31  59  83 100 135 184 225 264 319
#     4   9  19  38  61  80 103 141 187 227 270 325
#
# _framework density 18.199731
#
# number of rings (size 3 to 8) (size 9 to 14) (size 15 to 20)
#    0.000    2.333    1.667    3.000    0.000    3.000 
#    3.000    2.500    0.000    0.000    0.000    0.000 
#    0.000    0.000    0.000    0.000    0.000    0.000 
#
# Total GULP energy -297535.844138 kJ/mol
# GULP energy per Si atom -12397.326839 kJ/mol
# Density = 1.815831 g / cm^3
# Si number density = 18.199731 Si / 1000 Ang^3
#
#
#
# Elastic Constant Matrix: (Units=GPa)
#
#
# Indices 1 2 3 4 5 6 
#
# 1 129.5073 37.9394 96.2861 0.0000 -0.0148 0.0000
# 2 37.9394 66.4372 50.4577 0.0000 -4.9967 0.0000
# 3 96.2861 50.4577 164.1290 0.0000 -2.5775 0.0000
# 4 0.0000 0.0000 0.0000 23.6497 0.0000 -9.5713
# 5 -0.0148 -4.9967 -2.5775 0.0000 37.0152 0.0000
# 6 0.0000 0.0000 0.0000 -9.5713 0.0000 24.5680
#
#
#
# Elastic Compliance Matrix: (Units=1/GPa)
#
#
# Indices 1 2 3 4 5 6 
#
# 1 0.013981 -0.002358 -0.007490 0.000000 -0.000834 0.000000
# 2 -0.002358 0.020220 -0.004795 0.000000 0.002395 0.000000
# 3 -0.007490 -0.004795 0.011964 0.000000 0.000183 0.000000
# 4 0.000000 0.000000 0.000000 0.050199 0.000000 0.019557
# 5 -0.000834 0.002395 0.000183 0.000000 0.027352 0.000000
# 6 0.000000 0.000000 0.000000 0.019557 0.000000 0.048322
#
#
# Mechanical properties :
#
#
# Convention : Reuss Voigt Hill
#
# Bulk Modulus (GPa) = 59.24760 81.04888 70.14824
# Shear Modulus (GPa) = 24.16029 28.73928 26.44979
#
# Velocity S-wave (km/s) = 3.64745 3.97811 3.81636
# Velocity P-wave (km/s) = 7.09671 8.10741 7.61884
#
# Compressibility (1/GPa) = 0.01687832
#
# Stress axis : x y z
#
# Youngs Moduli (GPa) = 71.52539 49.45482 83.58462
#
# Poissons Ratio (x) = 0.11662 0.62606
# Poissons Ratio (y) = 0.16867 0.40082
# Poissons Ratio (z) = 0.53573 0.23715
#
# Static dielectric constant tensor:
#      x y z
#    x 3.462270 0.000000 0.130920 
#    y 0.000000 3.141720 0.000000 
#    z 0.130920 0.000000 3.643670 
# 
# 
# High freq. dielectric constant tensor:
#      x y z
#    x 1.690920 0.000000 0.005730 
#    y 0.000000 1.685300 0.000000 
#    z 0.005730 0.000000 1.718630 
# 
# From -- ./inp_files/281826.got.cif
#   From: 2010.06.25/outbox.cif.g09.slc.cpg/sg12_141_cif.got.tgz:281826.got - 2010.06.28 00:19:55.
