data_PCOD8114435
_publ_section_title
;
Structure prediction by ZEFSAII (Michael W. Deem and Ramdas Pophale) SiO2 
 PCOD8114435
Probable space group: C 2/M
;
_chemical_formula_sum "Si O2"
_cell_formula_units_Z 64
_cell_length_a 23.272571
_cell_length_b 22.474822
_cell_length_c 17.263638
_cell_angle_alpha 90.000000
_cell_angle_beta 161.317310
_cell_angle_gamma 90.000000
_cell_volume 2892.452474
_symmetry_space_group_name_H-M "C 2/M"
_symmetry_group_IT_number 12
_symmetry_cell_setting 'monoclinic'
loop_
_space_group_symop_operation_xyz
x,y,z
-x,y,-z
-x,-y,-z
x,-y,z
1/2+x,1/2+y,z
1/2-x,1/2+y,-z
1/2-x,1/2-y,-z
1/2+x,1/2-y,z
loop_
_atom_site_type_symbol
_atom_site_label
_atom_site_fract_x
_atom_site_fract_y
_atom_site_fract_z
Si Si1 0.659450 0.753411 0.145477
Si Si2 0.151717 0.860078 0.047563
Si Si3 0.236010 0.639293 0.519887
Si Si4 0.957983 0.262936 0.645323
Si Si5 0.464775 0.116462 0.043364
Si Si6 0.205909 0.155855 0.955097
Si Si7 0.165500 0.067637 0.762273
Si Si8 0.285525 0.432532 0.729419
O O1 0.661666 0.711040 0.074065
O O2 0.851610 0.744486 0.429891
O O3 0.500000 0.733439 0.000000
O O4 0.634027 0.820161 0.084180
O O5 0.261449 0.895900 0.253043
O O6 0.247518 0.877420 0.089059
O O7 0.943112 0.875477 0.776001
O O8 0.177384 0.708143 0.463298
O O9 0.180446 0.598732 0.523502
O O10 0.148951 0.620260 0.326968
O O11 0.031871 0.196615 0.756103
O O12 0.125947 0.306265 0.856104
O O13 0.500000 0.094454 0.000000
O O14 0.340491 0.071136 0.931424
O O15 0.166852 0.108748 0.839000
O O16 0.000000 0.089429 0.500000
O O17 0.142750 0.000000 0.761486
O O18 0.215353 0.500000 0.645106
O O19 0.500000 0.430189 0.000000
#
# Coordination Sequence:
#
# PCOD8114435 Si02
#       8
#     8   8   8   8   8   8   8   8
#     4  11  21  38  64  98 138 174 209 274 338 391
#     4  11  22  37  66 101 137 172 218 270 324 399
#     4  11  21  41  65  96 137 171 219 274 332 386
#     4  11  22  42  63  95 138 174 218 262 331 403
#     4  11  26  42  67 100 124 170 226 285 335 392
#     4  11  26  41  65 100 128 179 219 271 329 400
#     4  11  26  50  69  87 131 180 223 279 341 400
#     4   9  19  39  64  93 130 174 215 260 322 385
#
# _framework density 22.126553000000001
#
# number of rings (size 3 to 8) (size 9 to 14) (size 15 to 20)
#    0.000    1.250    3.750    1.875    7.000    2.750 
#    0.000    0.000    0.000    0.750    0.000    0.000 
#    0.000    0.000    0.000    0.000    0.000    0.000 
#
# Total GULP energy -396664.275872 kJ/mol
# GULP energy per Si atom -12395.758621 kJ/mol
# Density = 2.207619 g / cm^3
# Si number density = 22.126553 Si / 1000 Ang^3
#
#
#
# Elastic Constant Matrix: (Units=GPa)
#
#
# Indices 1 2 3 4 5 6 
#
# 1 135.5464 44.3605 9.9431 0.0000 -36.4424 0.0000
# 2 44.3605 91.2366 12.5491 0.0000 -13.3074 0.0000
# 3 9.9431 12.5491 64.1919 -0.0002 -34.8299 -0.0001
# 4 0.0000 0.0000 -0.0002 24.0581 -0.0001 -4.1401
# 5 -36.4424 -13.3074 -34.8299 -0.0001 33.3397 -0.0001
# 6 0.0000 0.0000 -0.0001 -4.1401 -0.0001 13.5822
#
#
#
# Elastic Compliance Matrix: (Units=1/GPa)
#
#
# Indices 1 2 3 4 5 6 
#
# 1 0.017291 -0.005729 0.017213 0.000000 0.034596 0.000000
# 2 -0.005729 0.013545 -0.005136 0.000000 -0.006221 0.000000
# 3 0.017213 -0.005136 0.053128 0.000001 0.072268 0.000001
# 4 0.000000 0.000000 0.000001 0.043867 0.000001 0.013371
# 5 0.034596 -0.006221 0.072268 0.000001 0.140825 0.000002
# 6 0.000000 0.000000 0.000001 0.013371 0.000002 0.077702
#
#
# Mechanical properties :
#
#
# Convention : Reuss Voigt Hill
#
# Bulk Modulus (GPa) = 10.34547 47.18670 28.76608
# Shear Modulus (GPa) = 13.66566 29.13749 21.40157
#
# Velocity S-wave (km/s) = 2.48788 3.63279 3.11341
# Velocity P-wave (km/s) = 3.59701 6.24246 5.09445
#
# Compressibility (1/GPa) = 0.09666070
#
# Stress axis : x y z
#
# Youngs Moduli (GPa) = 57.83317 73.82827 18.82255
#
# Poissons Ratio (x) = 0.42294 -0.32400
# Poissons Ratio (y) = 0.33131 0.09667
# Poissons Ratio (z) = -0.99549 0.37919
#
# Static dielectric constant tensor:
#      x y z
#    x 4.011610 0.000000 -0.230030 
#    y 0.000000 3.941790 0.000000 
#    z -0.230030 0.000000 4.063030 
# 
# 
# High freq. dielectric constant tensor:
#      x y z
#    x 1.868870 0.000000 -0.020310 
#    y 0.000000 1.853200 0.000000 
#    z -0.020310 0.000000 1.876070 
# 
# From -- ./inp_files/291115.got.cif
#   From: 2010.06.25/outbox.cif.g09.slc.cpg/sg12_146_cif.got.tgz:291115.got - 2010.06.28 00:19:55.
