data_PCOD8114305
_publ_section_title
;
Structure prediction by ZEFSAII (Michael W. Deem and Ramdas Pophale) SiO2 
 PCOD8114305
Probable space group: C 2/M
;
_chemical_formula_sum "Si O2"
_cell_formula_units_Z 48
_cell_length_a 10.084108
_cell_length_b 28.529398
_cell_length_c 17.297177
_cell_angle_alpha 90.000000
_cell_angle_beta 151.375494
_cell_angle_gamma 90.000000
_cell_volume 2383.976042
_symmetry_space_group_name_H-M "C 2/M"
_symmetry_group_IT_number 12
_symmetry_cell_setting 'monoclinic'
loop_
_space_group_symop_operation_xyz
x,y,z
-x,y,-z
-x,-y,-z
x,-y,z
1/2+x,1/2+y,z
1/2-x,1/2+y,-z
1/2-x,1/2-y,-z
1/2+x,1/2-y,z
loop_
_atom_site_type_symbol
_atom_site_label
_atom_site_fract_x
_atom_site_fract_y
_atom_site_fract_z
Si Si1 0.451306 0.647004 0.154572
Si Si2 0.448635 0.051007 0.210866
Si Si3 0.482107 0.306101 0.330345
Si Si4 0.438854 0.147520 0.781147
Si Si5 0.416567 0.199231 0.299365
Si Si6 0.407960 0.551159 0.829856
O O1 0.401874 0.662355 0.216632
O O2 0.660162 0.681664 0.218265
O O3 0.574522 0.594027 0.221283
O O4 0.157481 0.648818 0.962294
O O5 0.642921 0.093867 0.283205
O O6 0.368337 0.057184 0.259856
O O7 0.593720 0.000000 0.272374
O O8 0.169274 0.053565 0.019300
O O9 0.372757 0.253889 0.259219
O O10 0.809583 0.307880 0.509806
O O11 0.339258 0.326583 0.334445
O O12 0.574843 0.172295 0.777030
O O13 0.400141 0.500000 0.783599
#
# Coordination Sequence:
#
# PCOD8114305 Si02
#       6
#     8   8   8   8   8   8
#     4  11  21  36  60  88 110 139 189 240 276 315
#     4   8  14  28  53  83 111 141 181 225 270 329
#     4  11  25  39  54  79 118 152 179 227 290 339
#     4  11  21  36  60  88 110 139 189 240 276 315
#     4  11  23  41  58  75 108 160 195 213 270 353
#     4   8  14  28  53  83 111 141 181 225 270 329
#
# _framework density 20.134429999999998
#
# number of rings (size 3 to 8) (size 9 to 14) (size 15 to 20)
#    0.000    2.000    1.667    4.000    0.000    6.667 
#    0.000    0.833    0.000   10.000    0.000    0.000 
#    0.000    0.000    0.000    0.000    0.000    0.000 
#
# Total GULP energy -297563.934431 kJ/mol
# GULP energy per Si atom -12398.497268 kJ/mol
# Density = 2.008860 g / cm^3
# Si number density = 20.134430 Si / 1000 Ang^3
#
#
#
# Elastic Constant Matrix: (Units=GPa)
#
#
# Indices 1 2 3 4 5 6 
#
# 1 64.2998 34.4171 3.4438 0.0000 0.6840 0.0003
# 2 34.4171 170.8800 20.8727 -0.0001 -2.7137 0.0000
# 3 3.4438 20.8727 19.4041 0.0006 2.2172 0.0004
# 4 0.0000 -0.0001 0.0006 0.1906 0.0002 3.0842
# 5 0.6840 -2.7137 2.2172 0.0002 26.7914 0.0002
# 6 0.0003 0.0000 0.0004 3.0842 0.0002 18.0685
#
#
#
# Elastic Compliance Matrix: (Units=1/GPa)
#
#
# Indices 1 2 3 4 5 6 
#
# 1 0.017463 -0.003644 0.000922 0.000002 -0.000891 -0.000001
# 2 -0.003644 0.007542 -0.007637 -0.000015 0.001489 0.000003
# 3 0.000922 -0.007637 0.060247 0.000100 -0.005783 -0.000019
# 4 0.000002 -0.000015 0.000100 -2.977995 0.000006 0.508322
# 5 -0.000891 0.001489 -0.005783 0.000006 0.037978 -0.000001
# 6 -0.000001 0.000003 -0.000019 0.508322 -0.000001 -0.031422
#
#
# Mechanical properties :
#
#
# Convention : Reuss Voigt Hill
#
# Bulk Modulus (GPa) = 15.49530 41.33903 28.41716
# Shear Modulus (GPa) = -1.75811 22.06682 10.15435
#
# Velocity S-wave (km/s) = -0.93546 3.31414 2.24816
# Velocity P-wave (km/s) = 2.55849 5.93471 4.56983
#
# Compressibility (1/GPa) = 0.06453569
#
# Stress axis : x y z
#
# Youngs Moduli (GPa) = 57.26489 132.58274 16.59829
#
# Poissons Ratio (x) = 0.48313 -0.01531
# Poissons Ratio (y) = 0.20867 0.12676
# Poissons Ratio (z) = -0.05282 1.01250
#
# Static dielectric constant tensor:
#      x y z
#    x 3.441010 0.000000 0.035560 
#    y 0.000000 4.232140 0.000000 
#    z 0.035560 0.000000 3.302360 
# 
# 
# High freq. dielectric constant tensor:
#      x y z
#    x 1.770670 0.000000 0.003700 
#    y 0.000000 1.808750 0.000000 
#    z 0.003700 0.000000 1.755560 
# 
# From -- ./inp_files/80836.got.cif
#   From: 2010.06.25/outbox.cif.g09.slc.cpg/sg12_41_cif.got.tgz:80836.got - 2010.06.28 00:19:55.
