data_PCOD8114341
_publ_section_title
;
Structure prediction by ZEFSAII (Michael W. Deem and Ramdas Pophale) SiO2 
 PCOD8114341
Probable space group: C 2/M
;
_chemical_formula_sum "Si O2"
_cell_formula_units_Z 56
_cell_length_a 18.153586
_cell_length_b 14.989951
_cell_length_c 11.448688
_cell_angle_alpha 90.000000
_cell_angle_beta 58.368890
_cell_angle_gamma 90.000000
_cell_volume 2652.611097
_symmetry_space_group_name_H-M "C 2/M"
_symmetry_group_IT_number 12
_symmetry_cell_setting 'monoclinic'
loop_
_space_group_symop_operation_xyz
x,y,z
-x,y,-z
-x,-y,-z
x,-y,z
1/2+x,1/2+y,z
1/2-x,1/2+y,-z
1/2-x,1/2-y,-z
1/2+x,1/2-y,z
loop_
_atom_site_type_symbol
_atom_site_label
_atom_site_fract_x
_atom_site_fract_y
_atom_site_fract_z
Si Si1 0.414535 0.744878 0.505715
Si Si2 0.854948 0.398829 0.249135
Si Si3 0.023410 0.756983 0.804241
Si Si4 0.333762 0.690970 0.954233
Si Si5 0.685221 0.397605 0.267779
Si Si6 0.371842 0.601854 0.160503
Si Si7 0.705342 0.900647 0.443132
O O1 0.500000 0.775149 0.500000
O O2 0.433951 0.724184 0.355574
O O3 0.375290 0.657001 0.595136
O O4 0.351253 0.828274 0.577380
O O5 0.889621 0.500000 0.208786
O O6 0.937518 0.333886 0.173312
O O7 0.786967 0.374158 0.203263
O O8 0.800859 0.385196 0.413259
O O9 0.045024 0.839677 0.872050
O O10 0.919901 0.747445 0.882260
O O11 0.340810 0.619884 0.843901
O O12 0.250000 0.750000 0.000000
O O13 0.325775 0.637521 0.081574
O O14 0.668370 0.500000 0.313006
O O15 0.401907 0.500000 0.117840
O O16 0.304100 0.611407 0.322592
O O17 0.672110 0.000000 0.437383
#
# Coordination Sequence:
#
# PCOD8114341 Si02
#       7
#     8   8   8   8   8   8   8
#     4  11  21  37  60  93 125 157 196 248 310 362
#     4   9  19  39  67  94 120 152 196 253 308 359
#     4  11  23  40  64  91 119 158 205 253 299 358
#     4  12  25  42  62  85 122 166 205 250 301 358
#     4  11  23  40  61  91 127 161 197 246 304 361
#     4  11  24  41  63  90 122 163 207 246 294 359
#     4   9  19  37  63  92 122 155 198 248 303 363
#
# _framework density 21.111274000000002
#
# number of rings (size 3 to 8) (size 9 to 14) (size 15 to 20)
#    0.000    1.429    1.429    4.286    0.000    6.286 
#    0.000    1.429    0.000    3.429    0.000    0.000 
#    0.000    0.000    0.000    0.000    0.000    0.000 
#
# Total GULP energy -347296.255449 kJ/mol
# GULP energy per Si atom -12403.437695 kJ/mol
# Density = 2.106322 g / cm^3
# Si number density = 21.111274 Si / 1000 Ang^3
#
#
#
# Elastic Constant Matrix: (Units=GPa)
#
#
# Indices 1 2 3 4 5 6 
#
# 1 131.5562 55.3162 29.5441 0.0000 -3.7705 0.0000
# 2 55.3162 100.9674 34.4359 0.0000 -3.6846 0.0000
# 3 29.5441 34.4359 65.2618 0.0000 -1.7426 0.0000
# 4 0.0000 0.0000 0.0000 21.9424 0.0000 9.4642
# 5 -3.7705 -3.6846 -1.7426 0.0000 36.5466 0.0000
# 6 0.0000 0.0000 0.0000 9.4642 0.0000 25.7795
#
#
#
# Elastic Compliance Matrix: (Units=1/GPa)
#
#
# Indices 1 2 3 4 5 6 
#
# 1 0.010096 -0.004829 -0.002010 0.000000 0.000459 0.000000
# 2 -0.004829 0.014418 -0.005403 0.000000 0.000698 0.000000
# 3 -0.002010 -0.005403 0.019088 0.000000 0.000158 0.000000
# 4 0.000000 0.000000 0.000000 0.054148 0.000000 -0.019879
# 5 0.000459 0.000698 0.000158 0.000000 0.027488 0.000000
# 6 0.000000 0.000000 0.000000 -0.019879 0.000000 0.046088
#
#
# Mechanical properties :
#
#
# Convention : Reuss Voigt Hill
#
# Bulk Modulus (GPa) = 52.30731 59.59752 55.95241
# Shear Modulus (GPa) = 24.72997 28.75301 26.74149
#
# Velocity S-wave (km/s) = 3.42630 3.69450 3.56292
# Velocity P-wave (km/s) = 6.36266 6.81840 6.59447
#
# Compressibility (1/GPa) = 0.01911779
#
# Stress axis : x y z
#
# Youngs Moduli (GPa) = 99.04487 69.35746 52.38857
#
# Poissons Ratio (x) = 0.33493 0.10532
# Poissons Ratio (y) = 0.47829 0.28306
# Poissons Ratio (z) = 0.19911 0.37474
#
# Static dielectric constant tensor:
#      x y z
#    x 3.893420 0.000000 0.161800 
#    y 0.000000 3.864360 0.000000 
#    z 0.161800 0.000000 3.808240 
# 
# 
# High freq. dielectric constant tensor:
#      x y z
#    x 1.829890 0.000000 0.007110 
#    y 0.000000 1.829800 0.000000 
#    z 0.007110 0.000000 1.832540 
# 
# From -- ./inp_files/156517.got.cif
#   From: 2010.06.25/outbox.cif.g09.slc.cpg/sg12_79_cif.got.tgz:156517.got - 2010.06.28 00:19:55.
