data_PCOD8114916
_publ_section_title
;
Structure prediction by ZEFSAII (Michael W. Deem and Ramdas Pophale) SiO2 
 PCOD8114916
Probable space group: C 2/M
;
_chemical_formula_sum "Si O2"
_cell_formula_units_Z 56
_cell_length_a 11.418214
_cell_length_b 29.945935
_cell_length_c 9.271005
_cell_angle_alpha 90.000000
_cell_angle_beta 60.243996
_cell_angle_gamma 90.000000
_cell_volume 2752.048261
_symmetry_space_group_name_H-M "C 2/M"
_symmetry_group_IT_number 12
_symmetry_cell_setting 'monoclinic'
loop_
_space_group_symop_operation_xyz
x,y,z
-x,y,-z
-x,-y,-z
x,-y,z
1/2+x,1/2+y,z
1/2-x,1/2+y,-z
1/2-x,1/2-y,-z
1/2+x,1/2-y,z
loop_
_atom_site_type_symbol
_atom_site_label
_atom_site_fract_x
_atom_site_fract_y
_atom_site_fract_z
Si Si1 0.647048 0.086387 0.915393
Si Si2 0.602094 0.303582 0.195812
Si Si3 0.277268 0.159933 0.337931
Si Si4 0.113938 0.126156 0.692515
Si Si5 0.933140 0.049723 0.695564
Si Si6 0.225061 0.642132 0.128364
Si Si7 0.489422 0.788919 0.669568
O O1 0.631093 0.130020 0.823941
O O2 0.771100 0.056073 0.784255
O O3 0.500000 0.061719 0.000000
O O4 0.679327 0.100868 0.058508
O O5 0.659261 0.317309 0.317223
O O6 0.456212 0.325737 0.267024
O O7 0.580577 0.250449 0.195485
O O8 0.695727 0.320009 0.008752
O O9 0.216854 0.126327 0.495349
O O10 0.364258 0.199676 0.354538
O O11 0.188366 0.119828 0.798117
O O12 0.001333 0.087014 0.755134
O O13 0.000000 0.055586 0.500000
O O14 0.961859 0.000000 0.738580
O O15 0.096467 0.665875 0.276764
O O16 0.500000 0.771661 0.500000
#
# Coordination Sequence:
#
# PCOD8114916 Si02
#       7
#     8   8   8   8   8   8   8
#     4  11  22  42  65  94 130 168 207 255 326 385
#     4  11  25  38  59  85 124 168 213 270 310 368
#     4  11  22  39  63  86 122 174 217 257 308 381
#     4  12  21  42  64  90 124 164 209 263 319 373
#     4  11  23  42  73 102 124 160 212 261 316 391
#     4  11  24  39  60  91 125 170 209 260 323 368
#     4  12  24  39  58  91 125 170 224 265 307 367
#
# _framework density 20.348479000000001
#
# number of rings (size 3 to 8) (size 9 to 14) (size 15 to 20)
#    0.000    0.714    7.143    2.143    2.000    1.429 
#    5.143    1.429    0.000    0.000    0.000    3.000 
#    0.000    0.000    0.000    0.000    0.000    0.000 
#
# Total GULP energy -347265.771965 kJ/mol
# GULP energy per Si atom -12402.348999 kJ/mol
# Density = 2.030217 g / cm^3
# Si number density = 20.348479 Si / 1000 Ang^3
#
#
#
# Elastic Constant Matrix: (Units=GPa)
#
#
# Indices 1 2 3 4 5 6 
#
# 1 131.2756 32.8405 50.3048 0.0000 1.2616 0.0000
# 2 32.8405 77.9701 15.3318 0.0000 -1.7645 0.0000
# 3 50.3048 15.3318 83.9274 0.0000 -1.9188 0.0000
# 4 0.0000 0.0000 0.0000 9.3343 0.0000 -2.5017
# 5 1.2616 -1.7645 -1.9188 0.0000 37.2642 0.0000
# 6 0.0000 0.0000 0.0000 -2.5017 0.0000 14.0004
#
#
#
# Elastic Compliance Matrix: (Units=1/GPa)
#
#
# Indices 1 2 3 4 5 6 
#
# 1 0.010699 -0.003382 -0.005814 0.000000 -0.000822 0.000000
# 2 -0.003382 0.014382 -0.000583 0.000000 0.000765 0.000000
# 3 -0.005814 -0.000583 0.015529 0.000000 0.000969 0.000000
# 4 0.000000 0.000000 0.000000 0.112520 0.000000 0.020106
# 5 -0.000822 0.000765 0.000969 0.000000 0.026949 0.000000
# 6 0.000000 0.000000 0.000000 0.020106 0.000000 0.075019
#
#
# Mechanical properties :
#
#
# Convention : Reuss Voigt Hill
#
# Bulk Modulus (GPa) = 47.50044 54.45857 50.97950
# Shear Modulus (GPa) = 17.75107 25.09950 21.42528
#
# Velocity S-wave (km/s) = 2.95677 3.51591 3.24839
# Velocity P-wave (km/s) = 5.92037 6.58052 6.25915
#
# Compressibility (1/GPa) = 0.02105244
#
# Stress axis : x y z
#
# Youngs Moduli (GPa) = 93.46286 69.53250 64.39758
#
# Poissons Ratio (x) = 0.23515 0.37441
# Poissons Ratio (y) = 0.31608 0.03752
# Poissons Ratio (z) = 0.54340 0.04052
#
# Static dielectric constant tensor:
#      x y z
#    x 3.718310 0.000000 -0.061110 
#    y 0.000000 3.432200 0.000000 
#    z -0.061110 0.000000 3.726390 
# 
# 
# High freq. dielectric constant tensor:
#      x y z
#    x 1.801610 0.000000 -0.006970 
#    y 0.000000 1.763870 0.000000 
#    z -0.006970 0.000000 1.803200 
# 
# From -- ./inp_files/54610.got.cif
#   From: 2010.06.25/outbox.cif.g09.slc.cpg/sg12_28_cif.got.tgz:54610.got - 2010.06.28 00:19:55.
