data_PCOD8114745
_publ_section_title
;
Structure prediction by ZEFSAII (Michael W. Deem and Ramdas Pophale) SiO2 
 PCOD8114745
Probable space group: C 2/M
;
_chemical_formula_sum "Si O2"
_cell_formula_units_Z 48
_cell_length_a 14.970263
_cell_length_b 8.389386
_cell_length_c 26.299398
_cell_angle_alpha 90.000000
_cell_angle_beta 134.187241
_cell_angle_gamma 90.000000
_cell_volume 2368.451239
_symmetry_space_group_name_H-M "C 2/M"
_symmetry_group_IT_number 12
_symmetry_cell_setting 'monoclinic'
loop_
_space_group_symop_operation_xyz
x,y,z
-x,y,-z
-x,-y,-z
x,-y,z
1/2+x,1/2+y,z
1/2-x,1/2+y,-z
1/2-x,1/2-y,-z
1/2+x,1/2-y,z
loop_
_atom_site_type_symbol
_atom_site_label
_atom_site_fract_x
_atom_site_fract_y
_atom_site_fract_z
Si Si1 0.660476 0.682850 0.832318
Si Si2 0.537368 0.813611 0.321827
Si Si3 0.300374 0.811160 0.411610
Si Si4 0.523236 0.811641 0.430336
Si Si5 0.375977 0.815161 0.073865
Si Si6 0.925564 0.185640 0.920410
O O1 0.650516 0.500000 0.845225
O O2 0.565568 0.717421 0.749563
O O3 0.626118 0.792416 0.866590
O O4 0.798381 0.716988 0.866602
O O5 0.672452 0.781737 0.351574
O O6 0.535948 0.743609 0.378636
O O7 0.505270 0.000000 0.307326
O O8 0.390629 0.760422 0.401206
O O9 0.363246 0.750686 0.489278
O O10 0.276380 0.000000 0.402715
O O11 0.530697 0.000000 0.432853
O O12 0.493134 0.722015 0.097080
O O13 0.388837 0.000000 0.065698
O O14 0.250000 0.750000 0.000000
O O15 0.892854 0.000000 0.909877
O O16 0.000000 0.240495 0.000000
#
# Coordination Sequence:
#
# PCOD8114745 Si02
#       6
#     8   8   8   8   8   8
#     4  12  26  43  62  88 122 164 209 255 307 363
#     4  11  22  37  56  84 122 158 196 249 309 363
#     4   9  17  35  60  86 114 154 204 245 293 361
#     4   8  17  34  59  85 115 156 199 244 296 359
#     4  12  24  41  66  94 122 155 197 248 303 363
#     4  11  23  41  67  94 122 156 197 247 303 363
#
# _framework density 20.266408999999999
#
# number of rings (size 3 to 8) (size 9 to 14) (size 15 to 20)
#    0.000    1.500    1.667    5.500    0.000    2.000 
#    0.000    9.167    0.000    0.000    0.000    0.000 
#    0.000    0.000    0.000    0.000    0.000    0.000 
#
# Total GULP energy -297715.400320 kJ/mol
# GULP energy per Si atom -12404.808347 kJ/mol
# Density = 2.022028 g / cm^3
# Si number density = 20.266409 Si / 1000 Ang^3
#
#
#
# Elastic Constant Matrix: (Units=GPa)
#
#
# Indices 1 2 3 4 5 6 
#
# 1 105.5475 9.0302 41.7181 0.0000 15.3147 0.0000
# 2 9.0302 61.8419 21.7311 0.0000 4.0962 0.0000
# 3 41.7181 21.7311 111.4533 0.0000 19.4147 0.0000
# 4 0.0000 0.0000 0.0000 30.8774 0.0000 4.6650
# 5 15.3147 4.0962 19.4147 0.0000 30.8594 0.0000
# 6 0.0000 0.0000 0.0000 4.6650 0.0000 31.8398
#
#
#
# Elastic Compliance Matrix: (Units=1/GPa)
#
#
# Indices 1 2 3 4 5 6 
#
# 1 0.011420 -0.000160 -0.003661 0.000000 -0.003343 0.000000
# 2 -0.000160 0.017363 -0.003300 0.000000 -0.000150 0.000000
# 3 -0.003661 -0.003300 0.011897 0.000000 -0.005230 0.000000
# 4 0.000000 0.000000 0.000000 0.033119 0.000000 -0.004852
# 5 -0.003343 -0.000150 -0.005230 0.000000 0.037374 0.000000
# 6 0.000000 0.000000 0.000000 -0.004852 0.000000 0.032118
#
#
# Mechanical properties :
#
#
# Convention : Reuss Voigt Hill
#
# Bulk Modulus (GPa) = 37.82227 47.08903 42.45565
# Shear Modulus (GPa) = 30.05778 32.47287 31.26533
#
# Velocity S-wave (km/s) = 3.85532 4.00722 3.93200
# Velocity P-wave (km/s) = 6.20654 6.68549 6.45046
#
# Compressibility (1/GPa) = 0.02643945
#
# Stress axis : x y z
#
# Youngs Moduli (GPa) = 87.56378 57.59385 84.05327
#
# Poissons Ratio (x) = 0.00919 0.30774
# Poissons Ratio (y) = 0.01398 0.27734
# Poissons Ratio (z) = 0.32059 0.19004
#
# Static dielectric constant tensor:
#      x y z
#    x 3.955210 0.000000 -0.190930 
#    y 0.000000 3.546540 0.000000 
#    z -0.190930 0.000000 3.763040 
# 
# 
# High freq. dielectric constant tensor:
#      x y z
#    x 1.803060 0.000000 0.004250 
#    y 0.000000 1.781610 0.000000 
#    z 0.004250 0.000000 1.789320 
# 
# From -- ./inp_files/360321.got.cif
#   From: 2010.06.25/outbox.cif.g09.slc.cpg/sg12_181_cif.got.tgz:360321.got - 2010.06.28 00:19:55.
