data_PCOD8114709
_publ_section_title
;
Structure prediction by ZEFSAII (Michael W. Deem and Ramdas Pophale) SiO2 
 PCOD8114709
Probable space group: C 2/M
;
_chemical_formula_sum "Si O2"
_cell_formula_units_Z 56
_cell_length_a 9.656439
_cell_length_b 21.651279
_cell_length_c 18.230340
_cell_angle_alpha 90.000000
_cell_angle_beta 132.473192
_cell_angle_gamma 90.000000
_cell_volume 2811.333208
_symmetry_space_group_name_H-M "C 2/M"
_symmetry_group_IT_number 12
_symmetry_cell_setting 'monoclinic'
loop_
_space_group_symop_operation_xyz
x,y,z
-x,y,-z
-x,-y,-z
x,-y,z
1/2+x,1/2+y,z
1/2-x,1/2+y,-z
1/2-x,1/2-y,-z
1/2+x,1/2-y,z
loop_
_atom_site_type_symbol
_atom_site_label
_atom_site_fract_x
_atom_site_fract_y
_atom_site_fract_z
Si Si1 0.659604 0.929965 0.502960
Si Si2 0.289680 0.760927 0.429707
Si Si3 0.800219 0.427809 0.779908
Si Si4 0.936134 0.875466 0.705488
Si Si5 0.218793 0.427197 0.927492
Si Si6 0.076397 0.073229 0.142577
Si Si7 0.711203 0.623704 0.594627
O O1 0.500000 0.904319 0.500000
O O2 0.853921 0.923639 0.616692
O O3 0.657444 0.889423 0.428682
O O4 0.622909 0.000000 0.466675
O O5 0.500000 0.788464 0.500000
O O6 0.250000 0.750000 0.500000
O O7 0.136138 0.807031 0.340231
O O8 0.276541 0.696243 0.380988
O O9 0.769899 0.500000 0.788700
O O10 0.660576 0.384165 0.776835
O O11 0.777837 0.418167 0.685215
O O12 0.010878 0.405466 0.875862
O O13 0.871284 0.891451 0.764263
O O14 0.226811 0.500000 0.923034
O O15 0.279499 0.402876 0.868411
O O16 0.366392 0.406751 0.042562
O O17 0.089469 0.000000 0.161073
O O18 0.500000 0.603991 0.500000
#
# Coordination Sequence:
#
# PCOD8114709 Si02
#       7
#     8   8   8   8   8   8   8
#     4  11  23  35  51  83 119 150 185 235 294 343
#     4  11  23  41  58  78 112 156 207 239 280 334
#     4  11  22  36  57  87 118 152 189 233 297 354
#     4  12  22  35  55  84 116 153 192 239 283 342
#     4   8  18  36  57  83 117 154 189 231 293 364
#     4   9  18  35  58  85 117 151 190 240 295 349
#     4  11  22  39  58  78 111 158 195 243 282 341
#
# _framework density 19.919374000000001
#
# number of rings (size 3 to 8) (size 9 to 14) (size 15 to 20)
#    0.000    1.571    2.857    3.857    2.000    1.143 
#    0.000    2.143    0.000    0.857    0.000    0.000 
#    0.000    0.000    0.000    0.000    0.000    0.000 
#
# Total GULP energy -347154.823615 kJ/mol
# GULP energy per Si atom -12398.386558 kJ/mol
# Density = 1.987404 g / cm^3
# Si number density = 19.919374 Si / 1000 Ang^3
#
#
#
# Elastic Constant Matrix: (Units=GPa)
#
#
# Indices 1 2 3 4 5 6 
#
# 1 94.9169 22.2999 11.1613 0.0000 7.0723 0.0000
# 2 22.2999 73.1374 20.6663 0.0000 4.3144 0.0000
# 3 11.1613 20.6663 48.3896 0.0000 -2.7239 0.0000
# 4 0.0000 0.0000 0.0000 23.8801 0.0000 0.0052
# 5 7.0723 4.3144 -2.7239 0.0000 42.2090 0.0000
# 6 0.0000 0.0000 0.0000 0.0052 0.0000 15.3552
#
#
#
# Elastic Compliance Matrix: (Units=1/GPa)
#
#
# Indices 1 2 3 4 5 6 
#
# 1 0.011543 -0.003000 -0.001478 0.000000 -0.001723 0.000000
# 2 -0.003000 0.016504 -0.006446 0.000000 -0.001600 0.000000
# 3 -0.001478 -0.006446 0.023898 0.000000 0.002449 0.000000
# 4 0.000000 0.000000 0.000000 0.041876 0.000000 -0.000014
# 5 -0.001723 -0.001600 0.002449 0.000000 0.024302 0.000000
# 6 0.000000 0.000000 0.000000 -0.000014 0.000000 0.065124
#
#
# Mechanical properties :
#
#
# Convention : Reuss Voigt Hill
#
# Bulk Modulus (GPa) = 33.22869 36.07764 34.65316
# Shear Modulus (GPa) = 23.24214 27.10998 25.17606
#
# Velocity S-wave (km/s) = 3.41957 3.69316 3.55899
# Velocity P-wave (km/s) = 5.68411 6.02802 5.85859
#
# Compressibility (1/GPa) = 0.03009448
#
# Stress axis : x y z
#
# Youngs Moduli (GPa) = 86.63604 60.59284 41.84534
#
# Poissons Ratio (x) = 0.18178 0.06185
# Poissons Ratio (y) = 0.25992 0.26975
# Poissons Ratio (z) = 0.12805 0.39061
#
# Static dielectric constant tensor:
#      x y z
#    x 3.926330 0.000000 0.249910 
#    y 0.000000 3.465200 0.000000 
#    z 0.249910 0.000000 3.678270 
# 
# 
# High freq. dielectric constant tensor:
#      x y z
#    x 1.795740 0.000000 0.004620 
#    y 0.000000 1.745220 0.000000 
#    z 0.004620 0.000000 1.761890 
# 
# From -- ./inp_files/259267.got.cif
#   From: 2010.06.25/outbox.cif.g09.slc.cpg/sg12_130_cif.got.tgz:259267.got - 2010.06.28 00:19:55.
