data_PCOD8114990
_publ_section_title
;
Structure prediction by ZEFSAII (Michael W. Deem and Ramdas Pophale) SiO2 
 PCOD8114990
Probable space group: C 2/M
;
_chemical_formula_sum "Si O2"
_cell_formula_units_Z 40
_cell_length_a 13.482216
_cell_length_b 16.545722
_cell_length_c 12.174978
_cell_angle_alpha 90.000000
_cell_angle_beta 41.067169
_cell_angle_gamma 90.000000
_cell_volume 1784.198224
_symmetry_space_group_name_H-M "C 2/M"
_symmetry_group_IT_number 12
_symmetry_cell_setting 'monoclinic'
loop_
_space_group_symop_operation_xyz
x,y,z
-x,y,-z
-x,-y,-z
x,-y,z
1/2+x,1/2+y,z
1/2-x,1/2+y,-z
1/2-x,1/2-y,-z
1/2+x,1/2-y,z
loop_
_atom_site_type_symbol
_atom_site_label
_atom_site_fract_x
_atom_site_fract_y
_atom_site_fract_z
Si Si1 0.196934 0.325703 0.114377
Si Si2 0.997318 0.095364 0.824973
Si Si3 0.405048 0.089650 0.351036
Si Si4 0.718874 0.179204 0.345583
Si Si5 0.386924 0.649145 0.497270
O O1 0.154821 0.306458 0.276738
O O2 0.041915 0.356369 0.189286
O O3 0.250000 0.250000 0.000000
O O4 0.325255 0.394548 0.007321
O O5 0.107375 0.149236 0.810510
O O6 0.010737 0.136445 0.694771
O O7 0.039655 0.000000 0.791326
O O8 0.362112 0.111480 0.512701
O O9 0.260793 0.092434 0.389783
O O10 0.469044 0.000000 0.300494
O O11 0.686973 0.262254 0.436265
O O12 0.500000 0.625098 0.500000
#
# Coordination Sequence:
#
# PCOD8114990 Si02
#       5
#     8   8   8   8   8
#     4  12  24  41  63  92 128 164 205 254 310 370
#     4  11  24  40  63  95 128 162 203 255 315 371
#     4  11  24  40  63  95 126 160 207 259 310 366
#     4  11  22  40  66  91 120 164 210 253 303 368
#     4  11  22  42  66  89 121 166 214 254 302 368
#
# _framework density 22.419034
#
# number of rings (size 3 to 8) (size 9 to 14) (size 15 to 20)
#    0.000    0.800    0.000   11.400    0.000    6.400 
#    0.000    3.000    0.000    6.000    0.000    0.000 
#    0.000    0.000    0.000    0.000    0.000    0.000 
#
# Total GULP energy -247883.001174 kJ/mol
# GULP energy per Si atom -12394.150059 kJ/mol
# Density = 2.236801 g / cm^3
# Si number density = 22.419034 Si / 1000 Ang^3
#
#
#
# Elastic Constant Matrix: (Units=GPa)
#
#
# Indices 1 2 3 4 5 6 
#
# 1 147.9169 35.7909 50.9372 -0.0008 -4.3000 0.0003
# 2 35.7909 120.8835 43.8887 -0.0005 8.6814 0.0000
# 3 50.9372 43.8887 83.8209 -0.0012 -23.1581 0.0002
# 4 -0.0008 -0.0005 -0.0012 37.5221 0.0012 -13.6140
# 5 -4.3000 8.6814 -23.1581 0.0012 41.9471 -0.0002
# 6 0.0003 0.0000 0.0002 -13.6140 -0.0002 13.0745
#
#
#
# Elastic Compliance Matrix: (Units=1/GPa)
#
#
# Indices 1 2 3 4 5 6 
#
# 1 0.008761 -0.000347 -0.005751 0.000000 -0.002205 0.000000
# 2 -0.000347 0.011679 -0.007766 0.000000 -0.006740 0.000000
# 3 -0.005751 -0.007766 0.023332 0.000000 0.013899 0.000000
# 4 0.000000 0.000000 0.000000 0.042833 -0.000001 0.044601
# 5 -0.002205 -0.006740 0.013899 -0.000001 0.032682 -0.000001
# 6 0.000000 0.000000 0.000000 0.044601 -0.000001 0.122926
#
#
# Mechanical properties :
#
#
# Convention : Reuss Voigt Hill
#
# Bulk Modulus (GPa) = 62.33787 68.20609 65.27198
# Shear Modulus (GPa) = 18.16268 33.30905 25.73587
#
# Velocity S-wave (km/s) = 2.84939 3.85872 3.39181
# Velocity P-wave (km/s) = 6.22025 7.09523 6.67210
#
# Compressibility (1/GPa) = 0.01604161
#
# Stress axis : x y z
#
# Youngs Moduli (GPa) = 114.14119 85.62371 42.86043
#
# Poissons Ratio (x) = 0.02975 0.24651
# Poissons Ratio (y) = 0.03966 0.33286
# Poissons Ratio (z) = 0.65647 0.66497
#
# Static dielectric constant tensor:
#      x y z
#    x 4.125300 0.000000 -0.262640 
#    y 0.000000 3.909450 0.000000 
#    z -0.262640 0.000000 4.090580 
# 
# 
# High freq. dielectric constant tensor:
#      x y z
#    x 1.886280 0.000000 -0.019670 
#    y 0.000000 1.881860 0.000000 
#    z -0.019670 0.000000 1.887400 
# 
# From -- ./inp_files/145269.got.cif
#   From: 2010.06.25/outbox.cif.g09.slc.cpg/sg12_73_cif.got.tgz:145269.got - 2010.06.28 00:19:55.
