data_PCOD8114415
_publ_section_title
;
Structure prediction by ZEFSAII (Michael W. Deem and Ramdas Pophale) SiO2 
 PCOD8114415
Probable space group: C 2/M
;
_chemical_formula_sum "Si O2"
_cell_formula_units_Z 48
_cell_length_a 29.636454
_cell_length_b 8.417077
_cell_length_c 10.256083
_cell_angle_alpha 90.000000
_cell_angle_beta 71.813237
_cell_angle_gamma 90.000000
_cell_volume 2430.596510
_symmetry_space_group_name_H-M "C 2/M"
_symmetry_group_IT_number 12
_symmetry_cell_setting 'monoclinic'
loop_
_space_group_symop_operation_xyz
x,y,z
-x,y,-z
-x,-y,-z
x,-y,z
1/2+x,1/2+y,z
1/2-x,1/2+y,-z
1/2-x,1/2-y,-z
1/2+x,1/2-y,z
loop_
_atom_site_type_symbol
_atom_site_label
_atom_site_fract_x
_atom_site_fract_y
_atom_site_fract_z
Si Si1 0.944590 0.688265 0.916603
Si Si2 0.294267 0.814921 0.222354
Si Si3 0.845092 0.688805 0.916793
Si Si4 0.951567 0.688051 0.206495
Si Si5 0.692409 0.814445 0.325468
Si Si6 0.141252 0.182703 0.615988
O O1 0.944126 0.500000 0.919148
O O2 0.899213 0.755113 0.878200
O O3 0.994481 0.742925 0.806566
O O4 0.940823 0.745387 0.069124
O O5 0.247714 0.715972 0.301364
O O6 0.333001 0.791248 0.299892
O O7 0.281294 0.000000 0.225515
O O8 0.314380 0.749329 0.066914
O O9 0.846080 0.500000 0.920261
O O10 0.821544 0.750696 0.805141
O O11 0.945423 0.500000 0.228307
O O12 0.914768 0.776489 0.334530
O O13 0.661048 0.718217 0.455520
O O14 0.681324 0.000000 0.350344
O O15 0.149955 0.000000 0.642712
#
# Coordination Sequence:
#
# PCOD8114415 Si02
#       6
#     8   8   8   8   8   8
#     4   8  14  29  57  89 111 136 178 227 275 324
#     4  11  21  38  62  84 109 142 185 233 278 327
#     4   9  18  34  59  87 113 142 181 227 274 329
#     4   9  16  31  59  86 110 140 180 229 276 322
#     4  11  23  38  56  81 114 149 185 226 275 330
#     4  12  24  38  55  80 114 150 188 228 273 327
#
# _framework density 19.748239000000002
#
# number of rings (size 3 to 8) (size 9 to 14) (size 15 to 20)
#    0.000    2.000    1.667    4.500    0.000    0.000 
#    0.000    5.000    0.000    5.000    0.000    0.000 
#    0.000    0.000    0.000    0.000    0.000    0.000 
#
# Total GULP energy -297601.857461 kJ/mol
# GULP energy per Si atom -12400.077394 kJ/mol
# Density = 1.970329 g / cm^3
# Si number density = 19.748239 Si / 1000 Ang^3
#
#
#
# Elastic Constant Matrix: (Units=GPa)
#
#
# Indices 1 2 3 4 5 6 
#
# 1 89.5103 19.4260 44.2297 0.0000 -33.1579 0.0000
# 2 19.4260 41.7594 17.7037 0.0000 -3.1514 0.0000
# 3 44.2297 17.7037 123.1450 0.0000 -20.6898 0.0000
# 4 0.0000 0.0000 0.0000 20.1277 0.0000 -6.9303
# 5 -33.1579 -3.1514 -20.6898 0.0000 34.9934 0.0000
# 6 0.0000 0.0000 0.0000 -6.9303 0.0000 20.7678
#
#
#
# Elastic Compliance Matrix: (Units=1/GPa)
#
#
# Indices 1 2 3 4 5 6 
#
# 1 0.020676 -0.006814 -0.003617 0.000000 0.016839 0.000000
# 2 -0.006814 0.027747 -0.002450 0.000000 -0.005406 0.000000
# 3 -0.003617 -0.002450 0.010169 0.000000 0.002364 0.000000
# 4 0.000000 0.000000 0.000000 0.056132 0.000000 0.018731
# 5 0.016839 -0.005406 0.002364 0.000000 0.045444 0.000000
# 6 0.000000 0.000000 0.000000 0.018731 0.000000 0.054402
#
#
# Mechanical properties :
#
#
# Convention : Reuss Voigt Hill
#
# Bulk Modulus (GPa) = 30.46017 46.34817 38.40417
# Shear Modulus (GPa) = 19.89843 26.71478 23.30661
#
# Velocity S-wave (km/s) = 3.17772 3.68199 3.43911
# Velocity P-wave (km/s) = 5.37788 6.44954 5.93794
#
# Compressibility (1/GPa) = 0.03282976
#
# Stress axis : x y z
#
# Youngs Moduli (GPa) = 48.36552 36.03975 98.33613
#
# Poissons Ratio (x) = 0.24557 0.35572
# Poissons Ratio (y) = 0.32956 0.24092
# Poissons Ratio (z) = 0.17496 0.08830
#
# Static dielectric constant tensor:
#      x y z
#    x 3.923420 0.000000 -0.118080 
#    y 0.000000 3.160830 0.000000 
#    z -0.118080 0.000000 3.589300 
# 
# 
# High freq. dielectric constant tensor:
#      x y z
#    x 1.778350 0.000000 -0.018330 
#    y 0.000000 1.737740 0.000000 
#    z -0.018330 0.000000 1.760060 
# 
# From -- ./inp_files/185741.got.cif
#   From: 2010.06.25/outbox.cif.g09.slc.cpg/sg12_93_cif.got.tgz:185741.got - 2010.06.28 00:19:55.
