data_PCOD8114019
_publ_section_title
;
Structure prediction by ZEFSAII (Michael W. Deem and Ramdas Pophale) SiO2 
 PCOD8114019
Probable space group: C 2/M
;
_chemical_formula_sum "Si O2"
_cell_formula_units_Z 40
_cell_length_a 25.072599
_cell_length_b 18.218211
_cell_length_c 8.952748
_cell_angle_alpha 90.000000
_cell_angle_beta 29.382181
_cell_angle_gamma 90.000000
_cell_volume 2006.402247
_symmetry_space_group_name_H-M "C 2/M"
_symmetry_group_IT_number 12
_symmetry_cell_setting 'monoclinic'
loop_
_space_group_symop_operation_xyz
x,y,z
-x,y,-z
-x,-y,-z
x,-y,z
1/2+x,1/2+y,z
1/2-x,1/2+y,-z
1/2-x,1/2-y,-z
1/2+x,1/2-y,z
loop_
_atom_site_type_symbol
_atom_site_label
_atom_site_fract_x
_atom_site_fract_y
_atom_site_fract_z
Si Si1 0.414565 0.723622 0.326022
Si Si2 0.069635 0.219439 0.188678
Si Si3 0.207676 0.648528 0.710947
Si Si4 0.872448 0.500000 0.963015
Si Si5 0.284187 0.858865 0.663500
Si Si6 0.879776 0.500000 0.591108
O O1 0.483140 0.682048 0.286655
O O2 0.331140 0.670141 0.446641
O O3 0.354406 0.791210 0.554640
O O4 0.500000 0.756108 0.000000
O O5 0.000000 0.246002 0.500000
O O6 0.125549 0.290347 0.975129
O O7 0.158261 0.157052 0.011281
O O8 0.196276 0.639113 0.561796
O O9 0.189292 0.571407 0.832460
O O10 0.864732 0.500000 0.804149
O O11 0.991264 0.500000 0.749203
O O12 0.323339 0.930912 0.651526
#
# Coordination Sequence:
#
# PCOD8114019 Si02
#       6
#     8   8   8   4   8   4
#     4  11  20  40  67  94 126 159 208 261 304 365
#     4  11  24  38  66  98 127 161 206 259 316 359
#     4  11  23  41  66  94 125 165 214 249 307 376
#     4  11  27  43  61  93 125 166 204 260 314 365
#     4  11  23  42  65  95 123 167 211 253 304 379
#     4  11  27  43  63  89 132 160 207 260 315 361
#
# _framework density 19.936181000000001
#
# number of rings (size 3 to 8) (size 9 to 14) (size 15 to 20)
#    0.000    1.000    4.000    3.000    8.400    2.400 
#    0.000    2.000    0.000    0.000    0.000    0.000 
#    0.000    0.000    0.000    0.000    0.000    0.000 
#
# Total GULP energy -247937.208979 kJ/mol
# GULP energy per Si atom -12396.860449 kJ/mol
# Density = 1.989081 g / cm^3
# Si number density = 19.936181 Si / 1000 Ang^3
#
#
#
# Elastic Constant Matrix: (Units=GPa)
#
#
# Indices 1 2 3 4 5 6 
#
# 1 131.5591 53.8620 65.2564 0.0000 -21.6902 0.0000
# 2 53.8620 126.9771 39.6907 0.0000 -17.0751 0.0000
# 3 65.2564 39.6907 111.3365 0.0000 -7.8976 0.0000
# 4 0.0000 0.0000 0.0000 13.5581 0.0000 10.5745
# 5 -21.6902 -17.0751 -7.8976 0.0000 37.0927 0.0000
# 6 0.0000 0.0000 0.0000 10.5745 0.0000 32.2324
#
#
#
# Elastic Compliance Matrix: (Units=1/GPa)
#
#
# Indices 1 2 3 4 5 6 
#
# 1 0.012500 -0.002790 -0.005995 0.000000 0.004749 0.000000
# 2 -0.002790 0.009946 -0.001727 0.000000 0.002579 0.000000
# 3 -0.005995 -0.001727 0.013003 0.000000 -0.001532 0.000000
# 4 0.000000 0.000000 0.000000 0.099118 0.000000 -0.032518
# 5 0.004749 0.002579 -0.001532 0.000000 0.030597 0.000000
# 6 0.000000 0.000000 0.000000 -0.032518 0.000000 0.041693
#
#
# Mechanical properties :
#
#
# Convention : Reuss Voigt Hill
#
# Bulk Modulus (GPa) = 69.33031 76.38786 72.85908
# Shear Modulus (GPa) = 21.48793 30.64756 26.06775
#
# Velocity S-wave (km/s) = 3.28660 3.92507 3.61994
# Velocity P-wave (km/s) = 7.01812 7.67730 7.35510
#
# Compressibility (1/GPa) = 0.01442371
#
# Stress axis : x y z
#
# Youngs Moduli (GPa) = 80.00040 100.54672 76.90698
#
# Poissons Ratio (x) = 0.28050 0.46106
# Poissons Ratio (y) = 0.22318 0.13285
# Poissons Ratio (z) = 0.47961 0.17369
#
# Static dielectric constant tensor:
#      x y z
#    x 3.965500 0.000000 -0.159660 
#    y 0.000000 3.440010 0.000000 
#    z -0.159660 0.000000 3.831540 
# 
# 
# High freq. dielectric constant tensor:
#      x y z
#    x 1.800900 0.000000 -0.008900 
#    y 0.000000 1.751400 0.000000 
#    z -0.008900 0.000000 1.790370 
# 
# From -- ./inp_files/46984.got.cif
#   From: 2010.06.25/outbox.cif.g09.slc.cpg/sg12_24_cif.got.tgz:46984.got - 2010.06.28 00:19:55.
