data_PCOD8114979
_publ_section_title
;
Structure prediction by ZEFSAII (Michael W. Deem and Ramdas Pophale) SiO2 
 PCOD8114979
Probable space group: C 2/M
;
_chemical_formula_sum "Si O2"
_cell_formula_units_Z 56
_cell_length_a 11.640916
_cell_length_b 18.056523
_cell_length_c 15.039980
_cell_angle_alpha 90.000000
_cell_angle_beta 59.039135
_cell_angle_gamma 90.000000
_cell_volume 2710.892119
_symmetry_space_group_name_H-M "C 2/M"
_symmetry_group_IT_number 12
_symmetry_cell_setting 'monoclinic'
loop_
_space_group_symop_operation_xyz
x,y,z
-x,y,-z
-x,-y,-z
x,-y,z
1/2+x,1/2+y,z
1/2-x,1/2+y,-z
1/2-x,1/2-y,-z
1/2+x,1/2-y,z
loop_
_atom_site_type_symbol
_atom_site_label
_atom_site_fract_x
_atom_site_fract_y
_atom_site_fract_z
Si Si1 0.566101 0.154466 0.195261
Si Si2 0.361334 0.417257 0.505077
Si Si3 0.638061 0.084657 0.993655
Si Si4 0.225984 0.315829 0.690321
Si Si5 0.583650 0.085471 0.379571
Si Si6 0.156361 0.156517 0.670440
Si Si7 0.638102 0.315606 0.182530
O O1 0.421570 0.173234 0.211456
O O2 0.545254 0.129057 0.305283
O O3 0.656873 0.228478 0.153714
O O4 0.628347 0.093239 0.104691
O O5 0.500000 0.421607 0.500000
O O6 0.313000 0.500000 0.497422
O O7 0.248338 0.380914 0.610881
O O8 0.379816 0.364272 0.414719
O O9 0.758994 0.136346 0.914728
O O10 0.674184 0.000000 0.956619
O O11 0.500000 0.107608 0.000000
O O12 0.234220 0.234899 0.641937
O O13 0.335202 0.325287 0.723602
O O14 0.500000 0.114439 0.500000
O O15 0.743091 0.095534 0.329564
O O16 0.550395 0.000000 0.377409
O O17 0.014304 0.158686 0.779191
#
# Coordination Sequence:
#
# PCOD8114979 Si02
#       7
#     8   8   8   8   8   8   8
#     4  11  23  43  67  95 127 169 218 265 322 381
#     4  11  23  37  58  90 128 169 210 265 325 381
#     4  11  24  42  68  97 128 166 211 269 327 385
#     4  11  22  40  64  91 125 167 219 266 318 380
#     4  11  24  42  66  96 134 174 212 259 319 388
#     4  11  23  41  64  91 128 171 217 265 320 378
#     4  11  23  43  65  95 127 165 216 269 319 377
#
# _framework density 20.657406000000002
#
# number of rings (size 3 to 8) (size 9 to 14) (size 15 to 20)
#    0.000    1.000    4.286    2.571    0.000    5.714 
#    0.000    0.714    0.000    1.714    0.000    0.000 
#    0.000    0.000    0.000    0.000    0.000    0.000 
#
# Total GULP energy -347155.652572 kJ/mol
# GULP energy per Si atom -12398.416163 kJ/mol
# Density = 2.061039 g / cm^3
# Si number density = 20.657406 Si / 1000 Ang^3
#
#
#
# Elastic Constant Matrix: (Units=GPa)
#
#
# Indices 1 2 3 4 5 6 
#
# 1 90.3807 24.7565 34.7105 0.0000 -8.4865 0.0000
# 2 24.7565 97.1680 57.4247 0.0000 -8.6151 0.0000
# 3 34.7105 57.4247 109.8036 0.0000 1.7929 0.0000
# 4 0.0000 0.0000 0.0000 50.2955 0.0000 8.7066
# 5 -8.4865 -8.6151 1.7929 0.0000 30.0451 0.0000
# 6 0.0000 0.0000 0.0000 8.7066 0.0000 35.7825
#
#
#
# Elastic Compliance Matrix: (Units=1/GPa)
#
#
# Indices 1 2 3 4 5 6 
#
# 1 0.013079 -0.000760 -0.003798 0.000000 0.003703 0.000000
# 2 -0.000760 0.015646 -0.008020 0.000000 0.004750 0.000000
# 3 -0.003798 -0.008020 0.014571 0.000000 -0.004242 0.000000
# 4 0.000000 0.000000 0.000000 0.020757 0.000000 -0.005051
# 5 0.003703 0.004750 -0.004242 0.000000 0.035944 0.000000
# 6 0.000000 0.000000 0.000000 -0.005051 0.000000 0.029176
#
#
# Mechanical properties :
#
#
# Convention : Reuss Voigt Hill
#
# Bulk Modulus (GPa) = 55.12228 59.01509 57.06868
# Shear Modulus (GPa) = 31.17732 35.25531 33.21632
#
# Velocity S-wave (km/s) = 3.88913 4.13566 4.01429
# Velocity P-wave (km/s) = 6.84902 7.17185 7.01229
#
# Compressibility (1/GPa) = 0.01814149
#
# Stress axis : x y z
#
# Youngs Moduli (GPa) = 76.46135 63.91531 68.62922
#
# Poissons Ratio (x) = 0.04855 0.26062
# Poissons Ratio (y) = 0.05808 0.55039
# Poissons Ratio (z) = 0.29037 0.51259
#
# Static dielectric constant tensor:
#      x y z
#    x 3.826760 0.000000 0.025280 
#    y 0.000000 3.818660 0.000000 
#    z 0.025280 0.000000 3.546130 
# 
# 
# High freq. dielectric constant tensor:
#      x y z
#    x 1.816830 0.000000 -0.001700 
#    y 0.000000 1.813080 0.000000 
#    z -0.001700 0.000000 1.795130 
# 
# From -- ./inp_files/206567.got.cif
#   From: 2010.06.25/outbox.cif.g09.slc.cpg/sg12_104_cif.got.tgz:206567.got - 2010.06.28 00:19:55.
