data_PCOD8114996
_publ_section_title
;
Structure prediction by ZEFSAII (Michael W. Deem and Ramdas Pophale) SiO2 
 PCOD8114996
Probable space group: C 2/M
;
_chemical_formula_sum "Si O2"
_cell_formula_units_Z 56
_cell_length_a 17.720102
_cell_length_b 17.323063
_cell_length_c 8.643287
_cell_angle_alpha 90.000000
_cell_angle_beta 102.097937
_cell_angle_gamma 90.000000
_cell_volume 2594.273597
_symmetry_space_group_name_H-M "C 2/M"
_symmetry_group_IT_number 12
_symmetry_cell_setting 'monoclinic'
loop_
_space_group_symop_operation_xyz
x,y,z
-x,y,-z
-x,-y,-z
x,-y,z
1/2+x,1/2+y,z
1/2-x,1/2+y,-z
1/2-x,1/2-y,-z
1/2+x,1/2-y,z
loop_
_atom_site_type_symbol
_atom_site_label
_atom_site_fract_x
_atom_site_fract_y
_atom_site_fract_z
Si Si1 0.572953 0.147374 0.641940
Si Si2 0.697954 0.181699 0.206991
Si Si3 0.787688 0.589464 0.485573
Si Si4 0.869360 0.195767 0.276347
Si Si5 0.919084 0.413111 0.033892
Si Si6 0.989323 0.910134 0.176237
Si Si7 0.361317 0.670779 0.636036
O O1 0.500000 0.139134 0.500000
O O2 0.647897 0.139409 0.570020
O O3 0.577465 0.229463 0.733353
O O4 0.571836 0.083972 0.776468
O O5 0.712917 0.113439 0.335888
O O6 0.781880 0.205288 0.174077
O O7 0.654561 0.253834 0.266964
O O8 0.646672 0.146817 0.047232
O O9 0.806391 0.500000 0.477796
O O10 0.706860 0.608899 0.367438
O O11 0.908716 0.123757 0.205919
O O12 0.865064 0.191223 0.458779
O O13 0.899257 0.500000 0.969291
O O14 0.000000 0.384631 0.000000
O O15 0.058518 0.867998 0.290459
O O16 0.989700 0.000000 0.218368
O O17 0.000000 0.895785 0.000000
#
# Coordination Sequence:
#
# PCOD8114996 Si02
#       7
#     8   8   8   8   8   8   8
#     4  12  24  41  67  99 132 179 227 279 340 404
#     4  11  23  44  69 100 134 178 227 282 342 409
#     4  11  22  40  67  96 133 174 220 282 344 404
#     4  11  24  43  71 101 134 172 231 281 337 407
#     4  11  27  44  63  97 137 177 225 277 340 407
#     4  11  27  45  66 100 139 180 226 282 346 404
#     4  11  22  44  68 100 133 176 229 284 336 417
#
# _framework density 21.586003000000002
#
# number of rings (size 3 to 8) (size 9 to 14) (size 15 to 20)
#    0.000    0.857    2.857    4.286    4.000    8.000 
#    0.000    1.429    0.000    0.000    0.000    0.000 
#    0.000    0.000    0.000    0.000    0.000    0.000 
#
# Total GULP energy -347271.769262 kJ/mol
# GULP energy per Si atom -12402.563188 kJ/mol
# Density = 2.153687 g / cm^3
# Si number density = 21.586003 Si / 1000 Ang^3
#
#
#
# Elastic Constant Matrix: (Units=GPa)
#
#
# Indices 1 2 3 4 5 6 
#
# 1 114.2865 25.3636 37.9327 0.0000 2.1693 0.0000
# 2 25.3636 106.4385 28.4999 0.0000 2.7472 0.0000
# 3 37.9327 28.4999 91.0569 0.0000 17.3586 0.0000
# 4 0.0000 0.0000 0.0000 -2.8546 0.0000 -3.6625
# 5 2.1693 2.7472 17.3586 0.0000 25.1655 0.0000
# 6 0.0000 0.0000 0.0000 -3.6625 0.0000 36.2711
#
#
#
# Elastic Compliance Matrix: (Units=1/GPa)
#
#
# Indices 1 2 3 4 5 6 
#
# 1 0.010459 -0.001385 -0.004353 0.000000 0.002252 0.000000
# 2 -0.001385 0.010473 -0.002885 0.000000 0.000966 0.000000
# 3 -0.004353 -0.002885 0.015621 0.000000 -0.010085 0.000000
# 4 0.000000 0.000000 0.000000 -0.310135 0.000000 -0.031316
# 5 0.002252 0.000966 -0.010085 0.000000 0.046394 0.000000
# 6 0.000000 0.000000 0.000000 -0.031316 0.000000 0.024408
#
#
# Mechanical properties :
#
#
# Convention : Reuss Voigt Hill
#
# Bulk Modulus (GPa) = 51.79481 55.04156 53.41818
# Shear Modulus (GPa) = -27.91756 26.38211 -0.76773
#
# Velocity S-wave (km/s) = -3.60017 3.49977 -0.59702
# Velocity P-wave (km/s) = 2.60097 6.47188 4.93205
#
# Compressibility (1/GPa) = 0.01930695
#
# Stress axis : x y z
#
# Youngs Moduli (GPa) = 95.60806 95.48644 64.01600
#
# Poissons Ratio (x) = 0.13224 0.27867
# Poissons Ratio (y) = 0.13241 0.18469
# Poissons Ratio (z) = 0.41619 0.27549
#
# Static dielectric constant tensor:
#      x y z
#    x 4.565420 0.000000 0.538360 
#    y 0.000000 3.883490 0.000000 
#    z 0.538360 0.000000 4.278760 
# 
# 
# High freq. dielectric constant tensor:
#      x y z
#    x 1.859730 0.000000 0.003380 
#    y 0.000000 1.854750 0.000000 
#    z 0.003380 0.000000 1.844950 
# 
# From -- ./inp_files/76026.got.cif
#   From: 2010.06.25/outbox.cif.g09.slc.cpg/sg12_39_cif.got.tgz:76026.got - 2010.06.28 00:19:55.
