data_PCOD8114540
_publ_section_title
;
Structure prediction by ZEFSAII (Michael W. Deem and Ramdas Pophale) SiO2 
 PCOD8114540
Probable space group: C 2/M
;
_chemical_formula_sum "Si O2"
_cell_formula_units_Z 36
_cell_length_a 20.587481
_cell_length_b 13.449995
_cell_length_c 11.807356
_cell_angle_alpha 90.000000
_cell_angle_beta 31.254043
_cell_angle_gamma 90.000000
_cell_volume 1696.313315
_symmetry_space_group_name_H-M "C 2/M"
_symmetry_group_IT_number 12
_symmetry_cell_setting 'monoclinic'
loop_
_space_group_symop_operation_xyz
x,y,z
-x,y,-z
-x,-y,-z
x,-y,z
1/2+x,1/2+y,z
1/2-x,1/2+y,-z
1/2-x,1/2-y,-z
1/2+x,1/2-y,z
loop_
_atom_site_type_symbol
_atom_site_label
_atom_site_fract_x
_atom_site_fract_y
_atom_site_fract_z
Si Si1 0.761503 0.500000 0.296313
Si Si2 0.731895 0.783308 0.653476
Si Si3 0.525344 0.500000 0.779267
Si Si4 0.000000 0.159912 0.000000
Si Si5 0.575413 0.165557 0.501029
Si Si6 0.740576 0.000000 0.159708
Si Si7 0.596165 0.000000 0.149228
O O1 0.807478 0.399203 0.287550
O O2 0.610941 0.500000 0.538989
O O3 0.814270 0.500000 0.091772
O O4 0.750000 0.750000 0.500000
O O5 0.613018 0.725346 0.881812
O O6 0.860798 0.760340 0.531966
O O7 0.553409 0.595256 0.816100
O O8 0.387479 0.500000 0.937732
O O9 0.500000 0.199128 0.500000
O O10 0.692111 0.097116 0.295235
O O11 0.487022 0.100812 0.717268
O O12 0.694626 0.000000 0.101680
#
# Coordination Sequence:
#
# PCOD8114540 Si02
#       7
#     4   8   4   4   8   4   4
#     4  12  28  42  59 100 135 171 216 277 346 381
#     4  12  26  45  65  98 133 173 219 279 336 396
#     4  11  21  41  68  97 131 176 225 264 319 406
#     4  11  24  43  68  92 132 181 222 261 330 404
#     4   9  20  44  73  95 126 180 227 261 320 407
#     4   9  17  41  73  96 125 176 231 261 315 404
#     4   9  22  41  69 101 132 169 216 279 330 381
#
# _framework density 21.222494000000001
#
# number of rings (size 3 to 8) (size 9 to 14) (size 15 to 20)
#    0.000    1.556    4.444    1.333    3.111    2.667 
#    4.000    2.222    0.000    0.000    0.000    0.000 
#    0.000    0.000    0.000    0.000    0.000    0.000 
#
# Total GULP energy -223065.752994 kJ/mol
# GULP energy per Si atom -12392.541833 kJ/mol
# Density = 2.117419 g / cm^3
# Si number density = 21.222494 Si / 1000 Ang^3
#
#
#
# Elastic Constant Matrix: (Units=GPa)
#
#
# Indices 1 2 3 4 5 6 
#
# 1 94.2995 53.8885 47.9363 0.0000 -8.8270 0.0000
# 2 53.8885 148.3044 43.3344 0.0000 -0.5660 0.0000
# 3 47.9363 43.3344 158.0749 0.0000 8.5661 0.0000
# 4 0.0000 0.0000 0.0000 8.8097 0.0000 -1.8308
# 5 -8.8270 -0.5660 8.5661 0.0000 45.5706 0.0000
# 6 0.0000 0.0000 0.0000 -1.8308 0.0000 28.1341
#
#
#
# Elastic Compliance Matrix: (Units=1/GPa)
#
#
# Indices 1 2 3 4 5 6 
#
# 1 0.015356 -0.004510 -0.003616 0.000000 0.003598 0.000000
# 2 -0.004510 0.008665 -0.000976 0.000000 -0.000582 0.000000
# 3 -0.003616 -0.000976 0.007808 0.000000 -0.002180 0.000000
# 4 0.000000 0.000000 0.000000 0.115068 0.000000 0.007488
# 5 0.003598 -0.000582 -0.002180 0.000000 0.023044 0.000000
# 6 0.000000 0.000000 0.000000 0.007488 0.000000 0.036031
#
#
# Mechanical properties :
#
#
# Convention : Reuss Voigt Hill
#
# Bulk Modulus (GPa) = 73.38710 76.77747 75.08228
# Shear Modulus (GPa) = 21.86111 33.53751 27.69931
#
# Velocity S-wave (km/s) = 3.21299 3.97959 3.61666
# Velocity P-wave (km/s) = 6.95840 7.57444 7.27294
#
# Compressibility (1/GPa) = 0.01362637
#
# Stress axis : x y z
#
# Youngs Moduli (GPa) = 65.11946 115.41225 128.06948
#
# Poissons Ratio (x) = 0.52048 0.46304
# Poissons Ratio (y) = 0.29367 0.12501
# Poissons Ratio (z) = 0.23544 0.11266
#
# Static dielectric constant tensor:
#      x y z
#    x 3.842310 0.000000 0.045440 
#    y 0.000000 4.044420 0.000000 
#    z 0.045440 0.000000 4.083450 
# 
# 
# High freq. dielectric constant tensor:
#      x y z
#    x 1.817130 0.000000 -0.005610 
#    y 0.000000 1.833040 0.000000 
#    z -0.005610 0.000000 1.842110 
# 
# From -- ./inp_files/129479.got.cif
#   From: 2010.06.25/outbox.cif.g09.slc.cpg/sg12_65_cif.got.tgz:129479.got - 2010.06.28 00:19:55.
