data_PCOD8114599
_publ_section_title
;
Structure prediction by ZEFSAII (Michael W. Deem and Ramdas Pophale) SiO2 
 PCOD8114599
Probable space group: C 2/M
;
_chemical_formula_sum "Si O2"
_cell_formula_units_Z 56
_cell_length_a 17.712192
_cell_length_b 19.025674
_cell_length_c 8.819333
_cell_angle_alpha 90.000000
_cell_angle_beta 85.128476
_cell_angle_gamma 90.000000
_cell_volume 2961.259237
_symmetry_space_group_name_H-M "C 2/M"
_symmetry_group_IT_number 12
_symmetry_cell_setting 'monoclinic'
loop_
_space_group_symop_operation_xyz
x,y,z
-x,y,-z
-x,-y,-z
x,-y,z
1/2+x,1/2+y,z
1/2-x,1/2+y,-z
1/2-x,1/2-y,-z
1/2+x,1/2-y,z
loop_
_atom_site_type_symbol
_atom_site_label
_atom_site_fract_x
_atom_site_fract_y
_atom_site_fract_z
Si Si1 0.311659 0.219001 0.282255
Si Si2 0.341635 0.216105 0.615662
Si Si3 0.118391 0.922077 0.138948
Si Si4 0.728428 0.074804 0.735175
Si Si5 0.468761 0.313614 0.669666
Si Si6 0.754474 0.919405 0.382870
Si Si7 0.384352 0.347334 0.174646
O O1 0.355770 0.228997 0.433818
O O2 0.221819 0.228412 0.321300
O O3 0.327169 0.139865 0.219195
O O4 0.338357 0.275102 0.152997
O O5 0.420492 0.239451 0.684450
O O6 0.313447 0.135448 0.653649
O O7 0.208209 0.926932 0.146168
O O8 0.085795 0.878410 0.283756
O O9 0.082195 0.000000 0.145248
O O10 0.099290 0.886699 0.982620
O O11 0.764761 0.084877 0.561745
O O12 0.683898 0.000000 0.748057
O O13 0.500000 0.327988 0.500000
O O14 0.536655 0.317952 0.776586
O O15 0.834801 0.896370 0.296026
O O16 0.734756 0.000000 0.335479
#
# Coordination Sequence:
#
# PCOD8114599 Si02
#       7
#     8   8   8   8   8   8   8
#     4   9  16  33  55  80 103 136 182 229 267 313
#     4   9  17  32  56  81 107 135 183 233 261 313
#     4  11  24  38  51  77 115 146 178 223 269 325
#     4   9  17  32  55  78 107 140 178 219 263 317
#     4  12  22  37  56  78 105 149 186 218 269 325
#     4   9  18  35  60  85 109 144 183 224 275 326
#     4  11  22  33  55  80 110 143 178 226 272 321
#
# _framework density 18.910874
#
# number of rings (size 3 to 8) (size 9 to 14) (size 15 to 20)
#    0.000    2.000    2.857    2.571    0.000    2.571 
#    0.000    0.000    0.000    1.286    0.000    0.000 
#    0.000    2.286    0.000    0.000    0.000    0.000 
#
# Total GULP energy -346867.540709 kJ/mol
# GULP energy per Si atom -12388.126454 kJ/mol
# Density = 1.886783 g / cm^3
# Si number density = 18.910874 Si / 1000 Ang^3
#
#
#
# Elastic Constant Matrix: (Units=GPa)
#
#
# Indices 1 2 3 4 5 6 
#
# 1 69.1034 50.8328 28.9271 0.0000 12.3029 0.0000
# 2 50.8328 172.0162 28.0362 0.0000 3.6876 0.0000
# 3 28.9271 28.0362 41.0241 0.0000 10.1110 0.0000
# 4 0.0000 0.0000 0.0000 20.7158 0.0000 6.4082
# 5 12.3029 3.6876 10.1110 0.0000 18.3866 0.0000
# 6 0.0000 0.0000 0.0000 6.4082 0.0000 23.5862
#
#
#
# Elastic Compliance Matrix: (Units=1/GPa)
#
#
# Indices 1 2 3 4 5 6 
#
# 1 0.024847 -0.005242 -0.011682 0.000000 -0.009150 0.000000
# 2 -0.005242 0.007676 -0.002354 0.000000 0.003262 0.000000
# 3 -0.011682 -0.002354 0.037224 0.000000 -0.012181 0.000000
# 4 0.000000 0.000000 0.000000 0.052702 0.000000 -0.014319
# 5 -0.009150 0.003262 -0.012181 0.000000 0.066554 0.000000
# 6 0.000000 0.000000 0.000000 -0.014319 0.000000 0.046288
#
#
# Mechanical properties :
#
#
# Convention : Reuss Voigt Hill
#
# Bulk Modulus (GPa) = 32.06096 55.30399 43.68248
# Shear Modulus (GPa) = 17.59057 24.16090 20.87573
#
# Velocity S-wave (km/s) = 3.05320 3.57826 3.32611
# Velocity P-wave (km/s) = 5.42401 6.81028 6.15629
#
# Compressibility (1/GPa) = 0.03119058
#
# Stress axis : x y z
#
# Youngs Moduli (GPa) = 40.24706 130.27241 26.86439
#
# Poissons Ratio (x) = 0.68292 0.31384
# Poissons Ratio (y) = 0.21099 0.06323
# Poissons Ratio (z) = 0.47017 0.30661
#
# Static dielectric constant tensor:
#      x y z
#    x 3.288710 0.000000 -0.010710 
#    y 0.000000 3.926340 0.000000 
#    z -0.010710 0.000000 3.273120 
# 
# 
# High freq. dielectric constant tensor:
#      x y z
#    x 1.699140 0.000000 0.005670 
#    y 0.000000 1.751360 0.000000 
#    z 0.005670 0.000000 1.713080 
# 
# From -- ./inp_files/76814.got.cif
#   From: 2010.06.25/outbox.cif.g09.slc.cpg/sg12_39_cif.got.tgz:76814.got - 2010.06.28 00:19:55.
