data_PCOD8114475
_publ_section_title
;
Structure prediction by ZEFSAII (Michael W. Deem and Ramdas Pophale) SiO2 
 PCOD8114475
Probable space group: C 2/M
;
_chemical_formula_sum "Si O2"
_cell_formula_units_Z 40
_cell_length_a 13.195123
_cell_length_b 13.228861
_cell_length_c 10.047245
_cell_angle_alpha 90.000000
_cell_angle_beta 62.830293
_cell_angle_gamma 90.000000
_cell_volume 1560.292206
_symmetry_space_group_name_H-M "C 2/M"
_symmetry_group_IT_number 12
_symmetry_cell_setting 'monoclinic'
loop_
_space_group_symop_operation_xyz
x,y,z
-x,y,-z
-x,-y,-z
x,-y,z
1/2+x,1/2+y,z
1/2-x,1/2+y,-z
1/2-x,1/2-y,-z
1/2+x,1/2-y,z
loop_
_atom_site_type_symbol
_atom_site_label
_atom_site_fract_x
_atom_site_fract_y
_atom_site_fract_z
Si Si1 0.869171 0.382853 0.106294
Si Si2 0.576181 0.885719 0.583643
Si Si3 0.629243 0.201199 0.162096
Si Si4 0.225783 0.215027 0.669493
Si Si5 0.498258 0.615477 0.845589
O O1 0.843433 0.500000 0.137975
O O2 0.819413 0.329679 0.270436
O O3 0.806759 0.335940 0.011910
O O4 0.000000 0.356055 0.000000
O O5 0.500000 0.871962 0.500000
O O6 0.491191 0.861802 0.756727
O O7 0.681041 0.801737 0.508324
O O8 0.624036 0.000000 0.567724
O O9 0.709019 0.175455 0.238049
O O10 0.596303 0.319419 0.175231
O O11 0.122024 0.138380 0.709161
O O12 0.465302 0.500000 0.841368
O O13 0.500000 0.645048 0.000000
#
# Coordination Sequence:
#
# PCOD8114475 Si02
#       5
#     8   8   8   8   8
#     4  11  22  38  59  87 120 154 199 252 301 354
#     4   9  20  37  61  91 121 157 202 249 297 359
#     4  11  21  40  63  89 121 158 202 251 300 360
#     4  11  21  40  61  88 120 160 201 246 302 362
#     4  11  23  39  59  90 127 159 199 252 305 359
#
# _framework density 25.636223000000001
#
# number of rings (size 3 to 8) (size 9 to 14) (size 15 to 20)
#    0.000    1.400    4.000    1.800    0.000    4.000 
#    0.000    1.000    0.000    3.600    0.000    0.000 
#    0.000    0.000    0.000    0.000    0.000    0.000 
#
# Total GULP energy -248074.684509 kJ/mol
# GULP energy per Si atom -12403.734225 kJ/mol
# Density = 2.557787 g / cm^3
# Si number density = 25.636223 Si / 1000 Ang^3
#
#
#
# Elastic Constant Matrix: (Units=GPa)
#
#
# Indices 1 2 3 4 5 6 
#
# 1 81.9250 36.1381 30.0287 0.0000 -10.2630 0.0000
# 2 36.1381 176.3510 41.7044 0.0000 -16.8433 0.0000
# 3 30.0287 41.7044 157.2994 0.0000 9.9375 0.0000
# 4 0.0000 0.0000 0.0000 34.7614 0.0000 -4.9766
# 5 -10.2630 -16.8433 9.9375 0.0000 36.7847 0.0000
# 6 0.0000 0.0000 0.0000 -4.9766 0.0000 24.9612
#
#
#
# Elastic Compliance Matrix: (Units=1/GPa)
#
#
# Indices 1 2 3 4 5 6 
#
# 1 0.014476 -0.002022 -0.002466 0.000000 0.003779 0.000000
# 2 -0.002022 0.006742 -0.001588 0.000000 0.002952 0.000000
# 3 -0.002466 -0.001588 0.007466 0.000000 -0.003432 0.000000
# 4 0.000000 0.000000 0.000000 0.029613 0.000000 0.005904
# 5 0.003779 0.002952 -0.003432 0.000000 0.030518 0.000000
# 6 0.000000 0.000000 0.000000 0.005904 0.000000 0.041239
#
#
# Mechanical properties :
#
#
# Convention : Reuss Voigt Hill
#
# Bulk Modulus (GPa) = 60.49115 70.14642 65.31879
# Shear Modulus (GPa) = 33.84839 39.81509 36.83174
#
# Velocity S-wave (km/s) = 3.63758 3.94519 3.79450
# Velocity P-wave (km/s) = 6.42572 6.94077 6.68821
#
# Compressibility (1/GPa) = 0.01653134
#
# Stress axis : x y z
#
# Youngs Moduli (GPa) = 69.08165 148.31479 133.94181
#
# Poissons Ratio (x) = 0.29993 0.33030
# Poissons Ratio (y) = 0.13970 0.21271
# Poissons Ratio (z) = 0.17036 0.23553
#
# Static dielectric constant tensor:
#      x y z
#    x 4.910320 0.000000 0.001920 
#    y 0.000000 4.358910 0.000000 
#    z 0.001920 0.000000 5.136790 
# 
# 
# High freq. dielectric constant tensor:
#      x y z
#    x 2.054840 0.000000 0.011860 
#    y 0.000000 2.013920 0.000000 
#    z 0.011860 0.000000 2.049410 
# 
# From -- ./inp_files/142511.got.cif
#   From: 2010.06.25/outbox.cif.g09.slc.cpg/sg12_72_cif.got.tgz:142511.got - 2010.06.28 00:19:55.
