data_PCOD8114425
_publ_section_title
;
Structure prediction by ZEFSAII (Michael W. Deem and Ramdas Pophale) SiO2 
 PCOD8114425
Probable space group: C 2/M
;
_chemical_formula_sum "Si O2"
_cell_formula_units_Z 48
_cell_length_a 24.907383
_cell_length_b 8.367611
_cell_length_c 20.278877
_cell_angle_alpha 90.000000
_cell_angle_beta 35.226562
_cell_angle_gamma 90.000000
_cell_volume 2437.850532
_symmetry_space_group_name_H-M "C 2/M"
_symmetry_group_IT_number 12
_symmetry_cell_setting 'monoclinic'
loop_
_space_group_symop_operation_xyz
x,y,z
-x,y,-z
-x,-y,-z
x,-y,z
1/2+x,1/2+y,z
1/2-x,1/2+y,-z
1/2-x,1/2-y,-z
1/2+x,1/2-y,z
loop_
_atom_site_type_symbol
_atom_site_label
_atom_site_fract_x
_atom_site_fract_y
_atom_site_fract_z
Si Si1 0.051678 0.314556 0.514492
Si Si2 0.051531 0.686233 0.123289
Si Si3 0.250072 0.189335 0.124177
Si Si4 0.758509 0.186399 0.718455
Si Si5 0.440325 0.686159 0.745202
Si Si6 0.934000 0.185671 0.125378
O O1 0.032106 0.500000 0.547390
O O2 0.161341 0.282771 0.399571
O O3 0.000000 0.255943 0.500000
O O4 0.013306 0.212556 0.613669
O O5 0.042044 0.500000 0.115743
O O6 0.025145 0.718504 0.225357
O O7 0.982176 0.784831 0.146945
O O8 0.156464 0.749485 0.005304
O O9 0.248437 0.255072 0.200339
O O10 0.160623 0.255600 0.174807
O O11 0.246289 0.000000 0.130007
O O12 0.661326 0.215499 0.779394
O O13 0.783430 0.000000 0.692464
O O14 0.434777 0.500000 0.767981
O O15 0.911225 0.000000 0.139047
O O16 0.000000 0.247956 0.000000
#
# Coordination Sequence:
#
# PCOD8114425 Si02
#       6
#     8   8   8   8   8   8
#     4  11  23  39  60  89 122 158 200 248 297 352
#     4  11  22  39  60  88 123 162 202 246 299 357
#     4   9  19  34  58  89 122 156 195 242 298 355
#     4  11  21  38  63  91 119 155 202 249 296 351
#     4  11  22  39  60  88 123 162 202 246 299 357
#     4  11  23  39  60  89 122 158 200 248 297 352
#
# _framework density 19.689475999999999
#
# number of rings (size 3 to 8) (size 9 to 14) (size 15 to 20)
#    0.000    1.333    3.333    3.000    0.000    1.333 
#    0.000    3.333    0.000    0.000    0.000    0.000 
#    0.000    0.000    0.000    0.000    0.000    0.000 
#
# Total GULP energy -297773.214131 kJ/mol
# GULP energy per Si atom -12407.217255 kJ/mol
# Density = 1.964466 g / cm^3
# Si number density = 19.689476 Si / 1000 Ang^3
#
#
#
# Elastic Constant Matrix: (Units=GPa)
#
#
# Indices 1 2 3 4 5 6 
#
# 1 124.9891 8.6273 47.0810 0.0072 2.6432 -0.0033
# 2 8.6273 44.4624 8.3343 0.0023 -0.5317 -0.0095
# 3 47.0810 8.3343 103.9223 0.0068 -2.5257 -0.0048
# 4 0.0072 0.0023 0.0068 25.5593 -0.0008 -0.2602
# 5 2.6432 -0.5317 -2.5257 -0.0008 35.3629 0.0016
# 6 -0.0033 -0.0095 -0.0048 -0.2602 0.0016 26.1707
#
#
#
# Elastic Compliance Matrix: (Units=1/GPa)
#
#
# Indices 1 2 3 4 5 6 
#
# 1 0.009736 -0.001087 -0.004349 -0.000002 -0.001055 0.000000
# 2 -0.001087 0.022957 -0.001341 -0.000001 0.000331 0.000008
# 3 -0.004349 -0.001341 0.011728 -0.000002 0.001143 0.000001
# 4 -0.000002 -0.000001 -0.000002 0.039129 0.000001 0.000389
# 5 -0.001055 0.000331 0.001143 0.000001 0.028444 -0.000001
# 6 0.000000 0.000008 0.000001 0.000389 -0.000001 0.038215
#
#
# Mechanical properties :
#
#
# Convention : Reuss Voigt Hill
#
# Bulk Modulus (GPa) = 32.39589 44.60655 38.50122
# Shear Modulus (GPa) = 28.72712 31.37399 30.05055
#
# Velocity S-wave (km/s) = 3.82384 3.99612 3.91093
# Velocity P-wave (km/s) = 5.99873 6.63296 6.32380
#
# Compressibility (1/GPa) = 0.03086811
#
# Stress axis : x y z
#
# Youngs Moduli (GPa) = 102.70779 43.55970 85.26348
#
# Poissons Ratio (x) = 0.04733 0.37085
# Poissons Ratio (y) = 0.11159 0.11432
# Poissons Ratio (z) = 0.44672 0.05841
#
# Static dielectric constant tensor:
#      x y z
#    x 3.514180 -0.000010 -0.043540 
#    y -0.000010 3.375520 0.000010 
#    z -0.043540 0.000010 3.526490 
# 
# 
# High freq. dielectric constant tensor:
#      x y z
#    x 1.765570 0.000000 -0.001760 
#    y 0.000000 1.760650 0.000000 
#    z -0.001760 0.000000 1.765530 
# 
# From -- ./inp_files/327191.got.cif
#   From: 2010.06.25/outbox.cif.g09.slc.cpg/sg12_164_cif.got.tgz:327191.got - 2010.06.28 00:19:55.
