data_PCOD8114226
_publ_section_title
;
Structure prediction by ZEFSAII (Michael W. Deem and Ramdas Pophale) SiO2 
 PCOD8114226
Probable space group: C 2/M
;
_chemical_formula_sum "Si O2"
_cell_formula_units_Z 40
_cell_length_a 24.977395
_cell_length_b 9.087650
_cell_length_c 29.146442
_cell_angle_alpha 90.000000
_cell_angle_beta 159.997657
_cell_angle_gamma 90.000000
_cell_volume 2263.001056
_symmetry_space_group_name_H-M "C 2/M"
_symmetry_group_IT_number 12
_symmetry_cell_setting 'monoclinic'
loop_
_space_group_symop_operation_xyz
x,y,z
-x,y,-z
-x,-y,-z
x,-y,z
1/2+x,1/2+y,z
1/2-x,1/2+y,-z
1/2-x,1/2-y,-z
1/2+x,1/2-y,z
loop_
_atom_site_type_symbol
_atom_site_label
_atom_site_fract_x
_atom_site_fract_y
_atom_site_fract_z
Si Si1 0.588236 0.826029 0.358204
Si Si2 0.583585 0.672585 0.863000
Si Si3 0.997739 0.168534 0.100525
Si Si4 0.690742 0.829920 0.800478
Si Si5 0.339883 0.166321 0.843171
O O1 0.750000 0.750000 0.500000
O O2 0.521217 0.751427 0.258944
O O3 0.474476 0.794271 0.309345
O O4 0.608028 0.000000 0.365766
O O5 0.606801 0.500000 0.870507
O O6 0.492097 0.694063 0.837090
O O7 0.750000 0.750000 0.000000
O O8 0.135697 0.259398 0.186813
O O9 0.025014 0.000000 0.109272
O O10 0.826258 0.219729 0.945084
O O11 0.702857 0.743014 0.762216
O O12 0.707565 0.000000 0.801920
O O13 0.289046 0.000000 0.793869
O O14 0.500000 0.182083 0.000000
#
# Coordination Sequence:
#
# PCOD8114226 Si02
#       5
#     8   8   8   8   8
#     4  11  23  39  56  80 110 147 187 224 272 326
#     4  11  21  35  56  82 111 145 182 226 273 322
#     4   9  17  31  50  75 106 140 175 213 266 323
#     4   9  17  32  51  72 104 142 178 215 262 323
#     4   9  17  27  44  75 106 134 172 218 267 312
#
# _framework density 17.675643000000001
#
# number of rings (size 3 to 8) (size 9 to 14) (size 15 to 20)
#    0.000    2.200    2.000    1.800    0.000    5.600 
#    0.000    0.000    0.000    1.200    0.000    8.400 
#    0.000    0.000    0.000    0.000    0.000    0.000 
#
# Total GULP energy -248004.534406 kJ/mol
# GULP energy per Si atom -12400.226720 kJ/mol
# Density = 1.763541 g / cm^3
# Si number density = 17.675643 Si / 1000 Ang^3
#
#
#
# Elastic Constant Matrix: (Units=GPa)
#
#
# Indices 1 2 3 4 5 6 
#
# 1 133.9712 87.4799 59.9666 0.0002 17.2050 -0.0003
# 2 87.4799 127.5959 58.9713 0.0023 10.4844 0.0000
# 3 59.9666 58.9713 93.8781 0.0184 1.4859 0.0004
# 4 0.0002 0.0023 0.0184 26.8339 -0.0008 2.7027
# 5 17.2050 10.4844 1.4859 -0.0008 22.0536 -0.0009
# 6 -0.0003 0.0000 0.0004 2.7027 -0.0009 36.8885
#
#
#
# Elastic Compliance Matrix: (Units=1/GPa)
#
#
# Indices 1 2 3 4 5 6 
#
# 1 0.015998 -0.007917 -0.005113 0.000004 -0.008372 0.000000
# 2 -0.007917 0.015491 -0.004660 0.000002 -0.000874 0.000000
# 3 -0.005113 -0.004660 0.016765 -0.000011 0.005075 0.000001
# 4 0.000004 0.000002 -0.000011 0.037543 -0.000002 -0.002751
# 5 -0.008372 -0.000874 0.005075 -0.000002 0.051949 0.000001
# 6 0.000000 0.000000 0.000001 -0.002751 0.000001 0.027310
#
#
# Mechanical properties :
#
#
# Convention : Reuss Voigt Hill
#
# Bulk Modulus (GPa) = 77.67844 85.36453 81.52149
# Shear Modulus (GPa) = 24.42275 27.09036 25.75655
#
# Velocity S-wave (km/s) = 3.72118 3.91914 3.82144
# Velocity P-wave (km/s) = 7.90600 8.29936 8.10507
#
# Compressibility (1/GPa) = 0.01287358
#
# Stress axis : x y z
#
# Youngs Moduli (GPa) = 62.50866 64.55559 59.64792
#
# Poissons Ratio (x) = 0.51108 0.30499
# Poissons Ratio (y) = 0.49488 0.27794
# Poissons Ratio (z) = 0.31962 0.30081
#
# Static dielectric constant tensor:
#      x y z
#    x 3.453090 0.000000 0.152400 
#    y 0.000000 3.405320 -0.000010 
#    z 0.152400 -0.000010 2.862540 
# 
# 
# High freq. dielectric constant tensor:
#      x y z
#    x 1.696440 0.000000 0.015960 
#    y 0.000000 1.694900 0.000000 
#    z 0.015960 0.000000 1.636960 
# 
# From -- ./inp_files/92763.got.cif
#   From: 2010.06.25/outbox.cif.g09.slc.cpg/sg12_47_cif.got.tgz:92763.got - 2010.06.28 00:19:55.
