data_PCOD8114387
_publ_section_title
;
Structure prediction by ZEFSAII (Michael W. Deem and Ramdas Pophale) SiO2 
 PCOD8114387
Probable space group: C 2/M
;
_chemical_formula_sum "Si O2"
_cell_formula_units_Z 36
_cell_length_a 21.658140
_cell_length_b 18.865459
_cell_length_c 9.195041
_cell_angle_alpha 90.000000
_cell_angle_beta 152.014619
_cell_angle_gamma 90.000000
_cell_volume 1762.962304
_symmetry_space_group_name_H-M "C 2/M"
_symmetry_group_IT_number 12
_symmetry_cell_setting 'monoclinic'
loop_
_space_group_symop_operation_xyz
x,y,z
-x,y,-z
-x,-y,-z
x,-y,z
1/2+x,1/2+y,z
1/2-x,1/2+y,-z
1/2-x,1/2-y,-z
1/2+x,1/2-y,z
loop_
_atom_site_type_symbol
_atom_site_label
_atom_site_fract_x
_atom_site_fract_y
_atom_site_fract_z
Si Si1 0.657138 0.500000 0.824912
Si Si2 0.151176 0.500000 0.350315
Si Si3 0.639638 0.500000 0.466658
Si Si4 0.239336 0.383532 0.750554
Si Si5 0.381567 0.756094 0.365716
Si Si6 0.493367 0.650836 0.822127
O O1 0.500000 0.500000 0.500000
O O2 0.707638 0.500000 0.765316
O O3 0.712122 0.429788 0.013132
O O4 0.240101 0.500000 0.392949
O O5 0.180582 0.429795 0.500351
O O6 0.000000 0.500000 0.000000
O O7 0.545867 0.568068 0.253074
O O8 0.123816 0.330970 0.561507
O O9 0.362762 0.339365 0.947229
O O10 0.500000 0.753723 0.500000
O O11 0.392505 0.694344 0.510367
O O12 0.250000 0.750000 0.000000
O O13 0.500000 0.681586 0.000000
#
# Coordination Sequence:
#
# PCOD8114387 Si02
#       6
#     4   4   4   8   8   8
#     4  11  21  37  74 102 132 177 230 290 349 412
#     4  11  26  46  68  98 143 180 227 299 353 406
#     4  12  22  40  74 105 132 172 239 289 347 407
#     4  11  24  45  68 102 137 182 233 285 350 418
#     4  12  27  47  70 102 147 187 234 289 352 421
#     4  12  24  43  72 104 137 181 238 289 352 419
#
# _framework density 20.420176999999999
#
# number of rings (size 3 to 8) (size 9 to 14) (size 15 to 20)
#    0.000    0.444    6.667    2.333    0.000    5.333 
#    0.000    2.222    0.000    0.000    0.000    0.000 
#    0.000    0.000    0.000    0.000    0.000    0.000 
#
# Total GULP energy -223275.087426 kJ/mol
# GULP energy per Si atom -12404.171524 kJ/mol
# Density = 2.037370 g / cm^3
# Si number density = 20.420177 Si / 1000 Ang^3
#
#
#
# Elastic Constant Matrix: (Units=GPa)
#
#
# Indices 1 2 3 4 5 6 
#
# 1 158.0365 56.9439 62.0212 0.0000 -20.4680 0.0000
# 2 56.9439 118.1295 47.6097 0.0000 -7.3579 0.0000
# 3 62.0212 47.6097 132.3677 0.0000 -14.8071 0.0000
# 4 0.0000 0.0000 0.0000 173.3647 0.0000 -60.3833
# 5 -20.4680 -7.3579 -14.8071 0.0000 38.7176 0.0000
# 6 0.0000 0.0000 0.0000 -60.3833 0.0000 61.7416
#
#
#
# Elastic Compliance Matrix: (Units=1/GPa)
#
#
# Indices 1 2 3 4 5 6 
#
# 1 0.008877 -0.002982 -0.002743 0.000000 0.003077 0.000000
# 2 -0.002982 0.010913 -0.002583 0.000000 -0.000490 0.000000
# 3 -0.002743 -0.002583 0.009978 0.000000 0.001876 0.000000
# 4 0.000000 0.000000 0.000000 0.008748 0.000000 0.008556
# 5 0.003077 -0.000490 0.001876 0.000000 0.028079 0.000000
# 6 0.000000 0.000000 0.000000 0.008556 0.000000 0.024564
#
#
# Mechanical properties :
#
#
# Convention : Reuss Voigt Hill
#
# Bulk Modulus (GPa) = 76.02348 82.40927 79.21638
# Shear Modulus (GPa) = 44.57943 70.89537 57.73740
#
# Velocity S-wave (km/s) = 4.67744 5.89862 5.32316
# Velocity P-wave (km/s) = 8.15363 9.31858 8.75550
#
# Compressibility (1/GPa) = 0.01315383
#
# Stress axis : x y z
#
# Youngs Moduli (GPa) = 112.65032 91.63192 100.21554
#
# Poissons Ratio (x) = 0.27326 0.27484
# Poissons Ratio (y) = 0.33594 0.25884
# Poissons Ratio (z) = 0.30894 0.23667
#
# Static dielectric constant tensor:
#      x y z
#    x 4.987930 0.000000 -0.928620 
#    y 0.000000 3.795500 0.000000 
#    z -0.928620 0.000000 3.385650 
# 
# 
# High freq. dielectric constant tensor:
#      x y z
#    x 1.816800 0.000000 -0.016870 
#    y 0.000000 1.799440 0.000000 
#    z -0.016870 0.000000 1.797480 
# 
# From -- ./inp_files/88549.got.cif
#   From: 2010.06.25/outbox.cif.g09.slc.cpg/sg12_45_cif.got.tgz:88549.got - 2010.06.28 00:19:55.
