data_PCOD8114732
_publ_section_title
;
Structure prediction by ZEFSAII (Michael W. Deem and Ramdas Pophale) SiO2 
 PCOD8114732
Probable space group: C 2/M
;
_chemical_formula_sum "Si O2"
_cell_formula_units_Z 56
_cell_length_a 14.095268
_cell_length_b 19.648489
_cell_length_c 11.344907
_cell_angle_alpha 90.000000
_cell_angle_beta 115.156469
_cell_angle_gamma 90.000000
_cell_volume 2843.964209
_symmetry_space_group_name_H-M "C 2/M"
_symmetry_group_IT_number 12
_symmetry_cell_setting 'monoclinic'
loop_
_space_group_symop_operation_xyz
x,y,z
-x,y,-z
-x,-y,-z
x,-y,z
1/2+x,1/2+y,z
1/2-x,1/2+y,-z
1/2-x,1/2-y,-z
1/2+x,1/2-y,z
loop_
_atom_site_type_symbol
_atom_site_label
_atom_site_fract_x
_atom_site_fract_y
_atom_site_fract_z
Si Si1 0.383727 0.317501 0.447805
Si Si2 0.287853 0.142284 0.073497
Si Si3 0.414242 0.000000 0.777250
Si Si4 0.149127 0.500000 0.991469
Si Si5 0.409892 0.269649 0.049653
Si Si6 0.304476 0.820445 0.333910
Si Si7 0.402902 0.733737 0.710184
Si Si8 0.325401 0.127743 0.608080
O O1 0.500000 0.350307 0.500000
O O2 0.372068 0.249985 0.360926
O O3 0.360766 0.289628 0.563917
O O4 0.290600 0.373006 0.389533
O O5 0.352570 0.196914 0.030440
O O6 0.333275 0.136939 0.231616
O O7 0.167597 0.167572 0.010696
O O8 0.290130 0.067882 0.016948
O O9 0.385371 0.060900 0.675749
O O10 0.351786 0.000000 0.867226
O O11 0.536135 0.000000 0.871740
O O12 0.477661 0.288339 0.202274
O O13 0.500000 0.260923 0.000000
O O14 0.182555 0.799642 0.247161
O O15 0.324311 0.863842 0.463949
O O16 0.393806 0.814864 0.708338
#
# Coordination Sequence:
#
# PCOD8114732 Si02
#       8
#     8   8   4   4   8   8   8   8
#     4   9  17  30  54  87 116 147 185 249 311 346
#     4  11  24  39  60  94 124 162 203 251 300 369
#     4  11  24  43  60  81 113 163 205 241 299 357
#     4  11  28  43  58  85 127 166 197 242 310 373
#     4  11  22  36  64  93 122 157 208 253 299 349
#     4   9  18  36  57  86 119 148 196 246 297 357
#     4   9  17  33  56  85 117 149 189 246 308 343
#     4   9  20  35  59  81 114 158 195 247 299 356
#
# _framework density 19.690823999999999
#
# number of rings (size 3 to 8) (size 9 to 14) (size 15 to 20)
#    0.000    2.143    1.429    3.429    4.000    4.000 
#    0.000    1.429    0.000    0.857    0.000    0.000 
#    0.000    0.000    0.000    0.000    0.000    0.000 
#
# Total GULP energy -346868.155780 kJ/mol
# GULP energy per Si atom -12388.148421 kJ/mol
# Density = 1.964601 g / cm^3
# Si number density = 19.690824 Si / 1000 Ang^3
#
#
#
# Elastic Constant Matrix: (Units=GPa)
#
#
# Indices 1 2 3 4 5 6 
#
# 1 95.2638 32.5926 35.7945 0.0000 3.3805 0.0000
# 2 32.5926 106.3375 44.4911 0.0000 -7.8807 0.0000
# 3 35.7945 44.4911 86.5288 0.0000 4.7429 0.0000
# 4 0.0000 0.0000 0.0000 23.2606 0.0000 0.9401
# 5 3.3805 -7.8807 4.7429 0.0000 31.9314 0.0000
# 6 0.0000 0.0000 0.0000 0.9401 0.0000 20.4689
#
#
#
# Elastic Compliance Matrix: (Units=1/GPa)
#
#
# Indices 1 2 3 4 5 6 
#
# 1 0.012868 -0.002354 -0.004039 0.000000 -0.001343 0.000000
# 2 -0.002354 0.012915 -0.005903 0.000000 0.004313 0.000000
# 3 -0.004039 -0.005903 0.016454 0.000000 -0.003473 0.000000
# 4 0.000000 0.000000 0.000000 0.043071 0.000000 -0.001978
# 5 -0.001343 0.004313 -0.003473 0.000000 0.033040 0.000000
# 6 0.000000 0.000000 0.000000 -0.001978 0.000000 0.048946
#
#
# Mechanical properties :
#
#
# Convention : Reuss Voigt Hill
#
# Bulk Modulus (GPa) = 56.67693 57.09850 56.88771
# Shear Modulus (GPa) = 25.28232 26.81562 26.04897
#
# Velocity S-wave (km/s) = 3.58713 3.69431 3.64111
# Velocity P-wave (km/s) = 6.78252 6.87442 6.82863
#
# Compressibility (1/GPa) = 0.01764386
#
# Stress axis : x y z
#
# Youngs Moduli (GPa) = 77.71358 77.42923 60.77707
#
# Poissons Ratio (x) = 0.18223 0.24550
# Poissons Ratio (y) = 0.18290 0.35879
# Poissons Ratio (z) = 0.31391 0.45710
#
# Static dielectric constant tensor:
#      x y z
#    x 3.713850 0.000000 0.177370 
#    y 0.000000 3.201110 0.000000 
#    z 0.177370 0.000000 4.051680 
# 
# 
# High freq. dielectric constant tensor:
#      x y z
#    x 1.777150 0.000000 0.000960 
#    y 0.000000 1.718990 0.000000 
#    z 0.000960 0.000000 1.785920 
# 
# From -- ./inp_files/146272.got.cif
#   From: 2010.06.25/outbox.cif.g09.slc.cpg/sg12_74_cif.got.tgz:146272.got - 2010.06.28 00:19:55.
