data_PCOD8114222
_publ_section_title
;
Structure prediction by ZEFSAII (Michael W. Deem and Ramdas Pophale) SiO2 
 PCOD8114222
Probable space group: C 2/M
;
_chemical_formula_sum "Si O2"
_cell_formula_units_Z 56
_cell_length_a 29.558588
_cell_length_b 8.478221
_cell_length_c 21.137447
_cell_angle_alpha 90.000000
_cell_angle_beta 149.950983
_cell_angle_gamma 90.000000
_cell_volume 2652.490569
_symmetry_space_group_name_H-M "C 2/M"
_symmetry_group_IT_number 12
_symmetry_cell_setting 'monoclinic'
loop_
_space_group_symop_operation_xyz
x,y,z
-x,y,-z
-x,-y,-z
x,-y,z
1/2+x,1/2+y,z
1/2-x,1/2+y,-z
1/2-x,1/2-y,-z
1/2+x,1/2-y,z
loop_
_atom_site_type_symbol
_atom_site_label
_atom_site_fract_x
_atom_site_fract_y
_atom_site_fract_z
Si Si1 0.799834 0.683093 0.749006
Si Si2 0.144138 0.683214 0.047892
Si Si3 0.461278 0.184220 0.384997
Si Si4 0.225055 0.187586 0.900040
Si Si5 0.890982 0.815450 0.526709
Si Si6 0.045160 0.674438 0.147589
Si Si7 0.342854 0.825712 0.591791
O O1 0.803148 0.500000 0.733696
O O2 0.792174 0.709125 0.814466
O O3 0.708019 0.753869 0.609997
O O4 0.890798 0.759921 0.827708
O O5 0.126649 0.500000 0.012443
O O6 0.195018 0.754790 0.048619
O O7 0.048310 0.766539 0.949475
O O8 0.500000 0.249494 0.500000
O O9 0.369541 0.261840 0.246707
O O10 0.536436 0.216037 0.423590
O O11 0.442008 0.000000 0.368290
O O12 0.224031 0.000000 0.901530
O O13 0.250000 0.250000 0.000000
O O14 0.899735 0.782055 0.611819
O O15 0.903052 0.000000 0.525701
O O16 0.018531 0.500000 0.089465
O O17 0.097883 0.659632 0.275395
O O18 0.250000 0.750000 0.500000
O O19 0.325807 0.000000 0.542428
#
# Coordination Sequence:
#
# PCOD8114222 Si02
#       7
#     8   8   8   8   8   8   8
#     4   9  16  30  53  85 120 151 188 238 298 365
#     4   9  18  32  55  84 115 152 194 244 302 362
#     4  11  25  45  68  94 125 166 216 272 334 394
#     4  11  24  42  64  93 128 169 217 269 323 382
#     4  11  22  37  60  91 123 157 201 253 312 378
#     4   9  17  30  51  82 117 150 190 239 293 356
#     4  11  21  35  55  83 121 162 202 249 303 365
#
# _framework density 21.112234999999998
#
# number of rings (size 3 to 8) (size 9 to 14) (size 15 to 20)
#    0.000    1.857    1.429    3.000    2.000    4.000 
#    0.000    0.000    0.000    0.000    0.000    1.000 
#    0.000    0.000    0.000    0.000    0.000    0.000 
#
# Total GULP energy -346922.174407 kJ/mol
# GULP energy per Si atom -12390.077657 kJ/mol
# Density = 2.106418 g / cm^3
# Si number density = 21.112235 Si / 1000 Ang^3
#
#
#
# Elastic Constant Matrix: (Units=GPa)
#
#
# Indices 1 2 3 4 5 6 
#
# 1 174.6020 14.9655 61.6952 0.0000 5.5808 0.0000
# 2 14.9655 45.7442 24.6115 0.0000 -1.1570 0.0000
# 3 61.6952 24.6115 111.7157 0.0000 5.6618 0.0000
# 4 0.0000 0.0000 0.0000 19.9725 0.0000 -1.9177
# 5 5.5808 -1.1570 5.6618 0.0000 40.2126 0.0000
# 6 0.0000 0.0000 0.0000 -1.9177 0.0000 24.4866
#
#
#
# Elastic Compliance Matrix: (Units=1/GPa)
#
#
# Indices 1 2 3 4 5 6 
#
# 1 0.007126 -0.000270 -0.003853 0.000000 -0.000454 0.000000
# 2 -0.000270 0.024900 -0.005413 0.000000 0.001516 0.000000
# 3 -0.003853 -0.005413 0.012341 0.000000 -0.001359 0.000000
# 4 0.000000 0.000000 0.000000 0.050448 0.000000 0.003951
# 5 -0.000454 0.001516 -0.001359 0.000000 0.025166 0.000000
# 6 0.000000 0.000000 0.000000 0.003951 0.000000 0.041148
#
#
# Mechanical properties :
#
#
# Convention : Reuss Voigt Hill
#
# Bulk Modulus (GPa) = 39.53474 59.40071 49.46773
# Shear Modulus (GPa) = 26.50650 32.32034 29.41342
#
# Velocity S-wave (km/s) = 3.54715 3.91689 3.73660
# Velocity P-wave (km/s) = 5.96180 6.97516 6.48829
#
# Compressibility (1/GPa) = 0.02529421
#
# Stress axis : x y z
#
# Youngs Moduli (GPa) = 140.32231 40.16092 81.03325
#
# Poissons Ratio (x) = 0.01084 0.31223
# Poissons Ratio (y) = 0.03787 0.43866
# Poissons Ratio (z) = 0.54068 0.21740
#
# Static dielectric constant tensor:
#      x y z
#    x 4.176550 0.000000 0.123610 
#    y 0.000000 3.500650 0.000000 
#    z 0.123610 0.000000 3.758080 
# 
# 
# High freq. dielectric constant tensor:
#      x y z
#    x 1.849850 0.000000 0.001200 
#    y 0.000000 1.777850 0.000000 
#    z 0.001200 0.000000 1.838380 
# 
# From -- ./inp_files/329732.got.cif
#   From: 2010.06.25/outbox.cif.g09.slc.cpg/sg12_165_cif.got.tgz:329732.got - 2010.06.28 00:19:55.
