data_PCOD8114358
_publ_section_title
;
Structure prediction by ZEFSAII (Michael W. Deem and Ramdas Pophale) SiO2 
 PCOD8114358
Probable space group: C 2/M
;
_chemical_formula_sum "Si O2"
_cell_formula_units_Z 56
_cell_length_a 15.023415
_cell_length_b 8.655518
_cell_length_c 24.611759
_cell_angle_alpha 90.000000
_cell_angle_beta 62.689891
_cell_angle_gamma 90.000000
_cell_volume 2843.672351
_symmetry_space_group_name_H-M "C 2/M"
_symmetry_group_IT_number 12
_symmetry_cell_setting 'monoclinic'
loop_
_space_group_symop_operation_xyz
x,y,z
-x,y,-z
-x,-y,-z
x,-y,z
1/2+x,1/2+y,z
1/2-x,1/2+y,-z
1/2-x,1/2-y,-z
1/2+x,1/2-y,z
loop_
_atom_site_type_symbol
_atom_site_label
_atom_site_fract_x
_atom_site_fract_y
_atom_site_fract_z
Si Si1 0.471116 0.684654 0.139382
Si Si2 0.074991 0.181691 0.434438
Si Si3 0.285175 0.315257 0.121704
Si Si4 0.512288 0.316854 0.653262
Si Si5 0.222732 0.682385 0.565878
Si Si6 0.066389 0.317208 0.214410
Si Si7 0.097832 0.168611 0.008965
O O1 0.476245 0.500000 0.140335
O O2 0.363650 0.739415 0.146046
O O3 0.483767 0.755223 0.195447
O O4 0.561642 0.751315 0.075042
O O5 0.188605 0.223562 0.417114
O O6 0.000000 0.256394 0.500000
O O7 0.047474 0.245927 0.382707
O O8 0.056991 0.000000 0.439253
O O9 0.287611 0.500000 0.117591
O O10 0.175822 0.252134 0.167392
O O11 0.318207 0.247179 0.052547
O O12 0.508984 0.500000 0.659347
O O13 0.626384 0.263046 0.617882
O O14 0.458560 0.242575 0.719354
O O15 0.206351 0.500000 0.565082
O O16 0.250000 0.750000 0.500000
O O17 0.064636 0.500000 0.214939
O O18 0.139762 0.000000 0.013034
O O19 0.000000 0.147879 0.000000
#
# Coordination Sequence:
#
# PCOD8114358 Si02
#       7
#     8   8   8   8   8   8   8
#     4   9  17  33  57  81 106 142 188 231 274 332
#     4   9  18  36  61  86 113 144 175 215 271 323
#     4   8  16  32  54  78 108 145 185 231 277 327
#     4  11  23  41  60  80 110 148 190 230 271 326
#     4  11  21  37  62  91 119 146 177 217 269 323
#     4  11  23  37  52  77 113 148 183 228 280 330
#     4   7  11  24  50  80 104 134 181 231 276 323
#
# _framework density 19.692844999999998
#
# number of rings (size 3 to 8) (size 9 to 14) (size 15 to 20)
#    0.000    2.571    1.429    3.000    0.000    1.714 
#    0.000    7.857    0.000    4.714    0.000    0.000 
#    0.000    0.000    0.000    0.000    0.000    0.000 
#
# Total GULP energy -346996.005464 kJ/mol
# GULP energy per Si atom -12392.714481 kJ/mol
# Density = 1.964802 g / cm^3
# Si number density = 19.692845 Si / 1000 Ang^3
#
#
#
# Elastic Constant Matrix: (Units=GPa)
#
#
# Indices 1 2 3 4 5 6 
#
# 1 71.5644 5.5596 26.4604 0.0000 7.1753 0.0000
# 2 5.5596 24.6309 11.5317 0.0000 4.2160 0.0000
# 3 26.4604 11.5317 109.2721 0.0000 6.1099 0.0000
# 4 0.0000 0.0000 0.0000 17.3556 0.0000 -1.5523
# 5 7.1753 4.2160 6.1099 0.0000 37.2589 0.0000
# 6 0.0000 0.0000 0.0000 -1.5523 0.0000 20.0939
#
#
#
# Elastic Compliance Matrix: (Units=1/GPa)
#
#
# Indices 1 2 3 4 5 6 
#
# 1 0.015609 -0.001500 -0.003495 0.000000 -0.002263 0.000000
# 2 -0.001500 0.043493 -0.004004 0.000000 -0.003976 0.000000
# 3 -0.003495 -0.004004 0.010453 0.000000 -0.000588 0.000000
# 4 0.000000 0.000000 0.000000 0.058019 0.000000 0.004482
# 5 -0.002263 -0.003976 -0.000588 0.000000 0.027821 0.000000
# 6 0.000000 0.000000 0.000000 0.004482 0.000000 0.050112
#
#
# Mechanical properties :
#
#
# Convention : Reuss Voigt Hill
#
# Bulk Modulus (GPa) = 19.39580 32.50787 25.95183
# Shear Modulus (GPa) = 20.77341 25.73608 23.25474
#
# Velocity S-wave (km/s) = 3.25140 3.61899 3.44011
# Velocity P-wave (km/s) = 4.89551 5.83148 5.38387
#
# Compressibility (1/GPa) = 0.05155756
#
# Stress axis : x y z
#
# Youngs Moduli (GPa) = 64.06530 22.99207 95.66395
#
# Poissons Ratio (x) = 0.03448 0.33434
# Poissons Ratio (y) = 0.09607 0.38309
# Poissons Ratio (z) = 0.22391 0.09207
#
# Static dielectric constant tensor:
#      x y z
#    x 3.779490 0.000000 -0.032010 
#    y 0.000000 3.189460 0.000000 
#    z -0.032010 0.000000 3.892370 
# 
# 
# High freq. dielectric constant tensor:
#      x y z
#    x 1.769870 0.000000 0.000570 
#    y 0.000000 1.726700 0.000000 
#    z 0.000570 0.000000 1.777290 
# 
# From -- ./inp_files/337884.got.cif
#   From: 2010.06.25/outbox.cif.g09.slc.cpg/sg12_169_cif.got.tgz:337884.got - 2010.06.28 00:19:55.
