data_PCOD8114522
_publ_section_title
;
Structure prediction by ZEFSAII (Michael W. Deem and Ramdas Pophale) SiO2 
 PCOD8114522
Probable space group: C 2/M
;
_chemical_formula_sum "Si O2"
_cell_formula_units_Z 56
_cell_length_a 9.340478
_cell_length_b 24.325831
_cell_length_c 14.448975
_cell_angle_alpha 90.000000
_cell_angle_beta 121.520035
_cell_angle_gamma 90.000000
_cell_volume 2798.636637
_symmetry_space_group_name_H-M "C 2/M"
_symmetry_group_IT_number 12
_symmetry_cell_setting 'monoclinic'
loop_
_space_group_symop_operation_xyz
x,y,z
-x,y,-z
-x,-y,-z
x,-y,z
1/2+x,1/2+y,z
1/2-x,1/2+y,-z
1/2-x,1/2-y,-z
1/2+x,1/2-y,z
loop_
_atom_site_type_symbol
_atom_site_label
_atom_site_fract_x
_atom_site_fract_y
_atom_site_fract_z
Si Si1 0.020547 0.309589 0.111744
Si Si2 0.594299 0.563756 0.368029
Si Si3 0.886408 0.438645 0.597663
Si Si4 0.806057 0.000000 0.922645
Si Si5 0.688147 0.000000 0.088036
Si Si6 0.826416 0.197889 0.891807
Si Si7 0.737682 0.908452 0.251597
Si Si8 0.762206 0.592668 0.242634
O O1 0.136105 0.255188 0.147160
O O2 0.125235 0.353838 0.205453
O O3 0.835570 0.298193 0.093808
O O4 0.000000 0.331530 0.000000
O O5 0.553029 0.500000 0.378690
O O6 0.745070 0.586810 0.482715
O O7 0.435347 0.603122 0.335721
O O8 0.634265 0.567278 0.272903
O O9 0.929444 0.500000 0.577894
O O10 0.828009 0.442125 0.683491
O O11 0.055325 0.403105 0.647788
O O12 0.733795 0.054018 0.847036
O O13 0.000000 0.000000 0.000000
O O14 0.769094 0.000000 0.016760
O O15 0.733820 0.945224 0.158744
O O16 0.500000 0.000000 0.000000
O O17 0.790941 0.153825 0.800895
O O18 0.000000 0.179964 0.000000
#
# Coordination Sequence:
#
# PCOD8114522 Si02
#       8
#     8   8   8   4   4   8   8   8
#     4  11  25  43  67  93 126 168 215 259 309 380
#     4  11  23  39  64  95 128 168 217 263 311 377
#     4  11  21  41  64  92 128 166 215 265 314 380
#     4  12  24  38  55  92 135 164 202 250 316 387
#     4  12  24  36  57  90 131 168 196 250 318 379
#     4  11  25  44  67  94 125 168 215 259 310 377
#     4  12  23  40  63  93 128 166 212 256 323 372
#     4  12  23  40  63  92 129 169 209 260 320 378
#
# _framework density 20.009743
#
# number of rings (size 3 to 8) (size 9 to 14) (size 15 to 20)
#    0.000    0.571    4.286    5.143    6.000    2.286 
#    0.000    0.000    0.000    5.143    0.000    0.000 
#    0.000    0.000    0.000    0.000    0.000    0.000 
#
# Total GULP energy -347110.701350 kJ/mol
# GULP energy per Si atom -12396.810762 kJ/mol
# Density = 1.996420 g / cm^3
# Si number density = 20.009743 Si / 1000 Ang^3
#
#
#
# Elastic Constant Matrix: (Units=GPa)
#
#
# Indices 1 2 3 4 5 6 
#
# 1 140.0913 33.4749 37.9691 0.0000 18.8442 0.0000
# 2 33.4749 84.1357 48.7617 0.0000 15.4198 0.0000
# 3 37.9691 48.7617 92.9154 0.0000 22.8422 0.0000
# 4 0.0000 0.0000 0.0000 25.4546 0.0000 6.6588
# 5 18.8442 15.4198 22.8422 0.0000 44.3780 0.0000
# 6 0.0000 0.0000 0.0000 6.6588 0.0000 29.3499
#
#
#
# Elastic Compliance Matrix: (Units=1/GPa)
#
#
# Indices 1 2 3 4 5 6 
#
# 1 0.008370 -0.001826 -0.001997 0.000000 -0.001892 0.000000
# 2 -0.001826 0.017568 -0.008201 0.000000 -0.001108 0.000000
# 3 -0.001997 -0.008201 0.017143 0.000000 -0.005126 0.000000
# 4 0.000000 0.000000 0.000000 0.041764 0.000000 -0.009475
# 5 -0.001892 -0.001108 -0.005126 0.000000 0.026360 0.000000
# 6 0.000000 0.000000 0.000000 -0.009475 0.000000 0.036221
#
#
# Mechanical properties :
#
#
# Convention : Reuss Voigt Hill
#
# Bulk Modulus (GPa) = 52.54184 61.95042 57.24613
# Shear Modulus (GPa) = 28.11830 32.96562 30.54196
#
# Velocity S-wave (km/s) = 3.75271 4.06332 3.91110
# Velocity P-wave (km/s) = 6.71507 7.28295 7.00477
#
# Compressibility (1/GPa) = 0.01903245
#
# Stress axis : x y z
#
# Youngs Moduli (GPa) = 119.47017 56.92092 58.33391
#
# Poissons Ratio (x) = 0.10395 0.11649
# Poissons Ratio (y) = 0.21817 0.47841
# Poissons Ratio (z) = 0.23858 0.46682
#
# Static dielectric constant tensor:
#      x y z
#    x 3.915790 0.000000 0.182270 
#    y 0.000000 3.403240 0.000000 
#    z 0.182270 0.000000 3.879270 
# 
# 
# High freq. dielectric constant tensor:
#      x y z
#    x 1.807080 0.000000 0.008940 
#    y 0.000000 1.747710 0.000000 
#    z 0.008940 0.000000 1.787990 
# 
# From -- ./inp_files/199000.got.cif
#   From: 2010.06.25/outbox.cif.g09.slc.cpg/sg12_100_cif.got.tgz:199000.got - 2010.06.28 00:19:55.
