data_PCOD8114734
_publ_section_title
;
Structure prediction by ZEFSAII (Michael W. Deem and Ramdas Pophale) SiO2 
 PCOD8114734
Probable space group: C 2/M
;
_chemical_formula_sum "Si O2"
_cell_formula_units_Z 64
_cell_length_a 13.953564
_cell_length_b 27.060071
_cell_length_c 12.372109
_cell_angle_alpha 90.000000
_cell_angle_beta 137.881469
_cell_angle_gamma 90.000000
_cell_volume 3133.029397
_symmetry_space_group_name_H-M "C 2/M"
_symmetry_group_IT_number 12
_symmetry_cell_setting 'monoclinic'
loop_
_space_group_symop_operation_xyz
x,y,z
-x,y,-z
-x,-y,-z
x,-y,z
1/2+x,1/2+y,z
1/2-x,1/2+y,-z
1/2-x,1/2-y,-z
1/2+x,1/2-y,z
loop_
_atom_site_type_symbol
_atom_site_label
_atom_site_fract_x
_atom_site_fract_y
_atom_site_fract_z
Si Si1 0.972603 0.281599 0.201701
Si Si2 0.154028 0.280779 0.681501
Si Si3 0.379449 0.642106 0.828564
Si Si4 0.220288 0.317031 0.154016
Si Si5 0.206679 0.555754 0.740128
Si Si6 0.415547 0.056389 0.600919
Si Si7 0.515457 0.329939 0.295736
Si Si8 0.203432 0.643617 0.359618
O O1 0.855971 0.290277 0.198037
O O2 0.024055 0.224759 0.249318
O O3 0.108638 0.315362 0.341015
O O4 0.904104 0.299336 0.030980
O O5 0.238084 0.324951 0.695384
O O6 0.237074 0.229565 0.734967
O O7 0.000000 0.275505 0.500000
O O8 0.340604 0.592456 0.862981
O O9 0.444238 0.631195 0.764757
O O10 0.500000 0.670078 0.000000
O O11 0.355954 0.339493 0.204427
O O12 0.170239 0.357175 0.202034
O O13 0.258204 0.500000 0.803868
O O14 0.155051 0.562965 0.574486
O O15 0.083309 0.569629 0.723727
O O16 0.339865 0.090629 0.626851
O O17 0.399648 0.000000 0.628011
O O18 0.630609 0.340902 0.485811
#
# Coordination Sequence:
#
# PCOD8114734 Si02
#       8
#     8   8   8   8   8   8   8   8
#     4  11  22  37  56  81 117 157 198 242 292 338
#     4  11  22  37  57  82 116 157 201 242 284 345
#     4  12  22  33  55  87 120 149 185 238 298 355
#     4  11  23  39  54  78 121 164 196 238 288 338
#     4   9  19  37  59  85 118 147 181 239 308 360
#     4   9  19  37  63  90 114 144 192 251 298 347
#     4  11  22  37  53  81 119 157 197 233 282 344
#     4  12  21  36  61  87 109 151 204 245 289 345
#
# _framework density 20.427513000000001
#
# number of rings (size 3 to 8) (size 9 to 14) (size 15 to 20)
#    0.000    1.250    1.250    8.625    1.750    0.250 
#    0.000    0.000    0.000    3.750    0.000    0.000 
#    0.000    0.000    0.000    0.000    0.000    0.250 
#
# Total GULP energy -396681.919152 kJ/mol
# GULP energy per Si atom -12396.309974 kJ/mol
# Density = 2.038102 g / cm^3
# Si number density = 20.427513 Si / 1000 Ang^3
#
#
#
# Elastic Constant Matrix: (Units=GPa)
#
#
# Indices 1 2 3 4 5 6 
#
# 1 77.8984 52.8182 11.3720 0.0000 -7.0425 0.0000
# 2 52.8182 82.8552 25.1779 0.0000 5.2016 0.0000
# 3 11.3720 25.1779 84.3160 0.0000 -6.4456 0.0000
# 4 0.0000 0.0000 0.0000 14.8703 0.0000 -3.3197
# 5 -7.0425 5.2016 -6.4456 0.0000 33.3843 0.0000
# 6 0.0000 0.0000 0.0000 -3.3197 0.0000 34.1398
#
#
#
# Elastic Compliance Matrix: (Units=1/GPa)
#
#
# Indices 1 2 3 4 5 6 
#
# 1 0.024820 -0.017073 0.002390 0.000000 0.008357 0.000000
# 2 -0.017073 0.025296 -0.005915 0.000000 -0.008685 0.000000
# 3 0.002390 -0.005915 0.013614 0.000000 0.004054 0.000000
# 4 0.000000 0.000000 0.000000 0.068741 0.000000 0.006684
# 5 0.008357 -0.008685 0.004054 0.000000 0.033853 0.000000
# 6 0.000000 0.000000 0.000000 0.006684 0.000000 0.029941
#
#
# Mechanical properties :
#
#
# Convention : Reuss Voigt Hill
#
# Bulk Modulus (GPa) = 44.37918 47.08952 45.73435
# Shear Modulus (GPa) = 20.41045 26.85897 23.63471
#
# Velocity S-wave (km/s) = 3.16439 3.63001 3.40517
# Velocity P-wave (km/s) = 5.92651 6.37741 6.15609
#
# Compressibility (1/GPa) = 0.02253309
#
# Stress axis : x y z
#
# Youngs Moduli (GPa) = 40.28976 39.53261 73.45365
#
# Poissons Ratio (x) = 0.67494 -0.17552
# Poissons Ratio (y) = 0.68787 0.43447
# Poissons Ratio (z) = -0.09628 0.23383
#
# Static dielectric constant tensor:
#      x y z
#    x 3.890820 0.000000 0.076180 
#    y 0.000000 3.577510 0.000000 
#    z 0.076180 0.000000 3.607510 
# 
# 
# High freq. dielectric constant tensor:
#      x y z
#    x 1.809900 0.000000 0.007770 
#    y 0.000000 1.764850 0.000000 
#    z 0.007770 0.000000 1.793620 
# 
# From -- ./inp_files/149818.got.cif
#   From: 2010.06.25/outbox.cif.g09.slc.cpg/sg12_75_cif.got.tgz:149818.got - 2010.06.28 00:19:55.
