data_PCOD8114036
_publ_section_title
;
Structure prediction by ZEFSAII (Michael W. Deem and Ramdas Pophale) SiO2 
 PCOD8114036
Probable space group: C 2/M
;
_chemical_formula_sum "Si O2"
_cell_formula_units_Z 48
_cell_length_a 16.465303
_cell_length_b 14.892092
_cell_length_c 16.480412
_cell_angle_alpha 90.000000
_cell_angle_beta 35.889423
_cell_angle_gamma 90.000000
_cell_volume 2368.951750
_symmetry_space_group_name_H-M "C 2/M"
_symmetry_group_IT_number 12
_symmetry_cell_setting 'monoclinic'
loop_
_space_group_symop_operation_xyz
x,y,z
-x,y,-z
-x,-y,-z
x,-y,z
1/2+x,1/2+y,z
1/2-x,1/2+y,-z
1/2-x,1/2-y,-z
1/2+x,1/2-y,z
loop_
_atom_site_type_symbol
_atom_site_label
_atom_site_fract_x
_atom_site_fract_y
_atom_site_fract_z
Si Si1 0.324728 0.646817 0.081488
Si Si2 0.118358 0.901758 0.791485
Si Si3 0.338345 0.602280 0.631131
Si Si4 0.359854 0.855235 0.067266
Si Si5 0.082024 0.599986 0.156649
Si Si6 0.674807 0.229064 0.643296
O O1 0.291651 0.618707 0.200659
O O2 0.365165 0.750338 0.046597
O O3 0.195128 0.625663 0.131020
O O4 0.456086 0.592320 0.943208
O O5 0.144667 0.826144 0.704210
O O6 0.162492 0.000000 0.721731
O O7 0.500000 0.624834 0.500000
O O8 0.312168 0.500000 0.623900
O O9 0.274487 0.616142 0.772422
O O10 0.269119 0.670535 0.625594
O O11 0.500000 0.885441 0.000000
O O12 0.351855 0.902780 0.986688
O O13 0.024427 0.500000 0.222021
O O14 0.964754 0.674677 0.259659
O O15 0.750000 0.250000 0.500000
#
# Coordination Sequence:
#
# PCOD8114036 Si02
#       6
#     8   8   8   8   8   8
#     4  11  20  41  66  98 130 166 211 273 329 385
#     4  11  22  42  67  95 129 172 219 266 328 391
#     4  11  25  45  69  96 131 174 218 268 329 396
#     4  12  21  42  73  98 132 177 214 270 334 388
#     4  12  25  40  66 101 131 166 220 278 327 388
#     4  12  27  43  64  91 130 178 215 275 330 389
#
# _framework density 20.262127
#
# number of rings (size 3 to 8) (size 9 to 14) (size 15 to 20)
#    0.000    0.500    6.667    3.500    2.333    2.000 
#    0.000    1.667    0.000    2.500    0.000    0.000 
#    0.000    0.000    0.000    0.000    0.000    0.000 
#
# Total GULP energy -297645.253323 kJ/mol
# GULP energy per Si atom -12401.885555 kJ/mol
# Density = 2.021601 g / cm^3
# Si number density = 20.262127 Si / 1000 Ang^3
#
#
#
# Elastic Constant Matrix: (Units=GPa)
#
#
# Indices 1 2 3 4 5 6 
#
# 1 143.9700 61.3554 68.3295 -0.0001 -5.7267 0.0000
# 2 61.3554 134.2641 33.3869 0.0000 -3.6863 -0.0001
# 3 68.3295 33.3869 130.6458 0.0001 9.9715 -0.0002
# 4 -0.0001 0.0000 0.0001 15.9195 -0.0001 5.0621
# 5 -5.7267 -3.6863 9.9715 -0.0001 31.6531 0.0001
# 6 0.0000 -0.0001 -0.0002 5.0621 0.0001 -40.5249
#
#
#
# Elastic Compliance Matrix: (Units=1/GPa)
#
#
# Indices 1 2 3 4 5 6 
#
# 1 0.011062 -0.003705 -0.005081 0.000000 0.003171 0.000000
# 2 -0.003705 0.009274 -0.000475 0.000000 0.000560 0.000000
# 3 -0.005081 -0.000475 0.010766 0.000000 -0.004366 0.000000
# 4 0.000000 0.000000 0.000000 0.060416 0.000000 0.007547
# 5 0.003171 0.000560 -0.004366 0.000000 0.033607 0.000000
# 6 0.000000 0.000000 0.000000 0.007547 0.000000 -0.023734
#
#
# Mechanical properties :
#
#
# Convention : Reuss Voigt Hill
#
# Bulk Modulus (GPa) = 79.48237 81.66928 80.57583
# Shear Modulus (GPa) = 40.28733 17.79675 29.04204
#
# Velocity S-wave (km/s) = 4.46388 2.96687 3.79002
# Velocity P-wave (km/s) = 8.11668 7.22013 7.68150
#
# Compressibility (1/GPa) = 0.01258141
#
# Stress axis : x y z
#
# Youngs Moduli (GPa) = 90.39701 107.82259 92.88150
#
# Poissons Ratio (x) = 0.39945 0.47193
# Poissons Ratio (y) = 0.33489 0.04414
# Poissons Ratio (z) = 0.45931 0.05124
#
# Static dielectric constant tensor:
#      x y z
#    x 3.843150 0.000000 -0.021410 
#    y 0.000000 3.959870 0.000000 
#    z -0.021410 0.000000 3.623300 
# 
# 
# High freq. dielectric constant tensor:
#      x y z
#    x 1.796510 0.000000 0.002010 
#    y 0.000000 1.818220 0.000000 
#    z 0.002010 0.000000 1.774430 
# 
# From -- ./inp_files/278035.got.cif
#   From: 2010.06.25/outbox.cif.g09.slc.cpg/sg12_140_cif.got.tgz:278035.got - 2010.06.28 00:19:55.
