data_PCOD8114914
_publ_section_title
;
Structure prediction by ZEFSAII (Michael W. Deem and Ramdas Pophale) SiO2 
 PCOD8114914
Probable space group: C 2/M
;
_chemical_formula_sum "Si O2"
_cell_formula_units_Z 64
_cell_length_a 29.292781
_cell_length_b 21.010916
_cell_length_c 15.183059
_cell_angle_alpha 90.000000
_cell_angle_beta 161.183941
_cell_angle_gamma 90.000000
_cell_volume 3013.952127
_symmetry_space_group_name_H-M "C 2/M"
_symmetry_group_IT_number 12
_symmetry_cell_setting 'monoclinic'
loop_
_space_group_symop_operation_xyz
x,y,z
-x,y,-z
-x,-y,-z
x,-y,z
1/2+x,1/2+y,z
1/2-x,1/2+y,-z
1/2-x,1/2-y,-z
1/2+x,1/2-y,z
loop_
_atom_site_type_symbol
_atom_site_label
_atom_site_fract_x
_atom_site_fract_y
_atom_site_fract_z
Si Si1 0.714460 0.129229 0.089341
Si Si2 0.867109 0.718883 0.628250
Si Si3 0.851558 0.131327 0.008283
Si Si4 0.455017 0.924581 0.515726
Si Si5 0.836342 0.740691 0.888976
Si Si6 0.127535 0.072234 0.456450
Si Si7 0.639145 0.651787 0.302428
Si Si8 0.141733 0.807221 0.796314
O O1 0.708091 0.203881 0.103916
O O2 0.778137 0.089772 0.286580
O O3 0.809644 0.132573 0.175208
O O4 0.564927 0.098769 0.789874
O O5 0.791590 0.759392 0.413084
O O6 0.783293 0.654122 0.505340
O O7 0.887097 0.772231 0.739897
O O8 0.026689 0.700525 0.893247
O O9 0.694337 0.104290 0.728067
O O10 0.868268 0.185423 0.964608
O O11 0.898725 0.162323 0.185138
O O12 0.962675 0.077537 0.182329
O O13 0.500000 0.900745 0.500000
O O14 0.444608 0.000000 0.497907
O O15 0.168450 0.114932 0.446689
O O16 0.159122 0.000000 0.487618
O O17 0.500000 0.621907 0.000000
O O18 0.000000 0.775455 0.500000
O O19 0.250000 0.750000 0.000000
#
# Coordination Sequence:
#
# PCOD8114914 Si02
#       8
#     8   8   8   8   8   8   8   8
#     4  12  24  43  64  99 137 177 228 283 332 398
#     4  11  22  39  63 101 132 160 208 270 342 416
#     4  12  23  43  64  99 138 175 233 279 335 396
#     4  11  25  42  63  90 128 189 242 279 323 381
#     4  12  22  39  68 101 132 166 213 276 344 397
#     4  12  26  46  70  96 135 181 225 278 326 405
#     4  11  22  41  67  97 130 164 212 269 341 412
#     4  12  26  39  63  99 146 182 224 282 352 399
#
# _framework density 21.234577000000002
#
# number of rings (size 3 to 8) (size 9 to 14) (size 15 to 20)
#    0.000    0.375    7.500    1.500    1.750    0.250 
#    0.000    0.625    0.000    2.250    0.000    0.000 
#    0.000    0.000    0.000    0.000    0.000    0.000 
#
# Total GULP energy -396680.631025 kJ/mol
# GULP energy per Si atom -12396.269720 kJ/mol
# Density = 2.118625 g / cm^3
# Si number density = 21.234577 Si / 1000 Ang^3
#
#
#
# Elastic Constant Matrix: (Units=GPa)
#
#
# Indices 1 2 3 4 5 6 
#
# 1 64.5479 16.3773 20.5362 0.0000 -4.3476 0.0000
# 2 16.3773 82.6790 20.8025 0.0000 -2.8611 0.0000
# 3 20.5362 20.8025 129.9040 0.0000 2.5410 0.0000
# 4 0.0000 0.0000 0.0000 23.1757 0.0000 2.0340
# 5 -4.3476 -2.8611 2.5410 0.0000 29.2484 0.0000
# 6 0.0000 0.0000 0.0000 2.0340 0.0000 23.5955
#
#
#
# Elastic Compliance Matrix: (Units=1/GPa)
#
#
# Indices 1 2 3 4 5 6 
#
# 1 0.017085 -0.002716 -0.002314 0.000000 0.002475 0.000000
# 2 -0.002716 0.013093 -0.001687 0.000000 0.001024 0.000000
# 3 -0.002314 -0.001687 0.008358 0.000000 -0.001235 0.000000
# 4 0.000000 0.000000 0.000000 0.043478 0.000000 -0.003748
# 5 0.002475 0.001024 -0.001235 0.000000 0.034765 0.000000
# 6 0.000000 0.000000 0.000000 -0.003748 0.000000 0.042704
#
#
# Mechanical properties :
#
#
# Convention : Reuss Voigt Hill
#
# Bulk Modulus (GPa) = 39.84048 43.61808 41.72928
# Shear Modulus (GPa) = 27.58091 29.83159 28.70625
#
# Velocity S-wave (km/s) = 3.60789 3.75221 3.68076
# Velocity P-wave (km/s) = 6.01321 6.27358 6.14477
#
# Compressibility (1/GPa) = 0.02510010
#
# Stress axis : x y z
#
# Youngs Moduli (GPa) = 58.53249 76.37692 119.64277
#
# Poissons Ratio (x) = 0.20746 0.27689
# Poissons Ratio (y) = 0.15899 0.20187
# Poissons Ratio (z) = 0.13546 0.12887
#
# Static dielectric constant tensor:
#      x y z
#    x 4.090030 0.000000 0.088190 
#    y 0.000000 3.561130 0.000000 
#    z 0.088190 0.000000 4.066710 
# 
# 
# High freq. dielectric constant tensor:
#      x y z
#    x 1.845450 0.000000 -0.004300 
#    y 0.000000 1.796830 0.000000 
#    z -0.004300 0.000000 1.850880 
# 
# From -- ./inp_files/251935.got.cif
#   From: 2010.06.25/outbox.cif.g09.slc.cpg/sg12_126_cif.got.tgz:251935.got - 2010.06.28 00:19:55.
