data_PCOD8114370
_publ_section_title
;
Structure prediction by ZEFSAII (Michael W. Deem and Ramdas Pophale) SiO2 
 PCOD8114370
Probable space group: C 2/M
;
_chemical_formula_sum "Si O2"
_cell_formula_units_Z 48
_cell_length_a 25.104434
_cell_length_b 8.308213
_cell_length_c 20.167224
_cell_angle_alpha 90.000000
_cell_angle_beta 144.809283
_cell_angle_gamma 90.000000
_cell_volume 2424.112296
_symmetry_space_group_name_H-M "C 2/M"
_symmetry_group_IT_number 12
_symmetry_cell_setting 'monoclinic'
loop_
_space_group_symop_operation_xyz
x,y,z
-x,y,-z
-x,-y,-z
x,-y,z
1/2+x,1/2+y,z
1/2-x,1/2+y,-z
1/2-x,1/2-y,-z
1/2+x,1/2-y,z
loop_
_atom_site_type_symbol
_atom_site_label
_atom_site_fract_x
_atom_site_fract_y
_atom_site_fract_z
Si Si1 0.757940 0.186908 0.774197
Si Si2 0.928601 0.186267 0.751052
Si Si3 0.943233 0.687756 0.005926
Si Si4 0.061001 0.309434 0.621890
Si Si5 0.054398 0.686805 0.372921
Si Si6 0.742759 0.314156 0.615414
O O1 0.666936 0.245720 0.721032
O O2 0.770579 0.287706 0.719930
O O3 0.749577 0.000000 0.747066
O O4 0.845970 0.218694 0.910310
O O5 0.959500 0.207587 0.706732
O O6 0.827731 0.263579 0.655565
O O7 0.001303 0.277217 0.871090
O O8 0.925857 0.000000 0.768020
O O9 0.922707 0.500000 0.978866
O O10 0.000000 0.750552 0.000000
O O11 0.051157 0.500000 0.610324
O O12 0.000000 0.235087 0.500000
O O13 0.021653 0.247938 0.652104
O O14 0.039749 0.500000 0.340617
O O15 0.155112 0.706958 0.507636
O O16 0.719750 0.500000 0.578902
#
# Coordination Sequence:
#
# PCOD8114370 Si02
#       6
#     8   8   8   8   8   8
#     4  11  21  37  63  93 121 155 202 247 295 350
#     4  12  25  41  61  88 121 159 203 247 299 359
#     4  11  23  40  62  89 122 156 198 247 299 355
#     4   9  18  36  62  91 120 156 199 244 293 352
#     4  11  22  40  63  88 123 162 199 245 301 355
#     4  12  23  37  58  90 126 159 197 245 301 357
#
# _framework density 19.801062999999999
#
# number of rings (size 3 to 8) (size 9 to 14) (size 15 to 20)
#    0.000    1.000    3.333    5.000    0.000    0.667 
#    0.000    5.000    0.000    0.000    0.000    0.000 
#    0.000    0.000    0.000    0.000    0.000    0.000 
#
# Total GULP energy -297762.158666 kJ/mol
# GULP energy per Si atom -12406.756611 kJ/mol
# Density = 1.975599 g / cm^3
# Si number density = 19.801063 Si / 1000 Ang^3
#
#
#
# Elastic Constant Matrix: (Units=GPa)
#
#
# Indices 1 2 3 4 5 6 
#
# 1 147.7641 22.2724 50.6149 0.0000 10.6714 0.0000
# 2 22.2724 58.3313 7.5408 0.0000 4.8674 0.0000
# 3 50.6149 7.5408 97.8948 0.0000 16.9658 0.0000
# 4 0.0000 0.0000 0.0000 27.4903 0.0000 -3.7555
# 5 10.6714 4.8674 16.9658 0.0000 34.1093 0.0000
# 6 0.0000 0.0000 0.0000 -3.7555 0.0000 24.3160
#
#
#
# Elastic Compliance Matrix: (Units=1/GPa)
#
#
# Indices 1 2 3 4 5 6 
#
# 1 0.008641 -0.002736 -0.004220 0.000000 -0.000214 0.000000
# 2 -0.002736 0.018305 0.000338 0.000000 -0.001924 0.000000
# 3 -0.004220 0.000338 0.013297 0.000000 -0.005342 0.000000
# 4 0.000000 0.000000 0.000000 0.037161 0.000000 0.005739
# 5 -0.000214 -0.001924 -0.005342 0.000000 0.032316 0.000000
# 6 0.000000 0.000000 0.000000 0.005739 0.000000 0.042012
#
#
# Mechanical properties :
#
#
# Convention : Reuss Voigt Hill
#
# Bulk Modulus (GPa) = 37.02740 51.64960 44.33850
# Shear Modulus (GPa) = 28.74093 32.08726 30.41409
#
# Velocity S-wave (km/s) = 3.81397 4.02989 3.92341
# Velocity P-wave (km/s) = 6.17539 6.91334 6.55476
#
# Compressibility (1/GPa) = 0.02700703
#
# Stress axis : x y z
#
# Youngs Moduli (GPa) = 115.72982 54.62999 75.20768
#
# Poissons Ratio (x) = 0.14946 0.31736
# Poissons Ratio (y) = 0.31663 -0.02542
# Poissons Ratio (z) = 0.48835 -0.01847
#
# Static dielectric constant tensor:
#      x y z
#    x 3.789920 0.000000 0.083490 
#    y 0.000000 3.416980 0.000000 
#    z 0.083490 0.000000 3.504820 
# 
# 
# High freq. dielectric constant tensor:
#      x y z
#    x 1.772990 0.000000 0.004020 
#    y 0.000000 1.766880 0.000000 
#    z 0.004020 0.000000 1.768570 
# 
# From -- ./inp_files/327332.got.cif
#   From: 2010.06.25/outbox.cif.g09.slc.cpg/sg12_164_cif.got.tgz:327332.got - 2010.06.28 00:19:55.
