data_PCOD8114497
_publ_section_title
;
Structure prediction by ZEFSAII (Michael W. Deem and Ramdas Pophale) SiO2 
 PCOD8114497
Probable space group: C 2/M
;
_chemical_formula_sum "Si O2"
_cell_formula_units_Z 40
_cell_length_a 29.539499
_cell_length_b 9.913368
_cell_length_c 11.070367
_cell_angle_alpha 90.000000
_cell_angle_beta 145.797738
_cell_angle_gamma 90.000000
_cell_volume 1822.268393
_symmetry_space_group_name_H-M "C 2/M"
_symmetry_group_IT_number 12
_symmetry_cell_setting 'monoclinic'
loop_
_space_group_symop_operation_xyz
x,y,z
-x,y,-z
-x,-y,-z
x,-y,z
1/2+x,1/2+y,z
1/2-x,1/2+y,-z
1/2-x,1/2-y,-z
1/2+x,1/2-y,z
loop_
_atom_site_type_symbol
_atom_site_label
_atom_site_fract_x
_atom_site_fract_y
_atom_site_fract_z
Si Si1 0.802409 0.000000 0.408105
Si Si2 0.933071 0.771756 0.103100
Si Si3 0.417139 0.000000 0.735755
Si Si4 0.586389 0.500000 0.121236
Si Si5 0.110976 0.749031 0.504354
Si Si6 0.404348 0.150157 0.274662
Si Si7 0.872447 0.500000 0.883631
O O1 0.824781 0.137086 0.387873
O O2 0.844392 0.000000 0.629191
O O3 0.707170 0.000000 0.212306
O O4 0.884936 0.759388 0.125233
O O5 0.024290 0.820795 0.327335
O O6 0.895276 0.872870 0.923576
O O7 0.932049 0.623578 0.043639
O O8 0.399784 0.867234 0.618779
O O9 0.348760 0.000000 0.689622
O O10 0.500000 0.000000 0.000000
O O11 0.500000 0.500000 0.000000
O O12 0.138502 0.690727 0.694812
O O13 0.500000 0.144142 0.500000
O O14 0.373928 0.000000 0.169956
#
# Coordination Sequence:
#
# PCOD8114497 Si02
#       7
#     4   8   4   4   8   8   4
#     4  12  28  43  59  99 149 167 204 280 338 382
#     4  11  21  40  69  94 129 174 219 271 321 381
#     4  12  22  35  67 100 121 173 232 259 312 393
#     4  12  24  41  63  96 135 173 214 263 326 393
#     4  11  21  40  66  97 133 172 217 273 327 380
#     4   9  18  35  64 102 126 156 228 287 306 365
#     4  12  26  41  65  99 135 169 222 274 320 386
#
# _framework density 21.950662000000001
#
# number of rings (size 3 to 8) (size 9 to 14) (size 15 to 20)
#    0.000    1.000    6.000    1.200    0.000    4.000 
#    0.000    4.000    0.000    0.000    0.000    0.000 
#    0.000    0.000    0.000    0.000    0.000    0.000 
#
# Total GULP energy -247839.587631 kJ/mol
# GULP energy per Si atom -12391.979382 kJ/mol
# Density = 2.190070 g / cm^3
# Si number density = 21.950662 Si / 1000 Ang^3
#
#
#
# Elastic Constant Matrix: (Units=GPa)
#
#
# Indices 1 2 3 4 5 6 
#
# 1 150.0795 58.4161 37.3786 0.0000 -30.5960 0.0000
# 2 58.4161 125.8550 14.5956 0.0000 -12.4995 0.0000
# 3 37.3786 14.5956 34.7703 0.0000 -11.8797 0.0000
# 4 0.0000 0.0000 0.0000 24.3956 0.0000 -12.5143
# 5 -30.5960 -12.4995 -11.8797 0.0000 45.6659 0.0000
# 6 0.0000 0.0000 0.0000 -12.5143 0.0000 46.6776
#
#
#
# Elastic Compliance Matrix: (Units=1/GPa)
#
#
# Indices 1 2 3 4 5 6 
#
# 1 0.011227 -0.003747 -0.009084 0.000000 0.004133 0.000000
# 2 -0.003747 0.009699 0.000007 0.000000 0.000146 0.000000
# 3 -0.009084 0.000007 0.039999 0.000000 0.004321 0.000000
# 4 0.000000 0.000000 0.000000 0.047527 0.000000 0.012742
# 5 0.004133 0.000146 0.004321 0.000000 0.025831 0.000000
# 6 0.000000 0.000000 0.000000 0.012742 0.000000 0.024840
#
#
# Mechanical properties :
#
#
# Convention : Reuss Voigt Hill
#
# Bulk Modulus (GPa) = 28.34782 59.05393 43.70087
# Shear Modulus (GPa) = 25.44155 36.70213 31.07184
#
# Velocity S-wave (km/s) = 3.40815 4.09348 3.76644
# Velocity P-wave (km/s) = 5.33195 7.02165 6.23431
#
# Compressibility (1/GPa) = 0.03527608
#
# Stress axis : x y z
#
# Youngs Moduli (GPa) = 89.07474 103.10855 25.00067
#
# Poissons Ratio (x) = 0.38634 0.22710
# Poissons Ratio (y) = 0.33375 -0.00017
# Poissons Ratio (z) = 0.80913 -0.00069
#
# Static dielectric constant tensor:
#      x y z
#    x 4.389710 0.000000 -0.466150 
#    y 0.000000 3.886420 0.000000 
#    z -0.466150 0.000000 3.664220 
# 
# 
# High freq. dielectric constant tensor:
#      x y z
#    x 1.874030 0.000000 -0.034720 
#    y 0.000000 1.857830 0.000000 
#    z -0.034720 0.000000 1.837870 
# 
# From -- ./inp_files/187049.got.cif
#   From: 2010.06.25/outbox.cif.g09.slc.cpg/sg12_94_cif.got.tgz:187049.got - 2010.06.28 00:19:55.
