data_PCOD8114338
_publ_section_title
;
Structure prediction by ZEFSAII (Michael W. Deem and Ramdas Pophale) SiO2 
 PCOD8114338
Probable space group: C 2/M
;
_chemical_formula_sum "Si O2"
_cell_formula_units_Z 60
_cell_length_a 10.955684
_cell_length_b 18.425610
_cell_length_c 15.384253
_cell_angle_alpha 90.000000
_cell_angle_beta 72.836967
_cell_angle_gamma 90.000000
_cell_volume 2967.251546
_symmetry_space_group_name_H-M "C 2/M"
_symmetry_group_IT_number 12
_symmetry_cell_setting 'monoclinic'
loop_
_space_group_symop_operation_xyz
x,y,z
-x,y,-z
-x,-y,-z
x,-y,z
1/2+x,1/2+y,z
1/2-x,1/2+y,-z
1/2-x,1/2-y,-z
1/2+x,1/2-y,z
loop_
_atom_site_type_symbol
_atom_site_label
_atom_site_fract_x
_atom_site_fract_y
_atom_site_fract_z
Si Si1 0.558067 0.197279 0.895543
Si Si2 0.950810 0.919566 0.715510
Si Si3 0.649993 0.278335 0.178005
Si Si4 0.683070 0.625824 0.419194
Si Si5 0.916707 0.668250 0.663403
Si Si6 0.000000 0.249465 0.500000
Si Si7 0.725926 0.420359 0.600794
Si Si8 0.584679 0.085314 0.743411
O O1 0.457304 0.251990 0.869157
O O2 0.701083 0.229930 0.882503
O O3 0.570167 0.122072 0.840274
O O4 0.500000 0.176654 0.000000
O O5 0.879030 0.862117 0.792205
O O6 0.921326 0.913864 0.618886
O O7 0.101826 0.908175 0.686695
O O8 0.911275 0.000000 0.757165
O O9 0.641935 0.231601 0.266496
O O10 0.629309 0.704759 0.455151
O O11 0.706041 0.581409 0.501682
O O12 0.807390 0.628928 0.331681
O O13 0.818941 0.642507 0.610985
O O14 0.029886 0.702713 0.580334
O O15 0.957376 0.599960 0.714060
O O16 0.782635 0.500000 0.608864
O O17 0.612764 0.000000 0.747338
#
# Coordination Sequence:
#
# PCOD8114338 Si02
#       8
#     8   8   8   8   8   4   8   8
#     4  11  24  42  68  94 120 153 194 249 312 374
#     4  11  21  37  60  87 118 159 205 247 293 347
#     4  11  22  42  64  92 123 157 198 246 305 366
#     4  12  21  37  54  81 115 155 206 251 289 332
#     4  11  23  38  57  84 122 164 201 243 298 355
#     4  12  22  36  54  86 116 160 208 254 284 340
#     4  11  22  35  55  83 121 165 208 249 290 343
#     4  11  24  41  62  86 118 155 199 251 304 361
#
# _framework density 20.220731000000001
#
# number of rings (size 3 to 8) (size 9 to 14) (size 15 to 20)
#    0.000    0.800    4.000    3.600    0.000    5.600 
#    0.000    2.000    0.000    0.400    0.000    0.000 
#    0.000    0.000    0.000    0.000    0.000    0.000 
#
# Total GULP energy -371784.609452 kJ/mol
# GULP energy per Si atom -12392.820315 kJ/mol
# Density = 2.017471 g / cm^3
# Si number density = 20.220731 Si / 1000 Ang^3
#
#
#
# Elastic Constant Matrix: (Units=GPa)
#
#
# Indices 1 2 3 4 5 6 
#
# 1 97.6288 53.4146 46.9735 0.0000 -3.5836 0.0000
# 2 53.4146 111.1145 55.4876 0.0000 0.1821 0.0000
# 3 46.9735 55.4876 127.4282 0.0000 -14.2356 0.0000
# 4 0.0000 0.0000 0.0000 18.2686 0.0000 -0.0819
# 5 -3.5836 0.1821 -14.2356 0.0000 23.2368 0.0000
# 6 0.0000 0.0000 0.0000 -0.0819 0.0000 14.4397
#
#
#
# Elastic Compliance Matrix: (Units=1/GPa)
#
#
# Indices 1 2 3 4 5 6 
#
# 1 0.014751 -0.005630 -0.002927 0.000000 0.000526 0.000000
# 2 -0.005630 0.013904 -0.004388 0.000000 -0.003666 0.000000
# 3 -0.002927 -0.004388 0.011584 0.000000 0.006680 0.000000
# 4 0.000000 0.000000 0.000000 0.054740 0.000000 0.000311
# 5 0.000526 -0.003666 0.006680 0.000000 0.047237 0.000000
# 6 0.000000 0.000000 0.000000 0.000311 0.000000 0.069255
#
#
# Mechanical properties :
#
#
# Convention : Reuss Voigt Hill
#
# Bulk Modulus (GPa) = 69.70174 71.99145 70.84660
# Shear Modulus (GPa) = 20.64885 23.20874 21.92880
#
# Velocity S-wave (km/s) = 3.19905 3.39155 3.29670
# Velocity P-wave (km/s) = 6.94193 7.14261 7.04299
#
# Compressibility (1/GPa) = 0.01434684
#
# Stress axis : x y z
#
# Youngs Moduli (GPa) = 67.79225 71.92364 86.32810
#
# Poissons Ratio (x) = 0.40494 0.25271
# Poissons Ratio (y) = 0.38168 0.37884
# Poissons Ratio (z) = 0.19845 0.31563
#
# Static dielectric constant tensor:
#      x y z
#    x 3.863150 0.000000 0.002320 
#    y 0.000000 3.602830 0.000000 
#    z 0.002320 0.000000 3.522820 
# 
# 
# High freq. dielectric constant tensor:
#      x y z
#    x 1.799410 0.000000 -0.002800 
#    y 0.000000 1.791350 0.000000 
#    z -0.002800 0.000000 1.769110 
# 
# From -- ./inp_files/206625.got.cif
#   From: 2010.06.25/outbox.cif.g09.slc.cpg/sg12_104_cif.got.tgz:206625.got - 2010.06.28 00:19:55.
