data_PCOD8114209
_publ_section_title
;
Structure prediction by ZEFSAII (Michael W. Deem and Ramdas Pophale) SiO2 
 PCOD8114209
Probable space group: C 2/M
;
_chemical_formula_sum "Si O2"
_cell_formula_units_Z 36
_cell_length_a 14.419505
_cell_length_b 27.105588
_cell_length_c 15.009392
_cell_angle_alpha 90.000000
_cell_angle_beta 159.694610
_cell_angle_gamma 90.000000
_cell_volume 2035.783765
_symmetry_space_group_name_H-M "C 2/M"
_symmetry_group_IT_number 12
_symmetry_cell_setting 'monoclinic'
loop_
_space_group_symop_operation_xyz
x,y,z
-x,y,-z
-x,-y,-z
x,-y,z
1/2+x,1/2+y,z
1/2-x,1/2+y,-z
1/2-x,1/2-y,-z
1/2+x,1/2-y,z
loop_
_atom_site_type_symbol
_atom_site_label
_atom_site_fract_x
_atom_site_fract_y
_atom_site_fract_z
Si Si1 0.000000 0.321838 0.000000
Si Si2 0.840464 0.056556 0.447823
Si Si3 0.187406 0.246121 0.590486
Si Si4 0.777515 0.388550 0.931771
Si Si5 0.935553 0.795129 0.192384
O O1 0.093024 0.289084 0.166983
O O2 0.773688 0.357801 0.835673
O O3 0.567964 0.087864 0.209886
O O4 0.000000 0.064217 0.500000
O O5 0.755767 0.000000 0.383411
O O6 0.041292 0.071323 0.709309
O O7 0.317098 0.292204 0.654464
O O8 0.000000 0.267609 0.500000
O O9 0.026629 0.211944 0.376694
O O10 0.703928 0.348849 0.943545
O O11 0.750000 0.750000 0.000000
#
# Coordination Sequence:
#
# PCOD8114209 Si02
#       5
#     4   8   8   8   8
#     4  12  20  32  53  80 108 164 183 222 276 328
#     4  11  23  37  54  79 107 145 193 240 280 328
#     4  11  21  35  51  73 119 152 192 233 265 325
#     4  12  22  35  57  78 112 151 194 224 277 338
#     4  11  23  33  52  82 110 151 197 226 274 335
#
# _framework density 17.683608
#
# number of rings (size 3 to 8) (size 9 to 14) (size 15 to 20)
#    0.000    0.667    6.667    2.000    3.111    1.778 
#    0.000    0.000    0.000    0.000    0.000    0.000 
#    0.000    5.333    0.000    0.000    0.000    0.000 
#
# Total GULP energy -223056.007242 kJ/mol
# GULP energy per Si atom -12392.000402 kJ/mol
# Density = 1.764336 g / cm^3
# Si number density = 17.683608 Si / 1000 Ang^3
#
#
#
# Elastic Constant Matrix: (Units=GPa)
#
#
# Indices 1 2 3 4 5 6 
#
# 1 94.1295 39.4544 27.5884 0.0013 14.1219 0.0001
# 2 39.4544 106.6239 48.3021 0.0032 17.1368 0.0032
# 3 27.5884 48.3021 118.7400 0.0079 4.6770 0.0118
# 4 0.0013 0.0032 0.0079 27.5337 -0.0002 14.2977
# 5 14.1219 17.1368 4.6770 -0.0002 32.3620 0.0003
# 6 0.0001 0.0032 0.0118 14.2977 0.0003 20.6002
#
#
#
# Elastic Compliance Matrix: (Units=1/GPa)
#
#
# Indices 1 2 3 4 5 6 
#
# 1 0.013100 -0.003623 -0.001428 -0.000001 -0.003591 0.000002
# 2 -0.003623 0.013539 -0.004471 -0.000001 -0.004942 0.000001
# 3 -0.001428 -0.004471 0.010514 0.000001 0.001471 -0.000006
# 4 -0.000001 -0.000001 0.000001 0.056785 0.000001 -0.039412
# 5 -0.003591 -0.004942 0.001471 0.000001 0.034872 -0.000002
# 6 0.000002 0.000001 -0.000006 -0.039412 -0.000002 0.075898
#
#
# Mechanical properties :
#
#
# Convention : Reuss Voigt Hill
#
# Bulk Modulus (GPa) = 55.22322 61.13148 58.17735
# Shear Modulus (GPa) = 21.75904 29.70907 25.73406
#
# Velocity S-wave (km/s) = 3.51160 4.10327 3.81891
# Velocity P-wave (km/s) = 6.90927 7.55604 7.23988
#
# Compressibility (1/GPa) = 0.01810833
#
# Stress axis : x y z
#
# Youngs Moduli (GPa) = 76.33758 73.85932 95.10680
#
# Poissons Ratio (x) = 0.26760 0.13585
# Poissons Ratio (y) = 0.27658 0.42524
# Poissons Ratio (z) = 0.10904 0.33024
#
# Static dielectric constant tensor:
#      x y z
#    x 3.358880 -0.000030 0.299920 
#    y -0.000030 3.283640 -0.000010 
#    z 0.299920 -0.000010 3.371840 
# 
# 
# High freq. dielectric constant tensor:
#      x y z
#    x 1.652950 0.000000 0.019510 
#    y 0.000000 1.666340 0.000000 
#    z 0.019510 0.000000 1.701680 
# 
# From -- ./inp_files/11153.got.cif
#   From: 2010.06.25/outbox.cif.g09.slc.cpg/sg12_6_cif.got.tgz:11153.got - 2010.06.28 00:19:55.
