data_PCOD8114162
_publ_section_title
;
Structure prediction by ZEFSAII (Michael W. Deem and Ramdas Pophale) SiO2 
 PCOD8114162
Probable space group: C 2/M
;
_chemical_formula_sum "Si O2"
_cell_formula_units_Z 64
_cell_length_a 23.978284
_cell_length_b 9.006266
_cell_length_c 28.191513
_cell_angle_alpha 90.000000
_cell_angle_beta 36.544293
_cell_angle_gamma 90.000000
_cell_volume 3625.118475
_symmetry_space_group_name_H-M "C 2/M"
_symmetry_group_IT_number 12
_symmetry_cell_setting 'monoclinic'
loop_
_space_group_symop_operation_xyz
x,y,z
-x,y,-z
-x,-y,-z
x,-y,z
1/2+x,1/2+y,z
1/2-x,1/2+y,-z
1/2-x,1/2-y,-z
1/2+x,1/2-y,z
loop_
_atom_site_type_symbol
_atom_site_label
_atom_site_fract_x
_atom_site_fract_y
_atom_site_fract_z
Si Si1 0.503786 0.328056 0.572945
Si Si2 0.865027 0.675778 0.851234
Si Si3 0.582951 0.175544 0.285785
Si Si4 0.162477 0.176306 0.760167
Si Si5 0.152196 0.826516 0.395505
Si Si6 0.158019 0.175427 0.968372
Si Si7 0.972832 0.323258 0.869640
Si Si8 0.786467 0.174961 0.171683
O O1 0.494003 0.500000 0.590441
O O2 0.500344 0.243345 0.625624
O O3 0.602322 0.294456 0.479998
O O4 0.418339 0.276355 0.597809
O O5 0.862980 0.500000 0.853325
O O6 0.923692 0.727547 0.764671
O O7 0.757473 0.730407 0.921749
O O8 0.913839 0.738143 0.865038
O O9 0.681382 0.238435 0.238917
O O10 0.576704 0.000000 0.293638
O O11 0.255744 0.226081 0.669193
O O12 0.165940 0.232808 0.812578
O O13 0.075935 0.256299 0.794254
O O14 0.151168 0.000000 0.764288
O O15 0.177926 0.000000 0.373140
O O16 0.152822 0.218263 0.916108
O O17 0.143100 0.000000 0.986150
O O18 0.075082 0.264456 0.049900
O O19 0.978203 0.500000 0.866731
O O20 0.776578 0.000000 0.180459
#
# Coordination Sequence:
#
# PCOD8114162 Si02
#       8
#     8   8   8   8   8   8   8   8
#     4   9  17  29  48  76 107 133 156 189 244 299
#     4   8  17  33  54  74  97 128 165 206 251 293
#     4   9  15  29  52  76  98 126 164 205 242 286
#     4  11  21  34  51  72  98 133 172 205 236 287
#     4   9  18  32  48  71 106 139 159 187 239 299
#     4   9  17  34  56  74  93 123 164 211 250 291
#     4  11  22  35  49  71 100 133 166 203 251 297
#     4   8  16  30  49  72  98 126 159 200 249 289
#
# _framework density 17.654595
#
# number of rings (size 3 to 8) (size 9 to 14) (size 15 to 20)
#    0.000    2.750    1.250    3.375    0.000    1.000 
#    0.000    9.375    0.000    0.750    0.000    0.000 
#    0.000    0.000    0.000    0.000    0.000    0.000 
#
# Total GULP energy -396676.155444 kJ/mol
# GULP energy per Si atom -12396.129858 kJ/mol
# Density = 1.761441 g / cm^3
# Si number density = 17.654595 Si / 1000 Ang^3
#
#
#
# Elastic Constant Matrix: (Units=GPa)
#
#
# Indices 1 2 3 4 5 6 
#
# 1 44.8027 18.7690 32.5223 0.0133 -2.3890 -0.0162
# 2 18.7690 46.7386 37.0641 0.0184 0.7968 -0.0013
# 3 32.5223 37.0641 110.3618 -0.0008 7.2991 -0.0017
# 4 0.0133 0.0184 -0.0008 34.0001 -0.0042 0.4979
# 5 -2.3890 0.7968 7.2991 -0.0042 26.6127 0.0119
# 6 -0.0162 -0.0013 -0.0017 0.4979 0.0119 17.8421
#
#
#
# Elastic Compliance Matrix: (Units=1/GPa)
#
#
# Indices 1 2 3 4 5 6 
#
# 1 0.030526 -0.006750 -0.007051 -0.000008 0.004876 0.000024
# 2 -0.006750 0.030744 -0.008387 -0.000014 0.000774 -0.000005
# 3 -0.007051 -0.008387 0.014239 0.000007 -0.004287 -0.000003
# 4 -0.000008 -0.000014 0.000007 0.029424 0.000003 -0.000821
# 5 0.004876 0.000774 -0.004287 0.000003 0.039166 -0.000022
# 6 0.000024 -0.000005 -0.000003 -0.000821 -0.000022 0.056070
#
#
# Mechanical properties :
#
#
# Convention : Reuss Voigt Hill
#
# Bulk Modulus (GPa) = 32.12039 42.06823 37.09431
# Shear Modulus (GPa) = 19.61360 23.26082 21.43721
#
# Velocity S-wave (km/s) = 3.33673 3.63375 3.48840
# Velocity P-wave (km/s) = 5.75137 6.44094 6.10590
#
# Compressibility (1/GPa) = 0.03113287
#
# Stress axis : x y z
#
# Youngs Moduli (GPa) = 32.75847 32.52654 70.22772
#
# Poissons Ratio (x) = 0.21955 0.49520
# Poissons Ratio (y) = 0.22112 0.58901
# Poissons Ratio (z) = 0.23099 0.27281
#
# Static dielectric constant tensor:
#      x y z
#    x 3.457460 0.000000 0.186190 
#    y 0.000000 2.965090 0.000000 
#    z 0.186190 0.000000 3.269810 
# 
# 
# High freq. dielectric constant tensor:
#      x y z
#    x 1.663920 0.000000 0.016750 
#    y 0.000000 1.659090 0.000000 
#    z 0.016750 0.000000 1.684260 
# 
# From -- ./inp_files/382348.got.cif
#   From: 2010.06.25/outbox.cif.g09.slc.cpg/sg12_192_cif.got.tgz:382348.got - 2010.06.28 00:19:55.
