data_PCOD8114086
_publ_section_title
;
Structure prediction by ZEFSAII (Michael W. Deem and Ramdas Pophale) SiO2 
 PCOD8114086
Probable space group: C 2/M
;
_chemical_formula_sum "Si O2"
_cell_formula_units_Z 64
_cell_length_a 25.232936
_cell_length_b 14.443028
_cell_length_c 9.588019
_cell_angle_alpha 90.000000
_cell_angle_beta 84.506184
_cell_angle_gamma 90.000000
_cell_volume 3478.206913
_symmetry_space_group_name_H-M "C 2/M"
_symmetry_group_IT_number 12
_symmetry_cell_setting 'monoclinic'
loop_
_space_group_symop_operation_xyz
x,y,z
-x,y,-z
-x,-y,-z
x,-y,z
1/2+x,1/2+y,z
1/2-x,1/2+y,-z
1/2-x,1/2-y,-z
1/2+x,1/2-y,z
loop_
_atom_site_type_symbol
_atom_site_label
_atom_site_fract_x
_atom_site_fract_y
_atom_site_fract_z
Si Si1 0.759677 0.607267 0.365368
Si Si2 0.530105 0.395020 0.357946
Si Si3 0.015386 0.265022 0.156209
Si Si4 0.648903 0.396339 0.285191
Si Si5 0.574886 0.105029 0.713723
Si Si6 0.169994 0.606236 0.897037
Si Si7 0.654786 0.108460 0.447037
Si Si8 0.864664 0.290019 0.834804
O O1 0.776315 0.500000 0.357796
O O2 0.696175 0.623576 0.385273
O O3 0.783686 0.647526 0.214658
O O4 0.790178 0.645481 0.494252
O O5 0.500000 0.355068 0.500000
O O6 0.512314 0.500000 0.330436
O O7 0.515066 0.336136 0.226059
O O8 0.592832 0.389391 0.379351
O O9 0.073602 0.310267 0.150076
O O10 0.024321 0.329598 0.746707
O O11 0.000000 0.253607 0.000000
O O12 0.656592 0.500000 0.218721
O O13 0.648894 0.319933 0.162570
O O14 0.613637 0.118052 0.834973
O O15 0.605470 0.129281 0.562743
O O16 0.553784 0.000000 0.713107
O O17 0.180409 0.500000 0.935498
O O18 0.171560 0.664887 0.037876
O O19 0.649183 0.168421 0.311215
O O20 0.657209 0.000000 0.407717
#
# Coordination Sequence:
#
# PCOD8114086 Si02
#       8
#     8   8   8   8   8   8   8   8
#     4   8  16  34  56  73 101 143 174 205 254 319
#     4   9  20  38  60  81 103 135 176 224 272 312
#     4  11  22  34  51  77 108 143 180 215 260 310
#     4   9  19  35  54  77 103 134 174 214 263 318
#     4   9  19  34  51  72 105 145 177 206 252 318
#     4   9  17  32  52  75 105 141 174 206 253 309
#     4   9  19  34  52  77 106 137 174 214 261 311
#     4  11  21  31  51  80 104 136 174 225 263 299
#
# _framework density 18.400286000000001
#
# number of rings (size 3 to 8) (size 9 to 14) (size 15 to 20)
#    0.000    2.625    1.250    1.875    3.500    2.500 
#    0.000    1.250    0.000    0.000    0.000   14.875 
#    0.000    0.000    0.000    0.000    0.000    0.000 
#
# Total GULP energy -396671.120139 kJ/mol
# GULP energy per Si atom -12395.972504 kJ/mol
# Density = 1.835841 g / cm^3
# Si number density = 18.400286 Si / 1000 Ang^3
#
#
#
# Elastic Constant Matrix: (Units=GPa)
#
#
# Indices 1 2 3 4 5 6 
#
# 1 108.9480 37.5712 43.6286 0.0000 9.8381 0.0000
# 2 37.5712 75.2501 45.7847 0.0000 4.0478 0.0000
# 3 43.6286 45.7847 122.8218 0.0000 10.6776 0.0000
# 4 0.0000 0.0000 0.0000 19.6192 0.0000 3.9575
# 5 9.8381 4.0478 10.6776 0.0000 17.8282 0.0000
# 6 0.0000 0.0000 0.0000 3.9575 0.0000 19.9567
#
#
#
# Elastic Compliance Matrix: (Units=1/GPa)
#
#
# Indices 1 2 3 4 5 6 
#
# 1 0.011976 -0.004381 -0.002250 0.000000 -0.004266 0.000000
# 2 -0.004381 0.018790 -0.005578 0.000000 0.001492 0.000000
# 3 -0.002250 -0.005578 0.011396 0.000000 -0.004317 0.000000
# 4 0.000000 0.000000 0.000000 0.053094 0.000000 -0.010529
# 5 -0.004266 0.001492 -0.004317 0.000000 0.060692 0.000000
# 6 0.000000 0.000000 0.000000 -0.010529 0.000000 0.052196
#
#
# Mechanical properties :
#
#
# Convention : Reuss Voigt Hill
#
# Bulk Modulus (GPa) = 56.35788 62.33209 59.34498
# Shear Modulus (GPa) = 20.96647 23.48319 22.22483
#
# Velocity S-wave (km/s) = 3.37926 3.57633 3.47919
# Velocity P-wave (km/s) = 6.77651 7.14161 6.96146
#
# Compressibility (1/GPa) = 0.01774375
#
# Stress axis : x y z
#
# Youngs Moduli (GPa) = 83.50232 53.22032 87.75205
#
# Poissons Ratio (x) = 0.23315 0.19745
# Poissons Ratio (y) = 0.36581 0.48947
# Poissons Ratio (z) = 0.18789 0.29686
#
# Static dielectric constant tensor:
#      x y z
#    x 3.447120 0.000000 -0.021880 
#    y 0.000000 3.397170 0.000000 
#    z -0.021880 0.000000 3.190180 
# 
# 
# High freq. dielectric constant tensor:
#      x y z
#    x 1.717480 0.000000 -0.001180 
#    y 0.000000 1.708950 0.000000 
#    z -0.001180 0.000000 1.695890 
# 
# From -- ./inp_files/111183.got.cif
#   From: 2010.06.25/outbox.cif.g09.slc.cpg/sg12_56_cif.got.tgz:111183.got - 2010.06.28 00:19:55.
