data_PCOD8114815
_publ_section_title
;
Structure prediction by ZEFSAII (Michael W. Deem and Ramdas Pophale) SiO2 
 PCOD8114815
Probable space group: C 2/M
;
_chemical_formula_sum "Si O2"
_cell_formula_units_Z 48
_cell_length_a 31.002995
_cell_length_b 8.304747
_cell_length_c 9.067075
_cell_angle_alpha 90.000000
_cell_angle_beta 88.451585
_cell_angle_gamma 90.000000
_cell_volume 2333.665751
_symmetry_space_group_name_H-M "C 2/M"
_symmetry_group_IT_number 12
_symmetry_cell_setting 'monoclinic'
loop_
_space_group_symop_operation_xyz
x,y,z
-x,y,-z
-x,-y,-z
x,-y,z
1/2+x,1/2+y,z
1/2-x,1/2+y,-z
1/2-x,1/2-y,-z
1/2+x,1/2-y,z
loop_
_atom_site_type_symbol
_atom_site_label
_atom_site_fract_x
_atom_site_fract_y
_atom_site_fract_z
Si Si1 0.995608 0.324167 0.674450
Si Si2 0.596204 0.192461 0.354956
Si Si3 0.911470 0.307366 0.312321
Si Si4 0.248362 0.314050 0.664427
Si Si5 0.324398 0.812720 0.846203
Si Si6 0.669397 0.315313 0.834315
O O1 0.993536 0.500000 0.749629
O O2 0.949326 0.236225 0.707390
O O3 0.000000 0.345584 0.500000
O O4 0.039824 0.239495 0.727561
O O5 0.603198 0.249735 0.522870
O O6 0.635715 0.255737 0.253398
O O7 0.593589 0.000000 0.353281
O O8 0.911076 0.500000 0.301130
O O9 0.879897 0.231004 0.195214
O O10 0.261863 0.500000 0.667767
O O11 0.250000 0.250000 0.500000
O O12 0.280549 0.209683 0.760406
O O13 0.200215 0.294778 0.731510
O O14 0.330609 0.000000 0.883257
O O15 0.321284 0.712103 0.995260
O O16 0.678360 0.500000 0.794862
#
# Coordination Sequence:
#
# PCOD8114815 Si02
#       6
#     8   8   8   8   8   8
#     4   7  11  23  48  82 112 138 176 229 282 329
#     4   8  15  29  54  85 112 140 181 232 281 333
#     4   9  16  31  57  85 111 142 185 236 285 334
#     4  12  25  43  65  89 114 142 181 226 276 333
#     4  11  22  38  59  84 115 151 190 232 281 333
#     4  12  25  40  56  79 114 153 191 232 282 335
#
# _framework density 20.568498999999999
#
# number of rings (size 3 to 8) (size 9 to 14) (size 15 to 20)
#    0.000    2.167    0.000    7.000    0.000    1.333 
#    0.000    1.667    0.000   11.500    0.000    0.000 
#    0.000    0.000    0.000    0.000    0.000    0.000 
#
# Total GULP energy -297476.542861 kJ/mol
# GULP energy per Si atom -12394.855953 kJ/mol
# Density = 2.052168 g / cm^3
# Si number density = 20.568499 Si / 1000 Ang^3
#
#
#
# Elastic Constant Matrix: (Units=GPa)
#
#
# Indices 1 2 3 4 5 6 
#
# 1 130.9617 12.0895 36.2694 0.0000 22.0868 0.0000
# 2 12.0895 49.4456 11.4629 0.0000 -3.5468 0.0000
# 3 36.2694 11.4629 88.9996 0.0000 18.0689 0.0000
# 4 0.0000 0.0000 0.0000 25.3482 0.0000 2.3172
# 5 22.0868 -3.5468 18.0689 0.0000 23.0167 0.0000
# 6 0.0000 0.0000 0.0000 2.3172 0.0000 16.5540
#
#
#
# Elastic Compliance Matrix: (Units=1/GPa)
#
#
# Indices 1 2 3 4 5 6 
#
# 1 0.009812 -0.002526 -0.002002 0.000000 -0.008233 0.000000
# 2 -0.002526 0.022302 -0.003608 0.000000 0.008693 0.000000
# 3 -0.002002 -0.003608 0.014560 0.000000 -0.010065 0.000000
# 4 0.000000 0.000000 0.000000 0.039962 0.000000 -0.005594
# 5 -0.008233 0.008693 -0.010065 0.000000 0.060588 0.000000
# 6 0.000000 0.000000 0.000000 -0.005594 0.000000 0.061191
#
#
# Mechanical properties :
#
#
# Convention : Reuss Voigt Hill
#
# Bulk Modulus (GPa) = 32.89154 43.22784 38.05969
# Shear Modulus (GPa) = 21.29294 26.95613 24.12453
#
# Velocity S-wave (km/s) = 3.22098 3.62408 3.42846
# Velocity P-wave (km/s) = 5.46432 6.21081 5.84949
#
# Compressibility (1/GPa) = 0.03040295
#
# Stress axis : x y z
#
# Youngs Moduli (GPa) = 101.91733 44.83963 68.68178
#
# Poissons Ratio (x) = 0.11324 0.13749
# Poissons Ratio (y) = 0.25739 0.24780
# Poissons Ratio (z) = 0.20402 0.16178
#
# Static dielectric constant tensor:
#      x y z
#    x 4.281400 0.000000 -0.040870 
#    y 0.000000 3.278060 0.000000 
#    z -0.040870 0.000000 3.554430 
# 
# 
# High freq. dielectric constant tensor:
#      x y z
#    x 1.830480 0.000000 0.004820 
#    y 0.000000 1.765080 0.000000 
#    z 0.004820 0.000000 1.781530 
# 
# From -- ./inp_files/108681.got.cif
#   From: 2010.06.25/outbox.cif.g09.slc.cpg/sg12_55_cif.got.tgz:108681.got - 2010.06.28 00:19:55.
