data_PCOD8114005
_publ_section_title
;
Structure prediction by ZEFSAII (Michael W. Deem and Ramdas Pophale) SiO2 
 PCOD8114005
Probable space group: C 2/M
;
_chemical_formula_sum "Si O2"
_cell_formula_units_Z 56
_cell_length_a 13.632244
_cell_length_b 27.089820
_cell_length_c 9.680757
_cell_angle_alpha 90.000000
_cell_angle_beta 58.159747
_cell_angle_gamma 90.000000
_cell_volume 3037.089276
_symmetry_space_group_name_H-M "C 2/M"
_symmetry_group_IT_number 12
_symmetry_cell_setting 'monoclinic'
loop_
_space_group_symop_operation_xyz
x,y,z
-x,y,-z
-x,-y,-z
x,-y,z
1/2+x,1/2+y,z
1/2-x,1/2+y,-z
1/2-x,1/2-y,-z
1/2+x,1/2-y,z
loop_
_atom_site_type_symbol
_atom_site_label
_atom_site_fract_x
_atom_site_fract_y
_atom_site_fract_z
Si Si1 0.540126 0.152119 0.616222
Si Si2 0.286364 0.306075 0.489891
Si Si3 0.494060 0.054171 0.777918
Si Si4 0.491116 0.316560 0.853880
Si Si5 0.691057 0.343969 0.226227
Si Si6 0.311579 0.055041 0.137073
Si Si7 0.084303 0.705798 0.053780
O O1 0.500000 0.172508 0.500000
O O2 0.674781 0.160247 0.545920
O O3 0.513348 0.094003 0.644570
O O4 0.454721 0.181813 0.776637
O O5 0.250000 0.250000 0.500000
O O6 0.380417 0.314403 0.301778
O O7 0.336779 0.318521 0.604987
O O8 0.593751 0.059456 0.815662
O O9 0.496778 0.000000 0.707159
O O10 0.371487 0.062922 0.943930
O O11 0.417680 0.346407 0.795723
O O12 0.427578 0.264370 0.924529
O O13 0.500000 0.342052 0.000000
O O14 0.720386 0.401427 0.228193
O O15 0.787586 0.310648 0.080413
O O16 0.254046 0.000000 0.185462
O O17 0.000000 0.684024 0.000000
#
# Coordination Sequence:
#
# PCOD8114005 Si02
#       7
#     8   8   8   8   8   8   8
#     4  12  24  34  59  89 124 152 189 242 294 353
#     4  12  24  40  57  83 119 158 198 242 288 348
#     4   9  17  34  56  87 122 150 186 237 298 357
#     4  11  26  40  56  84 118 161 202 239 287 351
#     4  12  22  38  66  83 120 154 200 244 291 351
#     4   9  17  32  62  91 112 146 195 245 292 347
#     4  11  20  40  58  85 116 154 197 236 291 346
#
# _framework density 18.438706
#
# number of rings (size 3 to 8) (size 9 to 14) (size 15 to 20)
#    0.000    1.143    5.714    2.571    4.000    0.286 
#    0.000    0.000    0.000    3.000    0.000    0.000 
#    0.000    0.000    0.000    0.000    0.000    0.000 
#
# Total GULP energy -347107.124269 kJ/mol
# GULP energy per Si atom -12396.683010 kJ/mol
# Density = 1.839674 g / cm^3
# Si number density = 18.438706 Si / 1000 Ang^3
#
#
#
# Elastic Constant Matrix: (Units=GPa)
#
#
# Indices 1 2 3 4 5 6 
#
# 1 61.8503 7.2700 32.9665 0.0000 15.3170 0.0000
# 2 7.2700 88.3500 19.5153 0.0000 8.6804 0.0000
# 3 32.9665 19.5153 114.2027 0.0000 11.3999 0.0000
# 4 0.0000 0.0000 0.0000 12.3051 0.0000 -4.9540
# 5 15.3170 8.6804 11.3999 0.0000 35.2097 0.0000
# 6 0.0000 0.0000 0.0000 -4.9540 0.0000 10.5765
#
#
#
# Elastic Compliance Matrix: (Units=1/GPa)
#
#
# Indices 1 2 3 4 5 6 
#
# 1 0.020798 0.000184 -0.005299 0.000000 -0.007377 0.000000
# 2 0.000184 0.011951 -0.001853 0.000000 -0.002426 0.000000
# 3 -0.005299 -0.001853 0.010672 0.000000 -0.000693 0.000000
# 4 0.000000 0.000000 0.000000 0.100154 0.000000 0.046912
# 5 -0.007377 -0.002426 -0.000693 0.000000 0.032433 0.000000
# 6 0.000000 0.000000 0.000000 0.046912 0.000000 0.116522
#
#
# Mechanical properties :
#
#
# Convention : Reuss Voigt Hill
#
# Bulk Modulus (GPa) = 33.91574 42.65629 38.28601
# Shear Modulus (GPa) = 15.80806 25.26166 20.53486
#
# Velocity S-wave (km/s) = 2.93120 3.70541 3.34081
# Velocity P-wave (km/s) = 5.46714 6.44136 5.97414
#
# Compressibility (1/GPa) = 0.02948484
#
# Stress axis : x y z
#
# Youngs Moduli (GPa) = 48.08257 83.67353 93.70521
#
# Poissons Ratio (x) = -0.01538 0.49650
# Poissons Ratio (y) = -0.00884 0.17365
# Poissons Ratio (z) = 0.25477 0.15506
#
# Static dielectric constant tensor:
#      x y z
#    x 3.140470 0.000000 0.250680 
#    y 0.000000 3.621020 0.000000 
#    z 0.250680 0.000000 3.340860 
# 
# 
# High freq. dielectric constant tensor:
#      x y z
#    x 1.697650 0.000000 0.006740 
#    y 0.000000 1.708730 0.000000 
#    z 0.006740 0.000000 1.718400 
# 
# From -- ./inp_files/66858.got.cif
#   From: 2010.06.25/outbox.cif.g09.slc.cpg/sg12_34_cif.got.tgz:66858.got - 2010.06.28 00:19:55.
