data_PCOD8114090
_publ_section_title
;
Structure prediction by ZEFSAII (Michael W. Deem and Ramdas Pophale) SiO2 
 PCOD8114090
Probable space group: C 2/M
;
_chemical_formula_sum "Si O2"
_cell_formula_units_Z 40
_cell_length_a 23.333171
_cell_length_b 8.691415
_cell_length_c 18.696731
_cell_angle_alpha 90.000000
_cell_angle_beta 143.795906
_cell_angle_gamma 90.000000
_cell_volume 2239.597312
_symmetry_space_group_name_H-M "C 2/M"
_symmetry_group_IT_number 12
_symmetry_cell_setting 'monoclinic'
loop_
_space_group_symop_operation_xyz
x,y,z
-x,y,-z
-x,-y,-z
x,-y,z
1/2+x,1/2+y,z
1/2-x,1/2+y,-z
1/2-x,1/2-y,-z
1/2+x,1/2-y,z
loop_
_atom_site_type_symbol
_atom_site_label
_atom_site_fract_x
_atom_site_fract_y
_atom_site_fract_z
Si Si1 0.855691 0.316806 0.819434
Si Si2 0.142462 0.817778 0.607462
Si Si3 0.048609 0.182088 0.659516
Si Si4 0.045039 0.682839 0.937139
Si Si5 0.643393 0.818301 0.893196
O O1 0.852806 0.500000 0.817018
O O2 0.748479 0.250247 0.693631
O O3 0.934145 0.259624 0.839534
O O4 0.887245 0.258246 0.929832
O O5 0.113714 0.763143 0.658104
O O6 0.062609 0.766861 0.468637
O O7 0.144228 0.000000 0.611064
O O8 0.083305 0.272494 0.763375
O O9 0.057838 0.000000 0.681905
O O10 0.046161 0.500000 0.936487
O O11 0.085607 0.749314 0.903628
O O12 0.652584 0.000000 0.907414
O O13 0.750000 0.750000 0.000000
#
# Coordination Sequence:
#
# PCOD8114090 Si02
#       5
#     8   8   8   8   8
#     4   8  12  23  43  66  88 114 148 188 224 256
#     4   8  14  26  47  69  91 119 153 188 221 258
#     4   9  17  30  47  70  94 118 150 187 222 264
#     4   8  15  25  41  66  92 113 145 189 226 259
#     4  11  21  32  46  67  93 120 147 184 229 273
#
# _framework density 17.860354000000001
#
# number of rings (size 3 to 8) (size 9 to 14) (size 15 to 20)
#    0.000    3.200    0.000    4.200    0.000    3.200 
#    0.000    3.000    0.000    0.000    0.000   28.000 
#    0.000    0.000    0.000    0.000    0.000    0.000 
#
# Total GULP energy -247831.412027 kJ/mol
# GULP energy per Si atom -12391.570601 kJ/mol
# Density = 1.781970 g / cm^3
# Si number density = 17.860354 Si / 1000 Ang^3
#
#
#
# Elastic Constant Matrix: (Units=GPa)
#
#
# Indices 1 2 3 4 5 6 
#
# 1 157.9699 21.0216 101.9581 0.0000 12.4477 0.0000
# 2 21.0216 22.3027 18.1149 0.0000 -0.3819 0.0000
# 3 101.9581 18.1149 155.6799 0.0000 19.4330 0.0000
# 4 0.0000 0.0000 0.0000 22.3793 0.0000 -5.2509
# 5 12.4477 -0.3819 19.4330 0.0000 38.1700 0.0000
# 6 0.0000 0.0000 0.0000 -5.2509 0.0000 16.3036
#
#
#
# Elastic Compliance Matrix: (Units=1/GPa)
#
#
# Indices 1 2 3 4 5 6 
#
# 1 0.011492 -0.005250 -0.006878 0.000000 -0.000298 0.000000
# 2 -0.005250 0.052400 -0.003137 0.000000 0.003834 0.000000
# 3 -0.006878 -0.003137 0.011765 0.000000 -0.003778 0.000000
# 4 0.000000 0.000000 0.000000 0.048337 0.000000 0.015568
# 5 -0.000298 0.003834 -0.003778 0.000000 0.028258 0.000000
# 6 0.000000 0.000000 0.000000 0.015568 0.000000 0.066350
#
#
# Mechanical properties :
#
#
# Convention : Reuss Voigt Hill
#
# Bulk Modulus (GPa) = 22.16044 68.68241 45.42142
# Shear Modulus (GPa) = 18.92690 28.36112 23.64401
#
# Velocity S-wave (km/s) = 3.25886 3.98922 3.64239
# Velocity P-wave (km/s) = 5.15701 7.73028 6.57084
#
# Compressibility (1/GPa) = 0.04512546
#
# Stress axis : x y z
#
# Youngs Moduli (GPa) = 87.01876 19.08387 85.00036
#
# Poissons Ratio (x) = 0.10020 0.58464
# Poissons Ratio (y) = 0.45687 0.26667
# Poissons Ratio (z) = 0.59852 0.05987
#
# Static dielectric constant tensor:
#      x y z
#    x 3.722910 0.000000 0.318120 
#    y 0.000000 2.728120 0.000000 
#    z 0.318120 0.000000 3.653510 
# 
# 
# High freq. dielectric constant tensor:
#      x y z
#    x 1.693100 0.000000 0.013820 
#    y 0.000000 1.632590 0.000000 
#    z 0.013820 0.000000 1.697420 
# 
# From -- ./inp_files/222285.got.cif
#   From: 2010.06.25/outbox.cif.g09.slc.cpg/sg12_112_cif.got.tgz:222285.got - 2010.06.28 00:19:55.
