data_PCOD8114343
_publ_section_title
;
Structure prediction by ZEFSAII (Michael W. Deem and Ramdas Pophale) SiO2 
 PCOD8114343
Probable space group: C 2/M
;
_chemical_formula_sum "Si O2"
_cell_formula_units_Z 64
_cell_length_a 27.996688
_cell_length_b 16.576916
_cell_length_c 21.598131
_cell_angle_alpha 90.000000
_cell_angle_beta 161.961633
_cell_angle_gamma 90.000000
_cell_volume 3103.865925
_symmetry_space_group_name_H-M "C 2/M"
_symmetry_group_IT_number 12
_symmetry_cell_setting 'monoclinic'
loop_
_space_group_symop_operation_xyz
x,y,z
-x,y,-z
-x,-y,-z
x,-y,z
1/2+x,1/2+y,z
1/2-x,1/2+y,-z
1/2-x,1/2-y,-z
1/2+x,1/2-y,z
loop_
_atom_site_type_symbol
_atom_site_label
_atom_site_fract_x
_atom_site_fract_y
_atom_site_fract_z
Si Si1 0.754230 0.408891 0.043742
Si Si2 0.432087 0.656449 0.639487
Si Si3 0.773850 0.094312 0.559115
Si Si4 0.467006 0.403802 0.027471
Si Si5 0.334824 0.903811 0.277276
Si Si6 0.453849 0.832205 0.186134
Si Si7 0.263468 0.406448 0.174429
Si Si8 0.906895 0.093359 0.479515
O O1 0.813279 0.500000 0.108899
O O2 0.802996 0.371602 0.169507
O O3 0.830951 0.355492 0.086202
O O4 0.569211 0.408932 0.811601
O O5 0.295490 0.634896 0.518594
O O6 0.502728 0.740709 0.747985
O O7 0.367100 0.651452 0.488994
O O8 0.606997 0.114297 0.380614
O O9 0.902782 0.128804 0.765117
O O10 0.793426 0.000000 0.575583
O O11 0.471003 0.500000 0.031362
O O12 0.500000 0.368633 0.000000
O O13 0.298990 0.372224 0.841873
O O14 0.500000 0.867598 0.500000
O O15 0.336406 0.000000 0.280069
O O16 0.372129 0.848762 0.019007
O O17 0.211991 0.500000 0.105600
O O18 0.416963 0.393252 0.323473
O O19 0.294211 0.382948 0.283810
O O20 0.879569 0.000000 0.463772
#
# Coordination Sequence:
#
# PCOD8114343 Si02
#       8
#     8   8   8   8   8   8   8   8
#     4  11  21  37  61  87 117 158 208 252 300 372
#     4  12  23  40  61  89 125 162 199 257 324 386
#     4  11  23  41  63  85 115 163 213 253 305 381
#     4   9  18  33  54  81 114 152 197 244 290 346
#     4   9  18  32  53  84 117 147 192 252 293 333
#     4  12  25  38  59  92 129 158 197 263 328 382
#     4   9  18  36  61  92 124 159 207 259 308 366
#     4   9  18  35  64  92 119 160 210 258 305 371
#
# _framework density 20.619447999999998
#
# number of rings (size 3 to 8) (size 9 to 14) (size 15 to 20)
#    0.000    1.750    2.500    3.750    1.750    0.000 
#    0.000    3.125    0.000    2.250    0.000    0.000 
#    0.000    0.000    0.000    0.000    0.000    0.000 
#
# Total GULP energy -396792.706440 kJ/mol
# GULP energy per Si atom -12399.772076 kJ/mol
# Density = 2.057252 g / cm^3
# Si number density = 20.619448 Si / 1000 Ang^3
#
#
#
# Elastic Constant Matrix: (Units=GPa)
#
#
# Indices 1 2 3 4 5 6 
#
# 1 121.5996 28.3414 56.0277 0.0003 -26.7170 -0.0015
# 2 28.3414 65.9124 17.1425 0.0009 -14.1896 0.0013
# 3 56.0277 17.1425 115.0936 -0.0003 -11.4301 -0.0017
# 4 0.0003 0.0009 -0.0003 23.9908 -0.0005 -1.4790
# 5 -26.7170 -14.1896 -11.4301 -0.0005 35.3777 0.0012
# 6 -0.0015 0.0013 -0.0017 -1.4790 0.0012 19.7726
#
#
#
# Elastic Compliance Matrix: (Units=1/GPa)
#
#
# Indices 1 2 3 4 5 6 
#
# 1 0.012708 -0.002654 -0.005107 0.000000 0.006882 0.000000
# 2 -0.002654 0.017560 -0.000850 -0.000001 0.004764 -0.000002
# 3 -0.005107 -0.000850 0.011245 0.000000 -0.000565 0.000001
# 4 0.000000 -0.000001 0.000000 0.041876 0.000000 0.003132
# 5 0.006882 0.004764 -0.000565 0.000000 0.035192 -0.000002
# 6 0.000000 -0.000002 0.000001 0.003132 -0.000002 0.050809
#
#
# Mechanical properties :
#
#
# Convention : Reuss Voigt Hill
#
# Bulk Modulus (GPa) = 41.17072 56.18100 48.67586
# Shear Modulus (GPa) = 25.67928 29.23447 27.45687
#
# Velocity S-wave (km/s) = 3.53284 3.76947 3.65307
# Velocity P-wave (km/s) = 6.05405 6.80080 6.43826
#
# Compressibility (1/GPa) = 0.02428911
#
# Stress axis : x y z
#
# Youngs Moduli (GPa) = 78.69293 56.94891 88.92547
#
# Poissons Ratio (x) = 0.15116 0.45417
# Poissons Ratio (y) = 0.20887 0.07561
# Poissons Ratio (z) = 0.40191 0.04842
#
# Static dielectric constant tensor:
#      x y z
#    x 3.926490 -0.000010 -0.116620 
#    y -0.000010 3.377820 -0.000010 
#    z -0.116620 -0.000010 3.889650 
# 
# 
# High freq. dielectric constant tensor:
#      x y z
#    x 1.813990 0.000000 -0.010370 
#    y 0.000000 1.772860 0.000000 
#    z -0.010370 0.000000 1.802790 
# 
# From -- ./inp_files/328663.got.cif
#   From: 2010.06.25/outbox.cif.g09.slc.cpg/sg12_165_cif.got.tgz:328663.got - 2010.06.28 00:19:55.
