data_PCOD8114504
_publ_section_title
;
Structure prediction by ZEFSAII (Michael W. Deem and Ramdas Pophale) SiO2 
 PCOD8114504
Probable space group: C 2/M
;
_chemical_formula_sum "Si O2"
_cell_formula_units_Z 48
_cell_length_a 12.009300
_cell_length_b 16.377677
_cell_length_c 11.674896
_cell_angle_alpha 90.000000
_cell_angle_beta 112.582308
_cell_angle_gamma 90.000000
_cell_volume 2120.212623
_symmetry_space_group_name_H-M "C 2/M"
_symmetry_group_IT_number 12
_symmetry_cell_setting 'monoclinic'
loop_
_space_group_symop_operation_xyz
x,y,z
-x,y,-z
-x,-y,-z
x,-y,z
1/2+x,1/2+y,z
1/2-x,1/2+y,-z
1/2-x,1/2-y,-z
1/2+x,1/2-y,z
loop_
_atom_site_type_symbol
_atom_site_label
_atom_site_fract_x
_atom_site_fract_y
_atom_site_fract_z
Si Si1 0.248717 0.662659 0.355708
Si Si2 0.404632 0.337286 0.048354
Si Si3 0.771891 0.848376 0.613315
Si Si4 0.037590 0.093991 0.699398
Si Si5 0.707049 0.090953 0.827989
Si Si6 0.495033 0.156517 0.871135
O O1 0.273857 0.758146 0.377167
O O2 0.215994 0.624973 0.468175
O O3 0.373854 0.621042 0.367074
O O4 0.143027 0.650789 0.222706
O O5 0.389727 0.392911 0.154000
O O6 0.449761 0.247392 0.100263
O O7 0.500000 0.378903 0.000000
O O8 0.279486 0.339498 0.928097
O O9 0.724403 0.903870 0.697995
O O10 0.917156 0.851336 0.658751
O O11 0.001561 0.000000 0.668082
O O12 0.568224 0.104147 0.807103
O O13 0.747753 0.000000 0.880349
O O14 0.500000 0.117153 0.000000
#
# Coordination Sequence:
#
# PCOD8114504 Si02
#       6
#     8   8   8   8   8   8
#     4  11  25  44  69  96 132 185 227 279 340 408
#     4  11  21  40  68  98 130 176 224 283 336 401
#     4  11  24  44  67  97 135 178 235 277 333 410
#     4  12  24  42  70 104 140 176 228 291 345 402
#     4  12  25  41  67 101 141 178 221 283 349 410
#     4  11  23  44  69  98 134 182 232 282 335 416
#
# _framework density 22.639239
#
# number of rings (size 3 to 8) (size 9 to 14) (size 15 to 20)
#    0.000    0.667    3.333    5.000    0.000    4.333 
#    0.000    0.833    0.000    0.000    0.000    0.000 
#    0.000    0.000    0.000    0.000    0.000    0.000 
#
# Total GULP energy -297576.582477 kJ/mol
# GULP energy per Si atom -12399.024270 kJ/mol
# Density = 2.258771 g / cm^3
# Si number density = 22.639239 Si / 1000 Ang^3
#
#
#
# Elastic Constant Matrix: (Units=GPa)
#
#
# Indices 1 2 3 4 5 6 
#
# 1 105.2843 26.3441 33.8322 0.0000 -19.5992 0.0000
# 2 26.3441 74.4095 17.3731 0.0000 -4.1515 0.0000
# 3 33.8322 17.3731 135.3969 0.0000 -20.7401 0.0000
# 4 0.0000 0.0000 0.0000 19.0136 0.0000 -0.7298
# 5 -19.5992 -4.1515 -20.7401 0.0000 31.4495 0.0000
# 6 0.0000 0.0000 0.0000 -0.7298 0.0000 17.9782
#
#
#
# Elastic Compliance Matrix: (Units=1/GPa)
#
#
# Indices 1 2 3 4 5 6 
#
# 1 0.012016 -0.003540 -0.001638 0.000000 0.005941 0.000000
# 2 -0.003540 0.014912 -0.001185 0.000000 -0.001019 0.000000
# 3 -0.001638 -0.001185 0.008639 0.000000 0.004520 0.000000
# 4 0.000000 0.000000 0.000000 0.052676 0.000000 0.002138
# 5 0.005941 -0.001019 0.004520 0.000000 0.038346 0.000000
# 6 0.000000 0.000000 0.000000 0.002138 0.000000 0.055710
#
#
# Mechanical properties :
#
#
# Convention : Reuss Voigt Hill
#
# Bulk Modulus (GPa) = 43.78080 52.24328 48.01204
# Shear Modulus (GPa) = 24.67428 29.52435 27.09932
#
# Velocity S-wave (km/s) = 3.30493 3.61518 3.46353
# Velocity P-wave (km/s) = 5.82614 6.36809 6.10313
#
# Compressibility (1/GPa) = 0.02284106
#
# Stress axis : x y z
#
# Youngs Moduli (GPa) = 83.22034 67.05854 115.74760
#
# Poissons Ratio (x) = 0.23741 0.18963
# Poissons Ratio (y) = 0.29463 0.13715
# Poissons Ratio (z) = 0.13634 0.07946
#
# Static dielectric constant tensor:
#      x y z
#    x 4.075330 0.000000 -0.235910 
#    y 0.000000 3.761620 0.000000 
#    z -0.235910 0.000000 4.384530 
# 
# 
# High freq. dielectric constant tensor:
#      x y z
#    x 1.894220 0.000000 -0.016120 
#    y 0.000000 1.870450 0.000000 
#    z -0.016120 0.000000 1.907240 
# 
# From -- ./inp_files/131764.got.cif
#   From: 2010.06.25/outbox.cif.g09.slc.cpg/sg12_66_cif.got.tgz:131764.got - 2010.06.28 00:19:55.
