data_PCOD8114323
_publ_section_title
;
Structure prediction by ZEFSAII (Michael W. Deem and Ramdas Pophale) SiO2 
 PCOD8114323
Probable space group: C 2/M
;
_chemical_formula_sum "Si O2"
_cell_formula_units_Z 64
_cell_length_a 23.292231
_cell_length_b 20.084744
_cell_length_c 9.120643
_cell_angle_alpha 90.000000
_cell_angle_beta 129.575860
_cell_angle_gamma 90.000000
_cell_volume 3288.775747
_symmetry_space_group_name_H-M "C 2/M"
_symmetry_group_IT_number 12
_symmetry_cell_setting 'monoclinic'
loop_
_space_group_symop_operation_xyz
x,y,z
-x,y,-z
-x,-y,-z
x,-y,z
1/2+x,1/2+y,z
1/2-x,1/2+y,-z
1/2-x,1/2-y,-z
1/2+x,1/2-y,z
loop_
_atom_site_type_symbol
_atom_site_label
_atom_site_fract_x
_atom_site_fract_y
_atom_site_fract_z
Si Si1 0.501443 0.723707 0.834697
Si Si2 0.286079 0.145245 0.806701
Si Si3 0.373955 0.925407 0.164320
Si Si4 0.652104 0.278936 0.943729
Si Si5 0.860034 0.215402 0.418398
Si Si6 0.668365 0.923598 0.408476
Si Si7 0.990998 0.381277 0.817324
Si Si8 0.295452 0.848959 0.278324
O O1 0.578425 0.693142 0.900713
O O2 0.434153 0.694532 0.626490
O O3 0.498169 0.802622 0.814614
O O4 0.500000 0.699905 0.000000
O O5 0.198024 0.155758 0.645579
O O6 0.322776 0.127594 0.711000
O O7 0.303358 0.083060 0.940371
O O8 0.326095 0.209546 0.943596
O O9 0.449453 0.912209 0.197076
O O10 0.360832 0.875201 0.277495
O O11 0.374966 0.000000 0.227676
O O12 0.630313 0.271016 0.738909
O O13 0.720913 0.330221 0.066886
O O14 0.826412 0.285341 0.420894
O O15 0.589086 0.909858 0.358120
O O16 0.725875 0.903913 0.632593
O O17 0.679590 0.000000 0.378029
O O18 0.000000 0.405300 0.000000
#
# Coordination Sequence:
#
# PCOD8114323 Si02
#       8
#     8   8   8   8   8   8   8   8
#     4  11  22  36  60  91 121 157 191 240 306 363
#     4  11  21  37  60  88 116 156 206 246 296 346
#     4  12  22  37  59  83 120 166 204 241 285 348
#     4  11  21  39  62  86 121 153 196 253 305 350
#     4  11  21  38  63  87 120 153 196 253 304 351
#     4  12  25  39  56  85 125 167 204 242 291 349
#     4  11  21  37  54  85 121 160 204 235 283 355
#     4  11  23  39  58  85 118 158 205 251 296 349
#
# _framework density 19.460129999999999
#
# number of rings (size 3 to 8) (size 9 to 14) (size 15 to 20)
#    0.000    0.750    6.250    3.000    1.750    2.000 
#    0.000    1.250    0.000    0.000    0.000    5.250 
#    0.000    0.000    0.000    0.000    0.000    0.000 
#
# Total GULP energy -396641.591276 kJ/mol
# GULP energy per Si atom -12395.049727 kJ/mol
# Density = 1.941584 g / cm^3
# Si number density = 19.460130 Si / 1000 Ang^3
#
#
#
# Elastic Constant Matrix: (Units=GPa)
#
#
# Indices 1 2 3 4 5 6 
#
# 1 108.9796 35.6444 40.0059 0.0000 1.1177 0.0000
# 2 35.6444 53.0926 19.2716 0.0000 -7.6346 0.0000
# 3 40.0059 19.2716 112.1325 0.0000 -7.6762 0.0000
# 4 0.0000 0.0000 0.0000 21.0178 0.0000 -2.8625
# 5 1.1177 -7.6346 -7.6762 0.0000 31.3217 0.0000
# 6 0.0000 0.0000 0.0000 -2.8625 0.0000 18.7532
#
#
#
# Elastic Compliance Matrix: (Units=1/GPa)
#
#
# Indices 1 2 3 4 5 6 
#
# 1 0.013123 -0.008001 -0.003532 0.000000 -0.003284 0.000000
# 2 -0.008001 0.025502 -0.001102 0.000000 0.006232 0.000000
# 3 -0.003532 -0.001102 0.010534 0.000000 0.002439 0.000000
# 4 0.000000 0.000000 0.000000 0.048589 0.000000 0.007417
# 5 -0.003284 0.006232 0.002439 0.000000 0.034161 0.000000
# 6 0.000000 0.000000 0.000000 0.007417 0.000000 0.054456
#
#
# Mechanical properties :
#
#
# Convention : Reuss Voigt Hill
#
# Bulk Modulus (GPa) = 41.85633 51.56093 46.70863
# Shear Modulus (GPa) = 22.76893 26.17075 24.46984
#
# Velocity S-wave (km/s) = 3.42428 3.67118 3.54988
# Velocity P-wave (km/s) = 6.09834 6.67258 6.39191
#
# Compressibility (1/GPa) = 0.02389125
#
# Stress axis : x y z
#
# Youngs Moduli (GPa) = 76.20238 39.21205 94.92706
#
# Poissons Ratio (x) = 0.31372 0.33525
# Poissons Ratio (y) = 0.60966 0.10461
# Poissons Ratio (z) = 0.26912 0.04321
#
# Static dielectric constant tensor:
#      x y z
#    x 3.638070 0.000000 0.007450 
#    y 0.000000 3.292760 0.000000 
#    z 0.007450 0.000000 3.754130 
# 
# 
# High freq. dielectric constant tensor:
#      x y z
#    x 1.759630 0.000000 -0.014210 
#    y 0.000000 1.715780 0.000000 
#    z -0.014210 0.000000 1.767570 
# 
# From -- ./inp_files/99108.got.cif
#   From: 2010.06.25/outbox.cif.g09.slc.cpg/sg12_50_cif.got.tgz:99108.got - 2010.06.28 00:19:55.
