data_PCOD8114402
_publ_section_title
;
Structure prediction by ZEFSAII (Michael W. Deem and Ramdas Pophale) SiO2 
 PCOD8114402
Probable space group: C 2/M
;
_chemical_formula_sum "Si O2"
_cell_formula_units_Z 56
_cell_length_a 13.599911
_cell_length_b 17.067777
_cell_length_c 20.447015
_cell_angle_alpha 90.000000
_cell_angle_beta 144.209314
_cell_angle_gamma 90.000000
_cell_volume 2775.680541
_symmetry_space_group_name_H-M "C 2/M"
_symmetry_group_IT_number 12
_symmetry_cell_setting 'monoclinic'
loop_
_space_group_symop_operation_xyz
x,y,z
-x,y,-z
-x,-y,-z
x,-y,z
1/2+x,1/2+y,z
1/2-x,1/2+y,-z
1/2-x,1/2-y,-z
1/2+x,1/2-y,z
loop_
_atom_site_type_symbol
_atom_site_label
_atom_site_fract_x
_atom_site_fract_y
_atom_site_fract_z
Si Si1 0.387157 0.673435 0.266523
Si Si2 0.946391 0.304374 0.844366
Si Si3 0.562636 0.825034 0.312077
Si Si4 0.402649 0.409142 0.514242
Si Si5 0.293782 0.088113 0.948965
Si Si6 0.435271 0.361696 0.064206
Si Si7 0.760264 0.910465 0.843815
O O1 0.240372 0.714565 0.229973
O O2 0.521872 0.736855 0.313161
O O3 0.478981 0.608921 0.360402
O O4 0.302063 0.629990 0.160898
O O5 0.941379 0.336158 0.768104
O O6 0.056441 0.226010 0.903902
O O7 0.033409 0.368281 0.938468
O O8 0.743611 0.851805 0.435073
O O9 0.427814 0.883046 0.272918
O O10 0.500000 0.390067 0.500000
O O11 0.347117 0.500000 0.486273
O O12 0.167406 0.084740 0.941757
O O13 0.342288 0.000000 0.955133
O O14 0.620885 0.398772 0.155289
O O15 0.334577 0.356923 0.941764
O O16 0.762886 0.000000 0.867905
#
# Coordination Sequence:
#
# PCOD8114402 Si02
#       7
#     8   8   8   8   8   8   8
#     4  12  25  44  66  92 128 168 214 259 317 383
#     4  12  24  40  64  95 129 168 213 253 313 381
#     4  12  23  43  67  93 124 164 214 262 311 376
#     4  11  25  45  69  93 123 163 211 266 318 376
#     4  12  25  39  62  95 136 174 208 260 318 375
#     4  11  21  38  59  91 129 169 212 251 309 374
#     4  11  22  36  62  94 128 168 212 260 308 366
#
# _framework density 20.175232999999999
#
# number of rings (size 3 to 8) (size 9 to 14) (size 15 to 20)
#    0.000    0.429    5.714    4.714    2.000    2.286 
#    0.000    0.000    0.000    0.000    0.000    4.000 
#    0.000    0.000    0.000    0.000    0.000    0.000 
#
# Total GULP energy -347332.396313 kJ/mol
# GULP energy per Si atom -12404.728440 kJ/mol
# Density = 2.012931 g / cm^3
# Si number density = 20.175233 Si / 1000 Ang^3
#
#
#
# Elastic Constant Matrix: (Units=GPa)
#
#
# Indices 1 2 3 4 5 6 
#
# 1 88.8843 14.9624 36.8466 -0.0003 16.0325 -0.0001
# 2 14.9624 100.2974 28.0444 -0.0003 6.9740 -0.0001
# 3 36.8466 28.0444 91.4331 -0.0011 3.9681 -0.0005
# 4 -0.0003 -0.0003 -0.0011 30.8701 -0.0004 1.9656
# 5 16.0325 6.9740 3.9681 -0.0004 31.7711 -0.0001
# 6 -0.0001 -0.0001 -0.0005 1.9656 -0.0001 22.1815
#
#
#
# Elastic Compliance Matrix: (Units=1/GPa)
#
#
# Indices 1 2 3 4 5 6 
#
# 1 0.014830 -0.000169 -0.005632 0.000000 -0.006743 0.000000
# 2 -0.000169 0.011034 -0.003232 0.000000 -0.001933 0.000000
# 3 -0.005632 -0.003232 0.014120 0.000000 0.001788 0.000000
# 4 0.000000 0.000000 0.000000 0.032578 0.000000 -0.002887
# 5 -0.006743 -0.001933 0.001788 0.000000 0.035079 0.000000
# 6 0.000000 0.000000 0.000000 -0.002887 0.000000 0.045338
#
#
# Mechanical properties :
#
#
# Convention : Reuss Voigt Hill
#
# Bulk Modulus (GPa) = 45.62445 48.92462 47.27453
# Shear Modulus (GPa) = 28.03458 30.34865 29.19161
#
# Velocity S-wave (km/s) = 3.73172 3.88268 3.80794
# Velocity P-wave (km/s) = 6.42112 6.66354 6.54345
#
# Compressibility (1/GPa) = 0.02191807
#
# Stress axis : x y z
#
# Youngs Moduli (GPa) = 67.43094 90.63102 70.81946
#
# Poissons Ratio (x) = 0.01529 0.39885
# Poissons Ratio (y) = 0.01138 0.22892
# Poissons Ratio (z) = 0.37977 0.29295
#
# Static dielectric constant tensor:
#      x y z
#    x 3.990880 0.000000 0.188170 
#    y 0.000000 3.544130 0.000000 
#    z 0.188170 0.000000 3.527850 
# 
# 
# High freq. dielectric constant tensor:
#      x y z
#    x 1.802730 0.000000 0.012530 
#    y 0.000000 1.790890 0.000000 
#    z 0.012530 0.000000 1.773110 
# 
# From -- ./inp_files/311674.got.cif
#   From: 2010.06.25/outbox.cif.g09.slc.cpg/sg12_156_cif.got.tgz:311674.got - 2010.06.28 00:19:55.
