data_PCOD8114673
_publ_section_title
;
Structure prediction by ZEFSAII (Michael W. Deem and Ramdas Pophale) SiO2 
 PCOD8114673
Probable space group: C 2/M
;
_chemical_formula_sum "Si O2"
_cell_formula_units_Z 32
_cell_length_a 19.294232
_cell_length_b 14.258420
_cell_length_c 6.869374
_cell_angle_alpha 90.000000
_cell_angle_beta 110.856745
_cell_angle_gamma 90.000000
_cell_volume 1765.968949
_symmetry_space_group_name_H-M "C 2/M"
_symmetry_group_IT_number 12
_symmetry_cell_setting 'monoclinic'
loop_
_space_group_symop_operation_xyz
x,y,z
-x,y,-z
-x,-y,-z
x,-y,z
1/2+x,1/2+y,z
1/2-x,1/2+y,-z
1/2-x,1/2-y,-z
1/2+x,1/2-y,z
loop_
_atom_site_type_symbol
_atom_site_label
_atom_site_fract_x
_atom_site_fract_y
_atom_site_fract_z
Si Si1 0.586952 0.000000 0.557903
Si Si2 0.835994 0.356252 0.098918
Si Si3 0.334582 0.000000 0.763929
Si Si4 0.164006 0.856252 0.926930
Si Si5 0.334582 0.500000 0.405235
Si Si6 0.913048 0.000000 0.883999
O O1 0.500000 0.000000 0.500000
O O2 0.619559 0.906301 0.685330
O O3 0.606784 0.000000 0.350656
O O4 0.864765 0.250000 0.114765
O O5 0.849478 0.407454 0.907207
O O6 0.750000 0.360399 0.071538
O O7 0.250000 0.000000 0.600476
O O8 0.150522 0.907454 0.708252
O O9 0.119559 0.906301 0.053789
O O10 0.393216 0.500000 0.637089
O O11 0.000000 0.000000 0.000000
#
# Coordination Sequence:
#
# PCOD8114673 Si02
#       6
#     4   8   4   8   4   4
#     4  11  22  36  51  83 115 149 177 225 288 338
#     4   9  19  37  58  81 108 143 191 235 266 318
#     4   9  18  35  60  81 106 145 186 228 268 321
#     4   9  19  37  58  81 108 143 191 235 266 318
#     4   9  18  35  60  81 106 145 186 228 268 321
#     4  11  22  36  51  83 115 149 177 225 288 338
#
# _framework density 18.120363999999999
#
# number of rings (size 3 to 8) (size 9 to 14) (size 15 to 20)
#    0.000    2.500    0.000    3.750    0.000    6.000 
#    9.000    7.500    0.000    0.000    0.000    0.000 
#    0.000    0.000    0.000    0.000    0.000    0.000 
#
# Total GULP energy -198447.314853 kJ/mol
# GULP energy per Si atom -12402.957178 kJ/mol
# Density = 1.807912 g / cm^3
# Si number density = 18.120364 Si / 1000 Ang^3
#
#
#
# Elastic Constant Matrix: (Units=GPa)
#
#
# Indices 1 2 3 4 5 6 
#
# 1 88.6846 53.8086 60.6137 0.0000 -0.9146 0.0000
# 2 53.8086 183.4129 60.4628 0.0000 -2.4335 0.0000
# 3 60.6137 60.4628 110.2381 0.0000 -6.9678 0.0000
# 4 0.0000 0.0000 0.0000 15.2288 0.0000 0.1631
# 5 -0.9146 -2.4335 -6.9678 0.0000 17.4995 0.0000
# 6 0.0000 0.0000 0.0000 0.1631 0.0000 15.6749
#
#
#
# Elastic Compliance Matrix: (Units=1/GPa)
#
#
# Indices 1 2 3 4 5 6 
#
# 1 0.019192 -0.002598 -0.009321 0.000000 -0.003070 0.000000
# 2 -0.002598 0.007012 -0.002425 0.000000 -0.000126 0.000000
# 3 -0.009321 -0.002425 0.015874 0.000000 0.005496 0.000000
# 4 0.000000 0.000000 0.000000 0.065672 0.000000 -0.000683
# 5 -0.003070 -0.000126 0.005496 0.000000 0.059155 0.000000
# 6 0.000000 0.000000 0.000000 -0.000683 0.000000 0.063804
#
#
# Mechanical properties :
#
#
# Convention : Reuss Voigt Hill
#
# Bulk Modulus (GPa) = 74.69303 81.34507 78.01905
# Shear Modulus (GPa) = 18.94931 23.51067 21.22999
#
# Velocity S-wave (km/s) = 3.23731 3.60595 3.42659
# Velocity P-wave (km/s) = 7.43529 7.89469 7.66843
#
# Compressibility (1/GPa) = 0.01338813
#
# Stress axis : x y z
#
# Youngs Moduli (GPa) = 52.10600 142.60628 62.99504
#
# Poissons Ratio (x) = 0.37052 0.58720
# Poissons Ratio (y) = 0.13538 0.15279
# Poissons Ratio (z) = 0.48570 0.34588
#
# Static dielectric constant tensor:
#      x y z
#    x 3.198610 0.000000 0.003340 
#    y 0.000000 3.617330 0.000000 
#    z 0.003340 0.000000 3.189490 
# 
# 
# High freq. dielectric constant tensor:
#      x y z
#    x 1.690190 0.000000 -0.002890 
#    y 0.000000 1.710100 0.000000 
#    z -0.002890 0.000000 1.698090 
# 
# From -- ./inp_files/14580.got.cif
#   From: 2010.06.25/outbox.cif.g09.slc.cpg/sg12_8_cif.got.tgz:14580.got - 2010.06.28 00:19:55.
