data_PCOD8114271
_publ_section_title
;
Structure prediction by ZEFSAII (Michael W. Deem and Ramdas Pophale) SiO2 
 PCOD8114271
Probable space group: C 2/M
;
_chemical_formula_sum "Si O2"
_cell_formula_units_Z 56
_cell_length_a 14.473788
_cell_length_b 9.051816
_cell_length_c 26.013152
_cell_angle_alpha 90.000000
_cell_angle_beta 65.625681
_cell_angle_gamma 90.000000
_cell_volume 3104.321525
_symmetry_space_group_name_H-M "C 2/M"
_symmetry_group_IT_number 12
_symmetry_cell_setting 'monoclinic'
loop_
_space_group_symop_operation_xyz
x,y,z
-x,y,-z
-x,-y,-z
x,-y,z
1/2+x,1/2+y,z
1/2-x,1/2+y,-z
1/2-x,1/2-y,-z
1/2+x,1/2-y,z
loop_
_atom_site_type_symbol
_atom_site_label
_atom_site_fract_x
_atom_site_fract_y
_atom_site_fract_z
Si Si1 0.688911 0.170876 0.559155
Si Si2 0.737678 0.175118 0.357967
Si Si3 0.022879 0.669256 0.439783
Si Si4 0.041253 0.672271 0.149014
Si Si5 0.952951 0.323743 0.063423
Si Si6 0.321572 0.830035 0.240521
Si Si7 0.237611 0.827872 0.148936
O O1 0.750000 0.250000 0.500000
O O2 0.700874 0.250483 0.610335
O O3 0.569969 0.187227 0.576950
O O4 0.722573 0.000000 0.553641
O O5 0.622265 0.235090 0.389520
O O6 0.781659 0.223709 0.293664
O O7 0.747651 0.000000 0.360054
O O8 0.048521 0.500000 0.446336
O O9 0.000000 0.748488 0.500000
O O10 0.065219 0.500000 0.142411
O O11 0.021832 0.731593 0.095387
O O12 0.940124 0.704967 0.204881
O O13 0.136762 0.749722 0.152735
O O14 0.952085 0.500000 0.064556
O O15 0.836662 0.268380 0.095395
O O16 0.000000 0.260047 0.000000
O O17 0.255905 0.795896 0.204837
O O18 0.307726 0.000000 0.260140
O O19 0.223267 0.000000 0.142086
#
# Coordination Sequence:
#
# PCOD8114271 Si02
#       7
#     8   8   8   8   8   8   8
#     4  11  21  36  57  79 106 138 170 207 254 310
#     4  11  22  37  57  80 103 133 174 216 261 313
#     4   9  18  35  55  74 102 135 162 196 250 311
#     4   9  18  33  54  76 103 141 179 215 263 318
#     4   8  15  30  51  76 108 146 182 214 258 318
#     4   9  20  38  53  71 103 139 173 212 263 317
#     4   9  18  33  54  77 104 139 178 222 264 306
#
# _framework density 18.039368
#
# number of rings (size 3 to 8) (size 9 to 14) (size 15 to 20)
#    0.000    2.571    1.429    2.571    0.000    2.857 
#    0.000   10.000    0.000    0.857    0.000    0.000 
#    0.000    0.000    0.000    0.000    0.000    0.000 
#
# Total GULP energy -347101.008037 kJ/mol
# GULP energy per Si atom -12396.464573 kJ/mol
# Density = 1.799831 g / cm^3
# Si number density = 18.039368 Si / 1000 Ang^3
#
#
#
# Elastic Constant Matrix: (Units=GPa)
#
#
# Indices 1 2 3 4 5 6 
#
# 1 149.8235 55.8774 72.4597 0.0000 -3.3750 0.0000
# 2 55.8774 68.5808 53.2342 0.0000 1.3300 0.0000
# 3 72.4597 53.2342 137.2269 0.0000 1.5680 0.0000
# 4 0.0000 0.0000 0.0000 25.1022 0.0000 0.5702
# 5 -3.3750 1.3300 1.5680 0.0000 18.2877 0.0000
# 6 0.0000 0.0000 0.0000 0.5702 0.0000 31.9275
#
#
#
# Elastic Compliance Matrix: (Units=1/GPa)
#
#
# Indices 1 2 3 4 5 6 
#
# 1 0.010604 -0.006184 -0.003231 0.000000 0.002684 0.000000
# 2 -0.006184 0.024482 -0.006205 0.000000 -0.002390 0.000000
# 3 -0.003231 -0.006205 0.011413 0.000000 -0.001124 0.000000
# 4 0.000000 0.000000 0.000000 0.039853 0.000000 -0.000712
# 5 0.002684 -0.002390 -0.001124 0.000000 0.055447 0.000000
# 6 0.000000 0.000000 0.000000 -0.000712 0.000000 0.031334
#
#
# Mechanical properties :
#
#
# Convention : Reuss Voigt Hill
#
# Bulk Modulus (GPa) = 65.53010 79.86376 72.69693
# Shear Modulus (GPa) = 23.87099 26.66748 25.26924
#
# Velocity S-wave (km/s) = 3.64163 3.84903 3.74676
# Velocity P-wave (km/s) = 7.35438 8.00758 7.68792
#
# Compressibility (1/GPa) = 0.01526016
#
# Stress axis : x y z
#
# Youngs Moduli (GPa) = 94.30557 40.84555 87.61843
#
# Poissons Ratio (x) = 0.25258 0.28309
# Poissons Ratio (y) = 0.58317 0.54367
# Poissons Ratio (z) = 0.30469 0.25344
#
# Static dielectric constant tensor:
#      x y z
#    x 3.045970 0.000000 -0.209490 
#    y 0.000000 3.092010 0.000000 
#    z -0.209490 0.000000 3.401630 
# 
# 
# High freq. dielectric constant tensor:
#      x y z
#    x 1.708200 0.000000 -0.001390 
#    y 0.000000 1.672700 0.000000 
#    z -0.001390 0.000000 1.703520 
# 
# From -- ./inp_files/337877.got.cif
#   From: 2010.06.25/outbox.cif.g09.slc.cpg/sg12_169_cif.got.tgz:337877.got - 2010.06.28 00:19:55.
