data_PCOD8114453
_publ_section_title
;
Structure prediction by ZEFSAII (Michael W. Deem and Ramdas Pophale) SiO2 
 PCOD8114453
Probable space group: C 2/M
;
_chemical_formula_sum "Si O2"
_cell_formula_units_Z 40
_cell_length_a 10.051771
_cell_length_b 21.414749
_cell_length_c 8.959704
_cell_angle_alpha 90.000000
_cell_angle_beta 88.867995
_cell_angle_gamma 90.000000
_cell_volume 1928.255009
_symmetry_space_group_name_H-M "C 2/M"
_symmetry_group_IT_number 12
_symmetry_cell_setting 'monoclinic'
loop_
_space_group_symop_operation_xyz
x,y,z
-x,y,-z
-x,-y,-z
x,-y,z
1/2+x,1/2+y,z
1/2-x,1/2+y,-z
1/2-x,1/2-y,-z
1/2+x,1/2-y,z
loop_
_atom_site_type_symbol
_atom_site_label
_atom_site_fract_x
_atom_site_fract_y
_atom_site_fract_z
Si Si1 0.841234 0.569868 0.113676
Si Si2 0.894107 0.116519 0.711030
Si Si3 0.665761 0.573910 0.611019
Si Si4 0.122393 0.241271 0.106484
Si Si5 0.604241 0.124133 0.199720
O O1 0.881014 0.500000 0.069209
O O2 0.699042 0.569105 0.196199
O O3 0.954550 0.598092 0.220100
O O4 0.834729 0.609765 0.963648
O O5 0.852449 0.113200 0.539257
O O6 0.866293 0.184967 0.776733
O O7 0.047283 0.094541 0.726527
O O8 0.658001 0.500000 0.579162
O O9 0.807277 0.591989 0.675823
O O10 0.101639 0.301176 0.213475
O O11 0.250000 0.250000 0.000000
O O12 0.000000 0.229464 0.000000
#
# Coordination Sequence:
#
# PCOD8114453 Si02
#       5
#     8   8   8   8   8
#     4  11  21  39  63  94 125 165 216 262 314 376
#     4  11  24  40  65  92 128 173 211 260 317 373
#     4  11  24  44  64  94 135 170 211 261 316 383
#     4  12  22  42  65  92 128 163 216 270 313 372
#     4  11  22  40  64  93 126 169 210 265 320 370
#
# _framework density 20.744145
#
# number of rings (size 3 to 8) (size 9 to 14) (size 15 to 20)
#    0.000    0.800    4.000    6.000    0.000    1.600 
#    0.000    6.000    0.000    0.000    0.000    0.000 
#    0.000    0.000    0.000    0.000    0.000    0.000 
#
# Total GULP energy -248039.906985 kJ/mol
# GULP energy per Si atom -12401.995349 kJ/mol
# Density = 2.069693 g / cm^3
# Si number density = 20.744145 Si / 1000 Ang^3
#
#
#
# Elastic Constant Matrix: (Units=GPa)
#
#
# Indices 1 2 3 4 5 6 
#
# 1 83.3131 39.3594 46.3219 0.0000 8.3257 0.0000
# 2 39.3594 158.8535 47.8693 0.0000 5.1548 0.0000
# 3 46.3219 47.8693 73.9187 0.0000 7.4551 0.0000
# 4 0.0000 0.0000 0.0000 31.7352 0.0000 -0.5920
# 5 8.3257 5.1548 7.4551 0.0000 41.3075 0.0000
# 6 0.0000 0.0000 0.0000 -0.5920 0.0000 29.2311
#
#
#
# Elastic Compliance Matrix: (Units=1/GPa)
#
#
# Indices 1 2 3 4 5 6 
#
# 1 0.018771 -0.001370 -0.010706 0.000000 -0.001680 0.000000
# 2 -0.001370 0.007922 -0.004277 0.000000 0.000060 0.000000
# 3 -0.010706 -0.004277 0.023158 0.000000 -0.001488 0.000000
# 4 0.000000 0.000000 0.000000 0.031523 0.000000 0.000638
# 5 -0.001680 0.000060 -0.001488 0.000000 0.024808 0.000000
# 6 0.000000 0.000000 0.000000 0.000638 0.000000 0.034223
#
#
# Mechanical properties :
#
#
# Convention : Reuss Voigt Hill
#
# Bulk Modulus (GPa) = 58.33429 64.79850 61.56640
# Shear Modulus (GPa) = 27.96025 32.62375 30.29200
#
# Velocity S-wave (km/s) = 3.67531 3.97000 3.82549
# Velocity P-wave (km/s) = 6.79650 7.23321 7.01825
#
# Compressibility (1/GPa) = 0.01714258
#
# Stress axis : x y z
#
# Youngs Moduli (GPa) = 53.27464 126.23696 43.18251
#
# Poissons Ratio (x) = 0.17296 0.46232
# Poissons Ratio (y) = 0.07299 0.18471
# Poissons Ratio (z) = 0.57036 0.53997
#
# Static dielectric constant tensor:
#      x y z
#    x 3.961850 0.000000 -0.032070 
#    y 0.000000 3.859520 0.000000 
#    z -0.032070 0.000000 3.504220 
# 
# 
# High freq. dielectric constant tensor:
#      x y z
#    x 1.829530 0.000000 -0.000810 
#    y 0.000000 1.826100 0.000000 
#    z -0.000810 0.000000 1.790950 
# 
# From -- ./inp_files/48692.got.cif
#   From: 2010.06.25/outbox.cif.g09.slc.cpg/sg12_25_cif.got.tgz:48692.got - 2010.06.28 00:19:55.
