data_PCOD8114590
_publ_section_title
;
Structure prediction by ZEFSAII (Michael W. Deem and Ramdas Pophale) SiO2 
 PCOD8114590
Probable space group: C 2/M
;
_chemical_formula_sum "Si O2"
_cell_formula_units_Z 40
_cell_length_a 18.647545
_cell_length_b 18.981723
_cell_length_c 12.017528
_cell_angle_alpha 90.000000
_cell_angle_beta 150.329599
_cell_angle_gamma 90.000000
_cell_volume 2105.650530
_symmetry_space_group_name_H-M "C 2/M"
_symmetry_group_IT_number 12
_symmetry_cell_setting 'monoclinic'
loop_
_space_group_symop_operation_xyz
x,y,z
-x,y,-z
-x,-y,-z
x,-y,z
1/2+x,1/2+y,z
1/2-x,1/2+y,-z
1/2-x,1/2-y,-z
1/2+x,1/2-y,z
loop_
_atom_site_type_symbol
_atom_site_label
_atom_site_fract_x
_atom_site_fract_y
_atom_site_fract_z
Si Si1 0.840963 0.693446 0.052038
Si Si2 0.589252 0.310575 0.010950
Si Si3 0.665904 0.419641 0.694021
Si Si4 0.172453 0.156873 0.475533
Si Si5 0.841959 0.680560 0.491555
O O1 0.887113 0.732060 0.002083
O O2 0.749378 0.624877 0.899798
O O3 0.750000 0.750000 0.000000
O O4 0.989833 0.666937 0.311848
O O5 0.743193 0.346535 0.253372
O O6 0.500000 0.296566 0.000000
O O7 0.492301 0.356162 0.793891
O O8 0.500000 0.408978 0.500000
O O9 0.716008 0.500000 0.773274
O O10 0.699617 0.396105 0.613357
O O11 0.187489 0.236187 0.538895
O O12 0.290158 0.142490 0.536160
#
# Coordination Sequence:
#
# PCOD8114590 Si02
#       5
#     8   8   8   8   8
#     4  11  22  32  53  82 113 142 193 238 274 334
#     4   9  17  31  55  81 110 141 176 240 285 321
#     4  11  23  38  54  77 117 153 184 228 289 346
#     4   9  17  32  54  80 107 142 184 222 285 334
#     4   9  17  31  54  79 111 138 178 243 277 318
#
# _framework density 18.996504000000002
#
# number of rings (size 3 to 8) (size 9 to 14) (size 15 to 20)
#    0.000    2.200    2.000    3.600    0.000    0.000 
#    0.000    2.000    0.000    6.600    0.000    4.200 
#    0.000    0.000    0.000    0.000    0.000    0.000 
#
# Total GULP energy -247820.808426 kJ/mol
# GULP energy per Si atom -12391.040421 kJ/mol
# Density = 1.895327 g / cm^3
# Si number density = 18.996504 Si / 1000 Ang^3
#
#
#
# Elastic Constant Matrix: (Units=GPa)
#
#
# Indices 1 2 3 4 5 6 
#
# 1 50.4864 28.6920 43.6756 0.0000 6.2652 0.0000
# 2 28.6920 81.5688 46.8277 0.0000 4.3174 0.0000
# 3 43.6756 46.8277 153.4126 0.0000 11.2383 0.0000
# 4 0.0000 0.0000 0.0000 23.2353 0.0000 -3.4994
# 5 6.2652 4.3174 11.2383 0.0000 25.3666 0.0000
# 6 0.0000 0.0000 0.0000 -3.4994 0.0000 22.3043
#
#
#
# Elastic Compliance Matrix: (Units=1/GPa)
#
#
# Indices 1 2 3 4 5 6 
#
# 1 0.029230 -0.006629 -0.006048 0.000000 -0.003412 0.000000
# 2 -0.006629 0.016375 -0.003128 0.000000 0.000236 0.000000
# 3 -0.006048 -0.003128 0.009350 0.000000 -0.002116 0.000000
# 4 0.000000 0.000000 0.000000 0.044080 0.000000 0.006916
# 5 -0.003412 0.000236 -0.002116 0.000000 0.041162 0.000000
# 6 0.000000 0.000000 0.000000 0.006916 0.000000 0.045919
#
#
# Mechanical properties :
#
#
# Convention : Reuss Voigt Hill
#
# Bulk Modulus (GPa) = 42.83739 58.20648 50.52194
# Shear Modulus (GPa) = 22.17206 25.26607 23.71907
#
# Velocity S-wave (km/s) = 3.42009 3.65093 3.53739
# Velocity P-wave (km/s) = 6.18022 6.96272 6.58311
#
# Compressibility (1/GPa) = 0.02334409
#
# Stress axis : x y z
#
# Youngs Moduli (GPa) = 34.21087 61.06951 106.94944
#
# Poissons Ratio (x) = 0.40483 0.64687
# Poissons Ratio (y) = 0.22678 0.33457
# Poissons Ratio (z) = 0.20692 0.19104
#
# Static dielectric constant tensor:
#      x y z
#    x 3.514940 0.000000 -0.014200 
#    y 0.000000 2.968970 0.000000 
#    z -0.014200 0.000000 4.474760 
# 
# 
# High freq. dielectric constant tensor:
#      x y z
#    x 1.740100 0.000000 0.001580 
#    y 0.000000 1.667520 0.000000 
#    z 0.001580 0.000000 1.761980 
# 
# From -- ./inp_files/158439.got.cif
#   From: 2010.06.25/outbox.cif.g09.slc.cpg/sg12_80_cif.got.tgz:158439.got - 2010.06.28 00:19:55.
