data_PCOD8114893
_publ_section_title
;
Structure prediction by ZEFSAII (Michael W. Deem and Ramdas Pophale) SiO2 
 PCOD8114893
Probable space group: C 2/M
;
_chemical_formula_sum "Si O2"
_cell_formula_units_Z 36
_cell_length_a 10.230611
_cell_length_b 26.030861
_cell_length_c 11.895785
_cell_angle_alpha 90.000000
_cell_angle_beta 35.072467
_cell_angle_gamma 90.000000
_cell_volume 1820.362691
_symmetry_space_group_name_H-M "C 2/M"
_symmetry_group_IT_number 12
_symmetry_cell_setting 'monoclinic'
loop_
_space_group_symop_operation_xyz
x,y,z
-x,y,-z
-x,-y,-z
x,-y,z
1/2+x,1/2+y,z
1/2-x,1/2+y,-z
1/2-x,1/2-y,-z
1/2+x,1/2-y,z
loop_
_atom_site_type_symbol
_atom_site_label
_atom_site_fract_x
_atom_site_fract_y
_atom_site_fract_z
Si Si1 0.475646 0.440403 0.146563
Si Si2 0.527632 0.289647 0.348289
Si Si3 0.000000 0.395046 0.500000
Si Si4 0.663154 0.127347 0.975902
Si Si5 0.969813 0.679407 0.325799
O O1 0.533237 0.500000 0.119240
O O2 0.219784 0.430249 0.370820
O O3 0.655179 0.410843 0.097990
O O4 0.500000 0.422956 0.000000
O O5 0.500000 0.282927 0.500000
O O6 0.723118 0.328486 0.178251
O O7 0.294925 0.311682 0.460370
O O8 0.594338 0.234456 0.248046
O O9 0.931049 0.359896 0.653307
O O10 0.500000 0.097973 0.000000
O O11 0.508574 0.154601 0.177762
#
# Coordination Sequence:
#
# PCOD8114893 Si02
#       5
#     8   8   4   8   8
#     4  11  25  44  67  93 123 165 219 273 319 370
#     4  11  22  39  59  91 134 172 209 248 306 380
#     4  12  21  42  70  92 126 166 215 266 316 374
#     4  12  24  41  65  94 133 167 208 261 320 380
#     4  11  23  38  62  95 129 171 208 255 309 377
#
# _framework density 19.776278999999999
#
# number of rings (size 3 to 8) (size 9 to 14) (size 15 to 20)
#    0.000    0.667    7.778    1.000    0.000    0.444 
#    4.000    0.000    0.000    2.000    0.000    0.000 
#    0.000    0.000    0.000    0.000    0.000    0.000 
#
# Total GULP energy -223232.622113 kJ/mol
# GULP energy per Si atom -12401.812340 kJ/mol
# Density = 1.973127 g / cm^3
# Si number density = 19.776279 Si / 1000 Ang^3
#
#
#
# Elastic Constant Matrix: (Units=GPa)
#
#
# Indices 1 2 3 4 5 6 
#
# 1 142.8270 52.0805 43.2830 0.0000 8.2545 0.0000
# 2 52.0805 77.3683 38.4181 0.0000 3.8084 0.0000
# 3 43.2830 38.4181 84.2019 0.0000 2.4083 0.0000
# 4 0.0000 0.0000 0.0000 14.6344 0.0000 8.0585
# 5 8.2545 3.8084 2.4083 0.0000 31.6989 0.0000
# 6 0.0000 0.0000 0.0000 8.0585 0.0000 20.9849
#
#
#
# Elastic Compliance Matrix: (Units=1/GPa)
#
#
# Indices 1 2 3 4 5 6 
#
# 1 0.009791 -0.005212 -0.002606 0.000000 -0.001726 0.000000
# 2 -0.005212 0.019551 -0.006226 0.000000 -0.000519 0.000000
# 3 -0.002606 -0.006226 0.016051 0.000000 0.000207 0.000000
# 4 0.000000 0.000000 0.000000 0.086656 0.000000 -0.033277
# 5 -0.001726 -0.000519 0.000207 0.000000 0.032043 0.000000
# 6 0.000000 0.000000 0.000000 -0.033277 0.000000 0.060432
#
#
# Mechanical properties :
#
#
# Convention : Reuss Voigt Hill
#
# Bulk Modulus (GPa) = 57.78804 63.55113 60.66959
# Shear Modulus (GPa) = 19.35125 24.83801 22.09463
#
# Velocity S-wave (km/s) = 3.13151 3.54778 3.34612
# Velocity P-wave (km/s) = 6.50841 6.99908 6.75820
#
# Compressibility (1/GPa) = 0.01730462
#
# Stress axis : x y z
#
# Youngs Moduli (GPa) = 102.12991 51.14797 62.30334
#
# Poissons Ratio (x) = 0.26660 0.16234
# Poissons Ratio (y) = 0.53233 0.38792
# Poissons Ratio (z) = 0.26611 0.31846
#
# Static dielectric constant tensor:
#      x y z
#    x 3.720530 0.000000 0.005040 
#    y 0.000000 3.473480 0.000000 
#    z 0.005040 0.000000 3.608070 
# 
# 
# High freq. dielectric constant tensor:
#      x y z
#    x 1.783510 0.000000 0.000380 
#    y 0.000000 1.761180 0.000000 
#    z 0.000380 0.000000 1.772960 
# 
# From -- ./inp_files/7002.got.cif
#   From: 2010.06.25/outbox.cif.g09.slc.cpg/sg12_4_cif.got.tgz:7002.got - 2010.06.28 00:19:55.
