data_PCOD8114385
_publ_section_title
;
Structure prediction by ZEFSAII (Michael W. Deem and Ramdas Pophale) SiO2 
 PCOD8114385
Probable space group: C 2/M
;
_chemical_formula_sum "Si O2"
_cell_formula_units_Z 48
_cell_length_a 10.192843
_cell_length_b 25.285525
_cell_length_c 17.038566
_cell_angle_alpha 90.000000
_cell_angle_beta 147.453512
_cell_angle_gamma 90.000000
_cell_volume 2362.487367
_symmetry_space_group_name_H-M "C 2/M"
_symmetry_group_IT_number 12
_symmetry_cell_setting 'monoclinic'
loop_
_space_group_symop_operation_xyz
x,y,z
-x,y,-z
-x,-y,-z
x,-y,z
1/2+x,1/2+y,z
1/2-x,1/2+y,-z
1/2-x,1/2-y,-z
1/2+x,1/2-y,z
loop_
_atom_site_type_symbol
_atom_site_label
_atom_site_fract_x
_atom_site_fract_y
_atom_site_fract_z
Si Si1 0.745106 0.733860 0.408512
Si Si2 0.502824 0.937592 0.626162
Si Si3 0.250097 0.724399 0.915884
Si Si4 0.672236 0.389072 0.346062
Si Si5 0.262574 0.899736 0.102971
Si Si6 0.230041 0.557838 0.061760
O O1 0.750000 0.750000 0.500000
O O2 0.500949 0.759600 0.251742
O O3 0.732762 0.671441 0.390667
O O4 0.000000 0.755044 0.500000
O O5 0.236733 0.922628 0.457288
O O6 0.688626 0.909919 0.660404
O O7 0.536597 0.913094 0.729574
O O8 0.542417 0.000000 0.648541
O O9 0.252720 0.661720 0.923314
O O10 0.500000 0.744031 0.000000
O O11 0.250000 0.750000 0.000000
O O12 0.391783 0.396791 0.183449
O O13 0.341877 0.928774 0.063613
O O14 0.000000 0.920965 0.000000
O O15 0.360096 0.500000 0.127207
O O16 0.000000 0.554805 0.000000
#
# Coordination Sequence:
#
# PCOD8114385 Si02
#       6
#     8   8   8   8   8   8
#     4  12  25  42  65  92 129 170 217 272 322 381
#     4  11  21  37  67  97 122 157 212 271 319 365
#     4  11  25  42  65  92 128 172 218 265 322 385
#     4  11  22  40  64  89 129 164 214 259 318 386
#     4  11  23  40  65  95 128 162 222 271 309 379
#     4  11  24  41  63  94 133 170 204 258 331 395
#
# _framework density 20.317568999999999
#
# number of rings (size 3 to 8) (size 9 to 14) (size 15 to 20)
#    0.000    0.833    3.333    5.500    2.333    4.667 
#    0.000    0.833    0.000    3.000    0.000    0.000 
#    0.000    0.000    0.000    0.000    0.000    0.000 
#
# Total GULP energy -297541.334009 kJ/mol
# GULP energy per Si atom -12397.555584 kJ/mol
# Density = 2.027133 g / cm^3
# Si number density = 20.317569 Si / 1000 Ang^3
#
#
#
# Elastic Constant Matrix: (Units=GPa)
#
#
# Indices 1 2 3 4 5 6 
#
# 1 135.8270 36.0842 62.1628 0.0017 -15.2245 -0.0019
# 2 36.0842 57.4997 0.8271 0.0023 1.7903 0.0027
# 3 62.1628 0.8271 136.5053 0.0022 -11.9369 -0.0224
# 4 0.0017 0.0023 0.0022 38.3014 0.0003 1.3737
# 5 -15.2245 1.7903 -11.9369 0.0003 38.9666 -0.0060
# 6 -0.0019 0.0027 -0.0224 1.3737 -0.0060 148.1008
#
#
#
# Elastic Compliance Matrix: (Units=1/GPa)
#
#
# Indices 1 2 3 4 5 6 
#
# 1 0.012169 -0.007671 -0.005187 0.000000 0.003518 0.000000
# 2 -0.007671 0.022257 0.003090 -0.000001 -0.003073 0.000000
# 3 -0.005187 0.003090 0.009741 -0.000001 0.000815 0.000001
# 4 0.000000 -0.000001 -0.000001 0.026117 0.000000 -0.000242
# 5 0.003518 -0.003073 0.000815 0.000000 0.027428 0.000001
# 6 0.000000 0.000000 0.000001 -0.000242 0.000001 0.006754
#
#
# Mechanical properties :
#
#
# Convention : Reuss Voigt Hill
#
# Bulk Modulus (GPa) = 40.60378 58.66447 49.63413
# Shear Modulus (GPa) = 37.81763 60.45763 49.13763
#
# Velocity S-wave (km/s) = 4.31899 5.46085 4.92314
# Velocity P-wave (km/s) = 6.70071 8.28841 7.53648
#
# Compressibility (1/GPa) = 0.02462825
#
# Stress axis : x y z
#
# Youngs Moduli (GPa) = 82.17823 44.92995 102.66365
#
# Poissons Ratio (x) = 0.34468 0.53255
# Poissons Ratio (y) = 0.63042 -0.31722
# Poissons Ratio (z) = 0.42629 -0.13883
#
# Static dielectric constant tensor:
#      x y z
#    x 3.706470 0.000000 -0.185260 
#    y 0.000000 4.226140 0.000100 
#    z -0.185260 0.000100 4.325050 
# 
# 
# High freq. dielectric constant tensor:
#      x y z
#    x 1.783900 0.000000 -0.012650 
#    y 0.000000 1.806640 0.000000 
#    z -0.012650 0.000000 1.812030 
# 
# From -- ./inp_files/200206.got.cif
#   From: 2010.06.25/outbox.cif.g09.slc.cpg/sg12_101_cif.got.tgz:200206.got - 2010.06.28 00:19:55.
