data_PCOD8114261
_publ_section_title
;
Structure prediction by ZEFSAII (Michael W. Deem and Ramdas Pophale) SiO2 
 PCOD8114261
Probable space group: C 2/M
;
_chemical_formula_sum "Si O2"
_cell_formula_units_Z 32
_cell_length_a 11.548240
_cell_length_b 16.982236
_cell_length_c 21.743288
_cell_angle_alpha 90.000000
_cell_angle_beta 155.924904
_cell_angle_gamma 90.000000
_cell_volume 1739.503973
_symmetry_space_group_name_H-M "C 2/M"
_symmetry_group_IT_number 12
_symmetry_cell_setting 'monoclinic'
loop_
_space_group_symop_operation_xyz
x,y,z
-x,y,-z
-x,-y,-z
x,-y,z
1/2+x,1/2+y,z
1/2-x,1/2+y,-z
1/2-x,1/2-y,-z
1/2+x,1/2-y,z
loop_
_atom_site_type_symbol
_atom_site_label
_atom_site_fract_x
_atom_site_fract_y
_atom_site_fract_z
Si Si1 0.418940 0.840587 0.527787
Si Si2 0.388997 0.910029 0.135272
Si Si3 0.767763 0.860923 0.808647
Si Si4 0.659901 0.700670 0.708277
O O1 0.500000 0.872720 0.500000
O O2 0.586853 0.890616 0.661637
O O3 0.509726 0.748027 0.578839
O O4 0.080661 0.849213 0.372637
O O5 0.401028 0.884569 0.212043
O O6 0.601202 0.857878 0.198752
O O7 0.485236 0.000000 0.175877
O O8 0.074208 0.900858 0.955465
O O9 0.799529 0.765434 0.822113
#
# Coordination Sequence:
#
# PCOD8114261 Si02
#       4
#     8   8   8   8
#     4   9  18  33  57  81 107 137 192 225 264 313
#     4  11  21  36  55  85 115 140 178 231 278 317
#     4   9  19  33  56  80 111 144 181 220 271 321
#     4   9  19  33  57  85 108 141 189 226 265 321
#
# _framework density 18.396048
#
# number of rings (size 3 to 8) (size 9 to 14) (size 15 to 20)
#    1.500    1.000    0.000    3.750    0.000    0.000 
#    0.000    3.750    0.000    8.250    0.000    0.000 
#    0.000    0.000    0.000    0.000    0.000    0.000 
#
# Total GULP energy -198278.387789 kJ/mol
# GULP energy per Si atom -12392.399237 kJ/mol
# Density = 1.835418 g / cm^3
# Si number density = 18.396048 Si / 1000 Ang^3
#
#
#
# Elastic Constant Matrix: (Units=GPa)
#
#
# Indices 1 2 3 4 5 6 
#
# 1 69.4237 16.0899 29.8593 -0.0263 -2.4618 0.0067
# 2 16.0899 74.0267 16.3298 -0.0065 3.0848 0.0036
# 3 29.8593 16.3298 41.3809 -0.0704 1.8401 0.0161
# 4 -0.0263 -0.0065 -0.0704 -1.7192 -0.0107 2.7109
# 5 -2.4618 3.0848 1.8401 -0.0107 34.8550 0.0048
# 6 0.0067 0.0036 0.0161 2.7109 0.0048 16.3211
#
#
#
# Elastic Compliance Matrix: (Units=1/GPa)
#
#
# Indices 1 2 3 4 5 6 
#
# 1 0.021206 -0.001436 -0.014842 0.000224 0.002408 -0.000032
# 2 -0.001436 0.014929 -0.004803 0.000137 -0.001169 -0.000020
# 3 -0.014842 -0.004803 0.036883 -0.001025 -0.002571 0.000142
# 4 0.000224 0.000137 -0.001025 -0.460909 -0.000094 0.076558
# 5 0.002408 -0.001169 -0.002571 -0.000094 0.029100 0.000009
# 6 -0.000032 -0.000020 0.000142 0.076558 0.000009 0.048554
#
#
# Mechanical properties :
#
#
# Convention : Reuss Voigt Hill
#
# Bulk Modulus (GPa) = 32.40765 34.37658 33.39211
# Shear Modulus (GPa) = -19.39560 18.06154 -0.66703
#
# Velocity S-wave (km/s) = -3.25058 3.13679 -0.60281
# Velocity P-wave (km/s) = 1.88853 5.64330 4.20793
#
# Compressibility (1/GPa) = 0.03085691
#
# Stress axis : x y z
#
# Youngs Moduli (GPa) = 47.15642 66.98400 27.11260
#
# Poissons Ratio (x) = 0.09616 0.40240
# Poissons Ratio (y) = 0.06769 0.13023
# Poissons Ratio (z) = 0.69989 0.32174
#
# Static dielectric constant tensor:
#      x y z
#    x 3.246160 0.000000 0.051830 
#    y 0.000000 3.043330 -0.000030 
#    z 0.051830 -0.000030 3.311570 
# 
# 
# High freq. dielectric constant tensor:
#      x y z
#    x 1.706950 0.000000 0.008480 
#    y 0.000000 1.680260 0.000000 
#    z 0.008480 0.000000 1.712540 
# 
# From -- ./inp_files/336521.got.cif
#   From: 2010.06.25/outbox.cif.g09.slc.cpg/sg12_169_cif.got.tgz:336521.got - 2010.06.28 00:19:55.
