data_PCOD8114221
_publ_section_title
;
Structure prediction by ZEFSAII (Michael W. Deem and Ramdas Pophale) SiO2 
 PCOD8114221
Probable space group: C 2/M
;
_chemical_formula_sum "Si O2"
_cell_formula_units_Z 44
_cell_length_a 15.183108
_cell_length_b 28.023571
_cell_length_c 15.654986
_cell_angle_alpha 90.000000
_cell_angle_beta 160.858903
_cell_angle_gamma 90.000000
_cell_volume 2184.099590
_symmetry_space_group_name_H-M "C 2/M"
_symmetry_group_IT_number 12
_symmetry_cell_setting 'monoclinic'
loop_
_space_group_symop_operation_xyz
x,y,z
-x,y,-z
-x,-y,-z
x,-y,z
1/2+x,1/2+y,z
1/2-x,1/2+y,-z
1/2-x,1/2-y,-z
1/2+x,1/2-y,z
loop_
_atom_site_type_symbol
_atom_site_label
_atom_site_fract_x
_atom_site_fract_y
_atom_site_fract_z
Si Si1 0.748522 0.346759 0.482245
Si Si2 0.795894 0.793035 0.975426
Si Si3 0.965263 0.572202 0.062621
Si Si4 0.261575 0.663543 0.336666
Si Si5 0.000000 0.745938 0.000000
Si Si6 0.870887 0.052120 0.578721
O O1 0.635851 0.331722 0.472212
O O2 0.732038 0.404473 0.455440
O O3 0.055625 0.330713 0.757490
O O4 0.570319 0.320435 0.248848
O O5 0.817755 0.776460 0.897397
O O6 0.750000 0.750000 0.000000
O O7 0.997855 0.629965 0.090615
O O8 0.204351 0.551212 0.338634
O O9 0.000000 0.550445 0.000000
O O10 0.682564 0.559121 0.843719
O O11 0.500000 0.639274 0.500000
O O12 0.197114 0.715101 0.239827
O O13 0.835329 0.000000 0.591071
#
# Coordination Sequence:
#
# PCOD8114221 Si02
#       6
#     8   8   8   8   4   8
#     4  11  24  43  61  84 127 162 203 260 313 352
#     4  12  25  42  61  93 125 167 206 252 303 372
#     4  11  21  35  55  82 122 160 201 249 302 356
#     4  11  22  36  60  86 121 172 209 243 293 376
#     4  12  26  36  66  90 126 166 218 242 304 372
#     4  11  24  39  60  85 112 157 213 257 311 372
#
# _framework density 20.145600999999999
#
# number of rings (size 3 to 8) (size 9 to 14) (size 15 to 20)
#    0.000    0.727    2.727    7.091    2.545    2.182 
#    0.000    0.000    0.000    0.000    0.000    3.818 
#    0.000    0.000    0.000    0.000    0.000    0.000 
#
# Total GULP energy -272797.567450 kJ/mol
# GULP energy per Si atom -12399.889430 kJ/mol
# Density = 2.009975 g / cm^3
# Si number density = 20.145601 Si / 1000 Ang^3
#
#
#
# Elastic Constant Matrix: (Units=GPa)
#
#
# Indices 1 2 3 4 5 6 
#
# 1 78.6835 38.9350 6.5239 -0.0254 4.7094 -0.0121
# 2 38.9350 146.9394 30.2137 0.0193 1.9193 -0.0013
# 3 6.5239 30.2137 97.5616 0.0926 5.7195 -0.0940
# 4 -0.0254 0.0193 0.0926 138.8451 -0.0334 -43.5972
# 5 4.7094 1.9193 5.7195 -0.0334 25.8313 -0.0317
# 6 -0.0121 -0.0013 -0.0940 -43.5972 -0.0317 19.8136
#
#
#
# Elastic Compliance Matrix: (Units=1/GPa)
#
#
# Indices 1 2 3 4 5 6 
#
# 1 0.014788 -0.003965 0.000385 0.000014 -0.002487 0.000039
# 2 -0.003965 0.008332 -0.002352 -0.000013 0.000624 -0.000040
# 3 0.000385 -0.002352 0.011090 0.000025 -0.002351 0.000104
# 4 0.000014 -0.000013 0.000025 0.023302 0.000086 0.051273
# 5 -0.002487 0.000624 -0.002351 0.000086 0.039641 0.000240
# 6 0.000039 -0.000040 0.000104 0.051273 0.000240 0.163292
#
#
# Mechanical properties :
#
#
# Convention : Reuss Voigt Hill
#
# Bulk Modulus (GPa) = 44.75028 52.72553 48.73790
# Shear Modulus (GPa) = 17.87267 53.39879 35.63573
#
# Velocity S-wave (km/s) = 2.98178 5.15402 4.21040
# Velocity P-wave (km/s) = 5.84092 7.85160 6.91968
#
# Compressibility (1/GPa) = 0.02234623
#
# Stress axis : x y z
#
# Youngs Moduli (GPa) = 67.62182 120.02532 90.16819
#
# Poissons Ratio (x) = 0.47591 -0.03470
# Poissons Ratio (y) = 0.26813 0.21205
# Poissons Ratio (z) = -0.02603 0.28226
#
# Static dielectric constant tensor:
#      x y z
#    x 3.507810 -0.001710 0.013280 
#    y -0.001710 3.145990 -0.000970 
#    z 0.013280 -0.000970 3.771820 
# 
# 
# High freq. dielectric constant tensor:
#      x y z
#    x 1.737880 0.000000 0.006290 
#    y 0.000000 1.787310 0.000000 
#    z 0.006290 0.000000 1.807200 
# 
# From -- ./inp_files/219492.got.cif
#   From: 2010.06.25/outbox.cif.g09.slc.cpg/sg12_110_cif.got.tgz:219492.got - 2010.06.28 00:19:55.
