data_PCOD8114689
_publ_section_title
;
Structure prediction by ZEFSAII (Michael W. Deem and Ramdas Pophale) SiO2 
 PCOD8114689
Probable space group: C 2/M
;
_chemical_formula_sum "Si O2"
_cell_formula_units_Z 64
_cell_length_a 16.643513
_cell_length_b 28.357240
_cell_length_c 8.910809
_cell_angle_alpha 90.000000
_cell_angle_beta 57.629487
_cell_angle_gamma 90.000000
_cell_volume 3552.049491
_symmetry_space_group_name_H-M "C 2/M"
_symmetry_group_IT_number 12
_symmetry_cell_setting 'monoclinic'
loop_
_space_group_symop_operation_xyz
x,y,z
-x,y,-z
-x,-y,-z
x,-y,z
1/2+x,1/2+y,z
1/2-x,1/2+y,-z
1/2-x,1/2-y,-z
1/2+x,1/2-y,z
loop_
_atom_site_type_symbol
_atom_site_label
_atom_site_fract_x
_atom_site_fract_y
_atom_site_fract_z
Si Si1 0.736250 0.554344 0.690881
Si Si2 0.100416 0.377332 0.821606
Si Si3 0.243230 0.196100 0.680953
Si Si4 0.763749 0.054344 0.663383
Si Si5 0.102039 0.126067 0.325717
Si Si6 0.602039 0.373932 0.970205
Si Si7 0.600416 0.122668 0.477563
Si Si8 0.256770 0.303900 0.667413
O O1 0.742658 0.500000 0.730133
O O2 0.720792 0.561797 0.529208
O O3 0.647488 0.577508 0.864668
O O4 0.833312 0.579809 0.647193
O O5 0.166687 0.420191 0.813819
O O6 0.078026 0.385378 0.671974
O O7 0.154226 0.327951 0.796951
O O8 0.000000 0.377203 0.000000
O O9 0.164626 0.170981 0.860715
O O10 0.345775 0.172049 0.605402
O O11 0.250000 0.250000 0.725663
O O12 0.213207 0.191338 0.536793
O O13 0.852511 0.077507 0.659646
O O14 0.757341 0.000000 0.715451
O O15 0.164626 0.170981 0.310034
O O16 0.000000 0.132685 0.500000
O O17 0.093267 0.123728 0.156733
O O18 0.500000 0.367314 0.000000
O O19 0.500000 0.122796 0.500000
#
# Coordination Sequence:
#
# PCOD8114689 Si02
#       8
#     8   8   8   8   8   8   8   8
#     4   9  19  37  57  76 102 137 177 220 265 313
#     4   9  18  32  51  76 105 136 170 210 258 309
#     4   9  19  37  57  77 105 140 177 219 265 309
#     4   9  19  37  57  76 102 137 177 220 265 313
#     4  11  22  36  55  79 108 140 176 217 262 315
#     4  11  22  36  55  79 108 140 176 217 262 315
#     4   9  18  32  51  76 105 136 170 210 258 309
#     4   9  19  37  57  77 105 140 177 219 265 309
#
# _framework density 18.017766000000002
#
# number of rings (size 3 to 8) (size 9 to 14) (size 15 to 20)
#    0.000    2.500    0.000    3.750    0.000    7.000 
#    0.000    2.500    0.000    0.000    0.000    0.000 
#    0.000    0.000    0.000    0.000    0.000    0.000 
#
# Total GULP energy -396817.714183 kJ/mol
# GULP energy per Si atom -12400.553568 kJ/mol
# Density = 1.797676 g / cm^3
# Si number density = 18.017766 Si / 1000 Ang^3
#
#
#
# Elastic Constant Matrix: (Units=GPa)
#
#
# Indices 1 2 3 4 5 6 
#
# 1 112.1673 35.8622 32.4967 0.0000 -2.9509 0.0000
# 2 35.8622 145.0967 35.3659 0.0000 -0.5665 0.0000
# 3 32.4967 35.3659 97.9358 0.0000 -13.2726 0.0000
# 4 0.0000 0.0000 0.0000 20.0180 0.0000 4.7639
# 5 -2.9509 -0.5665 -13.2726 0.0000 26.7758 0.0000
# 6 0.0000 0.0000 0.0000 4.7639 0.0000 15.8390
#
#
#
# Elastic Compliance Matrix: (Units=1/GPa)
#
#
# Indices 1 2 3 4 5 6 
#
# 1 0.010313 -0.001871 -0.002785 0.000000 -0.000283 0.000000
# 2 -0.001871 0.007938 -0.002413 0.000000 -0.001234 0.000000
# 3 -0.002785 -0.002413 0.012819 0.000000 0.005996 0.000000
# 4 0.000000 0.000000 0.000000 0.053806 0.000000 -0.016183
# 5 -0.000283 -0.001234 0.005996 0.000000 0.040262 0.000000
# 6 0.000000 0.000000 0.000000 -0.016183 0.000000 0.068003
#
#
# Mechanical properties :
#
#
# Convention : Reuss Voigt Hill
#
# Bulk Modulus (GPa) = 59.06030 62.51663 60.78847
# Shear Modulus (GPa) = 23.48279 29.29156 26.38717
#
# Velocity S-wave (km/s) = 3.61406 4.03638 3.83104
# Velocity P-wave (km/s) = 7.08980 7.51636 7.30620
#
# Compressibility (1/GPa) = 0.01693185
#
# Stress axis : x y z
#
# Youngs Moduli (GPa) = 96.96643 125.98048 78.01130
#
# Poissons Ratio (x) = 0.23575 0.21723
# Poissons Ratio (y) = 0.18145 0.18822
# Poissons Ratio (z) = 0.27001 0.30396
#
# Static dielectric constant tensor:
#      x y z
#    x 3.426910 0.000000 0.001170 
#    y 0.000000 3.513510 0.000000 
#    z 0.001170 0.000000 3.427960 
# 
# 
# High freq. dielectric constant tensor:
#      x y z
#    x 1.697310 0.000000 -0.003640 
#    y 0.000000 1.703110 0.000000 
#    z -0.003640 0.000000 1.694120 
# 
# From -- ./inp_files/68225.got.cif
#   From: 2010.06.25/outbox.cif.g09.slc.cpg/sg12_35_cif.got.tgz:68225.got - 2010.06.28 00:19:55.
