data_PCOD8114582
_publ_section_title
;
Structure prediction by ZEFSAII (Michael W. Deem and Ramdas Pophale) SiO2 
 PCOD8114582
Probable space group: C 2/M
;
_chemical_formula_sum "Si O2"
_cell_formula_units_Z 32
_cell_length_a 9.145967
_cell_length_b 26.510304
_cell_length_c 12.457294
_cell_angle_alpha 90.000000
_cell_angle_beta 30.293873
_cell_angle_gamma 90.000000
_cell_volume 1523.608954
_symmetry_space_group_name_H-M "C 2/M"
_symmetry_group_IT_number 12
_symmetry_cell_setting 'monoclinic'
loop_
_space_group_symop_operation_xyz
x,y,z
-x,y,-z
-x,-y,-z
x,-y,z
1/2+x,1/2+y,z
1/2-x,1/2+y,-z
1/2-x,1/2-y,-z
1/2+x,1/2-y,z
loop_
_atom_site_type_symbol
_atom_site_label
_atom_site_fract_x
_atom_site_fract_y
_atom_site_fract_z
Si Si1 0.807315 0.731867 0.344689
Si Si2 0.717829 0.000000 0.106181
Si Si3 0.110290 0.175403 0.044222
Si Si4 0.899318 0.000000 0.441448
Si Si5 0.277332 0.582246 0.893669
O O1 0.500000 0.709595 0.500000
O O2 0.750000 0.750000 0.500000
O O3 0.911083 0.777486 0.202846
O O4 0.049581 0.688686 0.183244
O O5 0.443933 0.000000 0.358002
O O6 0.688810 0.950475 0.052343
O O7 0.000000 0.000000 0.000000
O O8 0.070564 0.133054 0.160656
O O9 0.000000 0.154602 0.000000
O O10 0.000000 0.000000 0.500000
O O11 0.006654 0.949283 0.316971
O O12 0.000000 0.597425 0.000000
#
# Coordination Sequence:
#
# PCOD8114582 Si02
#       5
#     8   4   8   4   8
#     4  11  24  45  69  96 133 181 220 275 341 396
#     4  11  23  45  69  97 135 169 215 283 338 390
#     4  11  25  44  66  99 139 170 226 283 329 403
#     4  11  21  47  71  92 135 179 219 274 335 399
#     4  11  24  41  68 101 130 176 226 272 332 403
#
# _framework density 21.002763999999999
#
# number of rings (size 3 to 8) (size 9 to 14) (size 15 to 20)
#    0.000    1.000    5.000    1.500    3.500    4.000 
#    4.500    0.000    0.000    0.000    0.000    0.000 
#    0.000    0.000    0.000    0.000    0.000    0.000 
#
# Total GULP energy -198449.212459 kJ/mol
# GULP energy per Si atom -12403.075779 kJ/mol
# Density = 2.095496 g / cm^3
# Si number density = 21.002764 Si / 1000 Ang^3
#
#
#
# Elastic Constant Matrix: (Units=GPa)
#
#
# Indices 1 2 3 4 5 6 
#
# 1 163.5577 47.9698 56.0304 0.0000 -11.9752 0.0000
# 2 47.9698 98.5605 33.8046 0.0000 -4.7262 0.0000
# 3 56.0304 33.8046 141.1122 0.0000 -12.2659 0.0000
# 4 0.0000 0.0000 0.0000 10.7903 0.0000 4.1916
# 5 -11.9752 -4.7262 -12.2659 0.0000 44.1653 0.0000
# 6 0.0000 0.0000 0.0000 4.1916 0.0000 39.9316
#
#
#
# Elastic Compliance Matrix: (Units=1/GPa)
#
#
# Indices 1 2 3 4 5 6 
#
# 1 0.007864 -0.002980 -0.002307 0.000000 0.001173 0.000000
# 2 -0.002980 0.012193 -0.001736 0.000000 0.000014 0.000000
# 3 -0.002307 -0.001736 0.008554 0.000000 0.001565 0.000000
# 4 0.000000 0.000000 0.000000 0.096616 0.000000 -0.010142
# 5 0.001173 0.000014 0.001565 0.000000 0.023396 0.000000
# 6 0.000000 0.000000 0.000000 -0.010142 0.000000 0.026107
#
#
# Mechanical properties :
#
#
# Convention : Reuss Voigt Hill
#
# Bulk Modulus (GPa) = 68.65774 75.42665 72.04219
# Shear Modulus (GPa) = 25.82216 36.67245 31.24731
#
# Velocity S-wave (km/s) = 3.51018 4.18314 3.86135
# Velocity P-wave (km/s) = 7.01351 7.70209 7.36585
#
# Compressibility (1/GPa) = 0.01456500
#
# Stress axis : x y z
#
# Youngs Moduli (GPa) = 127.15890 82.01618 116.89869
#
# Poissons Ratio (x) = 0.24442 0.26965
# Poissons Ratio (y) = 0.37895 0.20297
# Poissons Ratio (z) = 0.29332 0.14241
#
# Static dielectric constant tensor:
#      x y z
#    x 4.891150 0.000000 -0.938430 
#    y 0.000000 3.768060 0.000000 
#    z -0.938430 0.000000 4.965250 
# 
# 
# High freq. dielectric constant tensor:
#      x y z
#    x 1.840900 0.000000 0.002570 
#    y 0.000000 1.811570 0.000000 
#    z 0.002570 0.000000 1.830430 
# 
# From -- ./inp_files/3862.got.cif
#   From: 2010.06.25/outbox.cif.g09.slc.cpg/sg12_2_cif.got.tgz:3862.got - 2010.06.28 00:19:55.
