data_PCOD8114665
_publ_section_title
;
Structure prediction by ZEFSAII (Michael W. Deem and Ramdas Pophale) SiO2 
 PCOD8114665
Probable space group: C 2/M
;
_chemical_formula_sum "Si O2"
_cell_formula_units_Z 40
_cell_length_a 23.134219
_cell_length_b 7.636341
_cell_length_c 11.370951
_cell_angle_alpha 90.000000
_cell_angle_beta 89.040843
_cell_angle_gamma 90.000000
_cell_volume 2008.519661
_symmetry_space_group_name_H-M "C 2/M"
_symmetry_group_IT_number 12
_symmetry_cell_setting 'monoclinic'
loop_
_space_group_symop_operation_xyz
x,y,z
-x,y,-z
-x,-y,-z
x,-y,z
1/2+x,1/2+y,z
1/2-x,1/2+y,-z
1/2-x,1/2-y,-z
1/2+x,1/2-y,z
loop_
_atom_site_type_symbol
_atom_site_label
_atom_site_fract_x
_atom_site_fract_y
_atom_site_fract_z
Si Si1 0.129462 0.304994 0.763012
Si Si2 0.317340 0.701844 0.991963
Si Si3 0.739014 0.703287 0.632819
Si Si4 0.063823 0.000000 0.641492
Si Si5 0.072641 0.000000 0.371630
Si Si6 0.856923 0.697307 0.747623
O O1 0.102210 0.500000 0.769359
O O2 0.185118 0.315180 0.677693
O O3 0.082617 0.172943 0.711352
O O4 0.149833 0.244586 0.889835
O O5 0.322497 0.500000 0.962144
O O6 0.352307 0.802373 0.888938
O O7 0.250000 0.750000 0.000000
O O8 0.724021 0.500000 0.652802
O O9 0.750000 0.750000 0.500000
O O10 0.794829 0.760200 0.703776
O O11 0.091088 0.000000 0.508765
O O12 0.995556 0.000000 0.637341
O O13 0.095157 0.173861 0.306248
O O14 0.871819 0.500000 0.704798
#
# Coordination Sequence:
#
# PCOD8114665 Si02
#       6
#     8   8   8   4   4   8
#     4  12  24  41  65  97 134 174 220 276 334 398
#     4  12  22  39  64  98 140 179 218 266 338 409
#     4  11  22  35  57  93 135 170 212 270 334 401
#     4  11  26  49  69  97 131 178 236 275 334 395
#     4  11  26  47  73  93 131 184 226 283 330 395
#     4  11  24  41  63  99 134 172 222 273 333 400
#
# _framework density 19.915163
#
# number of rings (size 3 to 8) (size 9 to 14) (size 15 to 20)
#    0.000    0.600    5.000    3.600    2.800    3.200 
#    0.000    4.000    0.000    2.400    0.000    0.000 
#    0.000    0.000    0.000    0.000    0.000    0.000 
#
# Total GULP energy -248074.985421 kJ/mol
# GULP energy per Si atom -12403.749271 kJ/mol
# Density = 1.986984 g / cm^3
# Si number density = 19.915163 Si / 1000 Ang^3
#
#
#
# Elastic Constant Matrix: (Units=GPa)
#
#
# Indices 1 2 3 4 5 6 
#
# 1 69.5048 43.6516 26.1839 0.0000 11.2390 0.0000
# 2 43.6516 118.8206 27.2476 0.0000 -0.3571 0.0000
# 3 26.1839 27.2476 110.1001 0.0000 19.1991 0.0000
# 4 0.0000 0.0000 0.0000 31.0026 0.0000 0.0451
# 5 11.2390 -0.3571 19.1991 0.0000 29.0404 0.0000
# 6 0.0000 0.0000 0.0000 0.0451 0.0000 30.9358
#
#
#
# Elastic Compliance Matrix: (Units=1/GPa)
#
#
# Indices 1 2 3 4 5 6 
#
# 1 0.020747 -0.007192 -0.001965 0.000000 -0.006819 0.000000
# 2 -0.007192 0.011497 -0.001859 0.000000 0.004154 0.000000
# 3 -0.001965 -0.001859 0.011169 0.000000 -0.006646 0.000000
# 4 0.000000 0.000000 0.000000 0.032255 0.000000 -0.000047
# 5 -0.006819 0.004154 -0.006646 0.000000 0.041519 0.000000
# 6 0.000000 0.000000 0.000000 -0.000047 0.000000 0.032325
#
#
# Mechanical properties :
#
#
# Convention : Reuss Voigt Hill
#
# Bulk Modulus (GPa) = 46.77126 54.73241 50.75183
# Shear Modulus (GPa) = 27.98427 31.61860 29.80143
#
# Velocity S-wave (km/s) = 3.75263 3.98887 3.87255
# Velocity P-wave (km/s) = 6.50481 6.98264 6.74796
#
# Compressibility (1/GPa) = 0.02138065
#
# Stress axis : x y z
#
# Youngs Moduli (GPa) = 48.19952 86.97956 89.53250
#
# Poissons Ratio (x) = 0.62554 0.17595
# Poissons Ratio (y) = 0.34664 0.16646
# Poissons Ratio (z) = 0.09472 0.16172
#
# Static dielectric constant tensor:
#      x y z
#    x 3.466160 0.000000 0.175420 
#    y 0.000000 3.211250 0.000000 
#    z 0.175420 0.000000 3.864330 
# 
# 
# High freq. dielectric constant tensor:
#      x y z
#    x 1.749030 0.000000 0.008390 
#    y 0.000000 1.795330 0.000000 
#    z 0.008390 0.000000 1.796450 
# 
# From -- ./inp_files/162533.got.cif
#   From: 2010.06.25/outbox.cif.g09.slc.cpg/sg12_82_cif.got.tgz:162533.got - 2010.06.28 00:19:55.
