data_PCOD8114812
_publ_section_title
;
Structure prediction by ZEFSAII (Michael W. Deem and Ramdas Pophale) SiO2 
 PCOD8114812
Probable space group: C 2/M
;
_chemical_formula_sum "Si O2"
_cell_formula_units_Z 56
_cell_length_a 8.763237
_cell_length_b 24.941193
_cell_length_c 14.955105
_cell_angle_alpha 90.000000
_cell_angle_beta 112.372366
_cell_angle_gamma 90.000000
_cell_volume 3022.637469
_symmetry_space_group_name_H-M "C 2/M"
_symmetry_group_IT_number 12
_symmetry_cell_setting 'monoclinic'
loop_
_space_group_symop_operation_xyz
x,y,z
-x,y,-z
-x,-y,-z
x,-y,z
1/2+x,1/2+y,z
1/2-x,1/2+y,-z
1/2-x,1/2-y,-z
1/2+x,1/2-y,z
loop_
_atom_site_type_symbol
_atom_site_label
_atom_site_fract_x
_atom_site_fract_y
_atom_site_fract_z
Si Si1 0.265395 0.845693 0.297531
Si Si2 0.993332 0.182943 0.900213
Si Si3 0.604812 0.152585 0.274533
Si Si4 0.177905 0.238084 0.576191
Si Si5 0.856035 0.297683 0.905242
Si Si6 0.703157 0.439310 0.622667
Si Si7 0.664513 0.562385 0.410419
O O1 0.417573 0.846604 0.264156
O O2 0.294164 0.789917 0.355515
O O3 0.255993 0.896596 0.362771
O O4 0.099500 0.849145 0.199630
O O5 0.177386 0.196421 0.909911
O O6 0.883609 0.235725 0.889568
O O7 0.000000 0.153589 0.000000
O O8 0.731138 0.187694 0.360768
O O9 0.626106 0.167790 0.178061
O O10 0.658584 0.091414 0.292207
O O11 0.250000 0.250000 0.500000
O O12 0.000000 0.221602 0.500000
O O13 0.000000 0.320171 0.000000
O O14 0.723650 0.500000 0.654474
O O15 0.524637 0.420285 0.617839
O O16 0.741312 0.431217 0.525999
O O17 0.683147 0.500000 0.382104
#
# Coordination Sequence:
#
# PCOD8114812 Si02
#       7
#     8   8   8   8   8   8   8
#     4  12  24  38  57  86 117 156 196 235 292 346
#     4  11  22  38  59  83 116 151 191 240 287 347
#     4  12  24  37  59  85 116 156 195 239 287 347
#     4  12  26  38  51  80 121 156 193 233 282 341
#     4  11  22  38  59  84 114 151 193 239 288 345
#     4   9  20  38  59  84 113 154 200 241 287 339
#     4   9  20  38  60  83 114 154 198 243 287 339
#
# _framework density 18.526865999999998
#
# number of rings (size 3 to 8) (size 9 to 14) (size 15 to 20)
#    0.000    1.143    2.857    6.000    6.000    0.571 
#    0.000    1.429    0.000    0.857    0.000    0.000 
#    0.000    0.000    0.000    0.000    0.000    0.000 
#
# Total GULP energy -346889.612487 kJ/mol
# GULP energy per Si atom -12388.914732 kJ/mol
# Density = 1.848470 g / cm^3
# Si number density = 18.526866 Si / 1000 Ang^3
#
#
#
# Elastic Constant Matrix: (Units=GPa)
#
#
# Indices 1 2 3 4 5 6 
#
# 1 117.3705 23.6130 28.5514 0.0000 -4.0160 0.0000
# 2 23.6130 45.1798 21.4738 0.0000 2.1284 0.0000
# 3 28.5514 21.4738 98.7981 0.0000 1.8081 0.0000
# 4 0.0000 0.0000 0.0000 25.0364 0.0000 0.4688
# 5 -4.0160 2.1284 1.8081 0.0000 35.9628 0.0000
# 6 0.0000 0.0000 0.0000 0.4688 0.0000 25.5294
#
#
#
# Elastic Compliance Matrix: (Units=1/GPa)
#
#
# Indices 1 2 3 4 5 6 
#
# 1 0.009915 -0.004323 -0.001952 0.000000 0.001461 0.000000
# 2 -0.004323 0.026620 -0.004503 0.000000 -0.001832 0.000000
# 3 -0.001952 -0.004503 0.011674 0.000000 -0.000538 0.000000
# 4 0.000000 0.000000 0.000000 0.039956 0.000000 -0.000734
# 5 0.001461 -0.001832 -0.000538 0.000000 0.028105 0.000000
# 6 0.000000 0.000000 0.000000 -0.000734 0.000000 0.039184
#
#
# Mechanical properties :
#
#
# Convention : Reuss Voigt Hill
#
# Bulk Modulus (GPa) = 37.52010 45.40277 41.46144
# Shear Modulus (GPa) = 26.89706 29.81972 28.35839
#
# Velocity S-wave (km/s) = 3.81437 4.01626 3.91661
# Velocity P-wave (km/s) = 6.30039 6.78725 6.54834
#
# Compressibility (1/GPa) = 0.02665238
#
# Stress axis : x y z
#
# Youngs Moduli (GPa) = 100.86118 37.56632 85.65705
#
# Poissons Ratio (x) = 0.16239 0.16724
# Poissons Ratio (y) = 0.43599 0.38572
# Poissons Ratio (z) = 0.19692 0.16916
#
# Static dielectric constant tensor:
#      x y z
#    x 3.545120 0.000000 -0.038550 
#    y 0.000000 3.261730 0.000000 
#    z -0.038550 0.000000 3.711470 
# 
# 
# High freq. dielectric constant tensor:
#      x y z
#    x 1.737050 0.000000 -0.002740 
#    y 0.000000 1.696360 0.000000 
#    z -0.002740 0.000000 1.724010 
# 
# From -- ./inp_files/199920.got.cif
#   From: 2010.06.25/outbox.cif.g09.slc.cpg/sg12_100_cif.got.tgz:199920.got - 2010.06.28 00:19:55.
