data_PCOD8114784
_publ_section_title
;
Structure prediction by ZEFSAII (Michael W. Deem and Ramdas Pophale) SiO2 
 PCOD8114784
Probable space group: C 2/M
;
_chemical_formula_sum "Si O2"
_cell_formula_units_Z 56
_cell_length_a 26.258140
_cell_length_b 13.836800
_cell_length_c 8.826696
_cell_angle_alpha 90.000000
_cell_angle_beta 58.889019
_cell_angle_gamma 90.000000
_cell_volume 2745.723629
_symmetry_space_group_name_H-M "C 2/M"
_symmetry_group_IT_number 12
_symmetry_cell_setting 'monoclinic'
loop_
_space_group_symop_operation_xyz
x,y,z
-x,y,-z
-x,-y,-z
x,-y,z
1/2+x,1/2+y,z
1/2-x,1/2+y,-z
1/2-x,1/2-y,-z
1/2+x,1/2-y,z
loop_
_atom_site_type_symbol
_atom_site_label
_atom_site_fract_x
_atom_site_fract_y
_atom_site_fract_z
Si Si1 0.348169 0.892057 0.945599
Si Si2 0.561567 0.612365 0.585710
Si Si3 0.696267 0.109348 0.306125
Si Si4 0.936177 0.610350 0.061001
Si Si5 0.354228 0.245989 0.370152
Si Si6 0.425854 0.611965 0.782002
Si Si7 0.814968 0.201785 0.119351
O O1 0.414236 0.878550 0.919120
O O2 0.303021 0.812133 0.082599
O O3 0.324014 0.000000 0.023097
O O4 0.350902 0.881028 0.759253
O O5 0.571818 0.500000 0.604743
O O6 0.602451 0.673838 0.631468
O O7 0.493060 0.639736 0.725688
O O8 0.580812 0.635883 0.384785
O O9 0.685521 0.194516 0.442034
O O10 0.763212 0.130158 0.141320
O O11 0.693273 0.000000 0.377295
O O12 0.938520 0.500000 0.108610
O O13 0.889051 0.659026 0.241222
O O14 0.000000 0.658239 0.000000
O O15 0.315345 0.300199 0.302097
O O16 0.413819 0.500000 0.832340
O O17 0.379062 0.672460 0.952213
#
# Coordination Sequence:
#
# PCOD8114784 Si02
#       7
#     8   8   8   8   8   8   8
#     4   9  20  37  59  85 116 152 197 244 291 344
#     4   9  20  37  58  85 121 151 188 243 304 358
#     4  11  23  41  59  84 119 159 204 250 289 343
#     4   9  19  37  59  84 115 150 193 242 296 354
#     4  11  23  36  57  85 121 153 196 239 307 342
#     4   9  19  38  60  85 115 154 195 245 297 352
#     4  11  22  37  62  86 117 157 202 241 294 350
#
# _framework density 20.395353
#
# number of rings (size 3 to 8) (size 9 to 14) (size 15 to 20)
#    0.000    2.143    0.000    3.429    4.000    1.714 
#    0.000    3.571    0.000    3.429    0.000    0.000 
#    0.000    0.000    0.000    0.000    0.000    0.000 
#
# Total GULP energy -347040.926685 kJ/mol
# GULP energy per Si atom -12394.318810 kJ/mol
# Density = 2.034893 g / cm^3
# Si number density = 20.395353 Si / 1000 Ang^3
#
#
#
# Elastic Constant Matrix: (Units=GPa)
#
#
# Indices 1 2 3 4 5 6 
#
# 1 106.6609 45.3289 45.4260 0.0000 9.5236 0.0000
# 2 45.3289 85.3069 34.9143 0.0000 6.8805 0.0000
# 3 45.4260 34.9143 84.8061 0.0000 6.2594 0.0000
# 4 0.0000 0.0000 0.0000 22.1242 0.0000 0.5092
# 5 9.5236 6.8805 6.2594 0.0000 28.5149 0.0000
# 6 0.0000 0.0000 0.0000 0.5092 0.0000 33.0896
#
#
#
# Elastic Compliance Matrix: (Units=1/GPa)
#
#
# Indices 1 2 3 4 5 6 
#
# 1 0.013969 -0.005105 -0.005212 0.000000 -0.002290 0.000000
# 2 -0.005105 0.016096 -0.003793 0.000000 -0.001346 0.000000
# 3 -0.005212 -0.003793 0.016211 0.000000 -0.000903 0.000000
# 4 0.000000 0.000000 0.000000 0.045215 0.000000 -0.000696
# 5 -0.002290 -0.001346 -0.000903 0.000000 0.036357 0.000000
# 6 0.000000 0.000000 0.000000 -0.000696 0.000000 0.030232
#
#
# Mechanical properties :
#
#
# Convention : Reuss Voigt Hill
#
# Bulk Modulus (GPa) = 55.37928 58.67914 57.02921
# Shear Modulus (GPa) = 25.99852 26.81939 26.40896
#
# Velocity S-wave (km/s) = 3.57421 3.63019 3.60231
# Velocity P-wave (km/s) = 6.65170 6.81207 6.73236
#
# Compressibility (1/GPa) = 0.01805729
#
# Stress axis : x y z
#
# Youngs Moduli (GPa) = 71.58645 62.12786 61.68494
#
# Poissons Ratio (x) = 0.31716 0.32149
# Poissons Ratio (y) = 0.36544 0.23396
# Poissons Ratio (z) = 0.37310 0.23564
#
# Static dielectric constant tensor:
#      x y z
#    x 3.902710 0.000000 0.183460 
#    y 0.000000 3.789870 0.000000 
#    z 0.183460 0.000000 3.468250 
# 
# 
# High freq. dielectric constant tensor:
#      x y z
#    x 1.802720 0.000000 0.012540 
#    y 0.000000 1.810800 0.000000 
#    z 0.012540 0.000000 1.771820 
# 
# From -- ./inp_files/96790.got.cif
#   From: 2010.06.25/outbox.cif.g09.slc.cpg/sg12_49_cif.got.tgz:96790.got - 2010.06.28 00:19:55.
