data_PCOD8114516
_publ_section_title
;
Structure prediction by ZEFSAII (Michael W. Deem and Ramdas Pophale) SiO2 
 PCOD8114516
Probable space group: C 2/M
;
_chemical_formula_sum "Si O2"
_cell_formula_units_Z 48
_cell_length_a 14.060239
_cell_length_b 18.405287
_cell_length_c 14.202569
_cell_angle_alpha 90.000000
_cell_angle_beta 139.420342
_cell_angle_gamma 90.000000
_cell_volume 2390.851392
_symmetry_space_group_name_H-M "C 2/M"
_symmetry_group_IT_number 12
_symmetry_cell_setting 'monoclinic'
loop_
_space_group_symop_operation_xyz
x,y,z
-x,y,-z
-x,-y,-z
x,-y,z
1/2+x,1/2+y,z
1/2-x,1/2+y,-z
1/2-x,1/2-y,-z
1/2+x,1/2-y,z
loop_
_atom_site_type_symbol
_atom_site_label
_atom_site_fract_x
_atom_site_fract_y
_atom_site_fract_z
Si Si1 0.909336 0.307687 0.674283
Si Si2 0.084870 0.083222 0.655228
Si Si3 0.158202 0.307066 0.157986
Si Si4 0.735946 0.193212 0.906313
Si Si5 0.137221 0.144612 0.374810
Si Si6 0.518960 0.582503 0.903990
O O1 0.853467 0.300436 0.738837
O O2 0.910721 0.226248 0.634278
O O3 0.804743 0.362210 0.536184
O O4 0.071646 0.338175 0.780482
O O5 0.229368 0.129613 0.784171
O O6 0.000000 0.113184 0.500000
O O7 0.971898 0.089177 0.655963
O O8 0.133411 0.000000 0.678033
O O9 0.212187 0.230903 0.152432
O O10 0.000000 0.328984 0.000000
O O11 0.750000 0.250000 0.000000
O O12 0.833270 0.124918 0.009244
O O13 0.118440 0.122956 0.250619
O O14 0.532625 0.500000 0.878970
O O15 0.500000 0.586454 0.000000
#
# Coordination Sequence:
#
# PCOD8114516 Si02
#       6
#     8   8   8   8   8   8
#     4  11  23  36  63  96 126 160 216 269 320 374
#     4  11  23  40  60  88 131 174 208 252 316 387
#     4  12  22  38  62  93 131 166 214 267 317 374
#     4  12  21  39  65  97 129 167 213 275 321 375
#     4  11  21  41  61  92 125 164 214 264 320 378
#     4  11  24  44  67  92 126 173 218 261 328 397
#
# _framework density 20.076530000000002
#
# number of rings (size 3 to 8) (size 9 to 14) (size 15 to 20)
#    0.000    0.667    6.667    2.000    0.000    0.333 
#    0.000    5.000    0.000    2.000    0.000    0.000 
#    0.000    0.000    0.000    0.000    0.000    0.000 
#
# Total GULP energy -297606.416029 kJ/mol
# GULP energy per Si atom -12400.267335 kJ/mol
# Density = 2.003084 g / cm^3
# Si number density = 20.076530 Si / 1000 Ang^3
#
#
#
# Elastic Constant Matrix: (Units=GPa)
#
#
# Indices 1 2 3 4 5 6 
#
# 1 83.8496 29.9302 65.5761 0.0000 10.8723 0.0000
# 2 29.9302 92.8355 50.8133 0.0000 12.8335 0.0000
# 3 65.5761 50.8133 168.3116 0.0000 16.0780 0.0000
# 4 0.0000 0.0000 0.0000 26.8449 0.0000 -4.1788
# 5 10.8723 12.8335 16.0780 0.0000 40.2034 0.0000
# 6 0.0000 0.0000 0.0000 -4.1788 0.0000 23.9622
#
#
#
# Elastic Compliance Matrix: (Units=1/GPa)
#
#
# Indices 1 2 3 4 5 6 
#
# 1 0.017655 -0.002137 -0.006075 0.000000 -0.001663 0.000000
# 2 -0.002137 0.013443 -0.002985 0.000000 -0.002519 0.000000
# 3 -0.006075 -0.002985 0.009317 0.000000 -0.001130 0.000000
# 4 0.000000 0.000000 0.000000 0.038291 0.000000 0.006678
# 5 -0.001663 -0.002519 -0.001130 0.000000 0.026580 0.000000
# 6 0.000000 0.000000 0.000000 0.006678 0.000000 0.042897
#
#
# Mechanical properties :
#
#
# Convention : Reuss Voigt Hill
#
# Bulk Modulus (GPa) = 55.48863 70.84844 63.16853
# Shear Modulus (GPa) = 28.31514 31.44723 29.88118
#
# Velocity S-wave (km/s) = 3.75955 3.96203 3.86212
# Velocity P-wave (km/s) = 6.82233 7.50307 7.17078
#
# Compressibility (1/GPa) = 0.01802171
#
# Stress axis : x y z
#
# Youngs Moduli (GPa) = 56.63978 74.38846 107.32740
#
# Poissons Ratio (x) = 0.15899 0.65198
# Poissons Ratio (y) = 0.12105 0.32038
# Poissons Ratio (z) = 0.34407 0.22205
#
# Static dielectric constant tensor:
#      x y z
#    x 3.282640 0.000000 -0.319900 
#    y 0.000000 3.619070 0.000000 
#    z -0.319900 0.000000 3.860350 
# 
# 
# High freq. dielectric constant tensor:
#      x y z
#    x 1.781480 0.000000 -0.008680 
#    y 0.000000 1.764390 0.000000 
#    z -0.008680 0.000000 1.801470 
# 
# From -- ./inp_files/216492.got.cif
#   From: 2010.06.25/outbox.cif.g09.slc.cpg/sg12_109_cif.got.tgz:216492.got - 2010.06.28 00:19:55.
