data_PCOD8114635
_publ_section_title
;
Structure prediction by ZEFSAII (Michael W. Deem and Ramdas Pophale) SiO2 
 PCOD8114635
Probable space group: C 2/M
;
_chemical_formula_sum "Si O2"
_cell_formula_units_Z 48
_cell_length_a 16.009903
_cell_length_b 17.346161
_cell_length_c 15.883509
_cell_angle_alpha 90.000000
_cell_angle_beta 36.781453
_cell_angle_gamma 90.000000
_cell_volume 2641.158552
_symmetry_space_group_name_H-M "C 2/M"
_symmetry_group_IT_number 12
_symmetry_cell_setting 'monoclinic'
loop_
_space_group_symop_operation_xyz
x,y,z
-x,y,-z
-x,-y,-z
x,-y,z
1/2+x,1/2+y,z
1/2-x,1/2+y,-z
1/2-x,1/2-y,-z
1/2+x,1/2-y,z
loop_
_atom_site_type_symbol
_atom_site_label
_atom_site_fract_x
_atom_site_fract_y
_atom_site_fract_z
Si Si1 0.023640 0.908348 0.744481
Si Si2 0.100803 0.591199 0.295205
Si Si3 0.304604 0.909078 0.598944
Si Si4 0.737643 0.840052 0.022950
Si Si5 0.364191 0.908634 0.061899
Si Si6 0.431988 0.408762 0.638364
O O1 0.164594 0.873365 0.671142
O O2 0.016764 0.881572 0.652504
O O3 0.018478 0.000000 0.755535
O O4 0.891180 0.876671 0.901815
O O5 0.112539 0.500000 0.266324
O O6 0.185635 0.613748 0.311003
O O7 0.163068 0.641748 0.170592
O O8 0.940482 0.617758 0.437303
O O9 0.298286 0.000000 0.597109
O O10 0.750000 0.750000 0.000000
O O11 0.641719 0.874670 0.026731
O O12 0.228661 0.882179 0.224352
O O13 0.370143 0.000000 0.047905
O O14 0.500000 0.876408 0.000000
O O15 0.500000 0.370690 0.500000
O O16 0.439064 0.500000 0.625415
#
# Coordination Sequence:
#
# PCOD8114635 Si02
#       6
#     8   8   8   8   8   8
#     4   9  17  32  53  78 105 132 172 221 262 307
#     4   9  17  33  56  79 104 134 173 219 262 310
#     4   8  16  31  55  84 103 125 170 223 269 309
#     4  11  22  35  49  73 110 143 176 210 262 320
#     4   9  18  34  54  73  96 129 176 222 258 299
#     4   8  14  25  45  72  99 124 156 206 257 295
#
# _framework density 18.173843000000002
#
# number of rings (size 3 to 8) (size 9 to 14) (size 15 to 20)
#    0.000    3.000    0.000    3.500    0.000    2.000 
#    3.000    8.333   14.667    0.000    0.000    0.000 
#    0.000    0.000    0.000    0.000    0.000    0.000 
#
# Total GULP energy -297512.915946 kJ/mol
# GULP energy per Si atom -12396.371498 kJ/mol
# Density = 1.813248 g / cm^3
# Si number density = 18.173843 Si / 1000 Ang^3
#
#
#
# Elastic Constant Matrix: (Units=GPa)
#
#
# Indices 1 2 3 4 5 6 
#
# 1 173.6859 30.5842 104.7189 0.0004 -18.8049 -0.0001
# 2 30.5842 40.3049 35.6642 -0.0004 3.3565 0.0001
# 3 104.7189 35.6642 154.7914 0.0001 14.5326 0.0000
# 4 0.0004 -0.0004 0.0001 10.3646 0.0002 2.3519
# 5 -18.8049 3.3565 14.5326 0.0002 35.1625 -0.0001
# 6 -0.0001 0.0001 0.0000 2.3519 -0.0001 7.1511
#
#
#
# Elastic Compliance Matrix: (Units=1/GPa)
#
#
# Indices 1 2 3 4 5 6 
#
# 1 0.012941 -0.002607 -0.009183 -0.000001 0.010965 0.000001
# 2 -0.002607 0.031690 -0.005330 0.000001 -0.002216 -0.000001
# 3 -0.009183 -0.005330 0.014892 0.000000 -0.010557 0.000000
# 4 -0.000001 0.000001 0.000000 0.104263 -0.000001 -0.034291
# 5 0.010965 -0.002216 -0.010557 -0.000001 0.038878 0.000001
# 6 0.000001 -0.000001 0.000000 -0.034291 0.000001 0.151117
#
#
# Mechanical properties :
#
#
# Convention : Reuss Voigt Hill
#
# Bulk Modulus (GPa) = 39.55281 78.96853 59.26067
# Shear Modulus (GPa) = 12.61199 23.72328 18.16764
#
# Velocity S-wave (km/s) = 2.63718 3.61689 3.16517
# Velocity P-wave (km/s) = 5.57528 7.80952 6.78500
#
# Compressibility (1/GPa) = 0.02528266
#
# Stress axis : x y z
#
# Youngs Moduli (GPa) = 77.27671 31.55607 67.14949
#
# Poissons Ratio (x) = 0.08226 0.61666
# Poissons Ratio (y) = 0.20144 0.35789
# Poissons Ratio (z) = 0.70966 0.16819
#
# Static dielectric constant tensor:
#      x y z
#    x 3.865630 0.000000 -0.185470 
#    y 0.000000 2.889520 0.000000 
#    z -0.185470 0.000000 3.557550 
# 
# 
# High freq. dielectric constant tensor:
#      x y z
#    x 1.711830 0.000000 -0.000820 
#    y 0.000000 1.658340 0.000000 
#    z -0.000820 0.000000 1.709380 
# 
# From -- ./inp_files/87713.got.cif
#   From: 2010.06.25/outbox.cif.g09.slc.cpg/sg12_44_cif.got.tgz:87713.got - 2010.06.28 00:19:55.
