data_PCOD8114536
_publ_section_title
;
Structure prediction by ZEFSAII (Michael W. Deem and Ramdas Pophale) SiO2 
 PCOD8114536
Probable space group: C 2/M
;
_chemical_formula_sum "Si O2"
_cell_formula_units_Z 64
_cell_length_a 13.325750
_cell_length_b 20.518310
_cell_length_c 26.735259
_cell_angle_alpha 90.000000
_cell_angle_beta 157.905634
_cell_angle_gamma 90.000000
_cell_volume 2749.535048
_symmetry_space_group_name_H-M "C 2/M"
_symmetry_group_IT_number 12
_symmetry_cell_setting 'monoclinic'
loop_
_space_group_symop_operation_xyz
x,y,z
-x,y,-z
-x,-y,-z
x,-y,z
1/2+x,1/2+y,z
1/2-x,1/2+y,-z
1/2-x,1/2-y,-z
1/2+x,1/2-y,z
loop_
_atom_site_type_symbol
_atom_site_label
_atom_site_fract_x
_atom_site_fract_y
_atom_site_fract_z
Si Si1 0.472962 0.750925 0.546479
Si Si2 0.004664 0.072633 0.823023
Si Si3 0.629640 0.319466 0.959111
Si Si4 0.900686 0.347078 0.755899
Si Si5 0.646724 0.572597 0.715972
Si Si6 0.235432 0.156012 0.847444
Si Si7 0.455250 0.790887 0.275546
Si Si8 0.543923 0.099148 0.461973
O O1 0.500000 0.737054 0.500000
O O2 0.710697 0.713768 0.685318
O O3 0.491956 0.825802 0.567203
O O4 0.174157 0.721475 0.421091
O O5 0.683895 0.065581 0.677446
O O6 0.144979 0.124312 0.924465
O O7 0.063472 0.099789 0.794570
O O8 0.127757 0.000000 0.888080
O O9 0.321993 0.312024 0.830011
O O10 0.750000 0.250000 0.000000
O O11 0.800087 0.343237 0.084741
O O12 0.746503 0.410778 0.705636
O O13 0.939601 0.347087 0.713877
O O14 0.744214 0.500000 0.774104
O O15 0.794693 0.625912 0.819943
O O16 0.328243 0.574977 0.573943
O O17 0.067450 0.222549 0.765885
O O18 0.500000 0.173031 0.000000
O O19 0.500000 0.082140 0.500000
#
# Coordination Sequence:
#
# PCOD8114536 Si02
#       8
#     8   8   8   8   8   8   8   8
#     4   9  19  38  67  98 129 164 218 280 337 388
#     4  12  26  42  64  97 139 179 222 275 341 418
#     4  12  25  42  68 102 135 177 226 283 340 403
#     4  11  24  41  65  97 132 174 220 275 336 393
#     4  12  26  41  62  94 135 179 224 268 329 410
#     4  12  23  40  66  95 133 174 218 275 342 402
#     4  11  22  44  70  99 133 170 225 285 338 391
#     4  11  21  41  67  96 131 176 225 277 339 403
#
# _framework density 23.276662000000002
#
# number of rings (size 3 to 8) (size 9 to 14) (size 15 to 20)
#    0.000    0.750    2.500    7.125    1.750    3.500 
#    0.000    0.625    0.000    4.875    0.000    0.000 
#    0.000    0.000    0.000    0.000    0.000    0.000 
#
# Total GULP energy -396724.026511 kJ/mol
# GULP energy per Si atom -12397.625828 kJ/mol
# Density = 2.322368 g / cm^3
# Si number density = 23.276662 Si / 1000 Ang^3
#
#
#
# Elastic Constant Matrix: (Units=GPa)
#
#
# Indices 1 2 3 4 5 6 
#
# 1 66.1450 35.3734 12.8500 -0.0145 15.3455 0.0330
# 2 35.3734 101.3149 17.3084 0.0117 -7.6347 0.0109
# 3 12.8500 17.3084 121.1256 0.2018 3.2402 -0.0184
# 4 -0.0145 0.0117 0.2018 12.8503 -0.0086 -9.2241
# 5 15.3455 -7.6347 3.2402 -0.0086 38.8662 -0.0109
# 6 0.0330 0.0109 -0.0184 -9.2241 -0.0109 14.6153
#
#
#
# Elastic Compliance Matrix: (Units=1/GPa)
#
#
# Indices 1 2 3 4 5 6 
#
# 1 0.022155 -0.008362 -0.000879 0.000004 -0.010317 -0.000050
# 2 -0.008362 0.013450 -0.001196 0.000017 0.006043 0.000023
# 3 -0.000879 -0.001196 0.008537 -0.000228 -0.000600 -0.000131
# 4 0.000004 0.000017 -0.000228 0.142280 0.000078 0.089796
# 5 -0.010317 0.006043 -0.000600 0.000078 0.031040 0.000090
# 6 -0.000050 0.000023 -0.000131 0.089796 0.000090 0.125094
#
#
# Mechanical properties :
#
#
# Convention : Reuss Voigt Hill
#
# Bulk Modulus (GPa) = 42.98401 46.62767 44.80584
# Shear Modulus (GPa) = 13.47033 28.13662 20.80347
#
# Velocity S-wave (km/s) = 2.40824 3.48054 2.99281
# Velocity P-wave (km/s) = 5.12245 6.01894 5.58870
#
# Compressibility (1/GPa) = 0.02326447
#
# Stress axis : x y z
#
# Youngs Moduli (GPa) = 45.13713 74.35119 117.14320
#
# Poissons Ratio (x) = 0.62175 0.10302
# Poissons Ratio (y) = 0.37745 0.14016
# Poissons Ratio (z) = 0.03970 0.08896
#
# Static dielectric constant tensor:
#      x y z
#    x 4.139170 0.000000 0.200550 
#    y 0.000000 3.990390 -0.000210 
#    z 0.200550 -0.000210 4.590050 
# 
# 
# High freq. dielectric constant tensor:
#      x y z
#    x 1.908500 0.000000 0.013300 
#    y 0.000000 1.894230 -0.000020 
#    z 0.013300 -0.000020 1.947040 
# 
# From -- ./inp_files/377112.got.cif
#   From: 2010.06.25/outbox.cif.g09.slc.cpg/sg12_189_cif.got.tgz:377112.got - 2010.06.28 00:19:55.
