data_PCOD8114383
_publ_section_title
;
Structure prediction by ZEFSAII (Michael W. Deem and Ramdas Pophale) SiO2 
 PCOD8114383
Probable space group: C 2/M
;
_chemical_formula_sum "Si O2"
_cell_formula_units_Z 56
_cell_length_a 8.790017
_cell_length_b 16.915544
_cell_length_c 18.910725
_cell_angle_alpha 90.000000
_cell_angle_beta 71.630328
_cell_angle_gamma 90.000000
_cell_volume 2668.515532
_symmetry_space_group_name_H-M "C 2/M"
_symmetry_group_IT_number 12
_symmetry_cell_setting 'monoclinic'
loop_
_space_group_symop_operation_xyz
x,y,z
-x,y,-z
-x,-y,-z
x,-y,z
1/2+x,1/2+y,z
1/2-x,1/2+y,-z
1/2-x,1/2-y,-z
1/2+x,1/2-y,z
loop_
_atom_site_type_symbol
_atom_site_label
_atom_site_fract_x
_atom_site_fract_y
_atom_site_fract_z
Si Si1 0.070784 0.088061 0.282743
Si Si2 0.259459 0.141861 0.715203
Si Si3 0.969781 0.679770 0.426049
Si Si4 0.185436 0.703035 0.804542
Si Si5 0.172487 0.799700 0.949747
Si Si6 0.612656 0.910090 0.161062
Si Si7 0.113334 0.150729 0.425178
O O1 0.157005 0.148049 0.215686
O O2 0.136164 0.096768 0.353037
O O3 0.881563 0.102848 0.309151
O O4 0.111266 0.000000 0.251217
O O5 0.420358 0.133456 0.645902
O O6 0.211741 0.232749 0.738967
O O7 0.282345 0.092080 0.783372
O O8 0.017393 0.771187 0.416249
O O9 0.000000 0.644674 0.500000
O O10 0.784898 0.671303 0.432862
O O11 0.158262 0.743827 0.883480
O O12 0.036744 0.648000 0.805564
O O13 0.279320 0.877098 0.918992
O O14 0.250000 0.750000 0.000000
O O15 0.000000 0.830083 0.000000
O O16 0.559870 0.000000 0.151620
O O17 0.000000 0.107229 0.500000
#
# Coordination Sequence:
#
# PCOD8114383 Si02
#       7
#     8   8   8   8   8   8   8
#     4  12  25  40  62  95 133 170 212 265 322 377
#     4  11  22  40  65  94 125 171 218 264 312 380
#     4  11  21  37  65  94 122 164 220 276 314 371
#     4  11  23  41  68  91 127 171 214 256 313 380
#     4  11  23  44  70  97 125 165 209 255 308 379
#     4  11  24  42  65  96 131 166 208 262 317 372
#     4  11  22  38  61  93 128 167 214 269 326 376
#
# _framework density 20.985451000000001
#
# number of rings (size 3 to 8) (size 9 to 14) (size 15 to 20)
#    0.000    0.857    2.857    6.857    2.000    0.571 
#    0.000    2.857    0.000    3.000    0.000    0.000 
#    0.000    0.000    0.000    0.000    0.000    0.000 
#
# Total GULP energy -347300.212380 kJ/mol
# GULP energy per Si atom -12403.579014 kJ/mol
# Density = 2.093769 g / cm^3
# Si number density = 20.985451 Si / 1000 Ang^3
#
#
#
# Elastic Constant Matrix: (Units=GPa)
#
#
# Indices 1 2 3 4 5 6 
#
# 1 129.0250 28.0999 31.4472 0.0000 -8.7232 0.0000
# 2 28.0999 103.2013 28.0600 0.0000 -2.8048 0.0000
# 3 31.4472 28.0600 109.3123 0.0000 -12.1270 0.0000
# 4 0.0000 0.0000 0.0000 14.3074 0.0000 1.1692
# 5 -8.7232 -2.8048 -12.1270 0.0000 43.5004 0.0000
# 6 0.0000 0.0000 0.0000 1.1692 0.0000 21.1024
#
#
#
# Elastic Compliance Matrix: (Units=1/GPa)
#
#
# Indices 1 2 3 4 5 6 
#
# 1 0.008686 -0.001816 -0.001912 0.000000 0.001092 0.000000
# 2 -0.001816 0.010797 -0.002283 0.000000 -0.000304 0.000000
# 3 -0.001912 -0.002283 0.010551 0.000000 0.002411 0.000000
# 4 0.000000 0.000000 0.000000 0.070212 0.000000 -0.003890
# 5 0.001092 -0.000304 0.002411 0.000000 0.023860 0.000000
# 6 0.000000 0.000000 0.000000 -0.003890 0.000000 0.047604
#
#
# Mechanical properties :
#
#
# Convention : Reuss Voigt Hill
#
# Bulk Modulus (GPa) = 55.51321 57.41697 56.46509
# Shear Modulus (GPa) = 26.35281 32.71082 29.53181
#
# Velocity S-wave (km/s) = 3.54752 3.95237 3.75541
# Velocity P-wave (km/s) = 6.57955 6.94608 6.76530
#
# Compressibility (1/GPa) = 0.01801373
#
# Stress axis : x y z
#
# Youngs Moduli (GPa) = 115.13391 92.62200 94.77326
#
# Poissons Ratio (x) = 0.16816 0.18116
# Poissons Ratio (y) = 0.20903 0.21636
# Poissons Ratio (z) = 0.22008 0.21145
#
# Static dielectric constant tensor:
#      x y z
#    x 3.888110 0.000000 -0.132730 
#    y 0.000000 3.626290 0.000000 
#    z -0.132730 0.000000 3.716110 
# 
# 
# High freq. dielectric constant tensor:
#      x y z
#    x 1.836280 0.000000 -0.008250 
#    y 0.000000 1.797530 0.000000 
#    z -0.008250 0.000000 1.830030 
# 
# From -- ./inp_files/257048.got.cif
#   From: 2010.06.25/outbox.cif.g09.slc.cpg/sg12_129_cif.got.tgz:257048.got - 2010.06.28 00:19:55.
