data_PCOD8114608
_publ_section_title
;
Structure prediction by ZEFSAII (Michael W. Deem and Ramdas Pophale) SiO2 
 PCOD8114608
Probable space group: C 2/M
;
_chemical_formula_sum "Si O2"
_cell_formula_units_Z 48
_cell_length_a 30.776064
_cell_length_b 8.700337
_cell_length_c 9.536795
_cell_angle_alpha 90.000000
_cell_angle_beta 90.596529
_cell_angle_gamma 90.000000
_cell_volume 2553.454127
_symmetry_space_group_name_H-M "C 2/M"
_symmetry_group_IT_number 12
_symmetry_cell_setting 'monoclinic'
loop_
_space_group_symop_operation_xyz
x,y,z
-x,y,-z
-x,-y,-z
x,-y,z
1/2+x,1/2+y,z
1/2-x,1/2+y,-z
1/2-x,1/2-y,-z
1/2+x,1/2-y,z
loop_
_atom_site_type_symbol
_atom_site_label
_atom_site_fract_x
_atom_site_fract_y
_atom_site_fract_z
Si Si1 0.424964 0.681372 0.150840
Si Si2 0.822992 0.817564 0.852025
Si Si3 0.826849 0.819335 0.169537
Si Si4 0.497709 0.316265 0.657277
Si Si5 0.419091 0.316807 0.839255
Si Si6 0.253246 0.818685 0.346977
O O1 0.430527 0.500000 0.146099
O O2 0.376885 0.723001 0.203762
O O3 0.461096 0.751226 0.256057
O O4 0.432263 0.745723 0.993836
O O5 0.870321 0.758953 0.800690
O O6 0.785852 0.749639 0.749667
O O7 0.822331 0.000000 0.848927
O O8 0.814626 0.764338 0.011813
O O9 0.798804 0.726174 0.279938
O O10 0.818353 0.000000 0.188129
O O11 0.500000 0.251221 0.500000
O O12 0.498421 0.500000 0.657036
O O13 0.453330 0.254152 0.726681
O O14 0.419585 0.500000 0.842030
O O15 0.250000 0.750000 0.500000
O O16 0.249361 0.000000 0.357789
#
# Coordination Sequence:
#
# PCOD8114608 Si02
#       6
#     8   8   8   8   8   8
#     4   8  14  24  39  59  84 116 149 183 225 270
#     4   8  16  30  48  68  90 121 158 197 238 277
#     4   9  17  32  52  71  92 120 157 197 236 276
#     4   9  15  20  30  54  88 122 151 179 216 266
#     4   8  13  23  38  56  83 117 150 184 226 272
#     4  11  22  34  48  69  97 126 156 190 233 281
#
# _framework density 18.798065999999999
#
# number of rings (size 3 to 8) (size 9 to 14) (size 15 to 20)
#    0.000    3.167    0.000    3.500    0.000    3.333 
#    0.000    5.833    0.000    0.000    0.000    0.000 
#    0.000   18.000    0.000    0.000    0.000    0.000 
#
# Total GULP energy -297469.853910 kJ/mol
# GULP energy per Si atom -12394.577246 kJ/mol
# Density = 1.875528 g / cm^3
# Si number density = 18.798066 Si / 1000 Ang^3
#
#
#
# Elastic Constant Matrix: (Units=GPa)
#
#
# Indices 1 2 3 4 5 6 
#
# 1 138.9049 16.0522 87.4196 0.0000 -17.9125 0.0000
# 2 16.0522 18.6833 16.8935 0.0000 -2.8620 0.0000
# 3 87.4196 16.8935 140.9574 0.0000 -18.6270 0.0000
# 4 0.0000 0.0000 0.0000 15.6556 0.0000 -2.8030
# 5 -17.9125 -2.8620 -18.6270 0.0000 26.1317 0.0000
# 6 0.0000 0.0000 0.0000 -2.8030 0.0000 16.3720
#
#
#
# Elastic Compliance Matrix: (Units=1/GPa)
#
#
# Indices 1 2 3 4 5 6 
#
# 1 0.012312 -0.003999 -0.006733 0.000000 0.003202 0.000000
# 2 -0.003999 0.061389 -0.004803 0.000000 0.000558 0.000000
# 3 -0.006733 -0.004803 0.012328 0.000000 0.003646 0.000000
# 4 0.000000 0.000000 0.000000 0.065895 0.000000 0.011282
# 5 0.003202 0.000558 0.003646 0.000000 0.043122 0.000000
# 6 0.000000 0.000000 0.000000 0.011282 0.000000 0.063012
#
#
# Mechanical properties :
#
#
# Convention : Reuss Voigt Hill
#
# Bulk Modulus (GPa) = 18.19621 59.91957 39.05789
# Shear Modulus (GPa) = 16.26298 23.51053 19.88676
#
# Velocity S-wave (km/s) = 2.94452 3.54034 3.25609
# Velocity P-wave (km/s) = 4.61098 6.97543 5.91260
#
# Compressibility (1/GPa) = 0.05495649
#
# Stress axis : x y z
#
# Youngs Moduli (GPa) = 81.22342 16.28969 81.11906
#
# Poissons Ratio (x) = 0.06515 0.54618
# Poissons Ratio (y) = 0.32484 0.38963
# Poissons Ratio (z) = 0.54689 0.07824
#
# Static dielectric constant tensor:
#      x y z
#    x 3.858630 0.000000 0.149850 
#    y 0.000000 2.722130 0.000000 
#    z 0.149850 0.000000 3.658340 
# 
# 
# High freq. dielectric constant tensor:
#      x y z
#    x 1.747160 0.000000 -0.000860 
#    y 0.000000 1.655480 0.000000 
#    z -0.000860 0.000000 1.730790 
# 
# From -- ./inp_files/108710.got.cif
#   From: 2010.06.25/outbox.cif.g09.slc.cpg/sg12_55_cif.got.tgz:108710.got - 2010.06.28 00:19:55.
