data_PCOD8114078
_publ_section_title
;
Structure prediction by ZEFSAII (Michael W. Deem and Ramdas Pophale) SiO2 
 PCOD8114078
Probable space group: C 2/M
;
_chemical_formula_sum "Si O2"
_cell_formula_units_Z 40
_cell_length_a 24.034247
_cell_length_b 20.531701
_cell_length_c 16.589555
_cell_angle_alpha 90.000000
_cell_angle_beta 163.143625
_cell_angle_gamma 90.000000
_cell_volume 2373.824652
_symmetry_space_group_name_H-M "C 2/M"
_symmetry_group_IT_number 12
_symmetry_cell_setting 'monoclinic'
loop_
_space_group_symop_operation_xyz
x,y,z
-x,y,-z
-x,-y,-z
x,-y,z
1/2+x,1/2+y,z
1/2-x,1/2+y,-z
1/2-x,1/2-y,-z
1/2+x,1/2-y,z
loop_
_atom_site_type_symbol
_atom_site_label
_atom_site_fract_x
_atom_site_fract_y
_atom_site_fract_z
Si Si1 0.574212 0.191575 0.344629
Si Si2 0.279360 0.923778 0.712449
Si Si3 0.381506 0.664275 0.641352
Si Si4 0.342640 0.297128 0.848082
Si Si5 0.290623 0.330313 0.244549
O O1 0.586549 0.270012 0.365187
O O2 0.686177 0.166650 0.421389
O O3 0.668513 0.166358 0.559515
O O4 0.357605 0.164919 0.036498
O O5 0.138440 0.895151 0.448182
O O6 0.220128 0.895026 0.716738
O O7 0.242046 0.000000 0.663930
O O8 0.500000 0.906664 0.000000
O O9 0.562757 0.655120 0.953861
O O10 0.268150 0.231679 0.784851
O O11 0.500000 0.275802 0.000000
O O12 0.500000 0.320533 0.500000
#
# Coordination Sequence:
#
# PCOD8114078 Si02
#       5
#     8   8   8   8   8
#     4   9  16  29  52  74 105 126 157 207 252 301
#     4  11  21  35  54  71  98 134 175 208 236 291
#     4   9  16  29  53  76  95 125 167 206 248 290
#     4   9  17  31  53  75 101 132 156 204 254 299
#     4  11  21  31  47  77 109 131 164 202 251 300
#
# _framework density 16.850442999999999
#
# number of rings (size 3 to 8) (size 9 to 14) (size 15 to 20)
#    0.000    2.200    4.000    1.800    0.000    1.200 
#    0.000    0.000    0.000    6.600    0.000    1.400 
#    0.000    0.000    0.000    0.000    0.000    0.000 
#
# Total GULP energy -247905.050818 kJ/mol
# GULP energy per Si atom -12395.252541 kJ/mol
# Density = 1.681209 g / cm^3
# Si number density = 16.850443 Si / 1000 Ang^3
#
#
#
# Elastic Constant Matrix: (Units=GPa)
#
#
# Indices 1 2 3 4 5 6 
#
# 1 62.0645 33.8950 62.1437 0.0000 -16.7853 0.0000
# 2 33.8950 68.1430 40.7404 0.0000 -12.3939 0.0000
# 3 62.1437 40.7404 156.3096 0.0000 -27.3589 0.0000
# 4 0.0000 0.0000 0.0000 16.2038 0.0000 -8.3695
# 5 -16.7853 -12.3939 -27.3589 0.0000 32.6774 0.0000
# 6 0.0000 0.0000 0.0000 -8.3695 0.0000 14.1788
#
#
#
# Elastic Compliance Matrix: (Units=1/GPa)
#
#
# Indices 1 2 3 4 5 6 
#
# 1 0.032008 -0.009389 -0.009401 0.000000 0.005009 0.000000
# 2 -0.009389 0.020444 -0.001268 0.000000 0.001869 0.000000
# 3 -0.009401 -0.001268 0.011174 0.000000 0.004045 0.000000
# 4 0.000000 0.000000 0.000000 0.088783 0.000000 0.052407
# 5 0.005009 0.001869 0.004045 0.000000 0.037271 0.000000
# 6 0.000000 0.000000 0.000000 0.052407 0.000000 0.101463
#
#
# Mechanical properties :
#
#
# Convention : Reuss Voigt Hill
#
# Bulk Modulus (GPa) = 42.54003 62.23059 52.38531
# Shear Modulus (GPa) = 14.74508 22.59453 18.66981
#
# Velocity S-wave (km/s) = 2.96134 3.66578 3.33223
# Velocity P-wave (km/s) = 6.08220 7.41138 6.77945
#
# Compressibility (1/GPa) = 0.02350727
#
# Stress axis : x y z
#
# Youngs Moduli (GPa) = 31.24205 48.91502 89.49467
#
# Poissons Ratio (x) = 0.45928 0.84138
# Poissons Ratio (y) = 0.29334 0.11351
# Poissons Ratio (z) = 0.29372 0.06204
#
# Static dielectric constant tensor:
#      x y z
#    x 3.077300 0.000000 -0.350970 
#    y 0.000000 2.713950 0.000000 
#    z -0.350970 0.000000 3.546660 
# 
# 
# High freq. dielectric constant tensor:
#      x y z
#    x 1.639100 0.000000 -0.026200 
#    y 0.000000 1.597530 0.000000 
#    z -0.026200 0.000000 1.661660 
# 
# From -- ./inp_files/48615.got.cif
#   From: 2010.06.25/outbox.cif.g09.slc.cpg/sg12_25_cif.got.tgz:48615.got - 2010.06.28 00:19:55.
