data_PCOD8114200
_publ_section_title
;
Structure prediction by ZEFSAII (Michael W. Deem and Ramdas Pophale) SiO2 
 PCOD8114200
Probable space group: C 2/M
;
_chemical_formula_sum "Si O2"
_cell_formula_units_Z 48
_cell_length_a 20.376104
_cell_length_b 8.889265
_cell_length_c 23.159672
_cell_angle_alpha 90.000000
_cell_angle_beta 38.881804
_cell_angle_gamma 90.000000
_cell_volume 2633.191933
_symmetry_space_group_name_H-M "C 2/M"
_symmetry_group_IT_number 12
_symmetry_cell_setting 'monoclinic'
loop_
_space_group_symop_operation_xyz
x,y,z
-x,y,-z
-x,-y,-z
x,-y,z
1/2+x,1/2+y,z
1/2-x,1/2+y,-z
1/2-x,1/2-y,-z
1/2+x,1/2-y,z
loop_
_atom_site_type_symbol
_atom_site_label
_atom_site_fract_x
_atom_site_fract_y
_atom_site_fract_z
Si Si1 0.359817 0.673906 0.933992
Si Si2 0.852156 0.173737 0.455016
Si Si3 0.814199 0.677616 0.270768
Si Si4 0.387165 0.825489 0.550897
Si Si5 0.550201 0.328503 0.729229
Si Si6 0.481709 0.321894 0.077696
O O1 0.335810 0.500000 0.955347
O O2 0.432945 0.713405 0.829038
O O3 0.418870 0.729020 0.951733
O O4 0.250000 0.750000 0.000000
O O5 0.750000 0.250000 0.500000
O O6 0.891265 0.259023 0.484167
O O7 0.942351 0.189704 0.344651
O O8 0.829269 0.000000 0.485561
O O9 0.811122 0.500000 0.266577
O O10 0.696606 0.741361 0.351224
O O11 0.866354 0.722151 0.296111
O O12 0.876986 0.745558 0.173693
O O13 0.500000 0.798191 0.500000
O O14 0.356957 0.000000 0.568181
O O15 0.575560 0.500000 0.731148
O O16 0.465722 0.500000 0.091894
O O17 0.500000 0.266139 0.000000
#
# Coordination Sequence:
#
# PCOD8114200 Si02
#       6
#     8   8   8   8   8   8
#     4   9  18  34  55  80 109 143 177 221 274 323
#     4  11  21  35  60  87 113 145 187 236 278 333
#     4  11  21  34  58  86 112 144 185 236 283 332
#     4  11  24  41  58  79 114 155 191 233 284 338
#     4   9  19  36  57  80 111 149 186 222 275 338
#     4   9  19  38  61  80 107 147 189 227 272 335
#
# _framework density 18.228826999999999
#
# number of rings (size 3 to 8) (size 9 to 14) (size 15 to 20)
#    0.000    2.000    1.667    3.500    0.000    5.000 
#    3.000    0.000    0.000    0.000    0.000    0.000 
#    0.000    0.000    0.000    0.000    0.000    0.000 
#
# Total GULP energy -297619.644208 kJ/mol
# GULP energy per Si atom -12400.818509 kJ/mol
# Density = 1.818734 g / cm^3
# Si number density = 18.228827 Si / 1000 Ang^3
#
#
#
# Elastic Constant Matrix: (Units=GPa)
#
#
# Indices 1 2 3 4 5 6 
#
# 1 103.7245 53.1079 77.8816 0.0000 4.7621 -0.0001
# 2 53.1079 93.5299 60.0381 0.0001 -4.8263 -0.0002
# 3 77.8816 60.0381 149.0105 0.0000 0.9692 0.0000
# 4 0.0000 0.0001 0.0000 32.1417 0.0000 -1.4826
# 5 4.7621 -4.8263 0.9692 0.0000 33.3601 0.0000
# 6 -0.0001 -0.0002 0.0000 -1.4826 0.0000 28.8264
#
#
#
# Elastic Compliance Matrix: (Units=1/GPa)
#
#
# Indices 1 2 3 4 5 6 
#
# 1 0.018130 -0.005925 -0.007067 0.000000 -0.003240 0.000000
# 2 -0.005925 0.016530 -0.003585 0.000000 0.003341 0.000000
# 3 -0.007067 -0.003585 0.011848 0.000000 0.000146 0.000000
# 4 0.000000 0.000000 0.000000 0.031186 0.000000 0.001604
# 5 -0.003240 0.003341 0.000146 0.000000 0.030918 0.000000
# 6 0.000000 0.000000 0.000000 0.001604 0.000000 0.034773
#
#
# Mechanical properties :
#
#
# Convention : Reuss Voigt Hill
#
# Bulk Modulus (GPa) = 74.88908 80.92444 77.90676
# Shear Modulus (GPa) = 27.62576 29.21480 28.42028
#
# Velocity S-wave (km/s) = 3.89716 4.00768 3.95281
# Velocity P-wave (km/s) = 7.83725 8.11821 7.97897
#
# Compressibility (1/GPa) = 0.01335308
#
# Stress axis : x y z
#
# Youngs Moduli (GPa) = 55.15760 60.49694 84.40041
#
# Poissons Ratio (x) = 0.35844 0.59649
# Poissons Ratio (y) = 0.32681 0.30258
# Poissons Ratio (z) = 0.38982 0.21688
#
# Static dielectric constant tensor:
#      x y z
#    x 3.230290 0.000000 0.154410 
#    y 0.000000 3.399810 0.000000 
#    z 0.154410 0.000000 3.721540 
# 
# 
# High freq. dielectric constant tensor:
#      x y z
#    x 1.686430 0.000000 0.004830 
#    y 0.000000 1.710050 0.000000 
#    z 0.004830 0.000000 1.721310 
# 
# From -- ./inp_files/345383.got.cif
#   From: 2010.06.25/outbox.cif.g09.slc.cpg/sg12_173_cif.got.tgz:345383.got - 2010.06.28 00:19:55.
