data_PCOD8114585
_publ_section_title
;
Structure prediction by ZEFSAII (Michael W. Deem and Ramdas Pophale) SiO2 
 PCOD8114585
Probable space group: C 2/M
;
_chemical_formula_sum "Si O2"
_cell_formula_units_Z 48
_cell_length_a 19.037040
_cell_length_b 8.907800
_cell_length_c 15.389598
_cell_angle_alpha 90.000000
_cell_angle_beta 90.000000
_cell_angle_gamma 90.000000
_cell_volume 2609.739480
_symmetry_space_group_name_H-M "C 2/M"
_symmetry_group_IT_number 12
_symmetry_cell_setting 'monoclinic'
loop_
_space_group_symop_operation_xyz
x,y,z
-x,y,-z
-x,-y,-z
x,-y,z
1/2+x,1/2+y,z
1/2-x,1/2+y,-z
1/2-x,1/2-y,-z
1/2+x,1/2-y,z
loop_
_atom_site_type_symbol
_atom_site_label
_atom_site_fract_x
_atom_site_fract_y
_atom_site_fract_z
Si Si1 0.172845 0.179118 0.750000
Si Si2 0.078310 0.177711 0.904855
Si Si3 0.078310 0.822289 0.595145
Si Si4 0.580026 0.677693 0.400203
Si Si5 0.080026 0.177693 0.099797
Si Si6 0.832087 0.322221 0.750000
O O1 0.133384 0.243832 0.835365
O O2 0.133384 0.243832 0.664635
O O3 0.252246 0.237724 0.750000
O O4 0.170041 0.000000 0.750000
O O5 0.999629 0.230951 0.880867
O O6 0.078052 0.000000 0.902069
O O7 0.100083 0.228031 0.001831
O O8 0.100083 0.771970 0.498169
O O9 0.999629 0.769048 0.619132
O O10 0.078051 0.000000 0.597932
O O11 0.588124 0.500000 0.386731
O O12 0.631657 0.762558 0.336331
O O13 0.131657 0.262560 0.163669
O O14 0.088125 0.000000 0.113269
O O15 0.834893 0.500000 0.749999
#
# Coordination Sequence:
#
# PCOD8114585 Si02
#       6
#     8   8   8   8   8   8
#     4   9  17  29  45  69 102 131 154 188 238 293
#     4   8  15  30  54  77  91 115 161 208 242 272
#     4   8  15  30  54  77  91 115 161 208 242 272
#     4   9  17  32  55  76  91 116 162 211 241 268
#     4   9  17  32  55  76  91 116 162 211 241 268
#     4  11  22  31  43  69 104 137 158 180 232 297
#
# _framework density 18.392641000000001
#
# number of rings (size 3 to 8) (size 9 to 14) (size 15 to 20)
#    0.000    3.000    0.000    3.500    0.000    4.000 
#    0.000    3.333    0.000   10.000    0.000    0.000 
#    0.000    0.000    0.000    0.000    0.000    0.000 
#
# Total GULP energy -297501.730340 kJ/mol
# GULP energy per Si atom -12395.905431 kJ/mol
# Density = 1.835078 g / cm^3
# Si number density = 18.392641 Si / 1000 Ang^3
#
#
#
# Elastic Constant Matrix: (Units=GPa)
#
#
# Indices 1 2 3 4 5 6 
#
# 1 168.2260 32.0967 120.8077 0.0000 0.0005 0.0000
# 2 32.0967 30.5798 30.5073 0.0000 -0.0001 0.0000
# 3 120.8077 30.5073 176.7075 0.0000 0.0005 0.0000
# 4 0.0000 0.0000 0.0000 19.6426 0.0000 0.0000
# 5 0.0005 -0.0001 0.0005 0.0000 12.3310 0.0000
# 6 0.0000 0.0000 0.0000 0.0000 0.0000 21.1086
#
#
#
# Elastic Compliance Matrix: (Units=1/GPa)
#
#
# Indices 1 2 3 4 5 6 
#
# 1 0.012400 -0.005506 -0.007527 0.000000 0.000000 0.000000
# 2 -0.005506 0.041951 -0.003478 0.000000 0.000001 0.000000
# 3 -0.007527 -0.003478 0.011405 0.000000 0.000000 0.000000
# 4 0.000000 0.000000 0.000000 0.050910 0.000000 0.000000
# 5 0.000000 0.000001 0.000000 0.000000 0.081096 0.000000
# 6 0.000000 0.000000 0.000000 0.000000 0.000000 0.047374
#
#
# Mechanical properties :
#
#
# Convention : Reuss Voigt Hill
#
# Bulk Modulus (GPa) = 30.54957 82.48186 56.51572
# Shear Modulus (GPa) = 17.29685 23.42321 20.36003
#
# Velocity S-wave (km/s) = 3.06996 3.57250 3.33072
# Velocity P-wave (km/s) = 5.40480 7.87143 6.75171
#
# Compressibility (1/GPa) = 0.03273368
#
# Stress axis : x y z
#
# Youngs Moduli (GPa) = 80.64357 23.83757 87.67799
#
# Poissons Ratio (x) = 0.13126 0.65994
# Poissons Ratio (y) = 0.44405 0.30495
# Poissons Ratio (z) = 0.60700 0.08291
#
# Static dielectric constant tensor:
#      x y z
#    x 3.600930 0.000000 0.000000 
#    y 0.000000 2.834130 0.000000 
#    z 0.000000 0.000000 3.825360 
# 
# 
# High freq. dielectric constant tensor:
#      x y z
#    x 1.714030 0.000000 0.000000 
#    y 0.000000 1.657480 0.000000 
#    z 0.000000 0.000000 1.732390 
# 
# From -- ./inp_files/221667.got.cif
#   From: 2010.06.25/outbox.cif.g09.slc.cpg/sg12_111_cif.got.tgz:221667.got - 2010.06.28 00:19:55.
