data_PCOD8114717
_publ_section_title
;
Structure prediction by ZEFSAII (Michael W. Deem and Ramdas Pophale) SiO2 
 PCOD8114717
Probable space group: C 2/M
;
_chemical_formula_sum "Si O2"
_cell_formula_units_Z 48
_cell_length_a 23.702778
_cell_length_b 8.886596
_cell_length_c 11.952032
_cell_angle_alpha 90.000000
_cell_angle_beta 102.238758
_cell_angle_gamma 90.000000
_cell_volume 2460.323464
_symmetry_space_group_name_H-M "C 2/M"
_symmetry_group_IT_number 12
_symmetry_cell_setting 'monoclinic'
loop_
_space_group_symop_operation_xyz
x,y,z
-x,y,-z
-x,-y,-z
x,-y,z
1/2+x,1/2+y,z
1/2-x,1/2+y,-z
1/2-x,1/2-y,-z
1/2+x,1/2-y,z
loop_
_atom_site_type_symbol
_atom_site_label
_atom_site_fract_x
_atom_site_fract_y
_atom_site_fract_z
Si Si1 0.628682 0.677388 0.064232
Si Si2 0.043840 0.326362 0.195488
Si Si3 0.281582 0.175089 0.743949
Si Si4 0.587577 0.822513 0.829475
Si Si5 0.135283 0.328267 0.419109
Si Si6 0.850041 0.824008 0.344319
O O1 0.628696 0.500000 0.055774
O O2 0.572828 0.730374 0.109695
O O3 0.688007 0.730511 0.145904
O O4 0.627117 0.744746 0.939349
O O5 0.048024 0.500000 0.160054
O O6 0.076235 0.301542 0.326417
O O7 0.978538 0.272253 0.182076
O O8 0.310468 0.212050 0.636776
O O9 0.215323 0.223647 0.710918
O O10 0.290230 0.000000 0.775745
O O11 0.607238 0.768160 0.716363
O O12 0.594536 0.000000 0.840901
O O13 0.139473 0.500000 0.463646
O O14 0.135128 0.215434 0.522231
O O15 0.859594 0.000000 0.329751
#
# Coordination Sequence:
#
# PCOD8114717 Si02
#       6
#     8   8   8   8   8   8
#     4  11  22  36  59  88 113 139 180 235 284 324
#     4   9  20  39  61  83 109 147 190 225 266 330
#     4   9  20  39  60  81 110 149 188 225 270 332
#     4  11  23  39  58  79 111 154 190 222 270 333
#     4   9  18  36  60  83 108 142 187 230 271 327
#     4  11  23  37  55  83 116 147 184 231 279 324
#
# _framework density 19.509630999999999
#
# number of rings (size 3 to 8) (size 9 to 14) (size 15 to 20)
#    0.000    2.000    0.000    4.500    0.000    8.667 
#    0.000    3.333    0.000    0.000    0.000    0.000 
#    0.000    0.000    0.000    0.000    0.000    0.000 
#
# Total GULP energy -297734.597332 kJ/mol
# GULP energy per Si atom -12405.608222 kJ/mol
# Density = 1.946523 g / cm^3
# Si number density = 19.509631 Si / 1000 Ang^3
#
#
#
# Elastic Constant Matrix: (Units=GPa)
#
#
# Indices 1 2 3 4 5 6 
#
# 1 43.5265 22.0210 27.3749 0.0000 4.8266 0.0000
# 2 22.0210 80.6473 36.6871 0.0000 2.7108 0.0000
# 3 27.3749 36.6871 67.2907 0.0000 3.3405 0.0000
# 4 0.0000 0.0000 0.0000 36.5619 0.0000 -1.2483
# 5 4.8266 2.7108 3.3405 0.0000 19.2654 0.0000
# 6 0.0000 0.0000 0.0000 -1.2483 0.0000 26.7086
#
#
#
# Elastic Compliance Matrix: (Units=1/GPa)
#
#
# Indices 1 2 3 4 5 6 
#
# 1 0.032293 -0.003695 -0.010840 0.000000 -0.005691 0.000000
# 2 -0.003695 0.016923 -0.007718 0.000000 -0.000117 0.000000
# 3 -0.010840 -0.007718 0.023492 0.000000 -0.000272 0.000000
# 4 0.000000 0.000000 0.000000 0.027395 0.000000 0.001280
# 5 -0.005691 -0.000117 -0.000272 0.000000 0.053396 0.000000
# 6 0.000000 0.000000 0.000000 0.001280 0.000000 0.037501
#
#
# Mechanical properties :
#
#
# Convention : Reuss Voigt Hill
#
# Bulk Modulus (GPa) = 35.45799 40.40338 37.93068
# Shear Modulus (GPa) = 20.41604 23.53263 21.97433
#
# Velocity S-wave (km/s) = 3.23841 3.47682 3.35973
# Velocity P-wave (km/s) = 5.67425 6.07224 5.87662
#
# Compressibility (1/GPa) = 0.02820239
#
# Stress axis : x y z
#
# Youngs Moduli (GPa) = 30.96688 59.08986 42.56780
#
# Poissons Ratio (x) = 0.21834 0.46144
# Poissons Ratio (y) = 0.11443 0.32852
# Poissons Ratio (z) = 0.33568 0.45603
#
# Static dielectric constant tensor:
#      x y z
#    x 3.647480 0.000000 0.091370 
#    y 0.000000 3.447670 0.000000 
#    z 0.091370 0.000000 3.499070 
# 
# 
# High freq. dielectric constant tensor:
#      x y z
#    x 1.760440 0.000000 0.006140 
#    y 0.000000 1.757960 0.000000 
#    z 0.006140 0.000000 1.765090 
# 
# From -- ./inp_files/172182.got.cif
#   From: 2010.06.25/outbox.cif.g09.slc.cpg/sg12_87_cif.got.tgz:172182.got - 2010.06.28 00:19:55.
