data_PCOD8114052
_publ_section_title
;
Structure prediction by ZEFSAII (Michael W. Deem and Ramdas Pophale) SiO2 
 PCOD8114052
Probable space group: C 2/M
;
_chemical_formula_sum "Si O2"
_cell_formula_units_Z 48
_cell_length_a 14.222140
_cell_length_b 27.943779
_cell_length_c 10.155050
_cell_angle_alpha 90.000000
_cell_angle_beta 150.792023
_cell_angle_gamma 90.000000
_cell_volume 1969.405890
_symmetry_space_group_name_H-M "C 2/M"
_symmetry_group_IT_number 12
_symmetry_cell_setting 'monoclinic'
loop_
_space_group_symop_operation_xyz
x,y,z
-x,y,-z
-x,-y,-z
x,-y,z
1/2+x,1/2+y,z
1/2-x,1/2+y,-z
1/2-x,1/2-y,-z
1/2+x,1/2-y,z
loop_
_atom_site_type_symbol
_atom_site_label
_atom_site_fract_x
_atom_site_fract_y
_atom_site_fract_z
Si Si1 0.864517 0.360853 0.950003
Si Si2 0.719115 0.897362 0.499169
Si Si3 0.068086 0.100517 0.760409
Si Si4 0.168043 0.500000 0.532351
Si Si5 0.726096 0.155121 0.760933
Si Si6 0.716239 0.740561 0.804885
Si Si7 0.217895 0.000000 0.036001
O O1 0.004685 0.375382 0.242218
O O2 0.655892 0.387263 0.720985
O O3 0.846891 0.303704 0.917438
O O4 0.000000 0.381996 0.000000
O O5 0.816481 0.873443 0.747135
O O6 0.841947 0.886234 0.513633
O O7 0.726342 0.954291 0.519520
O O8 0.181132 0.136815 0.991750
O O9 0.108907 0.045617 0.843915
O O10 0.290882 0.500000 0.816991
O O11 0.940241 0.500000 0.271206
O O12 0.500000 0.146426 0.500000
O O13 0.775112 0.211233 0.799910
O O14 0.500000 0.726409 0.500000
O O15 0.750000 0.750000 0.000000
#
# Coordination Sequence:
#
# PCOD8114052 Si02
#       7
#     8   8   8   4   8   8   4
#     4  12  28  47  68  98 142 201 251 300 358 443
#     4  12  25  43  71 108 145 187 245 310 383 449
#     4  12  24  42  70 103 145 184 241 302 379 451
#     4  11  21  39  71 109 147 184 229 312 396 449
#     4  11  20  42  70 105 147 183 234 311 380 450
#     4  11  24  47  77 109 150 200 254 314 380 450
#     4  11  21  39  69 109 147 180 234 313 388 454
#
# _framework density 24.372834000000001
#
# number of rings (size 3 to 8) (size 9 to 14) (size 15 to 20)
#    0.000    0.500    6.667    2.000    2.333    2.000 
#    0.000    4.167    0.000    2.000    0.000    0.000 
#    0.000    0.000    0.000    0.000    0.000    0.000 
#
# Total GULP energy -297466.973386 kJ/mol
# GULP energy per Si atom -12394.457224 kJ/mol
# Density = 2.431736 g / cm^3
# Si number density = 24.372834 Si / 1000 Ang^3
#
#
#
# Elastic Constant Matrix: (Units=GPa)
#
#
# Indices 1 2 3 4 5 6 
#
# 1 140.4669 25.7208 26.3174 0.0000 33.8786 -0.0001
# 2 25.7208 166.9898 27.7360 0.0000 30.7569 -0.0001
# 3 26.3174 27.7360 76.1015 0.0001 29.1112 0.0000
# 4 0.0000 0.0000 0.0001 39.3059 0.0000 7.6309
# 5 33.8786 30.7569 29.1112 0.0000 25.9450 0.0001
# 6 -0.0001 -0.0001 0.0000 7.6309 0.0001 -35.9717
#
#
#
# Elastic Compliance Matrix: (Units=1/GPa)
#
#
# Indices 1 2 3 4 5 6 
#
# 1 0.010985 0.001380 0.003173 0.000000 -0.019539 0.000000
# 2 0.001380 0.007897 0.001603 0.000000 -0.012962 0.000000
# 3 0.003173 0.001603 0.024126 0.000000 -0.033113 0.000000
# 4 0.000000 0.000000 0.000000 0.024435 0.000000 0.005184
# 5 -0.019539 -0.012962 -0.033113 0.000000 0.116578 0.000000
# 6 0.000000 0.000000 0.000000 0.005184 0.000000 -0.026700
#
#
# Mechanical properties :
#
#
# Convention : Reuss Voigt Hill
#
# Bulk Modulus (GPa) = 18.07690 60.34519 39.21105
# Shear Modulus (GPa) = 30.59059 26.10809 28.34934
#
# Velocity S-wave (km/s) = 3.54660 3.27646 3.41420
# Velocity P-wave (km/s) = 4.91976 6.25512 5.62719
#
# Compressibility (1/GPa) = 0.05531921
#
# Stress axis : x y z
#
# Youngs Moduli (GPa) = 91.03631 126.62980 41.44949
#
# Poissons Ratio (x) = -0.17474 -0.13151
# Poissons Ratio (y) = -0.12563 -0.06645
# Poissons Ratio (z) = -0.28884 -0.20300
#
# Static dielectric constant tensor:
#      x y z
#    x 4.423030 0.000000 -0.002240 
#    y 0.000000 4.405730 0.000000 
#    z -0.002240 0.000000 4.662970 
# 
# 
# High freq. dielectric constant tensor:
#      x y z
#    x 1.974790 0.000000 0.003610 
#    y 0.000000 1.967180 0.000000 
#    z 0.003610 0.000000 1.989990 
# 
# From -- ./inp_files/149925.got.cif
#   From: 2010.06.25/outbox.cif.g09.slc.cpg/sg12_75_cif.got.tgz:149925.got - 2010.06.28 00:19:55.
