data_PCOD8114179
_publ_section_title
;
Structure prediction by ZEFSAII (Michael W. Deem and Ramdas Pophale) SiO2 
 PCOD8114179
Probable space group: C 2/M
;
_chemical_formula_sum "Si O2"
_cell_formula_units_Z 48
_cell_length_a 31.497455
_cell_length_b 8.730211
_cell_length_c 9.687251
_cell_angle_alpha 90.000000
_cell_angle_beta 102.715834
_cell_angle_gamma 90.000000
_cell_volume 2598.461847
_symmetry_space_group_name_H-M "C 2/M"
_symmetry_group_IT_number 12
_symmetry_cell_setting 'monoclinic'
loop_
_space_group_symop_operation_xyz
x,y,z
-x,y,-z
-x,-y,-z
x,-y,z
1/2+x,1/2+y,z
1/2-x,1/2+y,-z
1/2-x,1/2-y,-z
1/2+x,1/2-y,z
loop_
_atom_site_type_symbol
_atom_site_label
_atom_site_fract_x
_atom_site_fract_y
_atom_site_fract_z
Si Si1 0.680666 0.822021 0.155726
Si Si2 0.888226 0.320527 0.677026
Si Si3 0.379230 0.680312 0.096694
Si Si4 0.858562 0.681788 0.366874
Si Si5 0.233163 0.179407 0.629865
Si Si6 0.549003 0.180572 0.046044
O O1 0.652182 0.755645 0.262798
O O2 0.665836 0.734373 0.006947
O O3 0.731072 0.794241 0.224607
O O4 0.669880 0.000000 0.124602
O O5 0.881649 0.500000 0.660794
O O6 0.885880 0.256351 0.519610
O O7 0.933277 0.279159 0.787274
O O8 0.379945 0.500000 0.102286
O O9 0.421595 0.739091 0.047146
O O10 0.381577 0.743991 0.252536
O O11 0.859730 0.500000 0.352805
O O12 0.809007 0.734398 0.346386
O O13 0.250000 0.250000 0.500000
O O14 0.223992 0.000000 0.601389
O O15 0.551091 0.000000 0.019754
O O16 0.500000 0.243364 0.000000
#
# Coordination Sequence:
#
# PCOD8114179 Si02
#       6
#     8   8   8   8   8   8
#     4   9  18  36  56  76 105 146 190 229 266 320
#     4   8  15  31  55  81 105 136 181 222 263 318
#     4  11  23  37  54  81 113 144 180 227 280 330
#     4  11  21  36  55  78 111 150 185 228 276 320
#     4  11  21  34  54  81 112 145 189 232 269 320
#     4   9  18  37  64  87 107 137 177 221 271 334
#
# _framework density 18.472467000000002
#
# number of rings (size 3 to 8) (size 9 to 14) (size 15 to 20)
#    0.000    2.167    1.667    3.500    0.000    2.333 
#    0.000    1.667    0.000    5.000    0.000    0.000 
#    0.000    0.000    0.000    0.000    0.000    0.000 
#
# Total GULP energy -297543.652833 kJ/mol
# GULP energy per Si atom -12397.652201 kJ/mol
# Density = 1.843042 g / cm^3
# Si number density = 18.472467 Si / 1000 Ang^3
#
#
#
# Elastic Constant Matrix: (Units=GPa)
#
#
# Indices 1 2 3 4 5 6 
#
# 1 99.5357 42.1866 60.4822 0.0000 15.5437 0.0000
# 2 42.1866 83.4514 49.8315 0.0000 -0.4251 0.0000
# 3 60.4822 49.8315 156.1119 0.0000 6.1214 0.0000
# 4 0.0000 0.0000 0.0000 21.9728 0.0000 -4.6912
# 5 15.5437 -0.4251 6.1214 0.0000 24.8055 0.0000
# 6 0.0000 0.0000 0.0000 -4.6912 0.0000 24.6895
#
#
#
# Elastic Compliance Matrix: (Units=1/GPa)
#
#
# Indices 1 2 3 4 5 6 
#
# 1 0.016564 -0.005944 -0.004149 0.000000 -0.009457 0.000000
# 2 -0.005944 0.016989 -0.003309 0.000000 0.004832 0.000000
# 3 -0.004149 -0.003309 0.009057 0.000000 0.000308 0.000000
# 4 0.000000 0.000000 0.000000 0.047435 0.000000 0.009013
# 5 -0.009457 0.004832 0.000308 0.000000 0.046247 0.000000
# 6 0.000000 0.000000 0.000000 0.009013 0.000000 0.042216
#
#
# Mechanical properties :
#
#
# Convention : Reuss Voigt Hill
#
# Bulk Modulus (GPa) = 63.27181 71.56662 67.41921
# Shear Modulus (GPa) = 23.74383 26.73349 25.23866
#
# Velocity S-wave (km/s) = 3.58909 3.80834 3.70034
# Velocity P-wave (km/s) = 7.17647 7.62656 7.40493
#
# Compressibility (1/GPa) = 0.01580483
#
# Stress axis : x y z
#
# Youngs Moduli (GPa) = 60.37184 58.86285 110.40614
#
# Poissons Ratio (x) = 0.34988 0.45809
# Poissons Ratio (y) = 0.35885 0.36538
# Poissons Ratio (z) = 0.25049 0.19480
#
# Static dielectric constant tensor:
#      x y z
#    x 3.379530 0.000000 0.186120 
#    y 0.000000 3.266000 0.000000 
#    z 0.186120 0.000000 3.682100 
# 
# 
# High freq. dielectric constant tensor:
#      x y z
#    x 1.700740 0.000000 0.011960 
#    y 0.000000 1.704490 0.000000 
#    z 0.011960 0.000000 1.724360 
# 
# From -- ./inp_files/108757.got.cif
#   From: 2010.06.25/outbox.cif.g09.slc.cpg/sg12_55_cif.got.tgz:108757.got - 2010.06.28 00:19:55.
