data_PCOD8114223
_publ_section_title
;
Structure prediction by ZEFSAII (Michael W. Deem and Ramdas Pophale) SiO2 
 PCOD8114223
Probable space group: C 2/M
;
_chemical_formula_sum "Si O2"
_cell_formula_units_Z 56
_cell_length_a 19.209292
_cell_length_b 8.781998
_cell_length_c 18.944297
_cell_angle_alpha 90.000000
_cell_angle_beta 63.896684
_cell_angle_gamma 90.000000
_cell_volume 2869.858898
_symmetry_space_group_name_H-M "C 2/M"
_symmetry_group_IT_number 12
_symmetry_cell_setting 'monoclinic'
loop_
_space_group_symop_operation_xyz
x,y,z
-x,y,-z
-x,-y,-z
x,-y,z
1/2+x,1/2+y,z
1/2-x,1/2+y,-z
1/2-x,1/2-y,-z
1/2+x,1/2-y,z
loop_
_atom_site_type_symbol
_atom_site_label
_atom_site_fract_x
_atom_site_fract_y
_atom_site_fract_z
Si Si1 0.916823 0.822885 0.009338
Si Si2 0.193272 0.179190 0.313298
Si Si3 0.090962 0.179325 0.235265
Si Si4 0.428789 0.824357 0.274818
Si Si5 0.326934 0.179358 0.931296
Si Si6 0.153687 0.676472 0.830207
Si Si7 0.768242 0.320086 0.417168
O O1 0.857061 0.783314 0.097649
O O2 0.911635 0.000000 0.991885
O O3 0.899581 0.723716 0.947948
O O4 0.000000 0.772905 0.000000
O O5 0.115391 0.225146 0.305336
O O6 0.265852 0.237032 0.235993
O O7 0.203318 0.241140 0.389287
O O8 0.201298 0.000000 0.316107
O O9 0.152355 0.257976 0.155294
O O10 0.002520 0.226322 0.264372
O O11 0.098933 0.000000 0.220104
O O12 0.412982 0.798981 0.198830
O O13 0.354115 0.771245 0.353261
O O14 0.447841 0.000000 0.281449
O O15 0.316043 0.000000 0.931699
O O16 0.250000 0.250000 0.000000
O O17 0.156660 0.500000 0.852488
O O18 0.764083 0.500000 0.425827
O O19 0.750000 0.250000 0.500000
#
# Coordination Sequence:
#
# PCOD8114223 Si02
#       7
#     8   8   8   8   8   8   8
#     4  11  23  36  51  76 108 140 181 233 280 324
#     4   8  17  34  55  77 102 135 173 213 260 317
#     4  11  21  35  56  81 109 142 182 226 272 325
#     4   9  19  35  55  80 111 146 180 220 275 331
#     4  12  25  40  57  78 109 148 189 234 284 333
#     4   9  17  33  55  73  95 136 184 224 268 323
#     4   9  18  36  60  84 110 140 177 218 262 317
#
# _framework density 19.513155999999999
#
# number of rings (size 3 to 8) (size 9 to 14) (size 15 to 20)
#    0.000    2.143    0.000    5.571    0.000    5.714 
#    0.000    5.000    0.000    4.286    0.000    0.000 
#    0.000    0.000    0.000    0.000    0.000    0.000 
#
# Total GULP energy -347065.917453 kJ/mol
# GULP energy per Si atom -12395.211338 kJ/mol
# Density = 1.946874 g / cm^3
# Si number density = 19.513156 Si / 1000 Ang^3
#
#
#
# Elastic Constant Matrix: (Units=GPa)
#
#
# Indices 1 2 3 4 5 6 
#
# 1 97.6302 41.3250 24.4311 0.0001 14.1891 0.0001
# 2 41.3250 73.7202 26.8546 0.0001 6.3598 0.0005
# 3 24.4311 26.8546 90.8928 0.0000 18.4403 0.0001
# 4 0.0001 0.0001 0.0000 32.4355 0.0000 -0.6178
# 5 14.1891 6.3598 18.4403 0.0000 27.3465 0.0001
# 6 0.0001 0.0005 0.0001 -0.6178 0.0001 31.0431
#
#
#
# Elastic Compliance Matrix: (Units=1/GPa)
#
#
# Indices 1 2 3 4 5 6 
#
# 1 0.014260 -0.007320 -0.000596 0.000000 -0.005295 0.000000
# 2 -0.007320 0.018966 -0.004068 0.000000 0.002130 0.000000
# 3 -0.000596 -0.004068 0.014029 0.000000 -0.008204 0.000000
# 4 0.000000 0.000000 0.000000 0.030842 0.000000 0.000614
# 5 -0.005295 0.002130 -0.008204 0.000000 0.044352 0.000000
# 6 0.000000 0.000000 0.000000 0.000614 0.000000 0.032225
#
#
# Mechanical properties :
#
#
# Convention : Reuss Voigt Hill
#
# Bulk Modulus (GPa) = 42.94358 49.71829 46.33093
# Shear Modulus (GPa) = 26.82344 29.47385 28.14865
#
# Velocity S-wave (km/s) = 3.71163 3.89068 3.80221
# Velocity P-wave (km/s) = 6.35795 6.76150 6.56283
#
# Compressibility (1/GPa) = 0.02328637
#
# Stress axis : x y z
#
# Youngs Moduli (GPa) = 70.12813 52.72557 71.28227
#
# Poissons Ratio (x) = 0.38593 0.04249
# Poissons Ratio (y) = 0.51331 0.29001
# Poissons Ratio (z) = 0.04180 0.21451
#
# Static dielectric constant tensor:
#      x y z
#    x 3.507180 0.000000 -0.256410 
#    y 0.000000 3.331440 0.000000 
#    z -0.256410 0.000000 2.801760 
# 
# 
# High freq. dielectric constant tensor:
#      x y z
#    x 1.773080 0.000000 0.014390 
#    y 0.000000 1.743490 0.000000 
#    z 0.014390 0.000000 1.746950 
# 
# From -- ./inp_files/280944.got.cif
#   From: 2010.06.25/outbox.cif.g09.slc.cpg/sg12_141_cif.got.tgz:280944.got - 2010.06.28 00:19:55.
