data_PCOD8114814
_publ_section_title
;
Structure prediction by ZEFSAII (Michael W. Deem and Ramdas Pophale) SiO2 
 PCOD8114814
Probable space group: C 2/M
;
_chemical_formula_sum "Si O2"
_cell_formula_units_Z 64
_cell_length_a 15.229682
_cell_length_b 8.683629
_cell_length_c 28.526989
_cell_angle_alpha 90.000000
_cell_angle_beta 57.288674
_cell_angle_gamma 90.000000
_cell_volume 3174.333764
_symmetry_space_group_name_H-M "C 2/M"
_symmetry_group_IT_number 12
_symmetry_cell_setting 'monoclinic'
loop_
_space_group_symop_operation_xyz
x,y,z
-x,y,-z
-x,-y,-z
x,-y,z
1/2+x,1/2+y,z
1/2-x,1/2+y,-z
1/2-x,1/2-y,-z
1/2+x,1/2-y,z
loop_
_atom_site_type_symbol
_atom_site_label
_atom_site_fract_x
_atom_site_fract_y
_atom_site_fract_z
Si Si1 0.941345 0.180825 0.217754
Si Si2 0.156921 0.181175 0.997374
Si Si3 0.083660 0.683016 0.417316
Si Si4 0.111398 0.319285 0.223325
Si Si5 0.508438 0.827076 0.891352
Si Si6 0.713768 0.826505 0.885064
Si Si7 0.849248 0.682168 0.500052
Si Si8 0.292465 0.183175 0.707497
O O1 0.002999 0.259355 0.157126
O O2 0.825202 0.246572 0.257967
O O3 0.004080 0.227427 0.246210
O O4 0.939776 0.000000 0.209494
O O5 0.049723 0.220567 0.054346
O O6 0.168347 0.000000 0.988568
O O7 0.250000 0.250000 0.000000
O O8 0.157480 0.258055 0.946563
O O9 0.082918 0.500000 0.417750
O O10 0.144585 0.736843 0.447090
O O11 0.146642 0.751396 0.354918
O O12 0.962453 0.737157 0.447340
O O13 0.090133 0.500000 0.229459
O O14 0.191301 0.279578 0.158540
O O15 0.152196 0.259015 0.261337
O O16 0.630367 0.827755 0.867576
O O17 0.461558 0.000000 0.906282
O O18 0.753975 0.000000 0.883865
O O19 0.837199 0.500000 0.499980
O O20 0.750000 0.750000 0.500000
O O21 0.291863 0.000000 0.705465
#
# Coordination Sequence:
#
# PCOD8114814 Si02
#       8
#     8   8   8   8   8   8   8   8
#     4  11  22  38  59  84 112 149 193 238 289 346
#     4  12  25  40  59  83 113 145 185 233 284 347
#     4   8  16  33  54  80 113 157 197 232 281 344
#     4  11  22  38  59  84 112 149 193 238 289 346
#     4  11  23  40  61  84 112 145 184 234 289 347
#     4  11  23  40  61  84 112 145 184 234 289 347
#     4   9  17  31  56  84 116 153 195 237 284 338
#     4   9  19  36  58  81 113 152 197 240 282 341
#
# _framework density 20.161709999999999
#
# number of rings (size 3 to 8) (size 9 to 14) (size 15 to 20)
#    0.000    1.750    1.250    4.500    0.000    4.000 
#    0.000    1.250    0.000    4.500    0.000    0.000 
#    0.000    0.000    0.000    0.000    0.000    0.000 
#
# Total GULP energy -396755.059573 kJ/mol
# GULP energy per Si atom -12398.595612 kJ/mol
# Density = 2.011582 g / cm^3
# Si number density = 20.161710 Si / 1000 Ang^3
#
#
#
# Elastic Constant Matrix: (Units=GPa)
#
#
# Indices 1 2 3 4 5 6 
#
# 1 151.0503 20.7633 58.3974 0.0000 2.1026 0.0000
# 2 20.7633 55.4090 11.6296 -0.0001 4.9570 -0.0001
# 3 58.3974 11.6296 138.7161 0.0000 10.3855 0.0000
# 4 0.0000 -0.0001 0.0000 14.8764 0.0000 -0.0312
# 5 2.1026 4.9570 10.3855 0.0000 15.8370 0.0000
# 6 0.0000 -0.0001 0.0000 -0.0312 0.0000 33.1423
#
#
#
# Elastic Compliance Matrix: (Units=1/GPa)
#
#
# Indices 1 2 3 4 5 6 
#
# 1 0.008262 -0.002554 -0.003409 0.000000 0.001938 0.000000
# 2 -0.002554 0.019542 -0.000137 0.000000 -0.005688 0.000000
# 3 -0.003409 -0.000137 0.009064 0.000000 -0.005448 0.000000
# 4 0.000000 0.000000 0.000000 0.067221 0.000000 0.000063
# 5 0.001938 -0.005688 -0.005448 0.000000 0.068239 0.000000
# 6 0.000000 0.000000 0.000000 0.000063 0.000000 0.030173
#
#
# Mechanical properties :
#
#
# Convention : Reuss Voigt Hill
#
# Bulk Modulus (GPa) = 40.53998 58.52846 49.53422
# Shear Modulus (GPa) = 22.42906 29.73015 26.07961
#
# Velocity S-wave (km/s) = 3.33897 3.84420 3.60046
# Velocity P-wave (km/s) = 5.91744 6.98544 6.47350
#
# Compressibility (1/GPa) = 0.02466701
#
# Stress axis : x y z
#
# Youngs Moduli (GPa) = 121.02879 51.17101 110.33059
#
# Poissons Ratio (x) = 0.13069 0.37616
# Poissons Ratio (y) = 0.30911 0.01515
# Poissons Ratio (z) = 0.41263 0.00703
#
# Static dielectric constant tensor:
#      x y z
#    x 3.844490 0.000000 0.015530 
#    y 0.000000 3.428330 0.000000 
#    z 0.015530 0.000000 3.904850 
# 
# 
# High freq. dielectric constant tensor:
#      x y z
#    x 1.802280 0.000000 -0.000290 
#    y 0.000000 1.766270 0.000000 
#    z -0.000290 0.000000 1.782550 
# 
# From -- ./inp_files/375412.got.cif
#   From: 2010.06.25/outbox.cif.g09.slc.cpg/sg12_188_cif.got.tgz:375412.got - 2010.06.28 00:19:55.
