data_PCOD8114253
_publ_section_title
;
Structure prediction by ZEFSAII (Michael W. Deem and Ramdas Pophale) SiO2 
 PCOD8114253
Probable space group: C 2/M
;
_chemical_formula_sum "Si O2"
_cell_formula_units_Z 48
_cell_length_a 23.938950
_cell_length_b 14.970915
_cell_length_c 22.012742
_cell_angle_alpha 90.000000
_cell_angle_beta 17.582062
_cell_angle_gamma 90.000000
_cell_volume 2383.072589
_symmetry_space_group_name_H-M "C 2/M"
_symmetry_group_IT_number 12
_symmetry_cell_setting 'monoclinic'
loop_
_space_group_symop_operation_xyz
x,y,z
-x,y,-z
-x,-y,-z
x,-y,z
1/2+x,1/2+y,z
1/2-x,1/2+y,-z
1/2-x,1/2-y,-z
1/2+x,1/2-y,z
loop_
_atom_site_type_symbol
_atom_site_label
_atom_site_fract_x
_atom_site_fract_y
_atom_site_fract_z
Si Si1 0.665918 0.600639 0.684985
Si Si2 0.509859 0.790223 0.347611
Si Si3 0.094202 0.399927 0.790307
Si Si4 0.144628 0.833598 0.581674
Si Si5 0.676677 0.306474 0.350444
Si Si6 0.127185 0.769199 0.965724
O O1 0.646814 0.500000 0.728967
O O2 0.578316 0.607202 0.707592
O O3 0.885008 0.626372 0.453894
O O4 0.551558 0.666214 0.848405
O O5 0.520923 0.709777 0.286597
O O6 0.401030 0.760687 0.519815
O O7 0.719387 0.813845 0.148925
O O8 0.012296 0.500000 0.878035
O O9 0.231615 0.393687 0.590964
O O10 0.197711 0.381030 0.747209
O O11 0.929257 0.329132 0.951159
O O12 0.250000 0.750000 0.500000
O O13 0.500000 0.352340 0.500000
O O14 0.798610 0.244922 0.179107
#
# Coordination Sequence:
#
# PCOD8114253 Si02
#       6
#     8   8   8   8   8   8
#     4  11  22  38  61  86 115 154 199 243 291 341
#     4   9  20  38  61  82 115 156 192 237 293 342
#     4  11  21  35  60  90 119 153 193 238 287 345
#     4   9  17  39  60  80 115 157 188 236 292 334
#     4   9  19  37  59  84 116 159 188 234 287 347
#     4  11  21  37  61  85 122 154 192 235 294 347
#
# _framework density 20.142063
#
# number of rings (size 3 to 8) (size 9 to 14) (size 15 to 20)
#    0.000    2.000    5.000    1.000    0.000    3.000 
#    0.000    9.167    0.000    3.000    0.000    0.000 
#    0.000    0.000    0.000    0.000    0.000    0.000 
#
# Total GULP energy -297358.449507 kJ/mol
# GULP energy per Si atom -12389.935396 kJ/mol
# Density = 2.009622 g / cm^3
# Si number density = 20.142063 Si / 1000 Ang^3
#
#
#
# Elastic Constant Matrix: (Units=GPa)
#
#
# Indices 1 2 3 4 5 6 
#
# 1 83.0675 23.0730 32.1186 -0.0168 0.3130 0.0100
# 2 23.0730 122.8481 29.1105 -0.1027 -9.0351 0.0544
# 3 32.1186 29.1105 60.2849 -0.0880 -15.0859 0.0441
# 4 -0.0168 -0.1027 -0.0880 12.9239 0.0686 -0.7498
# 5 0.3130 -9.0351 -15.0859 0.0686 34.8873 -0.0207
# 6 0.0100 0.0544 0.0441 -0.7498 -0.0207 17.3629
#
#
#
# Elastic Compliance Matrix: (Units=1/GPa)
#
#
# Indices 1 2 3 4 5 6 
#
# 1 0.015843 -0.001171 -0.008956 -0.000026 -0.004318 0.000011
# 2 -0.001171 0.009287 -0.003651 0.000042 0.000837 -0.000016
# 3 -0.008956 -0.003651 0.025685 0.000078 0.010241 -0.000033
# 4 -0.000026 0.000042 0.000078 0.077572 -0.000106 0.003349
# 5 -0.004318 0.000837 0.010241 -0.000106 0.033348 0.000009
# 6 0.000011 -0.000016 -0.000033 0.003349 0.000009 0.057739
#
#
# Mechanical properties :
#
#
# Convention : Reuss Voigt Hill
#
# Bulk Modulus (GPa) = 42.99383 48.31163 45.65273
# Shear Modulus (GPa) = 19.62455 25.16136 22.39295
#
# Velocity S-wave (km/s) = 3.12478 3.53823 3.33791
# Velocity P-wave (km/s) = 5.86605 6.38197 6.12944
#
# Compressibility (1/GPa) = 0.02325915
#
# Stress axis : x y z
#
# Youngs Moduli (GPa) = 63.12037 107.67946 38.93250
#
# Poissons Ratio (x) = 0.12608 0.34867
# Poissons Ratio (y) = 0.07391 0.14215
# Poissons Ratio (z) = 0.56530 0.39315
#
# Static dielectric constant tensor:
#      x y z
#    x 4.474570 -0.000110 -0.108760 
#    y -0.000110 3.340150 0.000130 
#    z -0.108760 0.000130 3.750350 
# 
# 
# High freq. dielectric constant tensor:
#      x y z
#    x 1.799880 -0.000010 0.008640 
#    y -0.000010 1.750100 0.000010 
#    z 0.008640 0.000010 1.775940 
# 
# From -- ./inp_files/325603.got.cif
#   From: 2010.06.25/outbox.cif.g09.slc.cpg/sg12_163_cif.got.tgz:325603.got - 2010.06.28 00:19:55.
