data_PCOD8114199
_publ_section_title
;
Structure prediction by ZEFSAII (Michael W. Deem and Ramdas Pophale) SiO2 
 PCOD8114199
Probable space group: C 2/M
;
_chemical_formula_sum "Si O2"
_cell_formula_units_Z 40
_cell_length_a 27.467317
_cell_length_b 13.991592
_cell_length_c 11.550706
_cell_angle_alpha 90.000000
_cell_angle_beta 149.460152
_cell_angle_gamma 90.000000
_cell_volume 2255.657391
_symmetry_space_group_name_H-M "C 2/M"
_symmetry_group_IT_number 12
_symmetry_cell_setting 'monoclinic'
loop_
_space_group_symop_operation_xyz
x,y,z
-x,y,-z
-x,-y,-z
x,-y,z
1/2+x,1/2+y,z
1/2-x,1/2+y,-z
1/2-x,1/2-y,-z
1/2+x,1/2-y,z
loop_
_atom_site_type_symbol
_atom_site_label
_atom_site_fract_x
_atom_site_fract_y
_atom_site_fract_z
Si Si1 0.357682 0.802518 0.502061
Si Si2 0.339083 0.387260 0.908792
Si Si3 0.608013 0.737339 0.189471
Si Si4 0.012599 0.764174 0.661566
Si Si5 0.450116 0.891090 0.099548
O O1 0.330590 0.746667 0.566152
O O2 0.408226 0.731652 0.511644
O O3 0.436059 0.884178 0.698062
O O4 0.263178 0.848849 0.253114
O O5 0.338748 0.500000 0.906992
O O6 0.423595 0.353421 0.167082
O O7 0.352214 0.349637 0.805203
O O8 0.500000 0.709925 0.000000
O O9 0.611271 0.836972 0.124260
O O10 0.065724 0.665546 0.810704
O O11 0.000000 0.766509 0.500000
O O12 0.415779 0.000000 0.039894
#
# Coordination Sequence:
#
# PCOD8114199 Si02
#       5
#     8   8   8   8   8
#     4   9  19  34  54  80 110 136 177 220 264 322
#     4  11  21  34  58  83 105 142 185 218 263 324
#     4   9  17  34  51  79 112 143 165 217 271 328
#     4   9  21  38  53  75 111 145 178 228 271 305
#     4   8  16  30  52  78 105 136 172 212 265 317
#
# _framework density 17.733188999999999
#
# number of rings (size 3 to 8) (size 9 to 14) (size 15 to 20)
#    1.200    1.600    2.000    1.200    0.000    6.400 
#    0.000    0.000    0.000    4.800    0.000    0.000 
#    0.000    0.000    0.000    0.000    0.000    0.000 
#
# Total GULP energy -247765.428874 kJ/mol
# GULP energy per Si atom -12388.271444 kJ/mol
# Density = 1.769283 g / cm^3
# Si number density = 17.733189 Si / 1000 Ang^3
#
#
#
# Elastic Constant Matrix: (Units=GPa)
#
#
# Indices 1 2 3 4 5 6 
#
# 1 93.2243 53.8077 63.1342 0.0000 -29.7544 0.0000
# 2 53.8077 94.4403 61.0005 0.0000 5.3699 0.0000
# 3 63.1342 61.0005 80.0848 0.0000 -5.8780 0.0000
# 4 0.0000 0.0000 0.0000 16.7209 0.0000 2.0570
# 5 -29.7544 5.3699 -5.8780 0.0000 32.5821 0.0000
# 6 0.0000 0.0000 0.0000 2.0570 0.0000 12.9769
#
#
#
# Elastic Compliance Matrix: (Units=1/GPa)
#
#
# Indices 1 2 3 4 5 6 
#
# 1 0.050443 -0.015048 -0.025073 0.000000 0.044022 0.000000
# 2 -0.015048 0.026731 -0.009962 0.000000 -0.019945 0.000000
# 3 -0.025073 -0.009962 0.038795 0.000000 -0.014257 0.000000
# 4 0.000000 0.000000 0.000000 0.060995 0.000000 -0.009668
# 5 0.044022 -0.019945 -0.014257 0.000000 0.071608 0.000000
# 6 0.000000 0.000000 0.000000 -0.009668 0.000000 0.078593
#
#
# Mechanical properties :
#
#
# Convention : Reuss Voigt Hill
#
# Bulk Modulus (GPa) = 63.28146 69.29266 66.28706
# Shear Modulus (GPa) = 11.55805 18.44312 15.00058
#
# Velocity S-wave (km/s) = 2.55576 3.22845 2.91160
# Velocity P-wave (km/s) = 6.66873 7.28404 6.98316
#
# Compressibility (1/GPa) = 0.01580242
#
# Stress axis : x y z
#
# Youngs Moduli (GPa) = 19.82420 37.40979 25.77675
#
# Poissons Ratio (x) = 0.56295 0.64631
# Poissons Ratio (y) = 0.29832 0.25678
# Poissons Ratio (z) = 0.49706 0.37267
#
# Static dielectric constant tensor:
#      x y z
#    x 3.154240 0.000000 0.046640 
#    y 0.000000 2.938200 0.000000 
#    z 0.046640 0.000000 3.183330 
# 
# 
# High freq. dielectric constant tensor:
#      x y z
#    x 1.673050 0.000000 0.002440 
#    y 0.000000 1.656010 0.000000 
#    z 0.002440 0.000000 1.679690 
# 
# From -- ./inp_files/189080.got.cif
#   From: 2010.06.25/outbox.cif.g09.slc.cpg/sg12_95_cif.got.tgz:189080.got - 2010.06.28 00:19:55.
