data_PCOD8114783
_publ_section_title
;
Structure prediction by ZEFSAII (Michael W. Deem and Ramdas Pophale) SiO2 
 PCOD8114783
Probable space group: C 2/M
;
_chemical_formula_sum "Si O2"
_cell_formula_units_Z 32
_cell_length_a 8.493358
_cell_length_b 20.168768
_cell_length_c 14.452817
_cell_angle_alpha 90.000000
_cell_angle_beta 41.643790
_cell_angle_gamma 90.000000
_cell_volume 1645.146908
_symmetry_space_group_name_H-M "C 2/M"
_symmetry_group_IT_number 12
_symmetry_cell_setting 'monoclinic'
loop_
_space_group_symop_operation_xyz
x,y,z
-x,y,-z
-x,-y,-z
x,-y,z
1/2+x,1/2+y,z
1/2-x,1/2+y,-z
1/2-x,1/2-y,-z
1/2+x,1/2-y,z
loop_
_atom_site_type_symbol
_atom_site_label
_atom_site_fract_x
_atom_site_fract_y
_atom_site_fract_z
Si Si1 0.414178 0.686254 0.938746
Si Si2 0.732519 0.342922 0.357630
Si Si3 0.551899 0.925190 0.084773
Si Si4 0.097327 0.298835 0.359114
O O1 0.633364 0.676528 0.772424
O O2 0.500000 0.704031 0.000000
O O3 0.250000 0.750000 0.000000
O O4 0.288187 0.615886 0.995485
O O5 0.500000 0.380249 0.500000
O O6 0.617401 0.280665 0.353706
O O7 0.841965 0.392224 0.235132
O O8 0.924518 0.320749 0.351090
O O9 0.590212 0.000000 0.103704
O O10 0.500000 0.923748 0.000000
O O11 0.000000 0.326910 0.500000
#
# Coordination Sequence:
#
# PCOD8114783 Si02
#       4
#     8   8   8   8
#     4  12  22  39  66  96 122 161 208 262 312 370
#     4  11  23  39  63  93 128 161 205 259 312 374
#     4  11  26  43  63  89 125 171 213 257 313 373
#     4  11  22  37  62 100 124 159 200 258 319 362
#
# _framework density 19.451149999999998
#
# number of rings (size 3 to 8) (size 9 to 14) (size 15 to 20)
#    0.000    0.750    5.000    3.750    7.000    1.000 
#    0.000    0.000    0.000    1.500    0.000    0.000 
#    0.000    0.000    0.000    0.000    0.000    0.000 
#
# Total GULP energy -198249.176009 kJ/mol
# GULP energy per Si atom -12390.573501 kJ/mol
# Density = 1.940688 g / cm^3
# Si number density = 19.451150 Si / 1000 Ang^3
#
#
#
# Elastic Constant Matrix: (Units=GPa)
#
#
# Indices 1 2 3 4 5 6 
#
# 1 101.4450 51.1896 45.7318 0.0000 -3.3396 0.0000
# 2 51.1896 114.1743 68.1298 0.0001 0.3745 0.0000
# 3 45.7318 68.1298 210.1533 -0.0002 -18.3360 0.0000
# 4 0.0000 0.0001 -0.0002 30.5828 0.0000 5.2923
# 5 -3.3396 0.3745 -18.3360 0.0000 37.6581 0.0000
# 6 0.0000 0.0000 0.0000 5.2923 0.0000 29.3307
#
#
#
# Elastic Compliance Matrix: (Units=1/GPa)
#
#
# Indices 1 2 3 4 5 6 
#
# 1 0.012981 -0.005172 -0.001089 0.000000 0.000672 0.000000
# 2 -0.005172 0.013052 -0.003297 0.000000 -0.002194 0.000000
# 3 -0.001089 -0.003297 0.006328 0.000000 0.003017 0.000000
# 4 0.000000 0.000000 0.000000 0.033752 0.000000 -0.006090
# 5 0.000672 -0.002194 0.003017 0.000000 0.028105 0.000000
# 6 0.000000 0.000000 0.000000 -0.006090 0.000000 0.035193
#
#
# Mechanical properties :
#
#
# Convention : Reuss Voigt Hill
#
# Bulk Modulus (GPa) = 75.51101 83.98612 79.74856
# Shear Modulus (GPa) = 32.69210 36.89575 34.79393
#
# Velocity S-wave (km/s) = 4.10412 4.36000 4.23399
# Velocity P-wave (km/s) = 7.83348 8.28359 8.06168
#
# Compressibility (1/GPa) = 0.01324310
#
# Stress axis : x y z
#
# Youngs Moduli (GPa) = 77.03831 76.61593 158.03496
#
# Poissons Ratio (x) = 0.39625 0.17216
# Poissons Ratio (y) = 0.39844 0.52109
# Poissons Ratio (z) = 0.08392 0.25263
#
# Static dielectric constant tensor:
#      x y z
#    x 3.647640 0.000000 -0.025280 
#    y 0.000000 3.523630 0.000000 
#    z -0.025280 0.000000 4.341100 
# 
# 
# High freq. dielectric constant tensor:
#      x y z
#    x 1.767620 0.000000 -0.002350 
#    y 0.000000 1.724290 0.000000 
#    z -0.002350 0.000000 1.791060 
# 
# From -- ./inp_files/37633.got.cif
#   From: 2010.06.25/outbox.cif.g09.slc.cpg/sg12_19_cif.got.tgz:37633.got - 2010.06.28 00:19:55.
