data_PCOD8114169
_publ_section_title
;
Structure prediction by ZEFSAII (Michael W. Deem and Ramdas Pophale) SiO2 
 PCOD8114169
Probable space group: C 2/M
;
_chemical_formula_sum "Si O2"
_cell_formula_units_Z 56
_cell_length_a 9.128747
_cell_length_b 28.490257
_cell_length_c 15.539373
_cell_angle_alpha 90.000000
_cell_angle_beta 54.069362
_cell_angle_gamma 90.000000
_cell_volume 3272.503887
_symmetry_space_group_name_H-M "C 2/M"
_symmetry_group_IT_number 12
_symmetry_cell_setting 'monoclinic'
loop_
_space_group_symop_operation_xyz
x,y,z
-x,y,-z
-x,-y,-z
x,-y,z
1/2+x,1/2+y,z
1/2-x,1/2+y,-z
1/2-x,1/2-y,-z
1/2+x,1/2-y,z
loop_
_atom_site_type_symbol
_atom_site_label
_atom_site_fract_x
_atom_site_fract_y
_atom_site_fract_z
Si Si1 0.045456 0.054224 0.622532
Si Si2 0.955907 0.205304 0.876992
Si Si3 0.329526 0.944620 0.001670
Si Si4 0.523960 0.604459 0.804474
Si Si5 0.207022 0.296180 0.119554
Si Si6 0.709762 0.945775 0.622519
Si Si7 0.633261 0.102500 0.193544
O O1 0.194691 0.066847 0.500016
O O2 0.086153 0.086082 0.690572
O O3 0.845672 0.064517 0.654526
O O4 0.060574 0.000000 0.644266
O O5 0.983008 0.159761 0.808192
O O6 0.926370 0.251558 0.829367
O O7 0.130993 0.215046 0.872727
O O8 0.781426 0.196114 0.997330
O O9 0.359674 0.928411 0.894209
O O10 0.304290 0.000000 0.011500
O O11 0.500000 0.928907 0.000000
O O12 0.152048 0.922236 0.103028
O O13 0.679791 0.595494 0.820489
O O14 0.100270 0.342933 0.183080
O O15 0.533158 0.913834 0.690561
O O16 0.651481 0.000000 0.644027
#
# Coordination Sequence:
#
# PCOD8114169 Si02
#       7
#     8   8   8   8   8   8   8
#     4   9  19  36  55  75 102 137 177 216 251 297
#     4   9  18  33  50  72 102 133 167 207 252 303
#     4  11  23  35  48  71 104 141 176 205 244 305
#     4  11  21  34  52  77 107 134 166 213 262 306
#     4   9  18  33  50  72 102 133 167 207 252 303
#     4   9  19  36  55  75 102 137 177 216 251 297
#     4  11  21  34  52  77 107 134 166 213 262 306
#
# _framework density 17.112278
#
# number of rings (size 3 to 8) (size 9 to 14) (size 15 to 20)
#    0.000    2.143    1.429    3.000    0.000    8.000 
#    0.000    1.429    0.000    0.857    0.000    0.000 
#    0.000    0.000    0.000    0.000    0.000    0.000 
#
# Total GULP energy -347259.991875 kJ/mol
# GULP energy per Si atom -12402.142567 kJ/mol
# Density = 1.707333 g / cm^3
# Si number density = 17.112278 Si / 1000 Ang^3
#
#
#
# Elastic Constant Matrix: (Units=GPa)
#
#
# Indices 1 2 3 4 5 6 
#
# 1 79.0202 50.8517 35.7939 0.0000 -3.7887 0.0000
# 2 50.8517 92.3013 39.8475 0.0000 -3.8176 0.0000
# 3 35.7939 39.8475 72.4947 0.0000 -0.7823 0.0000
# 4 0.0000 0.0000 0.0000 14.0629 0.0000 0.8413
# 5 -3.7887 -3.8176 -0.7823 0.0000 30.9956 0.0000
# 6 0.0000 0.0000 0.0000 0.8413 0.0000 33.6470
#
#
#
# Elastic Compliance Matrix: (Units=1/GPa)
#
#
# Indices 1 2 3 4 5 6 
#
# 1 0.021087 -0.009276 -0.005299 0.000000 0.001301 0.000000
# 2 -0.009276 0.018360 -0.005501 0.000000 0.000989 0.000000
# 3 -0.005299 -0.005501 0.019425 0.000000 -0.000835 0.000000
# 4 0.000000 0.000000 0.000000 0.071216 0.000000 -0.001781
# 5 0.001301 0.000989 -0.000835 0.000000 0.032522 0.000000
# 6 0.000000 0.000000 0.000000 -0.001781 0.000000 0.029765
#
#
# Mechanical properties :
#
#
# Convention : Reuss Voigt Hill
#
# Bulk Modulus (GPa) = 53.41834 55.20026 54.30930
# Shear Modulus (GPa) = 20.94080 23.56264 22.25172
#
# Velocity S-wave (km/s) = 3.50198 3.71474 3.60993
# Velocity P-wave (km/s) = 6.90188 7.12228 7.01294
#
# Compressibility (1/GPa) = 0.01872016
#
# Stress axis : x y z
#
# Youngs Moduli (GPa) = 47.42236 54.46479 51.47938
#
# Poissons Ratio (x) = 0.50522 0.27278
# Poissons Ratio (y) = 0.43990 0.28320
# Poissons Ratio (z) = 0.25128 0.29963
#
# Static dielectric constant tensor:
#      x y z
#    x 3.238720 0.000000 0.022580 
#    y 0.000000 3.282190 0.000000 
#    z 0.022580 0.000000 3.080160 
# 
# 
# High freq. dielectric constant tensor:
#      x y z
#    x 1.666920 0.000000 0.001020 
#    y 0.000000 1.662340 0.000000 
#    z 0.001020 0.000000 1.642480 
# 
# From -- ./inp_files/199694.got.cif
#   From: 2010.06.25/outbox.cif.g09.slc.cpg/sg12_100_cif.got.tgz:199694.got - 2010.06.28 00:19:55.
