data_PCOD8114153
_publ_section_title
;
Structure prediction by ZEFSAII (Michael W. Deem and Ramdas Pophale) SiO2 
 PCOD8114153
Probable space group: C 2/M
;
_chemical_formula_sum "Si O2"
_cell_formula_units_Z 32
_cell_length_a 9.986772
_cell_length_b 16.962214
_cell_length_c 7.575917
_cell_angle_alpha 90.000000
_cell_angle_beta 78.925490
_cell_angle_gamma 90.000000
_cell_volume 1259.445256
_symmetry_space_group_name_H-M "C 2/M"
_symmetry_group_IT_number 12
_symmetry_cell_setting 'monoclinic'
loop_
_space_group_symop_operation_xyz
x,y,z
-x,y,-z
-x,-y,-z
x,-y,z
1/2+x,1/2+y,z
1/2-x,1/2+y,-z
1/2-x,1/2-y,-z
1/2+x,1/2-y,z
loop_
_atom_site_type_symbol
_atom_site_label
_atom_site_fract_x
_atom_site_fract_y
_atom_site_fract_z
Si Si1 0.904043 0.818426 0.820225
Si Si2 0.199075 0.091382 0.449273
Si Si3 0.760913 0.828982 0.199622
Si Si4 0.470860 0.829335 0.305810
O O1 0.916493 0.886790 0.668051
O O2 0.772582 0.765283 0.791221
O O3 0.037984 0.758406 0.791476
O O4 0.870130 0.854866 0.021416
O O5 0.176383 0.141120 0.632102
O O6 0.344716 0.112137 0.319166
O O7 0.192149 0.000000 0.496064
O O8 0.611725 0.870915 0.200991
O O9 0.500000 0.805299 0.500000
#
# Coordination Sequence:
#
# PCOD8114153 Si02
#       4
#     8   8   8   8
#     4   9  18  37  52  76 110 155 183 220 266 333
#     4  11  21  33  57  88 115 141 175 229 292 328
#     4   8  18  35  53  73 114 149 187 218 264 329
#     4   8  17  32  53  80 108 141 188 225 261 323
#
# _framework density 25.408013
#
# number of rings (size 3 to 8) (size 9 to 14) (size 15 to 20)
#    1.500    1.500    0.000    0.750    0.000    6.500 
#    0.000    1.250    0.000    0.750    0.000    1.750 
#    0.000    0.000    0.000    0.000    0.000    0.000 
#
# Total GULP energy -198220.272727 kJ/mol
# GULP energy per Si atom -12388.767045 kJ/mol
# Density = 2.535018 g / cm^3
# Si number density = 25.408013 Si / 1000 Ang^3
#
#
#
# Elastic Constant Matrix: (Units=GPa)
#
#
# Indices 1 2 3 4 5 6 
#
# 1 87.7453 18.7624 8.1938 0.0000 -10.7908 0.0000
# 2 18.7624 72.5481 31.9264 0.0000 -8.2571 0.0000
# 3 8.1938 31.9264 127.1024 0.0000 -5.3268 0.0000
# 4 0.0000 0.0000 0.0000 13.8972 0.0000 0.5069
# 5 -10.7908 -8.2571 -5.3268 0.0000 17.3883 0.0000
# 6 0.0000 0.0000 0.0000 0.5069 0.0000 29.7227
#
#
#
# Elastic Compliance Matrix: (Units=1/GPa)
#
#
# Indices 1 2 3 4 5 6 
#
# 1 0.012766 -0.002583 0.000108 0.000000 0.006729 0.000000
# 2 -0.002583 0.016720 -0.003817 0.000000 0.005167 0.000000
# 3 0.000108 -0.003817 0.008860 0.000000 0.000969 0.000000
# 4 0.000000 0.000000 0.000000 0.072002 0.000000 -0.001228
# 5 0.006729 0.005167 0.000969 0.000000 0.064437 0.000000
# 6 0.000000 0.000000 0.000000 -0.001228 0.000000 0.033665
#
#
# Mechanical properties :
#
#
# Convention : Reuss Voigt Hill
#
# Bulk Modulus (GPa) = 38.81673 45.01789 41.91731
# Shear Modulus (GPa) = 21.77497 27.43583 24.60540
#
# Velocity S-wave (km/s) = 2.93065 3.28961 3.11531
# Velocity P-wave (km/s) = 5.17322 5.67320 5.42897
#
# Compressibility (1/GPa) = 0.02576209
#
# Stress axis : x y z
#
# Youngs Moduli (GPa) = 78.33035 59.80939 112.86657
#
# Poissons Ratio (x) = 0.15450 -0.01218
# Poissons Ratio (y) = 0.20235 0.43078
# Poissons Ratio (z) = -0.00845 0.22827
#
# Static dielectric constant tensor:
#      x y z
#    x 5.030870 0.000000 -0.418360 
#    y 0.000000 3.753400 0.000000 
#    z -0.418360 0.000000 4.681370 
# 
# 
# High freq. dielectric constant tensor:
#      x y z
#    x 2.065670 0.000000 -0.015540 
#    y 0.000000 1.932590 0.000000 
#    z -0.015540 0.000000 2.021350 
# 
# From -- ./inp_files/57718.got.cif
#   From: 2010.06.25/outbox.cif.g09.slc.cpg/sg12_29_cif.got.tgz:57718.got - 2010.06.28 00:19:55.
