data_PCOD8114512
_publ_section_title
;
Structure prediction by ZEFSAII (Michael W. Deem and Ramdas Pophale) SiO2 
 PCOD8114512
Probable space group: C 2/M
;
_chemical_formula_sum "Si O2"
_cell_formula_units_Z 40
_cell_length_a 20.069630
_cell_length_b 10.686208
_cell_length_c 9.432645
_cell_angle_alpha 90.000000
_cell_angle_beta 106.000304
_cell_angle_gamma 90.000000
_cell_volume 1944.632123
_symmetry_space_group_name_H-M "C 2/M"
_symmetry_group_IT_number 12
_symmetry_cell_setting 'monoclinic'
loop_
_space_group_symop_operation_xyz
x,y,z
-x,y,-z
-x,-y,-z
x,-y,z
1/2+x,1/2+y,z
1/2-x,1/2+y,-z
1/2-x,1/2-y,-z
1/2+x,1/2-y,z
loop_
_atom_site_type_symbol
_atom_site_label
_atom_site_fract_x
_atom_site_fract_y
_atom_site_fract_z
Si Si1 0.122774 0.000000 0.422754
Si Si2 0.930562 0.641717 0.872462
Si Si3 0.834097 0.000000 0.854915
Si Si4 0.581664 0.500000 0.803267
Si Si5 0.477870 0.292014 0.636090
Si Si6 0.710378 0.239692 0.124034
Si Si7 0.280358 0.500000 0.294686
O O1 0.083532 0.120875 0.457670
O O2 0.202168 0.000000 0.527014
O O3 0.115475 0.000000 0.249168
O O4 0.904913 0.500000 0.840849
O O5 0.944736 0.692319 0.723391
O O6 0.872434 0.715503 0.929744
O O7 0.000000 0.652568 0.000000
O O8 0.782904 0.880114 0.811241
O O9 0.884667 0.000000 0.020257
O O10 0.536494 0.374768 0.750799
O O11 0.645547 0.500000 0.735055
O O12 0.500000 0.225707 0.500000
O O13 0.740613 0.128068 0.236376
O O14 0.750000 0.250000 0.000000
#
# Coordination Sequence:
#
# PCOD8114512 Si02
#       7
#     4   8   4   4   8   8   4
#     4  11  23  40  65  99 130 171 218 282 333 397
#     4  11  25  44  67  98 137 180 221 276 339 396
#     4  12  24  41  66 103 126 169 236 270 324 402
#     4  11  21  40  71 103 123 174 215 292 327 394
#     4  11  22  40  69  99 131 168 226 273 342 395
#     4  12  24  43  70 100 133 179 224 277 330 401
#     4  12  24  43  69  91 143 178 219 269 353 384
#
# _framework density 20.569445000000002
#
# number of rings (size 3 to 8) (size 9 to 14) (size 15 to 20)
#    0.000    0.600    7.000    1.800    0.000    2.000 
#    0.000    0.000    0.000    0.000    0.000    0.000 
#    0.000    0.000    0.000    0.000    0.000    0.000 
#
# Total GULP energy -247808.057357 kJ/mol
# GULP energy per Si atom -12390.402868 kJ/mol
# Density = 2.052263 g / cm^3
# Si number density = 20.569445 Si / 1000 Ang^3
#
#
#
# Elastic Constant Matrix: (Units=GPa)
#
#
# Indices 1 2 3 4 5 6 
#
# 1 104.0626 50.7586 37.6047 0.0000 -18.4765 0.0000
# 2 50.7586 142.3374 35.6714 0.0000 3.9606 0.0000
# 3 37.6047 35.6714 115.6814 0.0000 -8.3480 0.0000
# 4 0.0000 0.0000 0.0000 9.4901 0.0000 -14.9453
# 5 -18.4765 3.9606 -8.3480 0.0000 44.6546 0.0000
# 6 0.0000 0.0000 0.0000 -14.9453 0.0000 10.1249
#
#
#
# Elastic Compliance Matrix: (Units=1/GPa)
#
#
# Indices 1 2 3 4 5 6 
#
# 1 0.013701 -0.004362 -0.002708 0.000000 0.005550 0.000000
# 2 -0.004362 0.009059 -0.001585 0.000000 -0.002904 0.000000
# 3 -0.002708 -0.001585 0.010079 0.000000 0.000904 0.000000
# 4 0.000000 0.000000 0.000000 -0.079550 0.000000 -0.117424
# 5 0.005550 -0.002904 0.000904 0.000000 0.025117 0.000000
# 6 0.000000 0.000000 0.000000 -0.117424 0.000000 -0.074563
#
#
# Mechanical properties :
#
#
# Convention : Reuss Voigt Hill
#
# Bulk Modulus (GPa) = 64.39718 67.79455 66.09587
# Shear Modulus (GPa) = -67.86978 28.72369 -19.57305
#
# Velocity S-wave (km/s) = -5.75040 3.74093 -3.08808
# Velocity P-wave (km/s) = 3.56570 7.18956 4.41450
#
# Compressibility (1/GPa) = 0.01552863
#
# Stress axis : x y z
#
# Youngs Moduli (GPa) = 72.98680 110.38722 99.21689
#
# Poissons Ratio (x) = 0.48146 0.26872
# Poissons Ratio (y) = 0.31834 0.15728
# Poissons Ratio (z) = 0.19768 0.17499
#
# Static dielectric constant tensor:
#      x y z
#    x 3.935690 0.000000 -0.127750 
#    y 0.000000 4.020390 0.000000 
#    z -0.127750 0.000000 3.895850 
# 
# 
# High freq. dielectric constant tensor:
#      x y z
#    x 1.811840 0.000000 -0.012650 
#    y 0.000000 1.807200 0.000000 
#    z -0.012650 0.000000 1.799430 
# 
# From -- ./inp_files/83700.got.cif
#   From: 2010.06.25/outbox.cif.g09.slc.cpg/sg12_42_cif.got.tgz:83700.got - 2010.06.28 00:19:55.
