data_PCOD8114817
_publ_section_title
;
Structure prediction by ZEFSAII (Michael W. Deem and Ramdas Pophale) SiO2 
 PCOD8114817
Probable space group: C 2/M
;
_chemical_formula_sum "Si O2"
_cell_formula_units_Z 64
_cell_length_a 9.105469
_cell_length_b 22.645745
_cell_length_c 15.161255
_cell_angle_alpha 90.000000
_cell_angle_beta 91.354438
_cell_angle_gamma 90.000000
_cell_volume 3125.379270
_symmetry_space_group_name_H-M "C 2/M"
_symmetry_group_IT_number 12
_symmetry_cell_setting 'monoclinic'
loop_
_space_group_symop_operation_xyz
x,y,z
-x,y,-z
-x,-y,-z
x,-y,z
1/2+x,1/2+y,z
1/2-x,1/2+y,-z
1/2-x,1/2-y,-z
1/2+x,1/2-y,z
loop_
_atom_site_type_symbol
_atom_site_label
_atom_site_fract_x
_atom_site_fract_y
_atom_site_fract_z
Si Si1 0.016568 0.174643 0.272467
Si Si2 0.659022 0.567137 0.518443
Si Si3 0.722854 0.878374 0.316274
Si Si4 0.573608 0.830188 0.915541
Si Si5 0.719872 0.120197 0.641586
Si Si6 0.400909 0.284741 0.914342
Si Si7 0.492243 0.786967 0.604263
Si Si8 0.965094 0.567469 0.217769
O O1 0.117276 0.123563 0.315732
O O2 0.066702 0.178285 0.172302
O O3 0.038948 0.231239 0.334930
O O4 0.846805 0.157598 0.266779
O O5 0.500000 0.596980 0.500000
O O6 0.652539 0.500000 0.488389
O O7 0.704779 0.572511 0.620339
O O8 0.778157 0.599237 0.459040
O O9 0.634708 0.834341 0.379051
O O10 0.630869 0.912896 0.241124
O O11 0.448428 0.782047 0.886694
O O12 0.726939 0.794281 0.934671
O O13 0.602005 0.883863 0.849448
O O14 0.500000 0.860480 0.000000
O O15 0.644524 0.184758 0.640973
O O16 0.628350 0.071435 0.694247
O O17 0.500000 0.304750 0.000000
O O18 0.500000 0.770205 0.500000
O O19 0.960110 0.500000 0.181200
#
# Coordination Sequence:
#
# PCOD8114817 Si02
#       8
#     8   8   8   8   8   8   8   8
#     4  12  25  38  64  93 131 168 209 263 323 390
#     4  11  22  38  59  84 118 169 227 275 313 366
#     4  11  24  40  61  91 129 168 221 263 317 374
#     4  11  24  43  72 101 131 168 209 264 329 392
#     4  11  22  42  58  91 126 169 215 261 317 372
#     4  11  24  43  70 103 133 169 212 269 326 389
#     4  11  24  37  60  93 134 172 211 261 320 381
#     4  11  25  45  67  94 128 168 217 268 323 385
#
# _framework density 20.477515
#
# number of rings (size 3 to 8) (size 9 to 14) (size 15 to 20)
#    0.000    0.875    3.750    4.500    7.000    1.250 
#    0.000    1.875    0.000    0.375    0.000    0.000 
#    0.000    0.000    0.000    0.000    0.000    0.000 
#
# Total GULP energy -396643.524393 kJ/mol
# GULP energy per Si atom -12395.110137 kJ/mol
# Density = 2.043091 g / cm^3
# Si number density = 20.477515 Si / 1000 Ang^3
#
#
#
# Elastic Constant Matrix: (Units=GPa)
#
#
# Indices 1 2 3 4 5 6 
#
# 1 112.9076 36.4173 22.2617 0.0000 -1.8319 0.0000
# 2 36.4173 86.5381 25.3901 0.0000 5.1372 0.0000
# 3 22.2617 25.3901 85.6110 0.0000 -5.6678 0.0000
# 4 0.0000 0.0000 0.0000 23.6567 0.0000 2.9987
# 5 -1.8319 5.1372 -5.6678 0.0000 33.9672 0.0000
# 6 0.0000 0.0000 0.0000 2.9987 0.0000 20.9909
#
#
#
# Elastic Compliance Matrix: (Units=1/GPa)
#
#
# Indices 1 2 3 4 5 6 
#
# 1 0.010459 -0.004027 -0.001464 0.000000 0.000929 0.000000
# 2 -0.004027 0.014433 -0.003430 0.000000 -0.002972 0.000000
# 3 -0.001464 -0.003430 0.013254 0.000000 0.002651 0.000000
# 4 0.000000 0.000000 0.000000 0.043051 0.000000 -0.006150
# 5 0.000929 -0.002972 0.002651 0.000000 0.030382 0.000000
# 6 0.000000 0.000000 0.000000 -0.006150 0.000000 0.048518
#
#
# Mechanical properties :
#
#
# Convention : Reuss Voigt Hill
#
# Bulk Modulus (GPa) = 49.25051 50.35502 49.80276
# Shear Modulus (GPa) = 27.06963 29.12214 28.09588
#
# Velocity S-wave (km/s) = 3.63977 3.77523 3.70812
# Velocity P-wave (km/s) = 6.46275 6.60659 6.53506
#
# Compressibility (1/GPa) = 0.02030436
#
# Stress axis : x y z
#
# Youngs Moduli (GPa) = 95.60730 69.28467 75.44756
#
# Poissons Ratio (x) = 0.27902 0.11045
# Poissons Ratio (y) = 0.38503 0.25879
# Poissons Ratio (z) = 0.13996 0.23765
#
# Static dielectric constant tensor:
#      x y z
#    x 3.951600 0.000000 -0.101870 
#    y 0.000000 3.414570 0.000000 
#    z -0.101870 0.000000 3.736460 
# 
# 
# High freq. dielectric constant tensor:
#      x y z
#    x 1.816150 0.000000 -0.008050 
#    y 0.000000 1.776920 0.000000 
#    z -0.008050 0.000000 1.801260 
# 
# From -- ./inp_files/198891.got.cif
#   From: 2010.06.25/outbox.cif.g09.slc.cpg/sg12_100_cif.got.tgz:198891.got - 2010.06.28 00:19:55.
