data_PCOD8114458
_publ_section_title
;
Structure prediction by ZEFSAII (Michael W. Deem and Ramdas Pophale) SiO2 
 PCOD8114458
Probable space group: C 2/M
;
_chemical_formula_sum "Si O2"
_cell_formula_units_Z 56
_cell_length_a 9.296549
_cell_length_b 24.422700
_cell_length_c 20.029777
_cell_angle_alpha 90.000000
_cell_angle_beta 37.911497
_cell_angle_gamma 90.000000
_cell_volume 2794.303174
_symmetry_space_group_name_H-M "C 2/M"
_symmetry_group_IT_number 12
_symmetry_cell_setting 'monoclinic'
loop_
_space_group_symop_operation_xyz
x,y,z
-x,y,-z
-x,-y,-z
x,-y,z
1/2+x,1/2+y,z
1/2-x,1/2+y,-z
1/2-x,1/2-y,-z
1/2+x,1/2-y,z
loop_
_atom_site_type_symbol
_atom_site_label
_atom_site_fract_x
_atom_site_fract_y
_atom_site_fract_z
Si Si1 0.135770 0.593501 0.246253
Si Si2 0.260273 0.690262 0.886823
Si Si3 0.015939 0.000000 0.917023
Si Si4 0.126855 0.561026 0.389869
Si Si5 0.617909 0.409749 0.248507
Si Si6 0.396143 0.302850 0.109995
Si Si7 0.479122 0.000000 0.084471
Si Si8 0.361142 0.563395 0.616006
O O1 0.359762 0.553949 0.157371
O O2 0.062937 0.598305 0.350303
O O3 0.195482 0.653751 0.199434
O O4 0.917963 0.568639 0.286881
O O5 0.375627 0.646562 0.795127
O O6 0.410822 0.699193 0.900330
O O7 0.235541 0.745329 0.852144
O O8 0.000000 0.669485 0.000000
O O9 0.000000 0.000000 0.000000
O O10 0.746224 0.000000 0.003016
O O11 0.025080 0.500000 0.414837
O O12 0.404631 0.555970 0.296646
O O13 0.000000 0.588148 0.500000
O O14 0.853738 0.445230 0.156798
O O15 0.565214 0.400264 0.346703
O O16 0.500000 0.319996 0.000000
O O17 0.500000 0.000000 0.000000
O O18 0.500000 0.585257 0.500000
O O19 0.425931 0.500000 0.605445
#
# Coordination Sequence:
#
# PCOD8114458 Si02
#       8
#     8   8   4   8   8   8   4   8
#     4  12  23  40  63  92 129 166 212 256 324 379
#     4  11  25  43  67  94 127 169 218 260 311 383
#     4  12  24  38  55  92 131 168 198 252 318 381
#     4  11  21  39  64  92 125 163 213 263 313 381
#     4  12  23  40  63  93 128 171 210 260 320 378
#     4  11  25  44  67  95 126 169 217 260 313 381
#     4  12  24  36  57  90 135 164 204 250 318 387
#     4  11  23  41  64  95 131 169 217 266 316 380
#
# _framework density 20.040776000000001
#
# number of rings (size 3 to 8) (size 9 to 14) (size 15 to 20)
#    0.000    0.571    4.286    5.143    6.000    2.286 
#    0.000    0.000    0.000    5.143    0.000    0.000 
#    0.000    0.000    0.000    0.000    0.000    0.000 
#
# Total GULP energy -347075.635836 kJ/mol
# GULP energy per Si atom -12395.558423 kJ/mol
# Density = 1.999516 g / cm^3
# Si number density = 20.040776 Si / 1000 Ang^3
#
#
#
# Elastic Constant Matrix: (Units=GPa)
#
#
# Indices 1 2 3 4 5 6 
#
# 1 130.7952 33.1580 35.2435 0.0001 20.3948 0.0000
# 2 33.1580 89.7508 55.2165 -0.0002 18.1622 0.0000
# 3 35.2435 55.2165 96.8417 -0.0014 28.2670 -0.0014
# 4 0.0001 -0.0002 -0.0014 20.4693 0.0000 6.9589
# 5 20.3948 18.1622 28.2670 0.0000 50.9970 0.0003
# 6 0.0000 0.0000 -0.0014 6.9589 0.0003 27.6894
#
#
#
# Elastic Compliance Matrix: (Units=1/GPa)
#
#
# Indices 1 2 3 4 5 6 
#
# 1 0.008861 -0.001916 -0.001547 0.000000 -0.002003 0.000000
# 2 -0.001916 0.017605 -0.009227 0.000000 -0.000389 0.000000
# 3 -0.001547 -0.009227 0.017908 0.000001 -0.006021 0.000001
# 4 0.000000 0.000000 0.000001 0.053418 0.000000 -0.013425
# 5 -0.002003 -0.000389 -0.006021 0.000000 0.023886 0.000000
# 6 0.000000 0.000000 0.000001 -0.013425 0.000000 0.039489
#
#
# Mechanical properties :
#
#
# Convention : Reuss Voigt Hill
#
# Bulk Modulus (GPa) = 52.65212 62.73595 57.69404
# Shear Modulus (GPa) = 25.92302 32.74912 29.33607
#
# Velocity S-wave (km/s) = 3.60045 4.04682 3.83014
# Velocity P-wave (km/s) = 6.60408 7.29436 6.95779
#
# Compressibility (1/GPa) = 0.01899259
#
# Stress axis : x y z
#
# Youngs Moduli (GPa) = 112.85871 56.80091 55.84165
#
# Poissons Ratio (x) = 0.10884 0.08640
# Poissons Ratio (y) = 0.21625 0.51526
# Poissons Ratio (z) = 0.17463 0.52411
#
# Static dielectric constant tensor:
#      x y z
#    x 3.902330 0.000000 0.161660 
#    y 0.000000 3.442390 0.000000 
#    z 0.161660 0.000000 3.916590 
# 
# 
# High freq. dielectric constant tensor:
#      x y z
#    x 1.806900 0.000000 0.010990 
#    y 0.000000 1.749820 0.000000 
#    z 0.010990 0.000000 1.791080 
# 
# From -- ./inp_files/259829.got.cif
#   From: 2010.06.25/outbox.cif.g09.slc.cpg/sg12_130_cif.got.tgz:259829.got - 2010.06.28 00:19:55.
