data_PCOD8114128
_publ_section_title
;
Structure prediction by ZEFSAII (Michael W. Deem and Ramdas Pophale) SiO2 
 PCOD8114128
Probable space group: C 2/M
;
_chemical_formula_sum "Si O2"
_cell_formula_units_Z 48
_cell_length_a 18.820177
_cell_length_b 8.940738
_cell_length_c 17.644496
_cell_angle_alpha 90.000000
_cell_angle_beta 59.331245
_cell_angle_gamma 90.000000
_cell_volume 2553.704880
_symmetry_space_group_name_H-M "C 2/M"
_symmetry_group_IT_number 12
_symmetry_cell_setting 'monoclinic'
loop_
_space_group_symop_operation_xyz
x,y,z
-x,y,-z
-x,-y,-z
x,-y,z
1/2+x,1/2+y,z
1/2-x,1/2+y,-z
1/2-x,1/2-y,-z
1/2+x,1/2-y,z
loop_
_atom_site_type_symbol
_atom_site_label
_atom_site_fract_x
_atom_site_fract_y
_atom_site_fract_z
Si Si1 0.064878 0.335111 0.032458
Si Si2 0.910241 0.164449 0.512728
Si Si3 0.027513 0.676050 0.659806
Si Si4 0.445332 0.675933 0.198948
Si Si5 0.818736 0.324681 0.156468
Si Si6 0.138285 0.175360 0.301858
O O1 0.072725 0.500000 0.065404
O O2 0.151422 0.286206 0.945849
O O3 0.033824 0.220863 0.113490
O O4 0.000000 0.340602 0.000000
O O5 0.851193 0.217156 0.614262
O O6 0.000000 0.154441 0.500000
O O7 0.910962 0.279606 0.442614
O O8 0.883518 0.000000 0.497339
O O9 0.026730 0.500000 0.668340
O O10 0.065055 0.747624 0.714454
O O11 0.934547 0.732555 0.697541
O O12 0.443503 0.500000 0.210013
O O13 0.369157 0.727967 0.189322
O O14 0.833953 0.500000 0.165940
O O15 0.722714 0.282182 0.213627
O O16 0.116787 0.000000 0.305783
#
# Coordination Sequence:
#
# PCOD8114128 Si02
#       6
#     8   8   8   8   8   8
#     4   8  15  30  51  73  98 129 164 200 242 294
#     4   8  15  30  51  73  98 129 164 200 242 294
#     4  11  21  33  51  74 101 132 169 208 246 291
#     4  11  21  33  51  74 101 132 169 208 246 291
#     4   9  18  34  55  77 102 131 162 200 248 298
#     4   9  18  34  55  77 102 131 162 200 248 298
#
# _framework density 18.796220000000002
#
# number of rings (size 3 to 8) (size 9 to 14) (size 15 to 20)
#    0.000    2.667    0.000    5.000    0.000    6.667 
#    0.000    1.667    0.000    0.000    0.000    0.000 
#    0.000    0.000    0.000    0.000    0.000    0.000 
#
# Total GULP energy -297475.510184 kJ/mol
# GULP energy per Si atom -12394.812924 kJ/mol
# Density = 1.875344 g / cm^3
# Si number density = 18.796220 Si / 1000 Ang^3
#
#
#
# Elastic Constant Matrix: (Units=GPa)
#
#
# Indices 1 2 3 4 5 6 
#
# 1 17.3365 13.7573 -8.4573 0.0000 2.0057 0.0000
# 2 13.7573 101.9700 5.2724 0.0000 11.0132 0.0000
# 3 -8.4573 5.2724 30.9074 0.0000 -3.0365 0.0000
# 4 0.0000 0.0000 0.0000 30.5433 0.0000 4.5350
# 5 2.0057 11.0132 -3.0365 0.0000 30.3868 0.0000
# 6 0.0000 0.0000 0.0000 4.5350 0.0000 23.3977
#
#
#
# Elastic Compliance Matrix: (Units=1/GPa)
#
#
# Indices 1 2 3 4 5 6 
#
# 1 0.078583 -0.011992 0.023699 0.000000 0.001528 0.000000
# 2 -0.011992 0.012177 -0.005771 0.000000 -0.004198 0.000000
# 3 0.023699 -0.005771 0.040271 0.000000 0.004552 0.000000
# 4 0.000000 0.000000 0.000000 0.033711 0.000000 -0.006534
# 5 0.001528 -0.004198 0.004552 0.000000 0.034785 0.000000
# 6 0.000000 0.000000 0.000000 -0.006534 0.000000 0.044006
#
#
# Mechanical properties :
#
#
# Convention : Reuss Voigt Hill
#
# Bulk Modulus (GPa) = 6.99785 19.03983 13.01884
# Shear Modulus (GPa) = 17.90226 26.17500 22.03863
#
# Velocity S-wave (km/s) = 3.08951 3.73576 3.42790
# Velocity P-wave (km/s) = 4.05683 5.36279 4.75486
#
# Compressibility (1/GPa) = 0.14290112
#
# Stress axis : x y z
#
# Youngs Moduli (GPa) = 12.72545 82.12483 24.83164
#
# Poissons Ratio (x) = 0.98487 -0.58848
# Poissons Ratio (y) = 0.15261 0.14331
# Poissons Ratio (z) = -0.30158 0.47395
#
# Static dielectric constant tensor:
#      x y z
#    x 3.005450 0.000000 -0.178920 
#    y 0.000000 3.356200 0.000000 
#    z -0.178920 0.000000 4.219680 
# 
# 
# High freq. dielectric constant tensor:
#      x y z
#    x 1.682400 0.000000 -0.003410 
#    y 0.000000 1.722340 0.000000 
#    z -0.003410 0.000000 1.748920 
# 
# From -- ./inp_files/274003.got.cif
#   From: 2010.06.25/outbox.cif.g09.slc.cpg/sg12_138_cif.got.tgz:274003.got - 2010.06.28 00:19:55.
