data_PCOD8114441
_publ_section_title
;
Structure prediction by ZEFSAII (Michael W. Deem and Ramdas Pophale) SiO2 
 PCOD8114441
Probable space group: C 2/M
;
_chemical_formula_sum "Si O2"
_cell_formula_units_Z 40
_cell_length_a 9.521627
_cell_length_b 18.104807
_cell_length_c 11.289852
_cell_angle_alpha 90.000000
_cell_angle_beta 107.854514
_cell_angle_gamma 90.000000
_cell_volume 1852.492256
_symmetry_space_group_name_H-M "C 2/M"
_symmetry_group_IT_number 12
_symmetry_cell_setting 'monoclinic'
loop_
_space_group_symop_operation_xyz
x,y,z
-x,y,-z
-x,-y,-z
x,-y,z
1/2+x,1/2+y,z
1/2-x,1/2+y,-z
1/2-x,1/2-y,-z
1/2+x,1/2-y,z
loop_
_atom_site_type_symbol
_atom_site_label
_atom_site_fract_x
_atom_site_fract_y
_atom_site_fract_z
Si Si1 0.257680 0.657957 0.116140
Si Si2 0.820757 0.672326 0.154207
Si Si3 0.873779 0.834488 0.562720
Si Si4 0.939617 0.915880 0.798284
Si Si5 0.623279 0.177202 0.328303
O O1 0.319296 0.740017 0.144645
O O2 0.392747 0.602665 0.126828
O O3 0.177616 0.642613 0.218725
O O4 0.149965 0.646879 0.974694
O O5 0.668886 0.637292 0.157711
O O6 0.951173 0.652937 0.282068
O O7 0.919264 0.904806 0.651810
O O8 0.719217 0.856893 0.460016
O O9 0.855476 0.765740 0.649598
O O10 0.000000 0.814322 0.500000
O O11 0.905365 0.000000 0.823481
#
# Coordination Sequence:
#
# PCOD8114441 Si02
#       5
#     8   8   8   8   8
#     4  11  21  41  66  96 128 172 221 268 322 396
#     4  11  22  39  67  97 131 165 220 277 326 381
#     4  11  22  39  66  96 133 172 218 268 329 389
#     4  12  26  44  65  98 140 177 216 264 336 403
#     4  11  21  38  67  99 125 163 222 284 320 373
#
# _framework density 21.592531999999999
#
# number of rings (size 3 to 8) (size 9 to 14) (size 15 to 20)
#    0.000    0.800    6.000    1.200    2.800    5.200 
#    0.000    3.000    0.000    2.400    0.000    0.000 
#    0.000    0.000    0.000    0.000    0.000    0.000 
#
# Total GULP energy -247832.311248 kJ/mol
# GULP energy per Si atom -12391.615562 kJ/mol
# Density = 2.154339 g / cm^3
# Si number density = 21.592532 Si / 1000 Ang^3
#
#
#
# Elastic Constant Matrix: (Units=GPa)
#
#
# Indices 1 2 3 4 5 6 
#
# 1 60.3130 7.9019 17.9245 0.0000 3.8978 0.0000
# 2 7.9019 49.8394 19.9524 0.0000 5.8809 0.0000
# 3 17.9245 19.9524 105.1778 0.0000 17.4573 0.0000
# 4 0.0000 0.0000 0.0000 2.7769 0.0000 10.4025
# 5 3.8978 5.8809 17.4573 0.0000 40.5618 0.0000
# 6 0.0000 0.0000 0.0000 10.4025 0.0000 13.7706
#
#
#
# Elastic Compliance Matrix: (Units=1/GPa)
#
#
# Indices 1 2 3 4 5 6 
#
# 1 0.017604 -0.001703 -0.002625 0.000000 -0.000315 0.000000
# 2 -0.001703 0.021961 -0.003634 0.000000 -0.001456 0.000000
# 3 -0.002625 -0.003634 0.011324 0.000000 -0.004095 0.000000
# 4 0.000000 0.000000 0.000000 -0.196800 0.000000 0.148665
# 5 -0.000315 -0.001456 -0.004095 0.000000 0.026657 0.000000
# 6 0.000000 0.000000 0.000000 0.148665 0.000000 -0.039686
#
#
# Mechanical properties :
#
#
# Convention : Reuss Voigt Hill
#
# Bulk Modulus (GPa) = 28.59990 34.09864 31.34927
# Shear Modulus (GPa) = -38.06330 22.72528 -7.66901
#
# Velocity S-wave (km/s) = -4.20313 3.24768 -1.88664
# Velocity P-wave (km/s) = 3.20640 5.46712 3.13117
#
# Compressibility (1/GPa) = 0.03496516
#
# Stress axis : x y z
#
# Youngs Moduli (GPa) = 56.80624 45.53491 88.30787
#
# Poissons Ratio (x) = 0.07755 0.23178
# Poissons Ratio (y) = 0.09675 0.32092
# Poissons Ratio (z) = 0.14910 0.16548
#
# Static dielectric constant tensor:
#      x y z
#    x 3.836870 0.000000 0.041100 
#    y 0.000000 3.350130 0.000000 
#    z 0.041100 0.000000 4.491790 
# 
# 
# High freq. dielectric constant tensor:
#      x y z
#    x 1.847840 0.000000 0.003910 
#    y 0.000000 1.784620 0.000000 
#    z 0.003910 0.000000 1.878850 
# 
# From -- ./inp_files/120395.got.cif
#   From: 2010.06.25/outbox.cif.g09.slc.cpg/sg12_61_cif.got.tgz:120395.got - 2010.06.28 00:19:55.
