data_PCOD8114858
_publ_section_title
;
Structure prediction by ZEFSAII (Michael W. Deem and Ramdas Pophale) SiO2 
 PCOD8114858
Probable space group: C 2/M
;
_chemical_formula_sum "Si O2"
_cell_formula_units_Z 48
_cell_length_a 14.636902
_cell_length_b 8.753709
_cell_length_c 27.947899
_cell_angle_alpha 90.000000
_cell_angle_beta 41.164271
_cell_angle_gamma 90.000000
_cell_volume 2357.010941
_symmetry_space_group_name_H-M "C 2/M"
_symmetry_group_IT_number 12
_symmetry_cell_setting 'monoclinic'
loop_
_space_group_symop_operation_xyz
x,y,z
-x,y,-z
-x,-y,-z
x,-y,z
1/2+x,1/2+y,z
1/2-x,1/2+y,-z
1/2-x,1/2-y,-z
1/2+x,1/2-y,z
loop_
_atom_site_type_symbol
_atom_site_label
_atom_site_fract_x
_atom_site_fract_y
_atom_site_fract_z
Si Si1 0.894958 0.325658 0.142308
Si Si2 0.821047 0.324931 0.017143
Si Si3 0.150514 0.179069 0.499501
Si Si4 0.684172 0.820798 0.161539
Si Si5 0.335288 0.319788 0.614631
Si Si6 0.417083 0.320391 0.233041
O O1 0.847321 0.500000 0.168676
O O2 0.763570 0.224515 0.178662
O O3 0.953328 0.259079 0.168580
O O4 0.013388 0.317194 0.055066
O O5 0.771105 0.500000 0.042547
O O6 0.779192 0.231213 0.080113
O O7 0.750000 0.250000 0.000000
O O8 0.250000 0.250000 0.500000
O O9 0.192785 0.230573 0.429217
O O10 0.990084 0.225981 0.570589
O O11 0.166315 0.000000 0.497752
O O12 0.536506 0.735689 0.221958
O O13 0.657844 0.000000 0.169705
O O14 0.311388 0.500000 0.629814
O O15 0.232810 0.227920 0.689051
O O16 0.422735 0.500000 0.224392
#
# Coordination Sequence:
#
# PCOD8114858 Si02
#       6
#     8   8   8   8   8   8
#     4  11  24  42  63  88 119 158 203 254 308 364
#     4  11  22  38  63  89 118 156 203 254 309 364
#     4   9  19  37  64  92 120 157 196 240 290 349
#     4  12  25  41  62  88 120 160 204 255 308 362
#     4   9  20  40  61  86 123 162 197 237 295 356
#     4  12  25  41  62  89 123 162 204 250 303 362
#
# _framework density 20.364777
#
# number of rings (size 3 to 8) (size 9 to 14) (size 15 to 20)
#    0.000    1.333    1.667    5.500    0.000    6.667 
#    0.000    5.000    0.000    0.000    0.000    0.000 
#    0.000    0.000    0.000    0.000    0.000    0.000 
#
# Total GULP energy -297684.855553 kJ/mol
# GULP energy per Si atom -12403.535648 kJ/mol
# Density = 2.031843 g / cm^3
# Si number density = 20.364777 Si / 1000 Ang^3
#
#
#
# Elastic Constant Matrix: (Units=GPa)
#
#
# Indices 1 2 3 4 5 6 
#
# 1 113.1740 27.6555 18.8094 -0.0003 -12.2361 -0.0009
# 2 27.6555 106.2418 43.5349 -0.0005 -4.5663 -0.0008
# 3 18.8094 43.5349 82.9726 0.0001 -15.3970 -0.0001
# 4 -0.0003 -0.0005 0.0001 33.7767 0.0000 1.2904
# 5 -12.2361 -4.5663 -15.3970 0.0000 22.7354 -0.0002
# 6 -0.0009 -0.0008 -0.0001 1.2904 -0.0002 38.9499
#
#
#
# Elastic Compliance Matrix: (Units=1/GPa)
#
#
# Indices 1 2 3 4 5 6 
#
# 1 0.009946 -0.002323 -0.000148 0.000000 0.004786 0.000000
# 2 -0.002323 0.012623 -0.006700 0.000000 -0.003252 0.000000
# 3 -0.000148 -0.006700 0.017541 0.000000 0.010454 0.000000
# 4 0.000000 0.000000 0.000000 0.029644 0.000000 -0.000982
# 5 0.004786 -0.003252 0.010454 0.000000 0.052987 0.000000
# 6 0.000000 0.000000 0.000000 -0.000982 0.000000 0.025707
#
#
# Mechanical properties :
#
#
# Convention : Reuss Voigt Hill
#
# Bulk Modulus (GPa) = 45.93800 53.59865 49.76833
# Shear Modulus (GPa) = 28.72845 33.25164 30.99004
#
# Velocity S-wave (km/s) = 3.75999 4.04518 3.90519
# Velocity P-wave (km/s) = 6.43868 6.94222 6.69518
#
# Compressibility (1/GPa) = 0.02176847
#
# Stress axis : x y z
#
# Youngs Moduli (GPa) = 100.54766 79.22175 57.00906
#
# Poissons Ratio (x) = 0.18400 0.00843
# Poissons Ratio (y) = 0.23353 0.38196
# Poissons Ratio (z) = 0.01486 0.53079
#
# Static dielectric constant tensor:
#      x y z
#    x 4.281860 0.000000 0.003390 
#    y 0.000000 3.667540 0.000000 
#    z 0.003390 0.000000 3.692370 
# 
# 
# High freq. dielectric constant tensor:
#      x y z
#    x 1.806370 0.000000 -0.007330 
#    y 0.000000 1.799100 0.000000 
#    z -0.007330 0.000000 1.789570 
# 
# From -- ./inp_files/360225.got.cif
#   From: 2010.06.25/outbox.cif.g09.slc.cpg/sg12_181_cif.got.tgz:360225.got - 2010.06.28 00:19:55.
