data_PCOD8114063
_publ_section_title
;
Structure prediction by ZEFSAII (Michael W. Deem and Ramdas Pophale) SiO2 
 PCOD8114063
Probable space group: C 2/M
;
_chemical_formula_sum "Si O2"
_cell_formula_units_Z 48
_cell_length_a 15.494785
_cell_length_b 10.760491
_cell_length_c 21.061402
_cell_angle_alpha 90.000000
_cell_angle_beta 39.918961
_cell_angle_gamma 90.000000
_cell_volume 2253.405305
_symmetry_space_group_name_H-M "C 2/M"
_symmetry_group_IT_number 12
_symmetry_cell_setting 'monoclinic'
loop_
_space_group_symop_operation_xyz
x,y,z
-x,y,-z
-x,-y,-z
x,-y,z
1/2+x,1/2+y,z
1/2-x,1/2+y,-z
1/2-x,1/2-y,-z
1/2+x,1/2-y,z
loop_
_atom_site_type_symbol
_atom_site_label
_atom_site_fract_x
_atom_site_fract_y
_atom_site_fract_z
Si Si1 0.936080 0.000000 0.773658
Si Si2 0.195396 0.000000 0.703851
Si Si3 0.225692 0.754388 0.114238
Si Si4 0.717368 0.263041 0.777122
Si Si5 0.616339 0.500000 0.548663
Si Si6 0.938483 0.356034 0.900617
Si Si7 0.625218 0.000000 0.523534
Si Si8 0.502458 0.254627 0.426816
O O1 0.839424 0.116119 0.831174
O O2 0.038579 0.000000 0.774476
O O3 0.021620 0.000000 0.662514
O O4 0.222224 0.883466 0.731830
O O5 0.298131 0.000000 0.587259
O O6 0.283061 0.698517 0.147955
O O7 0.112566 0.669764 0.142888
O O8 0.352602 0.770612 0.996447
O O9 0.594079 0.176472 0.824785
O O10 0.857047 0.194533 0.681043
O O11 0.771129 0.500000 0.478030
O O12 0.597153 0.372208 0.521019
O O13 0.916422 0.500000 0.928745
O O14 0.540920 0.873543 0.583537
O O15 0.500000 0.212136 0.500000
#
# Coordination Sequence:
#
# PCOD8114063 Si02
#       8
#     4   4   8   8   4   8   4   8
#     4  11  20  44  69  93 134 180 219 273 335 404
#     4  11  23  44  70  95 132 181 226 279 331 406
#     4  11  24  45  69 100 133 179 227 273 336 406
#     4  12  25  42  70 100 134 175 230 273 341 400
#     4  11  25  42  70  99 135 174 228 282 343 400
#     4  11  26  45  68 100 138 178 222 285 337 401
#     4  11  24  47  72  92 135 185 230 275 349 406
#     4  12  24  44  66 100 135 178 223 281 341 410
#
# _framework density 21.301093999999999
#
# number of rings (size 3 to 8) (size 9 to 14) (size 15 to 20)
#    0.000    0.667    5.833    2.000    3.500    0.667 
#    3.000    0.833    0.000    0.000    0.000    0.000 
#    0.000    0.000    0.000    0.000    0.000    0.000 
#
# Total GULP energy -297546.470399 kJ/mol
# GULP energy per Si atom -12397.769600 kJ/mol
# Density = 2.125261 g / cm^3
# Si number density = 21.301094 Si / 1000 Ang^3
#
#
#
# Elastic Constant Matrix: (Units=GPa)
#
#
# Indices 1 2 3 4 5 6 
#
# 1 126.6214 31.1757 25.2788 0.0000 -15.2793 0.0000
# 2 31.1757 100.9436 3.8523 0.0000 -16.4447 0.0000
# 3 25.2788 3.8523 67.4416 0.0000 -18.9932 0.0000
# 4 0.0000 0.0000 0.0000 37.6039 0.0000 -6.3113
# 5 -15.2793 -16.4447 -18.9932 0.0000 33.7055 0.0000
# 6 0.0000 0.0000 0.0000 -6.3113 0.0000 -108.4221
#
#
#
# Elastic Compliance Matrix: (Units=1/GPa)
#
#
# Indices 1 2 3 4 5 6 
#
# 1 0.009271 -0.002540 -0.002966 0.000000 0.001292 0.000000
# 2 -0.002540 0.011518 0.001845 0.000000 0.005508 0.000000
# 3 -0.002966 0.001845 0.018672 0.000000 0.010077 0.000000
# 4 0.000000 0.000000 0.000000 0.026336 0.000000 -0.001533
# 5 0.001292 0.005508 0.010077 0.000000 0.038621 0.000000
# 6 0.000000 0.000000 0.000000 -0.001533 0.000000 -0.009134
#
#
# Mechanical properties :
#
#
# Convention : Reuss Voigt Hill
#
# Bulk Modulus (GPa) = 31.11387 46.18000 38.64694
# Shear Modulus (GPa) = 44.12406 8.22413 26.17410
#
# Velocity S-wave (km/s) = 4.55625 1.96705 3.50918
# Velocity P-wave (km/s) = 6.50520 5.18515 5.88232
#
# Compressibility (1/GPa) = 0.03214001
#
# Stress axis : x y z
#
# Youngs Moduli (GPa) = 107.86457 86.82275 53.55606
#
# Poissons Ratio (x) = 0.22049 0.15884
# Poissons Ratio (y) = 0.27392 -0.09882
# Poissons Ratio (z) = 0.31992 -0.16020
#
# Static dielectric constant tensor:
#      x y z
#    x 4.308420 0.000000 -0.189680 
#    y 0.000000 3.655260 0.000000 
#    z -0.189680 0.000000 3.956620 
# 
# 
# High freq. dielectric constant tensor:
#      x y z
#    x 1.853370 0.000000 -0.007090 
#    y 0.000000 1.833940 0.000000 
#    z -0.007090 0.000000 1.832580 
# 
# From -- ./inp_files/310254.got.cif
#   From: 2010.06.25/outbox.cif.g09.slc.cpg/sg12_156_cif.got.tgz:310254.got - 2010.06.28 00:19:55.
