data_PCOD8114873
_publ_section_title
;
Structure prediction by ZEFSAII (Michael W. Deem and Ramdas Pophale) SiO2 
 PCOD8114873
Probable space group: C 2/M
;
_chemical_formula_sum "Si O2"
_cell_formula_units_Z 52
_cell_length_a 17.562781
_cell_length_b 13.668707
_cell_length_c 15.772557
_cell_angle_alpha 90.000000
_cell_angle_beta 42.972282
_cell_angle_gamma 90.000000
_cell_volume 2580.956847
_symmetry_space_group_name_H-M "C 2/M"
_symmetry_group_IT_number 12
_symmetry_cell_setting 'monoclinic'
loop_
_space_group_symop_operation_xyz
x,y,z
-x,y,-z
-x,-y,-z
x,-y,z
1/2+x,1/2+y,z
1/2-x,1/2+y,-z
1/2-x,1/2-y,-z
1/2+x,1/2-y,z
loop_
_atom_site_type_symbol
_atom_site_label
_atom_site_fract_x
_atom_site_fract_y
_atom_site_fract_z
Si Si1 0.966537 0.112293 0.833939
Si Si2 0.260401 0.388624 0.124993
Si Si3 0.181330 0.801814 0.744051
Si Si4 0.775419 0.109001 0.614957
Si Si5 0.676060 0.112440 0.520016
Si Si6 0.500000 0.684626 0.500000
Si Si7 0.045661 0.272059 0.291804
O O1 0.951381 0.168079 0.757878
O O2 0.060086 0.164662 0.813676
O O3 0.001580 0.000000 0.786819
O O4 0.851273 0.117377 0.977676
O O5 0.232828 0.500000 0.171498
O O6 0.305596 0.335080 0.170903
O O7 0.149622 0.337975 0.178579
O O8 0.194433 0.684084 0.730217
O O9 0.277914 0.845546 0.605332
O O10 0.767982 0.126476 0.519289
O O11 0.904859 0.118803 0.534488
O O12 0.733758 0.000000 0.672080
O O13 0.567276 0.170938 0.638345
O O14 0.643816 0.000000 0.532385
O O15 0.556477 0.753657 0.383516
#
# Coordination Sequence:
#
# PCOD8114873 Si02
#       7
#     8   8   8   8   8   4   8
#     4  11  25  42  65  91 120 167 217 256 303 364
#     4  11  24  42  64  92 123 164 214 260 304 359
#     4  12  21  42  64  92 126 160 203 265 314 361
#     4  11  23  39  60  91 129 165 203 245 306 381
#     4  11  22  38  64  94 125 162 200 252 317 378
#     4  12  23  38  63  92 128 162 197 250 313 364
#     4  12  22  41  63  91 131 163 199 255 313 372
#
# _framework density 20.147568
#
# number of rings (size 3 to 8) (size 9 to 14) (size 15 to 20)
#    0.000    0.615    4.615    4.385    0.000    3.692 
#    0.000    2.308    0.000    2.769    0.000    0.000 
#    0.000    0.000    0.000    0.000    0.000    0.000 
#
# Total GULP energy -322559.832157 kJ/mol
# GULP energy per Si atom -12406.147391 kJ/mol
# Density = 2.010171 g / cm^3
# Si number density = 20.147568 Si / 1000 Ang^3
#
#
#
# Elastic Constant Matrix: (Units=GPa)
#
#
# Indices 1 2 3 4 5 6 
#
# 1 94.4406 40.9204 33.5144 0.0000 -2.9380 0.0000
# 2 40.9204 147.4892 43.3443 0.0000 0.1051 0.0000
# 3 33.5144 43.3443 77.0356 0.0000 -7.9310 0.0000
# 4 0.0000 0.0000 0.0000 26.7009 0.0000 -4.2446
# 5 -2.9380 0.1051 -7.9310 0.0000 33.9296 0.0000
# 6 0.0000 0.0000 0.0000 -4.2446 0.0000 28.2737
#
#
#
# Elastic Compliance Matrix: (Units=1/GPa)
#
#
# Indices 1 2 3 4 5 6 
#
# 1 0.013175 -0.002366 -0.004388 0.000000 0.000122 0.000000
# 2 -0.002366 0.008590 -0.003922 0.000000 -0.001148 0.000000
# 3 -0.004388 -0.003922 0.017480 0.000000 0.003718 0.000000
# 4 0.000000 0.000000 0.000000 0.038368 0.000000 0.005760
# 5 0.000122 -0.001148 0.003718 0.000000 0.030356 0.000000
# 6 0.000000 0.000000 0.000000 0.005760 0.000000 0.036233
#
#
# Mechanical properties :
#
#
# Convention : Reuss Voigt Hill
#
# Bulk Modulus (GPa) = 55.88940 61.61375 58.75157
# Shear Modulus (GPa) = 29.15160 31.19327 30.17244
#
# Velocity S-wave (km/s) = 3.80795 3.93904 3.87405
# Velocity P-wave (km/s) = 6.86543 7.16489 7.01676
#
# Compressibility (1/GPa) = 0.01789248
#
# Stress axis : x y z
#
# Youngs Moduli (GPa) = 75.90291 116.41418 57.20967
#
# Poissons Ratio (x) = 0.27542 0.25103
# Poissons Ratio (y) = 0.17957 0.22439
# Poissons Ratio (z) = 0.33306 0.45659
#
# Static dielectric constant tensor:
#      x y z
#    x 3.705980 0.000000 -0.059100 
#    y 0.000000 3.929710 0.000000 
#    z -0.059100 0.000000 3.535970 
# 
# 
# High freq. dielectric constant tensor:
#      x y z
#    x 1.797760 0.000000 -0.004410 
#    y 0.000000 1.799580 0.000000 
#    z -0.004410 0.000000 1.774920 
# 
# From -- ./inp_files/225624.got.cif
#   From: 2010.06.25/outbox.cif.g09.slc.cpg/sg12_113_cif.got.tgz:225624.got - 2010.06.28 00:19:55.
