data_PCOD8114443
_publ_section_title
;
Structure prediction by ZEFSAII (Michael W. Deem and Ramdas Pophale) SiO2 
 PCOD8114443
Probable space group: C 2/M
;
_chemical_formula_sum "Si O2"
_cell_formula_units_Z 40
_cell_length_a 18.308528
_cell_length_b 9.962927
_cell_length_c 11.172816
_cell_angle_alpha 90.000000
_cell_angle_beta 81.382928
_cell_angle_gamma 90.000000
_cell_volume 2014.989245
_symmetry_space_group_name_H-M "C 2/M"
_symmetry_group_IT_number 12
_symmetry_cell_setting 'monoclinic'
loop_
_space_group_symop_operation_xyz
x,y,z
-x,y,-z
-x,-y,-z
x,-y,z
1/2+x,1/2+y,z
1/2-x,1/2+y,-z
1/2-x,1/2-y,-z
1/2+x,1/2-y,z
loop_
_atom_site_type_symbol
_atom_site_label
_atom_site_fract_x
_atom_site_fract_y
_atom_site_fract_z
Si Si1 0.109262 0.228061 0.013429
Si Si2 0.337241 0.500000 0.590848
Si Si3 0.076425 0.243183 0.549684
Si Si4 0.155376 0.500000 0.887067
Si Si5 0.024130 0.850697 0.817331
Si Si6 0.178285 0.000000 0.140352
Si Si7 0.841128 0.500000 0.384009
O O1 0.039020 0.249013 0.118689
O O2 0.168038 0.136382 0.067778
O O3 0.136800 0.374535 0.974440
O O4 0.090737 0.150206 0.895713
O O5 0.373895 0.632430 0.526987
O O6 0.364361 0.500000 0.722465
O O7 0.248493 0.500000 0.590557
O O8 0.055218 0.188530 0.683553
O O9 0.127873 0.372983 0.550810
O O10 0.000000 0.276231 0.500000
O O11 0.239622 0.500000 0.834437
O O12 0.121962 0.500000 0.759882
O O13 0.988718 0.000000 0.823449
#
# Coordination Sequence:
#
# PCOD8114443 Si02
#       7
#     8   4   8   4   8   4   4
#     4  11  21  39  63  93 128 158 211 261 319 376
#     4  11  25  44  70  95 130 176 222 264 319 391
#     4  12  24  42  71  96 129 170 226 271 320 376
#     4  11  24  39  62  95 129 172 203 254 328 392
#     4  11  21  38  68  92 120 167 210 267 317 376
#     4  11  22  41  64  91 130 166 213 258 306 388
#     4  11  25  46  63  97 140 172 208 269 340 384
#
# _framework density 19.851223999999998
#
# number of rings (size 3 to 8) (size 9 to 14) (size 15 to 20)
#    0.000    0.800    5.000    3.600    0.000    2.400 
#    0.000    3.000    4.400    0.000    0.000    0.000 
#    0.000    0.000    0.000    0.000    0.000    0.000 
#
# Total GULP energy -247905.266160 kJ/mol
# GULP energy per Si atom -12395.263308 kJ/mol
# Density = 1.980604 g / cm^3
# Si number density = 19.851224 Si / 1000 Ang^3
#
#
#
# Elastic Constant Matrix: (Units=GPa)
#
#
# Indices 1 2 3 4 5 6 
#
# 1 100.4749 51.9247 49.9600 0.0000 11.3501 0.0000
# 2 51.9247 163.4308 64.7113 0.0000 0.0164 0.0000
# 3 49.9600 64.7113 131.5483 0.0000 -4.9498 0.0000
# 4 0.0000 0.0000 0.0000 24.7686 0.0000 3.7149
# 5 11.3501 0.0164 -4.9498 0.0000 26.4400 0.0000
# 6 0.0000 0.0000 0.0000 3.7149 0.0000 32.4450
#
#
#
# Elastic Compliance Matrix: (Units=1/GPa)
#
#
# Indices 1 2 3 4 5 6 
#
# 1 0.014359 -0.002854 -0.004311 0.000000 -0.006969 0.000000
# 2 -0.002854 0.008179 -0.002914 0.000000 0.000675 0.000000
# 3 -0.004311 -0.002914 0.010819 0.000000 0.003878 0.000000
# 4 0.000000 0.000000 0.000000 0.041079 0.000000 -0.004704
# 5 -0.006969 0.000675 0.003878 0.000000 0.041539 0.000000
# 6 0.000000 0.000000 0.000000 -0.004704 0.000000 0.031360
#
#
# Mechanical properties :
#
#
# Convention : Reuss Voigt Hill
#
# Bulk Modulus (GPa) = 75.77395 80.96067 78.36731
# Shear Modulus (GPa) = 29.08770 31.98792 30.53781
#
# Velocity S-wave (km/s) = 3.83206 4.01856 3.92641
# Velocity P-wave (km/s) = 7.60482 7.89962 7.75362
#
# Compressibility (1/GPa) = 0.01319715
#
# Stress axis : x y z
#
# Youngs Moduli (GPa) = 69.64333 122.25701 92.43241
#
# Poissons Ratio (x) = 0.34895 0.39852
# Poissons Ratio (y) = 0.19878 0.26938
# Poissons Ratio (z) = 0.30026 0.35629
#
# Static dielectric constant tensor:
#      x y z
#    x 3.687230 0.000000 0.139540 
#    y 0.000000 3.666600 0.000000 
#    z 0.139540 0.000000 3.763240 
# 
# 
# High freq. dielectric constant tensor:
#      x y z
#    x 1.777570 0.000000 0.006310 
#    y 0.000000 1.774660 0.000000 
#    z 0.006310 0.000000 1.789990 
# 
# From -- ./inp_files/151814.got.cif
#   From: 2010.06.25/outbox.cif.g09.slc.cpg/sg12_76_cif.got.tgz:151814.got - 2010.06.28 00:19:55.
