data_PCOD8114933
_publ_section_title
;
Structure prediction by ZEFSAII (Michael W. Deem and Ramdas Pophale) SiO2 
 PCOD8114933
Probable space group: C 2/M
;
_chemical_formula_sum "Si O2"
_cell_formula_units_Z 48
_cell_length_a 9.889939
_cell_length_b 16.623390
_cell_length_c 14.068140
_cell_angle_alpha 90.000000
_cell_angle_beta 97.940552
_cell_angle_gamma 90.000000
_cell_volume 2290.687017
_symmetry_space_group_name_H-M "C 2/M"
_symmetry_group_IT_number 12
_symmetry_cell_setting 'monoclinic'
loop_
_space_group_symop_operation_xyz
x,y,z
-x,y,-z
-x,-y,-z
x,-y,z
1/2+x,1/2+y,z
1/2-x,1/2+y,-z
1/2-x,1/2-y,-z
1/2+x,1/2-y,z
loop_
_atom_site_type_symbol
_atom_site_label
_atom_site_fract_x
_atom_site_fract_y
_atom_site_fract_z
Si Si1 0.755820 0.710533 0.105667
Si Si2 0.675676 0.324313 0.596856
Si Si3 0.070319 0.908908 0.188614
Si Si4 0.771073 0.874562 0.205948
Si Si5 0.624954 0.677449 0.386668
Si Si6 0.984305 0.411740 0.106236
O O1 0.627335 0.651222 0.112566
O O2 0.754281 0.779887 0.183510
O O3 0.890908 0.657781 0.141668
O O4 0.750000 0.750000 0.000000
O O5 0.713007 0.391033 0.679517
O O6 0.527029 0.289549 0.609756
O O7 0.677714 0.363437 0.491210
O O8 0.781972 0.253440 0.622338
O O9 0.127588 0.883742 0.298378
O O10 0.905594 0.906969 0.165640
O O11 0.119023 0.000000 0.173268
O O12 0.635235 0.920030 0.163060
O O13 0.915055 0.500000 0.110152
O O14 0.000000 0.385665 0.000000
#
# Coordination Sequence:
#
# PCOD8114933 Si02
#       6
#     8   8   8   8   8   8
#     4  12  24  42  63  89 117 162 213 255 298 363
#     4   9  18  33  59  91 118 154 205 249 294 352
#     4  11  24  41  62  94 128 159 199 258 317 361
#     4  11  22  39  65  91 119 160 210 251 294 370
#     4   9  18  35  57  90 121 157 196 252 298 360
#     4  11  24  42  60  84 121 159 196 251 314 361
#
# _framework density 20.954412999999999
#
# number of rings (size 3 to 8) (size 9 to 14) (size 15 to 20)
#    0.000    1.500    3.333    2.000    2.333    0.000 
#    0.000    8.333    0.000    0.000    0.000    5.833 
#    0.000    0.000    0.000    0.000    0.000    0.000 
#
# Total GULP energy -297395.008997 kJ/mol
# GULP energy per Si atom -12391.458708 kJ/mol
# Density = 2.090672 g / cm^3
# Si number density = 20.954413 Si / 1000 Ang^3
#
#
#
# Elastic Constant Matrix: (Units=GPa)
#
#
# Indices 1 2 3 4 5 6 
#
# 1 95.7509 17.0637 32.7617 0.0000 4.6639 0.0000
# 2 17.0637 89.3801 11.8417 0.0000 -10.4822 0.0000
# 3 32.7617 11.8417 106.6777 0.0000 -0.8603 0.0000
# 4 0.0000 0.0000 0.0000 -35.5864 0.0000 -16.2984
# 5 4.6639 -10.4822 -0.8603 0.0000 29.3897 0.0000
# 6 0.0000 0.0000 0.0000 -16.2984 0.0000 18.7910
#
#
#
# Elastic Compliance Matrix: (Units=1/GPa)
#
#
# Indices 1 2 3 4 5 6 
#
# 1 0.012175 -0.002188 -0.003519 0.000000 -0.002816 0.000000
# 2 -0.002188 0.012243 -0.000649 0.000000 0.004695 0.000000
# 3 -0.003519 -0.000649 0.010532 0.000000 0.000635 0.000000
# 4 0.000000 0.000000 0.000000 -0.020111 0.000000 -0.017444
# 5 -0.002816 0.004695 0.000635 0.000000 0.036165 0.000000
# 6 0.000000 0.000000 0.000000 -0.017444 0.000000 0.038087
#
#
# Mechanical properties :
#
#
# Convention : Reuss Voigt Hill
#
# Bulk Modulus (GPa) = 44.97035 46.12698 45.54867
# Shear Modulus (GPa) = 45.78131 17.86164 31.82147
#
# Velocity S-wave (km/s) = 4.67926 2.92276 3.90116
# Velocity P-wave (km/s) = 7.12051 5.78367 6.48662
#
# Compressibility (1/GPa) = 0.02223687
#
# Stress axis : x y z
#
# Youngs Moduli (GPa) = 82.13643 81.68250 94.95002
#
# Poissons Ratio (x) = 0.17875 0.33411
# Poissons Ratio (y) = 0.17974 0.06163
# Poissons Ratio (z) = 0.28902 0.05302
#
# Static dielectric constant tensor:
#      x y z
#    x 3.937380 0.000000 -0.005790 
#    y 0.000000 3.532490 0.000000 
#    z -0.005790 0.000000 4.062340 
# 
# 
# High freq. dielectric constant tensor:
#      x y z
#    x 1.829280 0.000000 0.002470 
#    y 0.000000 1.796390 0.000000 
#    z 0.002470 0.000000 1.828660 
# 
# From -- ./inp_files/195937.got.cif
#   From: 2010.06.25/outbox.cif.g09.slc.cpg/sg12_98_cif.got.tgz:195937.got - 2010.06.28 00:19:55.
