data_PCOD8114782
_publ_section_title
;
Structure prediction by ZEFSAII (Michael W. Deem and Ramdas Pophale) SiO2 
 PCOD8114782
Probable space group: C 2/M
;
_chemical_formula_sum "Si O2"
_cell_formula_units_Z 64
_cell_length_a 28.274418
_cell_length_b 17.029568
_cell_length_c 12.069478
_cell_angle_alpha 90.000000
_cell_angle_beta 30.302683
_cell_angle_gamma 90.000000
_cell_volume 2932.280706
_symmetry_space_group_name_H-M "C 2/M"
_symmetry_group_IT_number 12
_symmetry_cell_setting 'monoclinic'
loop_
_space_group_symop_operation_xyz
x,y,z
-x,y,-z
-x,-y,-z
x,-y,z
1/2+x,1/2+y,z
1/2-x,1/2+y,-z
1/2-x,1/2-y,-z
1/2+x,1/2-y,z
loop_
_atom_site_type_symbol
_atom_site_label
_atom_site_fract_x
_atom_site_fract_y
_atom_site_fract_z
Si Si1 0.045988 0.631368 0.295883
Si Si2 0.745394 0.912450 0.932556
Si Si3 0.777761 0.407826 0.364235
Si Si4 0.015993 0.589337 0.124451
Si Si5 0.173572 0.341181 0.514173
Si Si6 0.969326 0.815235 0.684980
Si Si7 0.287304 0.411024 0.092130
Si Si8 0.349334 0.326477 0.545764
O O1 0.000000 0.598853 0.500000
O O2 0.986001 0.602652 0.312866
O O3 0.055587 0.724705 0.279257
O O4 0.144394 0.588446 0.081405
O O5 0.804204 0.842719 0.757267
O O6 0.789195 0.000000 0.825029
O O7 0.735388 0.891906 0.081843
O O8 0.778704 0.500000 0.391372
O O9 0.762652 0.355520 0.505686
O O10 0.690032 0.393055 0.458484
O O11 0.877844 0.380499 0.109412
O O12 0.006162 0.500000 0.106414
O O13 0.932933 0.636836 0.230032
O O14 0.213198 0.397760 0.339250
O O15 0.181107 0.254071 0.450517
O O16 0.041529 0.827841 0.641786
O O17 0.000000 0.848214 0.500000
O O18 0.878650 0.857673 0.915752
O O19 0.322718 0.500000 0.024673
#
# Coordination Sequence:
#
# PCOD8114782 Si02
#       8
#     8   8   8   8   8   8   8   8
#     4  11  22  37  61  98 134 167 209 268 337 403
#     4  11  23  40  65  97 134 174 218 271 335 400
#     4  11  25  46  71  96 129 174 224 276 332 398
#     4  11  22  40  66  97 131 170 213 267 335 404
#     4  12  25  43  67  97 135 171 217 277 333 399
#     4  11  24  43  65  95 135 180 220 266 328 394
#     4  11  25  41  64  96 133 179 224 275 328 388
#     4  12  24  43  67  97 129 175 226 273 325 386
#
# _framework density 21.826015000000002
#
# number of rings (size 3 to 8) (size 9 to 14) (size 15 to 20)
#    0.000    0.750    3.750    4.125    1.750    5.250 
#    0.000    0.625    0.000    1.500    0.000    0.000 
#    0.000    0.000    0.000    0.000    0.000    0.000 
#
# Total GULP energy -396655.377854 kJ/mol
# GULP energy per Si atom -12395.480558 kJ/mol
# Density = 2.177634 g / cm^3
# Si number density = 21.826015 Si / 1000 Ang^3
#
#
#
# Elastic Constant Matrix: (Units=GPa)
#
#
# Indices 1 2 3 4 5 6 
#
# 1 134.3910 25.9717 24.5481 0.0000 7.9078 0.0000
# 2 25.9717 80.7470 33.1798 0.0000 0.1616 0.0000
# 3 24.5481 33.1798 61.3095 0.0000 2.1305 0.0000
# 4 0.0000 0.0000 0.0000 25.0897 0.0000 -2.1588
# 5 7.9078 0.1616 2.1305 0.0000 33.5835 0.0000
# 6 0.0000 0.0000 0.0000 -2.1588 0.0000 28.0300
#
#
#
# Elastic Compliance Matrix: (Units=1/GPa)
#
#
# Indices 1 2 3 4 5 6 
#
# 1 0.008304 -0.001706 -0.002339 0.000000 -0.001799 0.000000
# 2 -0.001706 0.016284 -0.008159 0.000000 0.000841 0.000000
# 3 -0.002339 -0.008159 0.021690 0.000000 -0.000786 0.000000
# 4 0.000000 0.000000 0.000000 0.040123 0.000000 0.003090
# 5 -0.001799 0.000841 -0.000786 0.000000 0.030246 0.000000
# 6 0.000000 0.000000 0.000000 0.003090 0.000000 0.035914
#
#
# Mechanical properties :
#
#
# Convention : Reuss Voigt Hill
#
# Bulk Modulus (GPa) = 45.72484 49.31631 47.52058
# Shear Modulus (GPa) = 27.13585 30.19050 28.66318
#
# Velocity S-wave (km/s) = 3.52984 3.72322 3.62782
# Velocity P-wave (km/s) = 6.13256 6.41307 6.27438
#
# Compressibility (1/GPa) = 0.02186995
#
# Stress axis : x y z
#
# Youngs Moduli (GPa) = 120.42724 61.41010 46.10446
#
# Poissons Ratio (x) = 0.10478 0.10784
# Poissons Ratio (y) = 0.20547 0.37615
# Poissons Ratio (z) = 0.28167 0.50103
#
# Static dielectric constant tensor:
#      x y z
#    x 4.172020 0.000000 0.036360 
#    y 0.000000 3.820570 0.000000 
#    z 0.036360 0.000000 3.888620 
# 
# 
# High freq. dielectric constant tensor:
#      x y z
#    x 1.877390 0.000000 0.006710 
#    y 0.000000 1.851640 0.000000 
#    z 0.006710 0.000000 1.841830 
# 
# From -- ./inp_files/190028.got.cif
#   From: 2010.06.25/outbox.cif.g09.slc.cpg/sg12_96_cif.got.tgz:190028.got - 2010.06.28 00:19:55.
