data_PCOD8114502
_publ_section_title
;
Structure prediction by ZEFSAII (Michael W. Deem and Ramdas Pophale) SiO2 
 PCOD8114502
Probable space group: C 2/M
;
_chemical_formula_sum "Si O2"
_cell_formula_units_Z 40
_cell_length_a 9.952511
_cell_length_b 21.117021
_cell_length_c 15.621554
_cell_angle_alpha 90.000000
_cell_angle_beta 145.467224
_cell_angle_gamma 90.000000
_cell_volume 1861.139117
_symmetry_space_group_name_H-M "C 2/M"
_symmetry_group_IT_number 12
_symmetry_cell_setting 'monoclinic'
loop_
_space_group_symop_operation_xyz
x,y,z
-x,y,-z
-x,-y,-z
x,-y,z
1/2+x,1/2+y,z
1/2-x,1/2+y,-z
1/2-x,1/2-y,-z
1/2+x,1/2-y,z
loop_
_atom_site_type_symbol
_atom_site_label
_atom_site_fract_x
_atom_site_fract_y
_atom_site_fract_z
Si Si1 0.743179 0.312187 0.244029
Si Si2 0.500000 0.401919 0.000000
Si Si3 0.500000 0.890068 0.000000
Si Si4 0.500000 0.106289 0.500000
Si Si5 0.910318 0.500000 0.221744
Si Si6 0.842969 0.221044 0.136873
Si Si7 0.741479 0.500000 0.441907
Si Si8 0.207935 0.500000 0.219376
O O1 0.966821 0.351545 0.396545
O O2 0.809396 0.263062 0.204378
O O3 0.626068 0.282773 0.269002
O O4 0.535124 0.358205 0.101061
O O5 0.257602 0.440321 0.884993
O O6 0.282745 0.846317 0.915759
O O7 0.405685 0.935913 0.876455
O O8 0.267762 0.062600 0.396447
O O9 0.023029 0.500000 0.374810
O O10 0.141914 0.500000 0.284005
O O11 0.750000 0.250000 0.000000
O O12 0.491244 0.500000 0.357873
#
# Coordination Sequence:
#
# PCOD8114502 Si02
#       8
#     8   4   4   4   4   8   4   4
#     4  12  24  42  68  99 132 183 226 294 343 415
#     4  11  21  40  68 100 129 175 240 280 330 421
#     4  11  23  42  64 104 135 183 224 282 354 413
#     4  11  26  44  68  94 142 179 240 270 366 421
#     4  11  23  38  68 101 128 180 232 286 341 414
#     4  12  22  41  70  98 133 177 233 287 340 405
#     4  11  23  46  64  99 136 190 219 296 351 418
#     4  11  25  40  68 102 145 171 230 291 354 413
#
# _framework density 21.492215000000002
#
# number of rings (size 3 to 8) (size 9 to 14) (size 15 to 20)
#    0.000    0.600    6.000    2.700    0.000    2.400 
#    0.000    0.000    0.000    0.000    0.000    0.000 
#    0.000    0.000    0.000    0.000    0.000    0.000 
#
# Total GULP energy -247814.594799 kJ/mol
# GULP energy per Si atom -12390.729740 kJ/mol
# Density = 2.144330 g / cm^3
# Si number density = 21.492215 Si / 1000 Ang^3
#
#
#
# Elastic Constant Matrix: (Units=GPa)
#
#
# Indices 1 2 3 4 5 6 
#
# 1 160.7191 61.5162 29.8928 -0.0028 14.1276 0.0008
# 2 61.5162 137.6738 44.0856 0.0070 -6.9984 0.0017
# 3 29.8928 44.0856 84.4524 0.0281 -6.8390 0.0097
# 4 -0.0028 0.0070 0.0281 16.9153 -0.0033 -0.8392
# 5 14.1276 -6.9984 -6.8390 -0.0033 35.0809 -0.0015
# 6 0.0008 0.0017 0.0097 -0.8392 -0.0015 17.4484
#
#
#
# Elastic Compliance Matrix: (Units=1/GPa)
#
#
# Indices 1 2 3 4 5 6 
#
# 1 0.008168 -0.003398 -0.001462 0.000004 -0.004252 0.000001
# 2 -0.003398 0.010161 -0.003888 0.000002 0.002637 0.000002
# 3 -0.001462 -0.003888 0.014603 -0.000023 0.002660 -0.000009
# 4 0.000004 0.000002 -0.000023 0.059259 0.000000 0.002850
# 5 -0.004252 0.002637 0.002660 0.000000 0.031263 0.000001
# 6 0.000001 0.000002 -0.000009 0.002850 0.000001 0.057449
#
#
# Mechanical properties :
#
#
# Convention : Reuss Voigt Hill
#
# Bulk Modulus (GPa) = 64.77791 72.64828 68.71310
# Shear Modulus (GPa) = 24.56467 30.37898 27.47182
#
# Velocity S-wave (km/s) = 3.38443 3.76372 3.57910
# Velocity P-wave (km/s) = 6.74375 7.26381 7.00860
#
# Compressibility (1/GPa) = 0.01543736
#
# Stress axis : x y z
#
# Youngs Moduli (GPa) = 122.42506 98.41737 68.47741
#
# Poissons Ratio (x) = 0.33441 0.10010
# Poissons Ratio (y) = 0.41598 0.26623
# Poissons Ratio (z) = 0.17897 0.38263
#
# Static dielectric constant tensor:
#      x y z
#    x 4.291230 0.000020 0.145350 
#    y 0.000020 4.322480 -0.000030 
#    z 0.145350 -0.000030 3.738270 
# 
# 
# High freq. dielectric constant tensor:
#      x y z
#    x 1.851860 0.000000 -0.003810 
#    y 0.000000 1.857310 0.000000 
#    z -0.003810 0.000000 1.828610 
# 
# From -- ./inp_files/265212.got.cif
#   From: 2010.06.25/outbox.cif.g09.slc.cpg/sg12_133_cif.got.tgz:265212.got - 2010.06.28 00:19:55.
