data_PCOD8114269
_publ_section_title
;
Structure prediction by ZEFSAII (Michael W. Deem and Ramdas Pophale) SiO2 
 PCOD8114269
Probable space group: C 2/M
;
_chemical_formula_sum "Si O2"
_cell_formula_units_Z 56
_cell_length_a 19.740489
_cell_length_b 8.847467
_cell_length_c 24.724249
_cell_angle_alpha 90.000000
_cell_angle_beta 44.973839
_cell_angle_gamma 90.000000
_cell_volume 3052.014421
_symmetry_space_group_name_H-M "C 2/M"
_symmetry_group_IT_number 12
_symmetry_cell_setting 'monoclinic'
loop_
_space_group_symop_operation_xyz
x,y,z
-x,y,-z
-x,-y,-z
x,-y,z
1/2+x,1/2+y,z
1/2-x,1/2+y,-z
1/2-x,1/2-y,-z
1/2+x,1/2-y,z
loop_
_atom_site_type_symbol
_atom_site_label
_atom_site_fract_x
_atom_site_fract_y
_atom_site_fract_z
Si Si1 0.919004 0.321292 0.507388
Si Si2 0.430023 0.680157 0.198597
Si Si3 0.067990 0.821509 0.215547
Si Si4 0.047730 0.321398 0.341843
Si Si5 0.253007 0.823836 0.940212
Si Si6 0.460087 0.676845 0.967514
Si Si7 0.216380 0.320768 0.328243
O O1 0.923500 0.500000 0.508654
O O2 0.818501 0.267004 0.591330
O O3 0.000000 0.251217 0.500000
O O4 0.948123 0.275954 0.429646
O O5 0.428124 0.500000 0.197705
O O6 0.484518 0.733769 0.222020
O O7 0.487226 0.747576 0.114710
O O8 0.322042 0.748011 0.258655
O O9 0.041882 0.770694 0.290237
O O10 0.167921 0.747989 0.142661
O O11 0.080141 0.000000 0.206160
O O12 0.052295 0.500000 0.327301
O O13 0.141079 0.270855 0.324165
O O14 0.273358 0.000000 0.935627
O O15 0.250000 0.750000 0.000000
O O16 0.152255 0.791058 0.968880
O O17 0.482731 0.500000 0.954212
O O18 0.500000 0.751489 0.000000
O O19 0.223358 0.500000 0.323240
#
# Coordination Sequence:
#
# PCOD8114269 Si02
#       7
#     8   8   8   8   8   8   8
#     4   7  11  23  44  73 102 123 154 207 257 292
#     4   9  17  30  46  69 100 133 167 203 244 289
#     4  11  22  35  49  71 105 137 168 202 241 295
#     4   9  17  30  52  79 100 124 165 211 253 293
#     4  11  21  36  57  77  99 131 167 202 248 296
#     4   9  18  31  50  75 100 124 162 209 242 282
#     4   8  14  26  50  77  99 126 166 213 252 288
#
# _framework density 18.348538000000001
#
# number of rings (size 3 to 8) (size 9 to 14) (size 15 to 20)
#    0.000    2.857    1.429    2.571    2.000    0.000 
#    0.000    0.714    0.000    9.000    0.000    0.000 
#    0.000    0.000    0.000    0.000    0.000    0.000 
#
# Total GULP energy -346883.070750 kJ/mol
# GULP energy per Si atom -12388.681098 kJ/mol
# Density = 1.830678 g / cm^3
# Si number density = 18.348538 Si / 1000 Ang^3
#
#
#
# Elastic Constant Matrix: (Units=GPa)
#
#
# Indices 1 2 3 4 5 6 
#
# 1 116.0237 27.6371 70.9728 0.0000 12.2818 0.0000
# 2 27.6371 32.7752 20.9274 0.0002 3.2721 -0.0002
# 3 70.9728 20.9274 144.6256 0.0000 10.1999 0.0000
# 4 0.0000 0.0002 0.0000 21.3958 0.0000 7.5582
# 5 12.2818 3.2721 10.1999 0.0000 28.3883 0.0000
# 6 0.0000 -0.0002 0.0000 7.5582 0.0000 17.5775
#
#
#
# Elastic Compliance Matrix: (Units=1/GPa)
#
#
# Indices 1 2 3 4 5 6 
#
# 1 0.014358 -0.008187 -0.005632 0.000000 -0.003244 0.000000
# 2 -0.008187 0.038417 -0.001517 0.000000 -0.000341 0.000001
# 3 -0.005632 -0.001517 0.009966 0.000000 -0.000969 0.000000
# 4 0.000000 0.000000 0.000000 0.055109 0.000000 -0.023696
# 5 -0.003244 -0.000341 -0.000969 0.000000 0.037017 0.000000
# 6 0.000000 0.000001 0.000000 -0.023696 0.000000 0.067080
#
#
# Mechanical properties :
#
#
# Convention : Reuss Voigt Hill
#
# Bulk Modulus (GPa) = 31.18354 59.16655 45.17504
# Shear Modulus (GPa) = 18.98899 25.06478 22.02689
#
# Velocity S-wave (km/s) = 3.22048 3.70000 3.46854
# Velocity P-wave (km/s) = 5.55524 7.11121 6.38083
#
# Compressibility (1/GPa) = 0.03206820
#
# Stress axis : x y z
#
# Youngs Moduli (GPa) = 69.64803 26.03003 100.33727
#
# Poissons Ratio (x) = 0.21310 0.56515
# Poissons Ratio (y) = 0.57019 0.15225
# Poissons Ratio (z) = 0.39229 0.03950
#
# Static dielectric constant tensor:
#      x y z
#    x 3.283390 0.000000 0.016480 
#    y 0.000000 2.920720 0.000000 
#    z 0.016480 0.000000 3.831110 
# 
# 
# High freq. dielectric constant tensor:
#      x y z
#    x 1.698850 0.000000 0.002200 
#    y 0.000000 1.654300 0.000000 
#    z 0.002200 0.000000 1.735280 
# 
# From -- ./inp_files/342278.got.cif
#   From: 2010.06.25/outbox.cif.g09.slc.cpg/sg12_172_cif.got.tgz:342278.got - 2010.06.28 00:19:55.
