data_PCOD8114225
_publ_section_title
;
Structure prediction by ZEFSAII (Michael W. Deem and Ramdas Pophale) SiO2 
 PCOD8114225
Probable space group: C 2/M
;
_chemical_formula_sum "Si O2"
_cell_formula_units_Z 56
_cell_length_a 31.159841
_cell_length_b 8.786435
_cell_length_c 11.947020
_cell_angle_alpha 90.000000
_cell_angle_beta 63.161918
_cell_angle_gamma 90.000000
_cell_volume 2918.579820
_symmetry_space_group_name_H-M "C 2/M"
_symmetry_group_IT_number 12
_symmetry_cell_setting 'monoclinic'
loop_
_space_group_symop_operation_xyz
x,y,z
-x,y,-z
-x,-y,-z
x,-y,z
1/2+x,1/2+y,z
1/2-x,1/2+y,-z
1/2-x,1/2-y,-z
1/2+x,1/2-y,z
loop_
_atom_site_type_symbol
_atom_site_label
_atom_site_fract_x
_atom_site_fract_y
_atom_site_fract_z
Si Si1 0.231057 0.178372 0.800253
Si Si2 0.383513 0.177760 0.443834
Si Si3 0.334500 0.319436 0.706175
Si Si4 0.457561 0.679674 0.200985
Si Si5 0.795776 0.320923 0.387511
Si Si6 0.849243 0.179016 0.936941
Si Si7 0.563946 0.680029 0.019557
O O1 0.282170 0.259058 0.735859
O O2 0.197649 0.242169 0.740351
O O3 0.239433 0.000000 0.773421
O O4 0.202646 0.216146 0.947815
O O5 0.374049 0.261604 0.572206
O O6 0.433553 0.234977 0.333593
O O7 0.342026 0.220838 0.405544
O O8 0.386026 0.000000 0.465174
O O9 0.332639 0.500000 0.707228
O O10 0.349304 0.255514 0.811076
O O11 0.449985 0.500000 0.223457
O O12 0.513787 0.723680 0.137541
O O13 0.434936 0.739503 0.110044
O O14 0.788643 0.500000 0.381994
O O15 0.750000 0.250000 0.500000
O O16 0.892501 0.252715 0.959258
O O17 0.857777 0.000000 0.923602
O O18 0.568756 0.500000 0.007856
#
# Coordination Sequence:
#
# PCOD8114225 Si02
#       7
#     8   8   8   8   8   8   8
#     4  11  21  35  56  81 110 141 176 225 279 322
#     4  11  23  37  53  77 111 145 177 220 273 318
#     4  11  22  36  54  75 105 147 190 223 261 320
#     4   9  17  32  60  88 108 137 173 216 271 328
#     4  11  22  35  53  77 107 142 179 220 265 316
#     4   9  19  34  54  80 108 141 181 227 270 315
#     4   8  15  32  57  86 112 133 172 224 269 316
#
# _framework density 19.187414
#
# number of rings (size 3 to 8) (size 9 to 14) (size 15 to 20)
#    0.000    2.000    1.429    3.857    0.000    2.857 
#    0.000    4.286    0.000    9.429    0.000    0.000 
#    0.000    0.000    0.000    0.000    0.000    0.000 
#
# Total GULP energy -347217.435691 kJ/mol
# GULP energy per Si atom -12400.622703 kJ/mol
# Density = 1.914374 g / cm^3
# Si number density = 19.187414 Si / 1000 Ang^3
#
#
#
# Elastic Constant Matrix: (Units=GPa)
#
#
# Indices 1 2 3 4 5 6 
#
# 1 53.0208 12.6445 31.8512 0.0000 2.4862 0.0000
# 2 12.6445 51.9611 32.9292 0.0000 1.6273 0.0000
# 3 31.8512 32.9292 139.5372 0.0000 5.2277 0.0000
# 4 0.0000 0.0000 0.0000 25.0964 0.0000 -1.0566
# 5 2.4862 1.6273 5.2277 0.0000 31.1909 0.0000
# 6 0.0000 0.0000 0.0000 -1.0566 0.0000 17.8205
#
#
#
# Elastic Compliance Matrix: (Units=1/GPa)
#
#
# Indices 1 2 3 4 5 6 
#
# 1 0.022170 -0.002565 -0.004422 0.000000 -0.000892 0.000000
# 2 -0.002565 0.022929 -0.004819 0.000000 -0.000184 0.000000
# 3 -0.004422 -0.004819 0.009349 0.000000 -0.000963 0.000000
# 4 0.000000 0.000000 0.000000 0.039946 0.000000 0.002369
# 5 -0.000892 -0.000184 -0.000963 0.000000 0.032303 0.000000
# 6 0.000000 0.000000 0.000000 0.002369 0.000000 0.056255
#
#
# Mechanical properties :
#
#
# Convention : Reuss Voigt Hill
#
# Bulk Modulus (GPa) = 32.42795 44.37432 38.40113
# Shear Modulus (GPa) = 23.05820 25.96118 24.50969
#
# Velocity S-wave (km/s) = 3.47037 3.68235 3.57793
# Velocity P-wave (km/s) = 5.74415 6.42313 6.09310
#
# Compressibility (1/GPa) = 0.03083760
#
# Stress axis : x y z
#
# Youngs Moduli (GPa) = 45.10504 43.61341 106.96171
#
# Poissons Ratio (x) = 0.11186 0.47299
# Poissons Ratio (y) = 0.11568 0.51540
# Poissons Ratio (z) = 0.19946 0.21015
#
# Static dielectric constant tensor:
#      x y z
#    x 3.848000 0.000000 0.199480 
#    y 0.000000 3.273170 0.000000 
#    z 0.199480 0.000000 3.695550 
# 
# 
# High freq. dielectric constant tensor:
#      x y z
#    x 1.737290 0.000000 -0.000570 
#    y 0.000000 1.723120 0.000000 
#    z -0.000570 0.000000 1.758650 
# 
# From -- ./inp_files/187148.got.cif
#   From: 2010.06.25/outbox.cif.g09.slc.cpg/sg12_94_cif.got.tgz:187148.got - 2010.06.28 00:19:55.
