data_PCOD8114610
_publ_section_title
;
Structure prediction by ZEFSAII (Michael W. Deem and Ramdas Pophale) SiO2 
 PCOD8114610
Probable space group: C 2/M
;
_chemical_formula_sum "Si O2"
_cell_formula_units_Z 48
_cell_length_a 22.880927
_cell_length_b 8.942623
_cell_length_c 24.214759
_cell_angle_alpha 90.000000
_cell_angle_beta 145.281779
_cell_angle_gamma 90.000000
_cell_volume 2821.913155
_symmetry_space_group_name_H-M "C 2/M"
_symmetry_group_IT_number 12
_symmetry_cell_setting 'monoclinic'
loop_
_space_group_symop_operation_xyz
x,y,z
-x,y,-z
-x,-y,-z
x,-y,z
1/2+x,1/2+y,z
1/2-x,1/2+y,-z
1/2-x,1/2-y,-z
1/2+x,1/2-y,z
loop_
_atom_site_type_symbol
_atom_site_label
_atom_site_fract_x
_atom_site_fract_y
_atom_site_fract_z
Si Si1 0.332475 0.824744 0.024798
Si Si2 0.016758 0.823607 0.787451
Si Si3 0.135827 0.176746 0.552956
Si Si4 0.826364 0.175196 0.183101
Si Si5 0.403790 0.323453 0.356737
Si Si6 0.714433 0.676711 0.415893
O O1 0.443104 0.751274 0.123818
O O2 0.337785 0.000000 0.040658
O O3 0.250000 0.750000 0.000000
O O4 0.289680 0.793327 0.929240
O O5 0.087480 0.762348 0.792210
O O6 0.901409 0.772271 0.686560
O O7 0.026357 0.000000 0.802064
O O8 0.144171 0.234180 0.622909
O O9 0.217661 0.268587 0.582020
O O10 0.023130 0.219019 0.443116
O O11 0.156769 0.000000 0.563253
O O12 0.842275 0.246043 0.256521
O O13 0.846878 0.000000 0.203902
O O14 0.394419 0.500000 0.351659
O O15 0.722685 0.500000 0.428671
O O16 0.750000 0.750000 0.500000
#
# Coordination Sequence:
#
# PCOD8114610 Si02
#       6
#     8   8   8   8   8   8
#     4   9  16  26  43  67  94 122 153 191 233 275
#     4   9  18  31  46  65  92 124 154 189 233 277
#     4   9  17  30  49  71  93 122 158 190 226 276
#     4   8  13  24  44  68  90 114 149 190 227 265
#     4   8  14  27  48  70  93 122 155 190 228 276
#     4  11  22  34  49  69  95 125 155 190 233 282
#
# _framework density 17.009737999999999
#
# number of rings (size 3 to 8) (size 9 to 14) (size 15 to 20)
#    0.000    3.000    0.000    4.000    0.000    4.000 
#    0.000    1.667    0.000    7.000    0.000    7.000 
#    0.000    0.000    0.000    0.000    0.000    0.000 
#
# Total GULP energy -297374.728570 kJ/mol
# GULP energy per Si atom -12390.613690 kJ/mol
# Density = 1.697102 g / cm^3
# Si number density = 17.009738 Si / 1000 Ang^3
#
#
#
# Elastic Constant Matrix: (Units=GPa)
#
#
# Indices 1 2 3 4 5 6 
#
# 1 90.3041 24.5527 71.9647 0.0000 -7.3201 0.0000
# 2 24.5527 40.2281 46.9380 0.0000 0.4784 0.0000
# 3 71.9647 46.9380 178.8284 0.0000 -16.9146 0.0000
# 4 0.0000 0.0000 0.0000 25.9545 0.0000 2.7710
# 5 -7.3201 0.4784 -16.9146 0.0000 27.9058 0.0000
# 6 0.0000 0.0000 0.0000 2.7710 0.0000 21.9386
#
#
#
# Elastic Compliance Matrix: (Units=1/GPa)
#
#
# Indices 1 2 3 4 5 6 
#
# 1 0.016638 -0.003551 -0.005670 0.000000 0.000988 0.000000
# 2 -0.003551 0.037810 -0.009171 0.000000 -0.007138 0.000000
# 3 -0.005670 -0.009171 0.010773 0.000000 0.005200 0.000000
# 4 0.000000 0.000000 0.000000 0.039056 0.000000 -0.004933
# 5 0.000988 -0.007138 0.005200 0.000000 0.039368 0.000000
# 6 0.000000 0.000000 0.000000 -0.004933 0.000000 0.046205
#
#
# Mechanical properties :
#
#
# Convention : Reuss Voigt Hill
#
# Bulk Modulus (GPa) = 35.16394 66.25235 50.70815
# Shear Modulus (GPa) = 21.17649 26.22014 23.69831
#
# Velocity S-wave (km/s) = 3.53223 3.93043 3.73664
# Velocity P-wave (km/s) = 6.11173 7.72217 6.96366
#
# Compressibility (1/GPa) = 0.02843822
#
# Stress axis : x y z
#
# Youngs Moduli (GPa) = 60.10468 26.44772 92.82883
#
# Poissons Ratio (x) = 0.09391 0.52633
# Poissons Ratio (y) = 0.21341 0.85130
# Poissons Ratio (z) = 0.34079 0.24254
#
# Static dielectric constant tensor:
#      x y z
#    x 3.167740 0.000000 -0.354350 
#    y 0.000000 2.979390 0.000000 
#    z -0.354350 0.000000 3.861910 
# 
# 
# High freq. dielectric constant tensor:
#      x y z
#    x 1.626350 0.000000 -0.015650 
#    y 0.000000 1.628800 0.000000 
#    z -0.015650 0.000000 1.672160 
# 
# From -- ./inp_files/345689.got.cif
#   From: 2010.06.25/outbox.cif.g09.slc.cpg/sg12_173_cif.got.tgz:345689.got - 2010.06.28 00:19:55.
