data_PCOD8114339
_publ_section_title
;
Structure prediction by ZEFSAII (Michael W. Deem and Ramdas Pophale) SiO2 
 PCOD8114339
Probable space group: C 2/M
;
_chemical_formula_sum "Si O2"
_cell_formula_units_Z 56
_cell_length_a 9.788211
_cell_length_b 16.675909
_cell_length_c 17.642897
_cell_angle_alpha 90.000000
_cell_angle_beta 107.431935
_cell_angle_gamma 90.000000
_cell_volume 2747.543473
_symmetry_space_group_name_H-M "C 2/M"
_symmetry_group_IT_number 12
_symmetry_cell_setting 'monoclinic'
loop_
_space_group_symop_operation_xyz
x,y,z
-x,y,-z
-x,-y,-z
x,-y,z
1/2+x,1/2+y,z
1/2-x,1/2+y,-z
1/2-x,1/2-y,-z
1/2+x,1/2-y,z
loop_
_atom_site_type_symbol
_atom_site_label
_atom_site_fract_x
_atom_site_fract_y
_atom_site_fract_z
Si Si1 0.713743 0.407737 0.849903
Si Si2 0.184915 0.183487 0.591270
Si Si3 0.331677 0.910225 0.180029
Si Si4 0.656963 0.404703 0.008883
Si Si5 0.132905 0.833716 0.422569
Si Si6 0.401718 0.630254 0.743048
Si Si7 0.614391 0.820858 0.244570
O O1 0.764544 0.500000 0.854365
O O2 0.558771 0.400424 0.787304
O O3 0.827878 0.352125 0.826163
O O4 0.710725 0.375983 0.935740
O O5 0.172853 0.128480 0.512058
O O6 0.250317 0.267213 0.576771
O O7 0.285151 0.142835 0.671687
O O8 0.028342 0.202189 0.599507
O O9 0.268558 0.874779 0.091000
O O10 0.454284 0.851827 0.230670
O O11 0.207161 0.915785 0.221373
O O12 0.392334 0.000000 0.177849
O O13 0.645885 0.500000 0.009876
O O14 0.500000 0.367918 0.000000
O O15 0.132913 0.893919 0.350574
O O16 0.386437 0.725334 0.753177
#
# Coordination Sequence:
#
# PCOD8114339 Si02
#       7
#     8   8   8   8   8   8   8
#     4  11  21  38  62  83 111 152 196 233 278 344
#     4   9  18  33  54  83 116 152 189 235 276 336
#     4  11  23  40  61  83 114 154 194 234 284 344
#     4   9  18  36  60  83 107 148 201 236 266 337
#     4   9  18  32  55  84 114 150 195 231 277 334
#     4  11  21  37  60  88 114 150 190 237 283 340
#     4  11  23  37  56  90 122 145 181 243 298 328
#
# _framework density 20.381841999999999
#
# number of rings (size 3 to 8) (size 9 to 14) (size 15 to 20)
#    0.000    1.857    2.857    1.714    6.000    0.571 
#    0.000    6.429    0.000    5.143    0.000    0.000 
#    0.000    0.000    0.000    0.000    0.000    0.000 
#
# Total GULP energy -347051.371474 kJ/mol
# GULP energy per Si atom -12394.691838 kJ/mol
# Density = 2.033545 g / cm^3
# Si number density = 20.381842 Si / 1000 Ang^3
#
#
#
# Elastic Constant Matrix: (Units=GPa)
#
#
# Indices 1 2 3 4 5 6 
#
# 1 50.2811 4.4931 2.3122 0.0000 1.3772 0.0000
# 2 4.4931 43.8199 11.9910 0.0000 -0.0192 0.0000
# 3 2.3122 11.9910 132.9017 0.0000 -6.2872 0.0000
# 4 0.0000 0.0000 0.0000 9.0497 0.0000 9.7526
# 5 1.3772 -0.0192 -6.2872 0.0000 38.7504 0.0000
# 6 0.0000 0.0000 0.0000 9.7526 0.0000 14.8825
#
#
#
# Elastic Compliance Matrix: (Units=1/GPa)
#
#
# Indices 1 2 3 4 5 6 
#
# 1 0.020097 -0.002005 -0.000204 0.000000 -0.000748 0.000000
# 2 -0.002005 0.023603 -0.002107 0.000000 -0.000259 0.000000
# 3 -0.000204 -0.002107 0.007778 0.000000 0.001268 0.000000
# 4 0.000000 0.000000 0.000000 0.376115 0.000000 -0.246470
# 5 -0.000748 -0.000259 0.001268 0.000000 0.026038 0.000000
# 6 0.000000 0.000000 0.000000 -0.246470 0.000000 0.228706
#
#
# Mechanical properties :
#
#
# Convention : Reuss Voigt Hill
#
# Bulk Modulus (GPa) = 23.33963 29.39947 26.36955
# Shear Modulus (GPa) = 7.08966 26.41695 16.75331
#
# Velocity S-wave (km/s) = 1.86708 3.60405 2.87012
# Velocity P-wave (km/s) = 4.01547 5.63689 4.89380
#
# Compressibility (1/GPa) = 0.04284559
#
# Stress axis : x y z
#
# Youngs Moduli (GPa) = 49.75809 42.36797 128.56775
#
# Poissons Ratio (x) = 0.08495 0.02625
# Poissons Ratio (y) = 0.09977 0.27088
# Poissons Ratio (z) = 0.01016 0.08927
#
# Static dielectric constant tensor:
#      x y z
#    x 3.743420 0.000000 -0.164560 
#    y 0.000000 3.204240 0.000000 
#    z -0.164560 0.000000 4.548210 
# 
# 
# High freq. dielectric constant tensor:
#      x y z
#    x 1.807430 0.000000 -0.006810 
#    y 0.000000 1.740940 0.000000 
#    z -0.006810 0.000000 1.821880 
# 
# From -- ./inp_files/257157.got.cif
#   From: 2010.06.25/outbox.cif.g09.slc.cpg/sg12_129_cif.got.tgz:257157.got - 2010.06.28 00:19:55.
