data_PCOD8114473
_publ_section_title
;
Structure prediction by ZEFSAII (Michael W. Deem and Ramdas Pophale) SiO2 
 PCOD8114473
Probable space group: C 2/M
;
_chemical_formula_sum "Si O2"
_cell_formula_units_Z 56
_cell_length_a 9.164985
_cell_length_b 17.082342
_cell_length_c 26.260073
_cell_angle_alpha 90.000000
_cell_angle_beta 40.918908
_cell_angle_gamma 90.000000
_cell_volume 2692.836046
_symmetry_space_group_name_H-M "C 2/M"
_symmetry_group_IT_number 12
_symmetry_cell_setting 'monoclinic'
loop_
_space_group_symop_operation_xyz
x,y,z
-x,y,-z
-x,-y,-z
x,-y,z
1/2+x,1/2+y,z
1/2-x,1/2+y,-z
1/2-x,1/2-y,-z
1/2+x,1/2-y,z
loop_
_atom_site_type_symbol
_atom_site_label
_atom_site_fract_x
_atom_site_fract_y
_atom_site_fract_z
Si Si1 0.518873 0.706403 0.549914
Si Si2 0.144696 0.667271 0.012635
Si Si3 0.380207 0.589930 0.677573
Si Si4 0.231778 0.801419 0.765565
Si Si5 0.102136 0.090376 0.884387
Si Si6 0.523844 0.155210 0.152690
Si Si7 0.144837 0.810599 0.675115
O O1 0.500000 0.662395 0.500000
O O2 0.434222 0.646793 0.615844
O O3 0.341958 0.776018 0.589580
O O4 0.750000 0.750000 0.500000
O O5 0.993843 0.636645 0.100208
O O6 0.250000 0.750000 0.000000
O O7 0.339365 0.604367 0.953200
O O8 0.000000 0.673046 0.000000
O O9 0.392668 0.500000 0.656698
O O10 0.566193 0.607444 0.671436
O O11 0.141523 0.607227 0.766456
O O12 0.213586 0.879940 0.802754
O O13 0.247940 0.827282 0.703080
O O14 0.441228 0.750795 0.729050
O O15 0.011219 0.748277 0.830953
O O16 0.221800 0.135585 0.899439
O O17 0.154864 0.000000 0.876220
#
# Coordination Sequence:
#
# PCOD8114473 Si02
#       7
#     8   8   8   8   8   8   8
#     4  12  22  41  70 100 131 175 216 266 324 404
#     4  12  27  43  68  98 132 181 232 276 334 401
#     4  11  25  42  69 103 135 169 221 279 333 386
#     4  11  21  39  68  97 127 177 221 275 313 403
#     4  12  26  42  66 102 136 169 225 289 340 381
#     4  11  23  44  72  94 131 182 226 270 330 408
#     4  11  21  41  67  98 130 173 227 260 325 400
#
# _framework density 20.795916999999999
#
# number of rings (size 3 to 8) (size 9 to 14) (size 15 to 20)
#    0.000    0.571    7.143    1.714    4.000    2.857 
#    0.000    1.429    0.000    3.429    0.000    0.000 
#    0.000    0.000    0.000    0.000    0.000    0.000 
#
# Total GULP energy -347089.772888 kJ/mol
# GULP energy per Si atom -12396.063317 kJ/mol
# Density = 2.074858 g / cm^3
# Si number density = 20.795917 Si / 1000 Ang^3
#
#
#
# Elastic Constant Matrix: (Units=GPa)
#
#
# Indices 1 2 3 4 5 6 
#
# 1 133.0442 30.7056 52.8342 -0.0016 14.7579 -0.0002
# 2 30.7056 74.2842 34.5774 -0.0005 -6.5781 -0.0033
# 3 52.8342 34.5774 112.7348 0.0027 11.8991 -0.0002
# 4 -0.0016 -0.0005 0.0027 21.0551 0.0039 0.2855
# 5 14.7579 -6.5781 11.8991 0.0039 44.5142 -0.0022
# 6 -0.0002 -0.0033 -0.0002 0.2855 -0.0022 19.7449
#
#
#
# Elastic Compliance Matrix: (Units=1/GPa)
#
#
# Indices 1 2 3 4 5 6 
#
# 1 0.009823 -0.002673 -0.003497 0.000002 -0.002717 -0.000001
# 2 -0.002673 0.017051 -0.004462 0.000000 0.004599 0.000003
# 3 -0.003497 -0.004462 0.012169 -0.000001 -0.002753 -0.000001
# 4 0.000002 0.000000 -0.000001 0.047504 -0.000004 -0.000687
# 5 -0.002717 0.004599 -0.002753 -0.000004 0.024781 0.000004
# 6 -0.000001 0.000003 -0.000001 -0.000687 0.000004 0.050656
#
#
# Mechanical properties :
#
#
# Convention : Reuss Voigt Hill
#
# Bulk Modulus (GPa) = 56.25070 61.81084 59.03077
# Shear Modulus (GPa) = 26.43050 30.52590 28.47820
#
# Velocity S-wave (km/s) = 3.56890 3.83545 3.70457
# Velocity P-wave (km/s) = 6.64006 7.02861 6.83709
#
# Compressibility (1/GPa) = 0.01777756
#
# Stress axis : x y z
#
# Youngs Moduli (GPa) = 101.79740 58.64685 82.17897
#
# Poissons Ratio (x) = 0.15678 0.28739
# Poissons Ratio (y) = 0.27214 0.36671
# Poissons Ratio (z) = 0.35600 0.26171
#
# Static dielectric constant tensor:
#      x y z
#    x 4.016370 0.000000 0.074340 
#    y 0.000000 3.499840 0.000010 
#    z 0.074340 0.000010 4.017730 
# 
# 
# High freq. dielectric constant tensor:
#      x y z
#    x 1.831280 0.000000 0.006310 
#    y 0.000000 1.778350 0.000000 
#    z 0.006310 0.000000 1.826340 
# 
# From -- ./inp_files/356658.got.cif
#   From: 2010.06.25/outbox.cif.g09.slc.cpg/sg12_179_cif.got.tgz:356658.got - 2010.06.28 00:19:55.
