data_PCOD8114969
_publ_section_title
;
Structure prediction by ZEFSAII (Michael W. Deem and Ramdas Pophale) SiO2 
 PCOD8114969
Probable space group: C 2/M
;
_chemical_formula_sum "Si O2"
_cell_formula_units_Z 36
_cell_length_a 26.245910
_cell_length_b 10.128861
_cell_length_c 6.513528
_cell_angle_alpha 90.000000
_cell_angle_beta 114.471319
_cell_angle_gamma 90.000000
_cell_volume 1576.015367
_symmetry_space_group_name_H-M "C 2/M"
_symmetry_group_IT_number 12
_symmetry_cell_setting 'monoclinic'
loop_
_space_group_symop_operation_xyz
x,y,z
-x,y,-z
-x,-y,-z
x,-y,z
1/2+x,1/2+y,z
1/2-x,1/2+y,-z
1/2-x,1/2-y,-z
1/2+x,1/2-y,z
loop_
_atom_site_type_symbol
_atom_site_label
_atom_site_fract_x
_atom_site_fract_y
_atom_site_fract_z
Si Si1 0.194692 0.700989 0.008568
Si Si2 0.066943 0.500000 0.129030
Si Si3 0.261476 0.000000 0.604386
Si Si4 0.598266 0.706272 0.063929
Si Si5 0.942972 0.000000 0.290309
Si Si6 0.371815 0.500000 0.565602
Si Si7 0.656171 0.000000 0.625012
O O1 0.156467 0.816853 0.037401
O O2 0.158012 0.625931 0.776446
O O3 0.250000 0.750000 0.000000
O O4 0.212646 0.624419 0.240757
O O5 0.086218 0.363607 0.053085
O O6 0.096872 0.500000 0.402856
O O7 0.000000 0.500000 0.000000
O O8 0.287216 0.000000 0.418370
O O9 0.194663 0.000000 0.511453
O O10 0.553835 0.629634 0.849139
O O11 0.602901 0.633872 0.291086
O O12 0.890004 0.000000 0.358456
O O13 0.000000 0.000000 0.500000
#
# Coordination Sequence:
#
# PCOD8114969 Si02
#       7
#     8   4   4   8   4   4   4
#     4  11  23  39  68 103 144 182 239 291 351 436
#     4  12  28  47  75 101 141 196 244 304 362 423
#     4  11  22  40  63 103 140 189 231 287 364 435
#     4  11  26  48  68 109 143 180 250 295 352 440
#     4  11  28  47  76  99 139 188 239 303 365 421
#     4  11  26  45  75 103 143 190 234 289 376 432
#     4  11  24  42  65 100 147 189 232 298 363 420
#
# _framework density 22.842417000000001
#
# number of rings (size 3 to 8) (size 9 to 14) (size 15 to 20)
#    0.000    0.889    2.222    3.333    9.333    6.222 
#    0.000    1.667    0.000    0.000    0.000    0.000 
#    0.000    0.000    0.000    0.000    0.000    0.000 
#
# Total GULP energy -223006.978035 kJ/mol
# GULP energy per Si atom -12389.276558 kJ/mol
# Density = 2.279043 g / cm^3
# Si number density = 22.842417 Si / 1000 Ang^3
#
#
#
# Elastic Constant Matrix: (Units=GPa)
#
#
# Indices 1 2 3 4 5 6 
#
# 1 84.0571 12.9646 24.7957 0.0000 15.7751 0.0000
# 2 12.9646 139.0586 49.6485 0.0000 3.0722 0.0000
# 3 24.7957 49.6485 136.2038 0.0000 12.0012 0.0000
# 4 0.0000 0.0000 0.0000 2025.0384 0.0000 -145.0944
# 5 15.7751 3.0722 12.0012 0.0000 46.6945 0.0000
# 6 0.0000 0.0000 0.0000 -145.0944 0.0000 38.4649
#
#
#
# Elastic Compliance Matrix: (Units=1/GPa)
#
#
# Indices 1 2 3 4 5 6 
#
# 1 0.013273 -0.000474 -0.001894 0.000000 -0.003966 0.000000
# 2 -0.000474 0.008287 -0.002968 0.000000 0.000377 0.000000
# 3 -0.001894 -0.002968 0.008896 0.000000 -0.001451 0.000000
# 4 0.000000 0.000000 0.000000 0.000677 0.000000 0.002553
# 5 -0.003966 0.000377 -0.001451 0.000000 0.023104 0.000000
# 6 0.000000 0.000000 0.000000 0.002553 0.000000 0.035627
#
#
# Mechanical properties :
#
#
# Convention : Reuss Voigt Hill
#
# Bulk Modulus (GPa) = 50.54338 59.34857 54.94598
# Shear Modulus (GPa) = 46.67277 440.16694 243.41986
#
# Velocity S-wave (km/s) = 4.52514 13.89660 10.33422
# Velocity P-wave (km/s) = 7.03402 16.83822 12.90355
#
# Compressibility (1/GPa) = 0.01978498
#
# Stress axis : x y z
#
# Youngs Moduli (GPa) = 75.34209 120.67724 112.40483
#
# Poissons Ratio (x) = 0.05714 0.21292
# Poissons Ratio (y) = 0.03568 0.33358
# Poissons Ratio (z) = 0.14272 0.35813
#
# Static dielectric constant tensor:
#      x y z
#    x -0.707900 0.000000 0.588830 
#    y 0.000000 3.690580 0.000000 
#    z 0.588830 0.000000 4.349810 
# 
# 
# High freq. dielectric constant tensor:
#      x y z
#    x 1.900660 0.000000 -0.001790 
#    y 0.000000 1.905980 0.000000 
#    z -0.001790 0.000000 1.916870 
# 
# From -- ./inp_files/27587.got.cif
#   From: 2010.06.25/outbox.cif.g09.slc.cpg/sg12_14_cif.got.tgz:27587.got - 2010.06.28 00:19:55.
