data_PCOD8114206
_publ_section_title
;
Structure prediction by ZEFSAII (Michael W. Deem and Ramdas Pophale) SiO2 
 PCOD8114206
Probable space group: C 2/M
;
_chemical_formula_sum "Si O2"
_cell_formula_units_Z 36
_cell_length_a 16.199579
_cell_length_b 18.919583
_cell_length_c 12.392618
_cell_angle_alpha 90.000000
_cell_angle_beta 154.091308
_cell_angle_gamma 90.000000
_cell_volume 1659.580854
_symmetry_space_group_name_H-M "C 2/M"
_symmetry_group_IT_number 12
_symmetry_cell_setting 'monoclinic'
loop_
_space_group_symop_operation_xyz
x,y,z
-x,y,-z
-x,-y,-z
x,-y,z
1/2+x,1/2+y,z
1/2-x,1/2+y,-z
1/2-x,1/2-y,-z
1/2+x,1/2-y,z
loop_
_atom_site_type_symbol
_atom_site_label
_atom_site_fract_x
_atom_site_fract_y
_atom_site_fract_z
Si Si1 0.995887 0.920739 0.368506
Si Si2 0.374183 0.854807 0.127668
Si Si3 0.281594 0.335131 0.541850
Si Si4 0.500000 0.318883 0.000000
Si Si5 0.690116 0.241647 0.763350
O O1 0.132274 0.864283 0.468909
O O2 0.000000 0.904656 0.500000
O O3 0.068025 0.000000 0.428858
O O4 0.777730 0.916361 0.071712
O O5 0.585258 0.875497 0.337564
O O6 0.373152 0.831483 0.251931
O O7 0.313674 0.787133 0.988185
O O8 0.250000 0.250000 0.500000
O O9 0.436586 0.359224 0.815811
O O10 0.684628 0.272182 0.194387
O O11 0.500000 0.281128 0.500000
#
# Coordination Sequence:
#
# PCOD8114206 Si02
#       5
#     8   8   8   4   8
#     4  11  27  47  66  93 136 182 223 269 326 402
#     4  11  22  37  63  92 130 173 214 265 329 398
#     4  12  24  41  68 104 133 172 223 282 338 387
#     4  12  22  36  63 102 137 162 210 282 344 384
#     4  11  21  34  60  99 134 163 206 274 337 388
#
# _framework density 21.692224
#
# number of rings (size 3 to 8) (size 9 to 14) (size 15 to 20)
#    0.000    0.667    6.667    2.000    3.111    1.778 
#    0.000    2.778    0.000    2.000    0.000    0.000 
#    0.000    0.000    0.000    0.000    0.000    0.000 
#
# Total GULP energy -223056.016684 kJ/mol
# GULP energy per Si atom -12392.000927 kJ/mol
# Density = 2.164285 g / cm^3
# Si number density = 21.692224 Si / 1000 Ang^3
#
#
#
# Elastic Constant Matrix: (Units=GPa)
#
#
# Indices 1 2 3 4 5 6 
#
# 1 146.0694 47.5978 47.5604 0.0000 18.1516 0.0000
# 2 47.5978 86.2833 17.2692 0.0000 4.0267 0.0000
# 3 47.5604 17.2692 132.4916 0.0000 19.2565 0.0000
# 4 0.0000 0.0000 0.0000 23.3069 0.0000 3.0429
# 5 18.1516 4.0267 19.2565 0.0000 49.7057 0.0000
# 6 0.0000 0.0000 0.0000 3.0429 0.0000 27.7596
#
#
#
# Elastic Compliance Matrix: (Units=1/GPa)
#
#
# Indices 1 2 3 4 5 6 
#
# 1 0.009411 -0.004599 -0.002473 0.000000 -0.002106 0.000000
# 2 -0.004599 0.014154 -0.000288 0.000000 0.000644 0.000000
# 3 -0.002473 -0.000288 0.008836 0.000000 -0.002497 0.000000
# 4 0.000000 0.000000 0.000000 0.043529 0.000000 -0.004771
# 5 -0.002106 0.000644 -0.002497 0.000000 0.021803 0.000000
# 6 0.000000 0.000000 0.000000 -0.004771 0.000000 0.036547
#
#
# Mechanical properties :
#
#
# Convention : Reuss Voigt Hill
#
# Bulk Modulus (GPa) = 56.55209 65.52213 61.03711
# Shear Modulus (GPa) = 32.28057 36.98222 34.63140
#
# Velocity S-wave (km/s) = 3.86180 4.13348 3.99994
# Velocity P-wave (km/s) = 6.78317 7.28366 7.03787
#
# Compressibility (1/GPa) = 0.01768281
#
# Stress axis : x y z
#
# Youngs Moduli (GPa) = 106.25337 70.65121 113.17690
#
# Poissons Ratio (x) = 0.32489 0.27988
# Poissons Ratio (y) = 0.48861 0.03257
# Poissons Ratio (z) = 0.26275 0.02033
#
# Static dielectric constant tensor:
#      x y z
#    x 4.369690 0.000000 0.101550 
#    y 0.000000 3.394570 0.000000 
#    z 0.101550 0.000000 4.349870 
# 
# 
# High freq. dielectric constant tensor:
#      x y z
#    x 1.878510 0.000000 0.001100 
#    y 0.000000 1.783870 0.000000 
#    z 0.001100 0.000000 1.871540 
# 
# From -- ./inp_files/147409.got.cif
#   From: 2010.06.25/outbox.cif.g09.slc.cpg/sg12_74_cif.got.tgz:147409.got - 2010.06.28 00:19:55.
