data_PCOD8114480
_publ_section_title
;
Structure prediction by ZEFSAII (Michael W. Deem and Ramdas Pophale) SiO2 
 PCOD8114480
Probable space group: C 2/M
;
_chemical_formula_sum "Si O2"
_cell_formula_units_Z 44
_cell_length_a 16.196066
_cell_length_b 16.471431
_cell_length_c 9.060379
_cell_angle_alpha 90.000000
_cell_angle_beta 55.503683
_cell_angle_gamma 90.000000
_cell_volume 1992.049539
_symmetry_space_group_name_H-M "C 2/M"
_symmetry_group_IT_number 12
_symmetry_cell_setting 'monoclinic'
loop_
_space_group_symop_operation_xyz
x,y,z
-x,y,-z
-x,-y,-z
x,-y,z
1/2+x,1/2+y,z
1/2-x,1/2+y,-z
1/2-x,1/2-y,-z
1/2+x,1/2-y,z
loop_
_atom_site_type_symbol
_atom_site_label
_atom_site_fract_x
_atom_site_fract_y
_atom_site_fract_z
Si Si1 0.000000 0.290263 0.500000
Si Si2 0.864454 0.591175 0.476876
Si Si3 0.308244 0.326576 0.195517
Si Si4 0.633875 0.332877 0.183934
Si Si5 0.240536 0.844965 0.351011
Si Si6 0.936584 0.905749 0.279736
O O1 0.953466 0.346199 0.418890
O O2 0.913823 0.239642 0.670823
O O3 0.904998 0.500000 0.453354
O O4 0.775155 0.605294 0.685241
O O5 0.824186 0.601616 0.349212
O O6 0.277841 0.247819 0.320645
O O7 0.414928 0.364687 0.141439
O O8 0.312794 0.301762 0.019270
O O9 0.719417 0.373092 0.202376
O O10 0.550335 0.397752 0.219612
O O11 0.133325 0.854950 0.538790
O O12 0.907278 0.000000 0.306586
#
# Coordination Sequence:
#
# PCOD8114480 Si02
#       6
#     4   8   8   8   8   8
#     4  12  23  44  67  84 120 160 218 250 293 368
#     4  11  24  42  65  89 120 166 203 248 306 359
#     4  11  22  39  65  94 122 159 207 250 294 360
#     4  12  23  38  66  94 121 160 203 253 302 356
#     4  11  21  40  64  89 123 159 203 248 296 363
#     4  11  23  40  61  92 129 165 195 241 309 368
#
# _framework density 22.087804999999999
#
# number of rings (size 3 to 8) (size 9 to 14) (size 15 to 20)
#    0.000    0.727    3.636    6.818    0.000    4.364 
#    0.000    0.000    0.000    1.091    0.000    0.000 
#    0.000    0.000    0.000    0.000    0.000    0.000 
#
# Total GULP energy -272708.318878 kJ/mol
# GULP energy per Si atom -12395.832676 kJ/mol
# Density = 2.203753 g / cm^3
# Si number density = 22.087805 Si / 1000 Ang^3
#
#
#
# Elastic Constant Matrix: (Units=GPa)
#
#
# Indices 1 2 3 4 5 6 
#
# 1 131.8233 31.9892 34.3901 0.0000 35.6236 0.0000
# 2 31.9892 114.2449 45.8985 0.0000 12.6239 0.0000
# 3 34.3901 45.8985 99.8860 0.0000 33.5472 0.0000
# 4 0.0000 0.0000 0.0000 3.9827 0.0000 -0.2505
# 5 35.6236 12.6239 33.5472 0.0000 37.1931 0.0000
# 6 0.0000 0.0000 0.0000 -0.2505 0.0000 28.2845
#
#
#
# Elastic Compliance Matrix: (Units=1/GPa)
#
#
# Indices 1 2 3 4 5 6 
#
# 1 0.010657 -0.002155 0.000723 0.000000 -0.010128 0.000000
# 2 -0.002155 0.011206 -0.005484 0.000000 0.003208 0.000000
# 3 0.000723 -0.005484 0.017057 0.000000 -0.014216 0.000000
# 4 0.000000 0.000000 0.000000 0.251224 0.000000 0.002225
# 5 -0.010128 0.003208 -0.014216 0.000000 0.048321 0.000000
# 6 0.000000 0.000000 0.000000 0.002225 0.000000 0.035375
#
#
# Mechanical properties :
#
#
# Convention : Reuss Voigt Hill
#
# Bulk Modulus (GPa) = 39.86286 63.38997 51.62642
# Shear Modulus (GPa) = 12.62514 29.47050 21.04782
#
# Velocity S-wave (km/s) = 2.39339 3.65669 3.09028
# Velocity P-wave (km/s) = 5.07192 6.82568 6.01308
#
# Compressibility (1/GPa) = 0.02508600
#
# Stress axis : x y z
#
# Youngs Moduli (GPa) = 93.83193 89.24168 58.62643
#
# Poissons Ratio (x) = 0.19234 -0.04237
# Poissons Ratio (y) = 0.20224 0.32153
# Poissons Ratio (z) = -0.06781 0.48943
#
# Static dielectric constant tensor:
#      x y z
#    x 4.397100 0.000000 0.331030 
#    y 0.000000 3.694450 0.000000 
#    z 0.331030 0.000000 3.823910 
# 
# 
# High freq. dielectric constant tensor:
#      x y z
#    x 1.890940 0.000000 0.021220 
#    y 0.000000 1.853160 0.000000 
#    z 0.021220 0.000000 1.848770 
# 
# From -- ./inp_files/73545.got.cif
#   From: 2010.06.25/outbox.cif.g09.slc.cpg/sg12_37_cif.got.tgz:73545.got - 2010.06.28 00:19:55.
