data_PCOD8114866
_publ_section_title
;
Structure prediction by ZEFSAII (Michael W. Deem and Ramdas Pophale) SiO2 
 PCOD8114866
Probable space group: C 2/M
;
_chemical_formula_sum "Si O2"
_cell_formula_units_Z 48
_cell_length_a 14.651964
_cell_length_b 11.941445
_cell_length_c 25.170411
_cell_angle_alpha 90.000000
_cell_angle_beta 32.370838
_cell_angle_gamma 90.000000
_cell_volume 2357.865100
_symmetry_space_group_name_H-M "C 2/M"
_symmetry_group_IT_number 12
_symmetry_cell_setting 'monoclinic'
loop_
_space_group_symop_operation_xyz
x,y,z
-x,y,-z
-x,-y,-z
x,-y,z
1/2+x,1/2+y,z
1/2-x,1/2+y,-z
1/2-x,1/2-y,-z
1/2+x,1/2-y,z
loop_
_atom_site_type_symbol
_atom_site_label
_atom_site_fract_x
_atom_site_fract_y
_atom_site_fract_z
Si Si1 0.576079 0.720365 0.325781
Si Si2 0.036097 0.000000 0.566383
Si Si3 0.289203 0.000000 0.348862
Si Si4 0.548784 0.765916 0.729845
Si Si5 0.860872 0.377408 0.612558
Si Si6 0.902349 0.375518 0.127654
Si Si7 0.251579 0.626454 0.913322
O O1 0.470489 0.609514 0.393325
O O2 0.508069 0.760993 0.303049
O O3 0.549655 0.816800 0.381763
O O4 0.782199 0.700473 0.223768
O O5 0.213310 0.000000 0.446264
O O6 0.873269 0.000000 0.608800
O O7 0.409302 0.105819 0.277493
O O8 0.714168 0.692680 0.657155
O O9 0.403232 0.717391 0.841096
O O10 0.793877 0.500000 0.663635
O O11 0.000000 0.393347 0.500000
O O12 0.903281 0.500000 0.151785
O O13 0.817807 0.380180 0.111776
O O14 0.097597 0.331550 0.027592
O O15 0.311804 0.500000 0.899859
#
# Coordination Sequence:
#
# PCOD8114866 Si02
#       7
#     8   4   4   8   8   8   8
#     4  11  22  38  64  89 118 150 200 244 295 348
#     4  11  22  40  62  84 111 159 203 247 288 348
#     4  11  24  40  58  82 121 157 197 247 302 340
#     4  11  23  39  62  87 117 156 198 245 292 350
#     4  11  25  42  58  82 120 159 195 241 296 352
#     4   8  14  29  56  90 115 146 191 244 288 345
#     4   8  15  30  57  87 117 148 192 240 291 346
#
# _framework density 20.357399000000001
#
# number of rings (size 3 to 8) (size 9 to 14) (size 15 to 20)
#    0.000    2.000    2.500    2.500    3.500    2.667 
#    0.000    0.833    1.833    2.000    0.000    0.000 
#    0.000    0.000    0.000    0.000    0.000    0.000 
#
# Total GULP energy -297505.250031 kJ/mol
# GULP energy per Si atom -12396.052085 kJ/mol
# Density = 2.031106 g / cm^3
# Si number density = 20.357399 Si / 1000 Ang^3
#
#
#
# Elastic Constant Matrix: (Units=GPa)
#
#
# Indices 1 2 3 4 5 6 
#
# 1 43.0597 18.1259 -6.3671 0.0004 -7.7161 0.0001
# 2 18.1259 144.8382 36.6430 0.0001 -12.4504 0.0001
# 3 -6.3671 36.6430 58.9901 -0.0018 -15.9220 -0.0014
# 4 0.0004 0.0001 -0.0018 4.6082 -0.0004 -44.2164
# 5 -7.7161 -12.4504 -15.9220 -0.0004 26.9947 -0.0001
# 6 0.0001 0.0001 -0.0014 -44.2164 -0.0001 -8.8962
#
#
#
# Elastic Compliance Matrix: (Units=1/GPa)
#
#
# Indices 1 2 3 4 5 6 
#
# 1 0.028716 -0.004955 0.009249 0.000000 0.011377 0.000000
# 2 -0.004955 0.009066 -0.006446 0.000000 -0.001037 0.000000
# 3 0.009249 -0.006446 0.026006 -0.000001 0.015009 -0.000001
# 4 0.000000 0.000000 -0.000001 0.004457 0.000000 -0.022152
# 5 0.011377 -0.001037 0.015009 0.000000 0.048671 -0.000001
# 6 0.000000 0.000000 -0.000001 -0.022152 -0.000001 -0.002309
#
#
# Mechanical properties :
#
#
# Convention : Reuss Voigt Hill
#
# Bulk Modulus (GPa) = 16.81210 38.18795 27.50003
# Shear Modulus (GPa) = 36.03853 17.77376 26.90614
#
# Velocity S-wave (km/s) = 4.21205 2.95801 3.63945
# Velocity P-wave (km/s) = 5.65080 5.51959 5.58558
#
# Compressibility (1/GPa) = 0.05948098
#
# Stress axis : x y z
#
# Youngs Moduli (GPa) = 34.82389 110.30020 38.45311
#
# Poissons Ratio (x) = 0.54659 -0.35564
# Poissons Ratio (y) = 0.17257 0.24789
# Poissons Ratio (z) = -0.32207 0.71105
#
# Static dielectric constant tensor:
#      x y z
#    x 3.426470 0.000000 0.033610 
#    y 0.000000 3.825020 0.000000 
#    z 0.033610 0.000000 4.155150 
# 
# 
# High freq. dielectric constant tensor:
#      x y z
#    x 1.775870 0.000000 0.003570 
#    y 0.000000 1.789310 0.000000 
#    z 0.003570 0.000000 1.803890 
# 
# From -- ./inp_files/245855.got.cif
#   From: 2010.06.25/outbox.cif.g09.slc.cpg/sg12_123_cif.got.tgz:245855.got - 2010.06.28 00:19:55.
