data_PCOD8114539
_publ_section_title
;
Structure prediction by ZEFSAII (Michael W. Deem and Ramdas Pophale) SiO2 
 PCOD8114539
Probable space group: C 2/M
;
_chemical_formula_sum "Si O2"
_cell_formula_units_Z 56
_cell_length_a 9.238752
_cell_length_b 19.074996
_cell_length_c 14.858158
_cell_angle_alpha 90.000000
_cell_angle_beta 89.566563
_cell_angle_gamma 90.000000
_cell_volume 2618.365742
_symmetry_space_group_name_H-M "C 2/M"
_symmetry_group_IT_number 12
_symmetry_cell_setting 'monoclinic'
loop_
_space_group_symop_operation_xyz
x,y,z
-x,y,-z
-x,-y,-z
x,-y,z
1/2+x,1/2+y,z
1/2-x,1/2+y,-z
1/2-x,1/2-y,-z
1/2+x,1/2-y,z
loop_
_atom_site_type_symbol
_atom_site_label
_atom_site_fract_x
_atom_site_fract_y
_atom_site_fract_z
Si Si1 0.111956 0.082170 0.737786
Si Si2 0.938083 0.579375 0.720660
Si Si3 0.743328 0.211352 0.855038
Si Si4 0.359503 0.801702 0.342443
Si Si5 0.955050 0.172091 0.097433
Si Si6 0.923164 0.579183 0.092928
Si Si7 0.455094 0.672897 0.596802
O O1 0.272676 0.101679 0.702213
O O2 0.091740 0.107726 0.840152
O O3 0.994190 0.117330 0.673763
O O4 0.084801 0.000000 0.737393
O O5 0.966771 0.500000 0.688745
O O6 0.048089 0.627096 0.664400
O O7 0.960667 0.586646 0.827762
O O8 0.688199 0.226553 0.754719
O O9 0.674544 0.272210 0.917005
O O10 0.707137 0.133087 0.889938
O O11 0.916216 0.216956 0.856454
O O12 0.459766 0.745196 0.390020
O O13 0.217239 0.815518 0.402292
O O14 0.000000 0.142008 0.000000
O O15 0.859528 0.500000 0.089637
O O16 0.000000 0.599279 0.000000
O O17 0.500000 0.641482 0.500000
#
# Coordination Sequence:
#
# PCOD8114539 Si02
#       7
#     8   8   8   8   8   8   8
#     4  11  25  45  65  92 131 175 217 269 327 382
#     4   9  21  39  64  90 126 177 216 257 320 382
#     4  11  22  39  61  90 125 171 210 263 319 376
#     4  11  21  41  68  97 131 167 208 268 328 387
#     4  12  26  40  63  94 131 175 218 266 316 378
#     4   9  19  34  57  89 124 164 215 264 305 361
#     4  12  25  44  71 101 128 165 213 271 330 392
#
# _framework density 21.387385999999999
#
# number of rings (size 3 to 8) (size 9 to 14) (size 15 to 20)
#    0.000    1.286    2.857    2.143    6.000    1.714 
#    0.000    0.000    0.000    2.143    0.000    0.000 
#    0.000    0.000    0.000    0.000    0.000    0.000 
#
# Total GULP energy -347362.098907 kJ/mol
# GULP energy per Si atom -12405.789247 kJ/mol
# Density = 2.133871 g / cm^3
# Si number density = 21.387386 Si / 1000 Ang^3
#
#
#
# Elastic Constant Matrix: (Units=GPa)
#
#
# Indices 1 2 3 4 5 6 
#
# 1 115.6205 48.0804 16.3567 0.0000 -15.0532 0.0000
# 2 48.0804 100.0746 36.2981 0.0000 -10.8596 0.0000
# 3 16.3567 36.2981 79.7946 0.0000 -19.0454 0.0000
# 4 0.0000 0.0000 0.0000 17.5791 0.0000 -5.4070
# 5 -15.0532 -10.8596 -19.0454 0.0000 31.3569 0.0000
# 6 0.0000 0.0000 0.0000 -5.4070 0.0000 30.4671
#
#
#
# Elastic Compliance Matrix: (Units=1/GPa)
#
#
# Indices 1 2 3 4 5 6 
#
# 1 0.011273 -0.005371 0.001146 0.000000 0.004248 0.000000
# 2 -0.005371 0.014552 -0.005767 0.000000 -0.001042 0.000000
# 3 0.001146 -0.005767 0.017046 0.000000 0.008907 0.000000
# 4 0.000000 0.000000 0.000000 0.060170 0.000000 0.010678
# 5 0.004248 -0.001042 0.008907 0.000000 0.038979 0.000000
# 6 0.000000 0.000000 0.000000 0.010678 0.000000 0.034717
#
#
# Mechanical properties :
#
#
# Convention : Reuss Voigt Hill
#
# Bulk Modulus (GPa) = 43.69130 55.21781 49.45456
# Shear Modulus (GPa) = 24.46762 28.86425 26.66593
#
# Velocity S-wave (km/s) = 3.38601 3.67766 3.53485
# Velocity P-wave (km/s) = 5.97993 6.62628 6.31139
#
# Compressibility (1/GPa) = 0.02288785
#
# Stress axis : x y z
#
# Youngs Moduli (GPa) = 88.70410 68.71980 58.66317
#
# Poissons Ratio (x) = 0.36910 -0.06725
# Poissons Ratio (y) = 0.47644 0.33832
# Poissons Ratio (z) = -0.10168 0.39632
#
# Static dielectric constant tensor:
#      x y z
#    x 3.982890 0.000000 0.006970 
#    y 0.000000 3.793500 0.000000 
#    z 0.006970 0.000000 3.722170 
# 
# 
# High freq. dielectric constant tensor:
#      x y z
#    x 1.846810 0.000000 -0.001140 
#    y 0.000000 1.837990 0.000000 
#    z -0.001140 0.000000 1.827400 
# 
# From -- ./inp_files/197563.got.cif
#   From: 2010.06.25/outbox.cif.g09.slc.cpg/sg12_99_cif.got.tgz:197563.got - 2010.06.28 00:19:55.
