data_PCOD8114163
_publ_section_title
;
Structure prediction by ZEFSAII (Michael W. Deem and Ramdas Pophale) SiO2 
 PCOD8114163
Probable space group: C 2/M
;
_chemical_formula_sum "Si O2"
_cell_formula_units_Z 64
_cell_length_a 23.362429
_cell_length_b 8.941992
_cell_length_c 17.101542
_cell_angle_alpha 90.000000
_cell_angle_beta 85.241933
_cell_angle_gamma 90.000000
_cell_volume 3560.314041
_symmetry_space_group_name_H-M "C 2/M"
_symmetry_group_IT_number 12
_symmetry_cell_setting 'monoclinic'
loop_
_space_group_symop_operation_xyz
x,y,z
-x,y,-z
-x,-y,-z
x,-y,z
1/2+x,1/2+y,z
1/2-x,1/2+y,-z
1/2-x,1/2-y,-z
1/2+x,1/2-y,z
loop_
_atom_site_type_symbol
_atom_site_label
_atom_site_fract_x
_atom_site_fract_y
_atom_site_fract_z
Si Si1 0.380776 0.672659 0.098627
Si Si2 0.702310 0.324922 0.755989
Si Si3 0.528651 0.831963 0.821955
Si Si4 0.511773 0.823802 0.587606
Si Si5 0.326056 0.178333 0.792544
Si Si6 0.439769 0.322356 0.729496
Si Si7 0.806713 0.824851 0.959522
Si Si8 0.616433 0.834692 0.669232
O O1 0.393529 0.500000 0.114684
O O2 0.331353 0.732280 0.163214
O O3 0.440295 0.761772 0.105469
O O4 0.359311 0.698620 0.013370
O O5 0.699765 0.500000 0.751670
O O6 0.767859 0.271147 0.754977
O O7 0.672342 0.265355 0.679974
O O8 0.473858 0.734568 0.802366
O O9 0.573766 0.830114 0.746961
O O10 0.508230 0.000000 0.843671
O O11 0.500000 0.780730 0.500000
O O12 0.469141 0.728603 0.645843
O O13 0.578304 0.780489 0.599396
O O14 0.501910 0.000000 0.605838
O O15 0.376953 0.249837 0.736874
O O16 0.326378 0.243937 0.879214
O O17 0.331950 0.000000 0.796419
O O18 0.435675 0.500000 0.733070
O O19 0.794795 0.000000 0.946665
O O20 0.750000 0.750000 0.000000
O O21 0.640244 0.000000 0.651343
#
# Coordination Sequence:
#
# PCOD8114163 Si02
#       8
#     8   8   8   8   8   8   8   8
#     4   9  17  31  49  73 102 132 171 222 272 312
#     4   9  17  30  48  71 100 136 173 213 261 304
#     4   9  17  31  51  74  99 134 174 215 262 312
#     4   9  18  35  59  85 111 139 170 207 254 308
#     4  11  22  37  53  73 103 142 182 221 266 317
#     4  11  22  36  54  79 108 139 173 214 262 315
#     4  11  21  34  51  75 106 139 179 225 272 316
#     4   8  15  27  47  77 105 130 165 208 251 299
#
# _framework density 17.975942
#
# number of rings (size 3 to 8) (size 9 to 14) (size 15 to 20)
#    0.000    2.375    1.250    3.000    0.000    5.250 
#    0.000    0.625    0.000    4.500    0.000    0.000 
#    0.000    0.000    0.000    0.000    0.000    0.000 
#
# Total GULP energy -396721.225968 kJ/mol
# GULP energy per Si atom -12397.538312 kJ/mol
# Density = 1.793503 g / cm^3
# Si number density = 17.975942 Si / 1000 Ang^3
#
#
#
# Elastic Constant Matrix: (Units=GPa)
#
#
# Indices 1 2 3 4 5 6 
#
# 1 124.2562 53.2092 53.4520 0.0000 24.1466 0.0000
# 2 53.2092 87.9041 34.8094 0.0000 9.6877 0.0000
# 3 53.4520 34.8094 72.4142 0.0000 23.9123 0.0000
# 4 0.0000 0.0000 0.0000 24.1518 0.0000 4.1496
# 5 24.1466 9.6877 23.9123 0.0000 27.9593 0.0000
# 6 0.0000 0.0000 0.0000 4.1496 0.0000 31.8850
#
#
#
# Elastic Compliance Matrix: (Units=1/GPa)
#
#
# Indices 1 2 3 4 5 6 
#
# 1 0.013971 -0.005529 -0.005997 0.000000 -0.005021 0.000000
# 2 -0.005529 0.016271 -0.004815 0.000000 0.003255 0.000000
# 3 -0.005997 -0.004815 0.025488 0.000000 -0.014951 0.000000
# 4 0.000000 0.000000 0.000000 0.042352 0.000000 -0.005512
# 5 -0.005021 0.003255 -0.014951 0.000000 0.051762 0.000000
# 6 0.000000 0.000000 0.000000 -0.005512 0.000000 0.032080
#
#
# Mechanical properties :
#
#
# Convention : Reuss Voigt Hill
#
# Bulk Modulus (GPa) = 43.38820 63.05728 53.22274
# Shear Modulus (GPa) = 22.49349 26.33949 24.41649
#
# Velocity S-wave (km/s) = 3.54123 3.83203 3.68949
# Velocity P-wave (km/s) = 6.39606 7.39825 6.91533
#
# Compressibility (1/GPa) = 0.02304774
#
# Stress axis : x y z
#
# Youngs Moduli (GPa) = 71.57797 61.46052 39.23469
#
# Poissons Ratio (x) = 0.33979 0.23528
# Poissons Ratio (y) = 0.39573 0.18893
# Poissons Ratio (z) = 0.42923 0.29595
#
# Static dielectric constant tensor:
#      x y z
#    x 3.422800 0.000000 0.462940 
#    y 0.000000 3.397360 0.000000 
#    z 0.462940 0.000000 2.999700 
# 
# 
# High freq. dielectric constant tensor:
#      x y z
#    x 1.695320 0.000000 0.029170 
#    y 0.000000 1.700190 0.000000 
#    z 0.029170 0.000000 1.663190 
# 
# From -- ./inp_files/281386.got.cif
#   From: 2010.06.25/outbox.cif.g09.slc.cpg/sg12_141_cif.got.tgz:281386.got - 2010.06.28 00:19:55.
