data_PCOD8114984
_publ_section_title
;
Structure prediction by ZEFSAII (Michael W. Deem and Ramdas Pophale) SiO2 
 PCOD8114984
Probable space group: C 2/M
;
_chemical_formula_sum "Si O2"
_cell_formula_units_Z 24
_cell_length_a 9.416363
_cell_length_b 27.887864
_cell_length_c 8.111759
_cell_angle_alpha 90.000000
_cell_angle_beta 148.744657
_cell_angle_gamma 90.000000
_cell_volume 1105.243063
_symmetry_space_group_name_H-M "C 2/M"
_symmetry_group_IT_number 12
_symmetry_cell_setting 'monoclinic'
loop_
_space_group_symop_operation_xyz
x,y,z
-x,y,-z
-x,-y,-z
x,-y,z
1/2+x,1/2+y,z
1/2-x,1/2+y,-z
1/2-x,1/2-y,-z
1/2+x,1/2-y,z
loop_
_atom_site_type_symbol
_atom_site_label
_atom_site_fract_x
_atom_site_fract_y
_atom_site_fract_z
Si Si1 0.749289 0.051708 0.132772
Si Si2 0.603824 0.202558 0.419679
Si Si3 0.405237 0.650563 0.216874
O O1 0.804600 0.096753 0.066284
O O2 0.000000 0.043651 0.500000
O O3 0.694131 0.000000 0.986373
O O4 0.500000 0.067151 0.000000
O O5 0.500000 0.210609 0.500000
O O6 0.158507 0.311481 0.951106
O O7 0.750000 0.250000 0.500000
O O8 0.836788 0.161570 0.644898
O O9 0.500000 0.652931 0.500000
#
# Coordination Sequence:
#
# PCOD8114984 Si02
#       3
#     8   8   8
#     4   9  17  31  56  91 123 152 193 245 294 345
#     4  12  26  43  61  86 121 161 204 250 306 363
#     4  11  22  40  65  92 121 157 202 251 299 353
#
# _framework density 21.714680999999999
#
# number of rings (size 3 to 8) (size 9 to 14) (size 15 to 20)
#    0.000    1.333    0.000    8.000    0.000    2.667 
#    0.000    0.000    0.000    6.000    0.000    0.000 
#    0.000    0.000    0.000    0.000    0.000    0.000 
#
# Total GULP energy -148706.637402 kJ/mol
# GULP energy per Si atom -12392.219783 kJ/mol
# Density = 2.166526 g / cm^3
# Si number density = 21.714681 Si / 1000 Ang^3
#
#
#
# Elastic Constant Matrix: (Units=GPa)
#
#
# Indices 1 2 3 4 5 6 
#
# 1 101.7478 82.0164 47.1818 0.0000 30.0635 0.0000
# 2 82.0164 161.5066 50.6894 0.0000 14.6612 0.0000
# 3 47.1818 50.6894 143.4069 0.0000 22.9849 0.0000
# 4 0.0000 0.0000 0.0000 37.6210 0.0000 14.0861
# 5 30.0635 14.6612 22.9849 0.0000 43.3666 0.0000
# 6 0.0000 0.0000 0.0000 14.0861 0.0000 24.6154
#
#
#
# Elastic Compliance Matrix: (Units=1/GPa)
#
#
# Indices 1 2 3 4 5 6 
#
# 1 0.021362 -0.009239 -0.002065 0.000000 -0.010591 0.000000
# 2 -0.009239 0.011012 -0.001402 0.000000 0.003425 0.000000
# 3 -0.002065 -0.001402 0.008571 0.000000 -0.002637 0.000000
# 4 0.000000 0.000000 0.000000 0.033829 0.000000 -0.019359
# 5 -0.010591 0.003425 -0.002637 0.000000 0.030641 0.000000
# 6 0.000000 0.000000 0.000000 -0.019359 0.000000 0.051703
#
#
# Mechanical properties :
#
#
# Convention : Reuss Voigt Hill
#
# Bulk Modulus (GPa) = 64.37443 85.15960 74.76701
# Shear Modulus (GPa) = 26.63706 36.23884 31.43795
#
# Velocity S-wave (km/s) = 3.50621 4.08960 3.80909
# Velocity P-wave (km/s) = 6.78979 7.84872 7.33838
#
# Compressibility (1/GPa) = 0.01553412
#
# Stress axis : x y z
#
# Youngs Moduli (GPa) = 46.81138 90.80723 116.67535
#
# Poissons Ratio (x) = 0.83893 0.24097
# Poissons Ratio (y) = 0.43247 0.16356
# Poissons Ratio (z) = 0.09668 0.12729
#
# Static dielectric constant tensor:
#      x y z
#    x 3.508980 0.000000 0.358510 
#    y 0.000000 4.958010 0.000000 
#    z 0.358510 0.000000 4.390190 
# 
# 
# High freq. dielectric constant tensor:
#      x y z
#    x 1.792620 0.000000 0.028730 
#    y 0.000000 1.879500 0.000000 
#    z 0.028730 0.000000 1.882790 
# 
# From -- ./inp_files/3263.got.cif
#   From: 2010.06.25/outbox.cif.g09.slc.cpg/sg12_2_cif.got.tgz:3263.got - 2010.06.28 00:19:55.
