data_PCOD8114837
_publ_section_title
;
Structure prediction by ZEFSAII (Michael W. Deem and Ramdas Pophale) SiO2 
 PCOD8114837
Probable space group: C 2/M
;
_chemical_formula_sum "Si O2"
_cell_formula_units_Z 52
_cell_length_a 9.438614
_cell_length_b 17.652821
_cell_length_c 19.573903
_cell_angle_alpha 90.000000
_cell_angle_beta 53.170204
_cell_angle_gamma 90.000000
_cell_volume 2610.463166
_symmetry_space_group_name_H-M "C 2/M"
_symmetry_group_IT_number 12
_symmetry_cell_setting 'monoclinic'
loop_
_space_group_symop_operation_xyz
x,y,z
-x,y,-z
-x,-y,-z
x,-y,z
1/2+x,1/2+y,z
1/2-x,1/2+y,-z
1/2-x,1/2-y,-z
1/2+x,1/2-y,z
loop_
_atom_site_type_symbol
_atom_site_label
_atom_site_fract_x
_atom_site_fract_y
_atom_site_fract_z
Si Si1 0.193617 0.211989 0.245205
Si Si2 0.413317 0.621617 0.596731
Si Si3 0.603477 0.349938 0.031269
Si Si4 0.852301 0.500000 0.374602
Si Si5 0.517320 0.174028 0.069768
Si Si6 0.578122 0.348919 0.783052
Si Si7 0.266574 0.000000 0.687858
Si Si8 0.182748 0.000000 0.564625
O O1 0.141195 0.189675 0.337663
O O2 0.350950 0.159325 0.167978
O O3 0.262378 0.298508 0.230635
O O4 0.027152 0.203246 0.241856
O O5 0.500000 0.650768 0.500000
O O6 0.234871 0.574179 0.633606
O O7 0.555968 0.572822 0.596659
O O8 0.548874 0.262591 0.051108
O O9 0.554433 0.380997 0.120229
O O10 0.500000 0.391631 0.000000
O O11 0.806267 0.363013 0.950369
O O12 0.819575 0.500000 0.464133
O O13 0.065751 0.500000 0.309050
O O14 0.500000 0.136566 0.000000
O O15 0.653883 0.424328 0.728895
O O16 0.306197 0.000000 0.595604
#
# Coordination Sequence:
#
# PCOD8114837 Si02
#       8
#     8   8   8   4   8   8   4   4
#     4  11  22  38  61  91 123 156 206 256 304 351
#     4   9  19  39  63  88 122 160 200 249 305 360
#     4   9  18  32  53  85 117 156 194 249 294 351
#     4   9  21  35  63  92 115 155 220 237 299 364
#     4   9  16  29  53  82 114 146 200 244 291 347
#     4  11  25  38  61  90 126 160 203 248 307 360
#     4  12  23  40  61  88 127 163 198 244 308 367
#     4   9  17  39  63  85 114 166 199 251 291 378
#
# _framework density 19.919837000000001
#
# number of rings (size 3 to 8) (size 9 to 14) (size 15 to 20)
#    0.000    2.154    3.077    1.154    8.615    0.000 
#    0.000    2.692    0.000    3.692    0.000    0.000 
#    0.000    0.000    0.000    0.000    0.000    0.000 
#
# Total GULP energy -322107.421454 kJ/mol
# GULP energy per Si atom -12388.746979 kJ/mol
# Density = 1.987450 g / cm^3
# Si number density = 19.919837 Si / 1000 Ang^3
#
#
#
# Elastic Constant Matrix: (Units=GPa)
#
#
# Indices 1 2 3 4 5 6 
#
# 1 111.3771 17.1980 24.5835 0.0000 1.1443 0.0000
# 2 17.1980 48.5896 17.4685 0.0000 -1.1176 0.0000
# 3 24.5835 17.4685 95.1437 0.0000 11.4516 0.0002
# 4 0.0000 0.0000 0.0000 11.6183 -0.0001 0.9233
# 5 1.1443 -1.1176 11.4516 -0.0001 35.6893 0.0000
# 6 0.0000 0.0000 0.0002 0.9233 0.0000 12.8816
#
#
#
# Elastic Compliance Matrix: (Units=1/GPa)
#
#
# Indices 1 2 3 4 5 6 
#
# 1 0.009857 -0.002736 -0.002076 0.000000 0.000265 0.000000
# 2 -0.002736 0.022942 -0.003747 0.000000 0.002008 0.000000
# 3 -0.002076 -0.003747 0.012213 0.000000 -0.003969 0.000000
# 4 0.000000 0.000000 0.000000 0.086564 0.000000 -0.006204
# 5 0.000265 0.002008 -0.003969 0.000000 0.029348 0.000000
# 6 0.000000 0.000000 0.000000 -0.006204 0.000000 0.078075
#
#
# Mechanical properties :
#
#
# Convention : Reuss Voigt Hill
#
# Bulk Modulus (GPa) = 35.85174 41.51228 38.68201
# Shear Modulus (GPa) = 18.83845 25.09519 21.96682
#
# Velocity S-wave (km/s) = 3.07858 3.55323 3.32439
# Velocity P-wave (km/s) = 5.53841 6.14157 5.84777
#
# Compressibility (1/GPa) = 0.02789265
#
# Stress axis : x y z
#
# Youngs Moduli (GPa) = 101.45529 43.58766 81.88264
#
# Poissons Ratio (x) = 0.11926 0.17001
# Poissons Ratio (y) = 0.27760 0.30681
# Poissons Ratio (z) = 0.21065 0.16332
#
# Static dielectric constant tensor:
#      x y z
#    x 3.841190 0.000000 0.087250 
#    y 0.000000 3.036710 0.000000 
#    z 0.087250 0.000000 3.799340 
# 
# 
# High freq. dielectric constant tensor:
#      x y z
#    x 1.792590 0.000000 0.005660 
#    y 0.000000 1.715900 0.000000 
#    z 0.005660 0.000000 1.783260 
# 
# From -- ./inp_files/301083.got.cif
#   From: 2010.06.25/outbox.cif.g09.slc.cpg/sg12_151_cif.got.tgz:301083.got - 2010.06.28 00:19:55.
