data_PCOD8114705
_publ_section_title
;
Structure prediction by ZEFSAII (Michael W. Deem and Ramdas Pophale) SiO2 
 PCOD8114705
Probable space group: C 2/M
;
_chemical_formula_sum "Si O2"
_cell_formula_units_Z 40
_cell_length_a 19.203289
_cell_length_b 8.860295
_cell_length_c 19.104474
_cell_angle_alpha 90.000000
_cell_angle_beta 41.028344
_cell_angle_gamma 90.000000
_cell_volume 2133.776007
_symmetry_space_group_name_H-M "C 2/M"
_symmetry_group_IT_number 12
_symmetry_cell_setting 'monoclinic'
loop_
_space_group_symop_operation_xyz
x,y,z
-x,y,-z
-x,-y,-z
x,-y,z
1/2+x,1/2+y,z
1/2-x,1/2+y,-z
1/2-x,1/2-y,-z
1/2+x,1/2-y,z
loop_
_atom_site_type_symbol
_atom_site_label
_atom_site_fract_x
_atom_site_fract_y
_atom_site_fract_z
Si Si1 0.119262 0.827470 0.903513
Si Si2 0.788851 0.178265 0.680380
Si Si3 0.316766 0.178148 0.511375
Si Si4 0.727437 0.830241 0.088821
Si Si5 0.938165 0.677895 0.674959
O O1 0.182716 0.721181 0.802542
O O2 0.167777 0.817255 0.943927
O O3 0.123172 0.000000 0.872820
O O4 0.000000 0.766772 0.000000
O O5 0.777541 0.250666 0.613007
O O6 0.893947 0.241251 0.638987
O O7 0.798303 0.000000 0.666350
O O8 0.250000 0.250000 0.500000
O O9 0.439916 0.218503 0.406054
O O10 0.298348 0.000000 0.527003
O O11 0.627187 0.762105 0.207838
O O12 0.699246 0.000000 0.090544
O O13 0.750000 0.750000 0.000000
O O14 0.917884 0.500000 0.679664
#
# Coordination Sequence:
#
# PCOD8114705 Si02
#       5
#     8   8   8   8   8
#     4   9  19  37  58  79 106 144 187 227 270 321
#     4  11  22  36  57  84 112 144 184 228 274 330
#     4  11  23  39  58  81 111 145 183 230 281 329
#     4   9  18  33  53  78 106 136 174 218 266 318
#     4   9  20  39  59  78 106 147 188 226 271 326
#
# _framework density 18.746110999999999
#
# number of rings (size 3 to 8) (size 9 to 14) (size 15 to 20)
#    0.000    2.200    0.000    4.200    0.000    9.200 
#    0.000    4.000    0.000    0.000    0.000    0.000 
#    0.000    0.000    0.000    0.000    0.000    0.000 
#
# Total GULP energy -248028.276605 kJ/mol
# GULP energy per Si atom -12401.413830 kJ/mol
# Density = 1.870344 g / cm^3
# Si number density = 18.746111 Si / 1000 Ang^3
#
#
#
# Elastic Constant Matrix: (Units=GPa)
#
#
# Indices 1 2 3 4 5 6 
#
# 1 136.1010 61.0710 81.2175 0.0000 1.0473 0.0000
# 2 61.0710 91.0957 48.9325 0.0000 4.9807 0.0001
# 3 81.2175 48.9325 105.7849 0.0000 6.4417 -0.0001
# 4 0.0000 0.0000 0.0000 31.9317 0.0000 6.8989
# 5 1.0473 4.9807 6.4417 0.0000 43.1984 0.0000
# 6 0.0000 0.0001 -0.0001 6.8989 0.0000 32.7012
#
#
#
# Elastic Compliance Matrix: (Units=1/GPa)
#
#
# Indices 1 2 3 4 5 6 
#
# 1 0.015341 -0.005315 -0.009420 0.000000 0.001646 0.000000
# 2 -0.005315 0.016468 -0.003461 0.000000 -0.001254 0.000000
# 3 -0.009420 -0.003461 0.018415 0.000000 -0.002119 0.000000
# 4 0.000000 0.000000 0.000000 0.032812 0.000000 -0.006922
# 5 0.001646 -0.001254 -0.002119 0.000000 0.023570 0.000000
# 6 0.000000 0.000000 0.000000 -0.006922 0.000000 0.032040
#
#
# Mechanical properties :
#
#
# Convention : Reuss Voigt Hill
#
# Bulk Modulus (GPa) = 72.28910 79.49150 75.89030
# Shear Modulus (GPa) = 27.83212 31.01697 29.42455
#
# Velocity S-wave (km/s) = 3.85734 4.07207 3.96616
# Velocity P-wave (km/s) = 7.64753 8.03774 7.84506
#
# Compressibility (1/GPa) = 0.01383334
#
# Stress axis : x y z
#
# Youngs Moduli (GPa) = 65.18510 60.72403 54.30249
#
# Poissons Ratio (x) = 0.32272 0.51153
# Poissons Ratio (y) = 0.34643 0.18793
# Poissons Ratio (z) = 0.61405 0.21016
#
# Static dielectric constant tensor:
#      x y z
#    x 3.496550 0.000000 -0.022100 
#    y 0.000000 3.684260 0.000000 
#    z -0.022100 0.000000 3.888800 
# 
# 
# High freq. dielectric constant tensor:
#      x y z
#    x 1.726940 0.000000 -0.001930 
#    y 0.000000 1.723170 0.000000 
#    z -0.001930 0.000000 1.738100 
# 
# From -- ./inp_files/229104.got.cif
#   From: 2010.06.25/outbox.cif.g09.slc.cpg/sg12_115_cif.got.tgz:229104.got - 2010.06.28 00:19:55.
