data_PCOD8114573
_publ_section_title
;
Structure prediction by ZEFSAII (Michael W. Deem and Ramdas Pophale) SiO2 
 PCOD8114573
Probable space group: C 2/M
;
_chemical_formula_sum "Si O2"
_cell_formula_units_Z 56
_cell_length_a 9.213502
_cell_length_b 22.781298
_cell_length_c 17.784299
_cell_angle_alpha 90.000000
_cell_angle_beta 42.060682
_cell_angle_gamma 90.000000
_cell_volume 2500.697394
_symmetry_space_group_name_H-M "C 2/M"
_symmetry_group_IT_number 12
_symmetry_cell_setting 'monoclinic'
loop_
_space_group_symop_operation_xyz
x,y,z
-x,y,-z
-x,-y,-z
x,-y,z
1/2+x,1/2+y,z
1/2-x,1/2+y,-z
1/2-x,1/2-y,-z
1/2+x,1/2-y,z
loop_
_atom_site_type_symbol
_atom_site_label
_atom_site_fract_x
_atom_site_fract_y
_atom_site_fract_z
Si Si1 0.822851 0.500000 0.428940
Si Si2 0.401947 0.301477 0.461541
Si Si3 0.870822 0.000000 0.661762
Si Si4 0.904659 0.822146 0.191704
Si Si5 0.279780 0.706914 0.795962
Si Si6 0.468128 0.120547 0.348228
Si Si7 0.385518 0.564697 0.965280
Si Si8 0.572378 0.897737 0.812026
O O1 0.633333 0.500000 0.565142
O O2 0.707175 0.500000 0.393440
O O3 0.987581 0.554337 0.370242
O O4 0.500000 0.279082 0.500000
O O5 0.250000 0.250000 0.500000
O O6 0.589806 0.309384 0.329442
O O7 0.263756 0.360130 0.529318
O O8 0.778863 0.058825 0.736088
O O9 0.851202 0.768898 0.153765
O O10 0.665425 0.843097 0.309804
O O11 0.051005 0.793962 0.200658
O O12 0.028933 0.879118 0.113353
O O13 0.104880 0.654614 0.860680
O O14 0.473705 0.125899 0.255136
O O15 0.433276 0.500000 0.909350
O O16 0.500000 0.567829 0.000000
O O17 0.131037 0.567529 0.077531
#
# Coordination Sequence:
#
# PCOD8114573 Si02
#       8
#     4   8   4   8   8   8   8   8
#     4   9  20  32  62  99 136 177 229 275 333 415
#     4  12  23  39  66  99 134 180 228 270 339 421
#     4   9  18  36  63 101 135 181 228 277 340 413
#     4  12  27  46  68 104 141 187 235 293 348 415
#     4  12  26  45  69 103 144 184 230 286 357 413
#     4  11  22  39  67 101 140 179 230 284 340 413
#     4  11  25  46  78 106 133 185 243 290 353 418
#     4  11  21  43  70 101 138 182 229 294 344 414
#
# _framework density 22.393753
#
# number of rings (size 3 to 8) (size 9 to 14) (size 15 to 20)
#    0.000    0.857    5.000    2.571    3.000    1.143 
#    1.286    0.714    0.000    1.714    0.000    0.000 
#    0.000    0.000    0.000    0.000    0.000    0.000 
#
# Total GULP energy -346975.270536 kJ/mol
# GULP energy per Si atom -12391.973948 kJ/mol
# Density = 2.234278 g / cm^3
# Si number density = 22.393753 Si / 1000 Ang^3
#
#
#
# Elastic Constant Matrix: (Units=GPa)
#
#
# Indices 1 2 3 4 5 6 
#
# 1 120.3400 55.1895 17.5996 0.0000 -10.0291 0.0000
# 2 55.1895 165.4930 23.5801 0.0001 -5.0950 -0.0001
# 3 17.5996 23.5801 62.2218 -0.0006 -7.1181 -0.0006
# 4 0.0000 0.0001 -0.0006 36.9059 0.0003 -3.7714
# 5 -10.0291 -5.0950 -7.1181 0.0003 23.1432 0.0002
# 6 0.0000 -0.0001 -0.0006 -3.7714 0.0002 38.7764
#
#
#
# Elastic Compliance Matrix: (Units=1/GPa)
#
#
# Indices 1 2 3 4 5 6 
#
# 1 0.010209 -0.003113 -0.001327 0.000000 0.003331 0.000000
# 2 -0.003113 0.007347 -0.001941 0.000000 -0.000329 0.000000
# 3 -0.001327 -0.001941 0.017690 0.000000 0.004439 0.000000
# 4 0.000000 0.000000 0.000000 0.027368 0.000000 0.002662
# 5 0.003331 -0.000329 0.004439 0.000000 0.045945 0.000000
# 6 0.000000 0.000000 0.000000 0.002662 0.000000 0.026048
#
#
# Mechanical properties :
#
#
# Convention : Reuss Voigt Hill
#
# Bulk Modulus (GPa) = 44.47612 60.08812 52.28212
# Shear Modulus (GPa) = 32.28616 36.54413 34.41514
#
# Velocity S-wave (km/s) = 3.80116 4.04405 3.92448
# Velocity P-wave (km/s) = 6.25852 6.97829 6.62818
#
# Compressibility (1/GPa) = 0.02248398
#
# Stress axis : x y z
#
# Youngs Moduli (GPa) = 97.95202 136.10641 56.52795
#
# Poissons Ratio (x) = 0.42370 0.07501
# Poissons Ratio (y) = 0.30492 0.10975
# Poissons Ratio (z) = 0.12997 0.26424
#
# Static dielectric constant tensor:
#      x y z
#    x 3.813170 0.000000 -0.116750 
#    y 0.000000 4.404560 0.000000 
#    z -0.116750 0.000000 3.495360 
# 
# 
# High freq. dielectric constant tensor:
#      x y z
#    x 1.860080 0.000000 -0.028440 
#    y 0.000000 1.908770 0.000000 
#    z -0.028440 0.000000 1.870880 
# 
# From -- ./inp_files/259830.got.cif
#   From: 2010.06.25/outbox.cif.g09.slc.cpg/sg12_130_cif.got.tgz:259830.got - 2010.06.28 00:19:55.
