data_PCOD8114368
_publ_section_title
;
Structure prediction by ZEFSAII (Michael W. Deem and Ramdas Pophale) SiO2 
 PCOD8114368
Probable space group: C 2/M
;
_chemical_formula_sum "Si O2"
_cell_formula_units_Z 48
_cell_length_a 20.093357
_cell_length_b 17.319960
_cell_length_c 11.935507
_cell_angle_alpha 90.000000
_cell_angle_beta 141.843195
_cell_angle_gamma 90.000000
_cell_volume 2566.251663
_symmetry_space_group_name_H-M "C 2/M"
_symmetry_group_IT_number 12
_symmetry_cell_setting 'monoclinic'
loop_
_space_group_symop_operation_xyz
x,y,z
-x,y,-z
-x,-y,-z
x,-y,z
1/2+x,1/2+y,z
1/2-x,1/2+y,-z
1/2-x,1/2-y,-z
1/2+x,1/2-y,z
loop_
_atom_site_type_symbol
_atom_site_label
_atom_site_fract_x
_atom_site_fract_y
_atom_site_fract_z
Si Si1 0.611813 0.000000 0.276049
Si Si2 0.352149 0.294467 0.501397
Si Si3 0.266767 0.837153 0.882721
Si Si4 0.357042 0.000000 0.935225
Si Si5 0.238157 0.633136 0.546953
Si Si6 0.401871 0.411271 0.943201
Si Si7 0.098963 0.199072 0.850606
O O1 0.670511 0.000000 0.232833
O O2 0.645934 0.075859 0.386358
O O3 0.484559 0.000000 0.108063
O O4 0.279827 0.312386 0.298336
O O5 0.326368 0.355916 0.565258
O O6 0.322993 0.210914 0.507004
O O7 0.478715 0.295806 0.642197
O O8 0.172410 0.830054 0.847243
O O9 0.309099 0.924775 0.933230
O O10 0.364607 0.781176 0.049160
O O11 0.292845 0.597821 0.728989
O O12 0.423110 0.500000 0.002102
O O13 0.500000 0.377149 0.000000
O O14 0.391439 0.365273 0.042913
#
# Coordination Sequence:
#
# PCOD8114368 Si02
#       7
#     4   8   8   4   8   8   8
#     4  11  22  40  63  93 124 157 200 259 312 361
#     4  11  22  39  62  91 119 164 203 249 305 360
#     4  11  24  43  63  88 126 164 209 250 304 370
#     4  11  24  42  63  92 124 162 202 257 312 362
#     4  11  21  37  63  89 123 153 204 254 303 363
#     4  11  22  38  62  90 123 159 202 255 308 358
#     4  11  24  42  63  88 124 168 206 251 302 370
#
# _framework density 18.704324
#
# number of rings (size 3 to 8) (size 9 to 14) (size 15 to 20)
#    0.000    1.000    5.833    1.500    1.167    0.000 
#    4.500    0.833    0.000    1.000    0.000    0.000 
#    0.000    0.000    0.000    0.000    0.000    0.000 
#
# Total GULP energy -297672.091122 kJ/mol
# GULP energy per Si atom -12403.003797 kJ/mol
# Density = 1.866175 g / cm^3
# Si number density = 18.704324 Si / 1000 Ang^3
#
#
#
# Elastic Constant Matrix: (Units=GPa)
#
#
# Indices 1 2 3 4 5 6 
#
# 1 80.4206 41.2266 15.5130 0.0000 1.7762 0.0000
# 2 41.2266 113.6009 26.7682 0.0000 -2.4029 0.0000
# 3 15.5130 26.7682 61.2539 0.0000 5.2730 0.0000
# 4 0.0000 0.0000 0.0000 21.9814 0.0000 6.5758
# 5 1.7762 -2.4029 5.2730 0.0000 31.2354 0.0000
# 6 0.0000 0.0000 0.0000 6.5758 0.0000 19.6552
#
#
#
# Elastic Compliance Matrix: (Units=1/GPa)
#
#
# Indices 1 2 3 4 5 6 
#
# 1 0.015453 -0.005271 -0.001522 0.000000 -0.001027 0.000000
# 2 -0.005271 0.011681 -0.003930 0.000000 0.001862 0.000000
# 3 -0.001522 -0.003930 0.018719 0.000000 -0.003376 0.000000
# 4 0.000000 0.000000 0.000000 0.050552 0.000000 -0.016913
# 5 -0.001027 0.001862 -0.003376 0.000000 0.032786 0.000000
# 6 0.000000 0.000000 0.000000 -0.016913 0.000000 0.056535
#
#
# Mechanical properties :
#
#
# Convention : Reuss Voigt Hill
#
# Bulk Modulus (GPa) = 40.97117 46.92122 43.94620
# Shear Modulus (GPa) = 23.22247 26.02559 24.62403
#
# Velocity S-wave (km/s) = 3.52739 3.73422 3.63228
# Velocity P-wave (km/s) = 6.20824 6.61308 6.41385
#
# Compressibility (1/GPa) = 0.02440741
#
# Stress axis : x y z
#
# Youngs Moduli (GPa) = 64.71213 85.60815 53.42198
#
# Poissons Ratio (x) = 0.45126 0.08129
# Poissons Ratio (y) = 0.34111 0.20995
# Poissons Ratio (z) = 0.09847 0.33644
#
# Static dielectric constant tensor:
#      x y z
#    x 3.525210 0.000000 -0.034840 
#    y 0.000000 3.494880 0.000000 
#    z -0.034840 0.000000 3.506530 
# 
# 
# High freq. dielectric constant tensor:
#      x y z
#    x 1.725210 0.000000 -0.000830 
#    y 0.000000 1.735470 0.000000 
#    z -0.000830 0.000000 1.739580 
# 
# From -- ./inp_files/167659.got.cif
#   From: 2010.06.25/outbox.cif.g09.slc.cpg/sg12_84_cif.got.tgz:167659.got - 2010.06.28 00:19:55.
