data_PCOD8114069
_publ_section_title
;
Structure prediction by ZEFSAII (Michael W. Deem and Ramdas Pophale) SiO2 
 PCOD8114069
Probable space group: C 2/M
;
_chemical_formula_sum "Si O2"
_cell_formula_units_Z 56
_cell_length_a 28.006842
_cell_length_b 9.255636
_cell_length_c 16.267078
_cell_angle_alpha 90.000000
_cell_angle_beta 131.581222
_cell_angle_gamma 90.000000
_cell_volume 3154.210244
_symmetry_space_group_name_H-M "C 2/M"
_symmetry_group_IT_number 12
_symmetry_cell_setting 'monoclinic'
loop_
_space_group_symop_operation_xyz
x,y,z
-x,y,-z
-x,-y,-z
x,-y,z
1/2+x,1/2+y,z
1/2-x,1/2+y,-z
1/2-x,1/2-y,-z
1/2+x,1/2-y,z
loop_
_atom_site_type_symbol
_atom_site_label
_atom_site_fract_x
_atom_site_fract_y
_atom_site_fract_z
Si Si1 0.399622 0.328033 0.886272
Si Si2 0.260335 0.672107 0.760688
Si Si3 0.778587 0.665651 0.107706
Si Si4 0.373553 0.167975 0.451639
Si Si5 0.477828 0.328297 0.660982
Si Si6 0.000891 0.828501 0.131156
Si Si7 0.419081 0.836750 0.320455
O O1 0.397424 0.500000 0.884151
O O2 0.327310 0.266437 0.802302
O O3 0.437009 0.272090 0.848254
O O4 0.436838 0.274896 0.011144
O O5 0.259311 0.500000 0.763957
O O6 0.250874 0.731133 0.842235
O O7 0.200474 0.720486 0.635857
O O8 0.758527 0.500000 0.075218
O O9 0.854710 0.683356 0.195030
O O10 0.750000 0.750000 0.000000
O O11 0.408611 0.263504 0.560233
O O12 0.406589 0.195629 0.401547
O O13 0.378106 0.000000 0.480902
O O14 0.474104 0.500000 0.653704
O O15 0.497265 0.270091 0.773737
O O16 0.529155 0.274644 0.653724
O O17 0.002198 0.000000 0.133235
O O18 0.445281 0.000000 0.340060
#
# Coordination Sequence:
#
# PCOD8114069 Si02
#       7
#     8   8   8   8   8   8   8
#     4   8  13  27  48  67  93 124 154 191 236 284
#     4   8  15  28  49  68  86 123 167 194 222 276
#     4   9  18  30  45  70  99 123 154 195 234 276
#     4   9  18  34  50  67  92 127 166 197 226 275
#     4  11  21  30  46  74 100 122 155 200 245 280
#     4   8  16  27  42  71 101 120 146 195 248 280
#     4   9  19  34  48  65  94 132 166 192 226 277
#
# _framework density 17.754048999999998
#
# number of rings (size 3 to 8) (size 9 to 14) (size 15 to 20)
#    0.000    3.143    0.000    3.429    2.000    2.857 
#    0.000    2.857    0.000    0.000    0.000   11.000 
#    0.000    0.000    0.000    0.000    0.000    0.000 
#
# Total GULP energy -347046.608930 kJ/mol
# GULP energy per Si atom -12394.521748 kJ/mol
# Density = 1.771364 g / cm^3
# Si number density = 17.754049 Si / 1000 Ang^3
#
#
#
# Elastic Constant Matrix: (Units=GPa)
#
#
# Indices 1 2 3 4 5 6 
#
# 1 99.1231 20.2119 44.1738 0.0000 22.9302 0.0000
# 2 20.2119 38.2353 31.6154 0.0000 3.6848 0.0000
# 3 44.1738 31.6154 102.7622 0.0000 9.2991 0.0000
# 4 0.0000 0.0000 0.0000 28.4465 0.0000 2.3713
# 5 22.9302 3.6848 9.2991 0.0000 22.5333 0.0000
# 6 0.0000 0.0000 0.0000 2.3713 0.0000 10.8205
#
#
#
# Elastic Compliance Matrix: (Units=1/GPa)
#
#
# Indices 1 2 3 4 5 6 
#
# 1 0.016029 -0.003322 -0.004614 0.000000 -0.013864 0.000000
# 2 -0.003322 0.035804 -0.009727 0.000000 0.001540 0.000000
# 3 -0.004614 -0.009727 0.014687 0.000000 0.000225 0.000000
# 4 0.000000 0.000000 0.000000 0.035808 0.000000 -0.007847
# 5 -0.013864 0.001540 0.000225 0.000000 0.058143 0.000000
# 6 0.000000 0.000000 0.000000 -0.007847 0.000000 0.094137
#
#
# Mechanical properties :
#
#
# Convention : Reuss Voigt Hill
#
# Bulk Modulus (GPa) = 32.05658 48.01363 40.03511
# Shear Modulus (GPa) = 16.64829 21.96801 19.30815
#
# Velocity S-wave (km/s) = 3.06554 3.52142 3.30136
# Velocity P-wave (km/s) = 5.53400 6.60578 6.09350
#
# Compressibility (1/GPa) = 0.03119485
#
# Stress axis : x y z
#
# Youngs Moduli (GPa) = 62.38612 27.92964 68.08950
#
# Poissons Ratio (x) = 0.09279 0.31414
# Poissons Ratio (y) = 0.20727 0.66228
# Poissons Ratio (z) = 0.28783 0.27166
#
# Static dielectric constant tensor:
#      x y z
#    x 3.508960 0.000000 0.164480 
#    y 0.000000 2.816730 0.000000 
#    z 0.164480 0.000000 3.501260 
# 
# 
# High freq. dielectric constant tensor:
#      x y z
#    x 1.682040 0.000000 0.012850 
#    y 0.000000 1.636940 0.000000 
#    z 0.012850 0.000000 1.694550 
# 
# From -- ./inp_files/239038.got.cif
#   From: 2010.06.25/outbox.cif.g09.slc.cpg/sg12_120_cif.got.tgz:239038.got - 2010.06.28 00:19:55.
