data_PCOD8114879
_publ_section_title
;
Structure prediction by ZEFSAII (Michael W. Deem and Ramdas Pophale) SiO2 
 PCOD8114879
Probable space group: C 2/M
;
_chemical_formula_sum "Si O2"
_cell_formula_units_Z 56
_cell_length_a 9.094189
_cell_length_b 24.612981
_cell_length_c 15.863503
_cell_angle_alpha 90.000000
_cell_angle_beta 53.054585
_cell_angle_gamma 90.000000
_cell_volume 2837.836535
_symmetry_space_group_name_H-M "C 2/M"
_symmetry_group_IT_number 12
_symmetry_cell_setting 'monoclinic'
loop_
_space_group_symop_operation_xyz
x,y,z
-x,y,-z
-x,-y,-z
x,-y,z
1/2+x,1/2+y,z
1/2-x,1/2+y,-z
1/2-x,1/2-y,-z
1/2+x,1/2-y,z
loop_
_atom_site_type_symbol
_atom_site_label
_atom_site_fract_x
_atom_site_fract_y
_atom_site_fract_z
Si Si1 0.468734 0.500000 0.609203
Si Si2 0.703396 0.399841 0.755154
Si Si3 0.812834 0.190877 0.607279
Si Si4 0.186291 0.500000 0.386670
Si Si5 0.300996 0.907357 0.245566
Si Si6 0.699838 0.062802 0.108530
Si Si7 0.312249 0.565536 0.887020
Si Si8 0.958892 0.693760 0.607732
O O1 0.500000 0.500000 0.500000
O O2 0.653832 0.500000 0.599213
O O3 0.358685 0.446208 0.668510
O O4 0.817172 0.447727 0.672191
O O5 0.671960 0.409160 0.866186
O O6 0.495320 0.402587 0.793593
O O7 0.805662 0.343346 0.704413
O O8 0.745081 0.152821 0.706522
O O9 0.649380 0.196835 0.594659
O O10 0.000000 0.167284 0.500000
O O11 0.864548 0.247687 0.632301
O O12 0.000000 0.500000 0.500000
O O13 0.496273 0.925884 0.214607
O O14 0.330425 0.914003 0.134502
O O15 0.747323 0.000000 0.090058
O O16 0.739140 0.086293 0.002139
O O17 0.340416 0.500000 0.873087
O O18 0.000000 0.670674 0.500000
#
# Coordination Sequence:
#
# PCOD8114879 Si02
#       8
#     4   8   8   4   8   8   8   8
#     4  12  26  38  57  91 128 168 201 247 313 372
#     4  12  22  40  62  92 127 160 206 253 313 366
#     4  11  25  42  66  93 121 163 209 254 309 372
#     4  12  26  38  57  91 128 168 201 247 313 372
#     4  12  22  40  62  92 127 160 206 253 313 366
#     4  11  22  38  65  94 127 163 210 256 304 370
#     4  11  22  40  63  94 127 169 210 254 304 366
#     4  11  25  42  66  93 121 163 209 254 309 372
#
# _framework density 19.733342
#
# number of rings (size 3 to 8) (size 9 to 14) (size 15 to 20)
#    0.000    0.571    5.714    3.429    6.000    4.571 
#    0.000    0.000    0.000    5.143    0.000    0.000 
#    0.000    0.000    0.000    0.000    0.000    0.000 
#
# Total GULP energy -347124.775791 kJ/mol
# GULP energy per Si atom -12397.313421 kJ/mol
# Density = 1.968843 g / cm^3
# Si number density = 19.733342 Si / 1000 Ang^3
#
#
#
# Elastic Constant Matrix: (Units=GPa)
#
#
# Indices 1 2 3 4 5 6 
#
# 1 96.7487 31.5160 26.1467 0.0000 0.3279 0.0000
# 2 31.5160 75.3408 38.4283 0.0000 7.8357 0.0000
# 3 26.1467 38.4283 100.5966 0.0000 21.1103 0.0000
# 4 0.0000 0.0000 0.0000 28.6739 0.0000 -0.5771
# 5 0.3279 7.8357 21.1103 0.0000 40.4515 0.0000
# 6 0.0000 0.0000 0.0000 -0.5771 0.0000 28.3602
#
#
#
# Elastic Compliance Matrix: (Units=1/GPa)
#
#
# Indices 1 2 3 4 5 6 
#
# 1 0.012255 -0.004343 -0.001889 0.000000 0.001728 0.000000
# 2 -0.004343 0.018024 -0.005650 0.000000 -0.000508 0.000000
# 3 -0.001889 -0.005650 0.013877 0.000000 -0.006132 0.000000
# 4 0.000000 0.000000 0.000000 0.034889 0.000000 0.000710
# 5 0.001728 -0.000508 -0.006132 0.000000 0.028005 0.000000
# 6 0.000000 0.000000 0.000000 0.000710 0.000000 0.035275
#
#
# Mechanical properties :
#
#
# Convention : Reuss Voigt Hill
#
# Bulk Modulus (GPa) = 49.03665 51.65201 50.34433
# Shear Modulus (GPa) = 28.92052 31.27012 30.09532
#
# Velocity S-wave (km/s) = 3.83242 3.98506 3.90949
# Velocity P-wave (km/s) = 6.66985 6.88521 6.77839
#
# Compressibility (1/GPa) = 0.02039291
#
# Stress axis : x y z
#
# Youngs Moduli (GPa) = 81.59689 55.48057 72.06244
#
# Poissons Ratio (x) = 0.24094 0.13612
# Poissons Ratio (y) = 0.35436 0.40716
# Poissons Ratio (z) = 0.15413 0.31347
#
# Static dielectric constant tensor:
#      x y z
#    x 3.622710 0.000000 -0.066650 
#    y 0.000000 3.403160 0.000000 
#    z -0.066650 0.000000 3.686600 
# 
# 
# High freq. dielectric constant tensor:
#      x y z
#    x 1.795330 0.000000 0.004920 
#    y 0.000000 1.740200 0.000000 
#    z 0.004920 0.000000 1.777430 
# 
# From -- ./inp_files/198824.got.cif
#   From: 2010.06.25/outbox.cif.g09.slc.cpg/sg12_100_cif.got.tgz:198824.got - 2010.06.28 00:19:55.
