data_PCOD8114909
_publ_section_title
;
Structure prediction by ZEFSAII (Michael W. Deem and Ramdas Pophale) SiO2 
 PCOD8114909
Probable space group: C 2/M
;
_chemical_formula_sum "Si O2"
_cell_formula_units_Z 40
_cell_length_a 13.293436
_cell_length_b 23.462515
_cell_length_c 4.716252
_cell_angle_alpha 90.000000
_cell_angle_beta 84.552339
_cell_angle_gamma 90.000000
_cell_volume 1464.342980
_symmetry_space_group_name_H-M "C 2/M"
_symmetry_group_IT_number 12
_symmetry_cell_setting 'monoclinic'
loop_
_space_group_symop_operation_xyz
x,y,z
-x,y,-z
-x,-y,-z
x,-y,z
1/2+x,1/2+y,z
1/2-x,1/2+y,-z
1/2-x,1/2-y,-z
1/2+x,1/2-y,z
loop_
_atom_site_type_symbol
_atom_site_label
_atom_site_fract_x
_atom_site_fract_y
_atom_site_fract_z
Si Si1 0.302632 0.935872 0.718565
Si Si2 0.834814 0.750308 0.218667
Si Si3 0.395461 0.123293 0.184196
Si Si4 0.598810 0.685097 0.284085
Si Si5 0.384012 0.438735 0.611559
O O1 0.305002 0.899087 0.006521
O O2 0.187068 0.932829 0.644592
O O3 0.336565 0.000000 0.776770
O O4 0.385284 0.910400 0.479881
O O5 0.813806 0.783170 0.532199
O O6 0.750000 0.750000 0.000000
O O7 0.884409 0.689361 0.262637
O O8 0.916896 0.788197 0.021868
O O9 0.500000 0.109615 0.000000
O O10 0.500000 0.693594 0.500000
O O11 0.629380 0.619610 0.210609
O O12 0.500000 0.443431 0.500000
O O13 0.355158 0.500000 0.775171
#
# Coordination Sequence:
#
# PCOD8114909 Si02
#       5
#     8   8   8   8   8
#     4  11  24  43  66  94 128 167 215 268 320 378
#     4  12  24  41  64  91 125 164 210 262 315 371
#     4  12  25  42  65  94 130 172 216 262 315 375
#     4  11  22  39  62  90 124 160 201 250 310 377
#     4   9  20  41  68  97 129 166 210 264 326 387
#
# _framework density 27.316006000000002
#
# number of rings (size 3 to 8) (size 9 to 14) (size 15 to 20)
#    0.000    1.000    0.000    7.200    0.000    2.400 
#    0.000    6.000    0.000   14.400    0.000    0.000 
#    0.000    0.000    0.000    0.000    0.000    0.000 
#
# Total GULP energy -247851.913961 kJ/mol
# GULP energy per Si atom -12392.595698 kJ/mol
# Density = 2.725383 g / cm^3
# Si number density = 27.316006 Si / 1000 Ang^3
#
#
#
# Elastic Constant Matrix: (Units=GPa)
#
#
# Indices 1 2 3 4 5 6 
#
# 1 50.4449 16.6779 -16.9085 0.0000 5.2559 0.0000
# 2 16.6779 222.1624 57.8007 0.0000 -0.2723 0.0000
# 3 -16.9085 57.8007 153.4261 0.0000 3.4280 0.0000
# 4 0.0000 0.0000 0.0000 657.2054 0.0000 53.7073
# 5 5.2559 -0.2723 3.4280 0.0000 22.7937 0.0000
# 6 0.0000 0.0000 0.0000 53.7073 0.0000 12.8409
#
#
#
# Elastic Compliance Matrix: (Units=1/GPa)
#
#
# Indices 1 2 3 4 5 6 
#
# 1 0.022501 -0.002633 0.003600 0.000000 -0.005761 0.000000
# 2 -0.002633 0.005301 -0.002310 0.000000 0.001018 0.000000
# 3 0.003600 -0.002310 0.007830 0.000000 -0.002035 0.000000
# 4 0.000000 0.000000 0.000000 0.002312 0.000000 -0.009669
# 5 -0.005761 0.001018 -0.002035 0.000000 0.045519 0.000000
# 6 0.000000 0.000000 0.000000 -0.009669 0.000000 0.118317
#
#
# Mechanical properties :
#
#
# Convention : Reuss Voigt Hill
#
# Bulk Modulus (GPa) = 30.35130 60.13040 45.24085
# Shear Modulus (GPa) = 23.20749 163.13222 93.16986
#
# Velocity S-wave (km/s) = 2.91794 7.73628 5.84655
# Velocity P-wave (km/s) = 4.74213 10.09261 7.88507
#
# Compressibility (1/GPa) = 0.03294752
#
# Stress axis : x y z
#
# Youngs Moduli (GPa) = 44.44203 188.63925 127.70863
#
# Poissons Ratio (x) = 0.49668 -0.45981
# Poissons Ratio (y) = 0.11702 0.29501
# Poissons Ratio (z) = -0.16001 0.43576
#
# Static dielectric constant tensor:
#      x y z
#    x 6.583160 0.000000 -1.783560 
#    y 0.000000 5.812890 0.000000 
#    z -1.783560 0.000000 7.590670 
# 
# 
# High freq. dielectric constant tensor:
#      x y z
#    x 2.129380 0.000000 -0.011020 
#    y 0.000000 2.116020 0.000000 
#    z -0.011020 0.000000 2.102290 
# 
# From -- ./inp_files/11322.got.cif
#   From: 2010.06.25/outbox.cif.g09.slc.cpg/sg12_6_cif.got.tgz:11322.got - 2010.06.28 00:19:55.
