data_PCOD8114670
_publ_section_title
;
Structure prediction by ZEFSAII (Michael W. Deem and Ramdas Pophale) SiO2 
 PCOD8114670
Probable space group: C 2/M
;
_chemical_formula_sum "Si O2"
_cell_formula_units_Z 44
_cell_length_a 8.929517
_cell_length_b 20.305298
_cell_length_c 10.379049
_cell_angle_alpha 90.000000
_cell_angle_beta 94.833740
_cell_angle_gamma 90.000000
_cell_volume 1875.199756
_symmetry_space_group_name_H-M "C 2/M"
_symmetry_group_IT_number 12
_symmetry_cell_setting 'monoclinic'
loop_
_space_group_symop_operation_xyz
x,y,z
-x,y,-z
-x,-y,-z
x,-y,z
1/2+x,1/2+y,z
1/2-x,1/2+y,-z
1/2-x,1/2-y,-z
1/2+x,1/2-y,z
loop_
_atom_site_type_symbol
_atom_site_label
_atom_site_fract_x
_atom_site_fract_y
_atom_site_fract_z
Si Si1 0.365747 0.208510 0.751206
Si Si2 0.097785 0.076368 0.388518
Si Si3 0.000000 0.235861 0.000000
Si Si4 0.318860 0.835791 0.292736
Si Si5 0.661034 0.926519 0.948900
Si Si6 0.629453 0.624964 0.831055
O O1 0.395990 0.215832 0.907609
O O2 0.511482 0.189955 0.675439
O O3 0.297622 0.276407 0.695778
O O4 0.248893 0.148031 0.730591
O O5 0.011135 0.089920 0.247289
O O6 0.000000 0.103867 0.500000
O O7 0.261458 0.111765 0.395212
O O8 0.129458 0.000000 0.409406
O O9 0.915727 0.191971 0.099463
O O10 0.306355 0.869662 0.151974
O O11 0.663907 0.000000 0.886579
O O12 0.500000 0.913223 0.000000
O O13 0.793198 0.925485 0.064889
#
# Coordination Sequence:
#
# PCOD8114670 Si02
#       6
#     8   8   4   8   8   8
#     4  12  22  35  63 100 132 170 200 257 329 394
#     4  11  26  49  70  88 122 173 229 280 321 371
#     4  12  20  32  63  98 141 168 202 242 322 402
#     4  12  22  41  63  97 134 169 215 263 328 391
#     4  11  22  35  59  97 137 169 205 265 324 391
#     4  12  21  39  64  98 130 172 216 262 322 396
#
# _framework density 23.464167
#
# number of rings (size 3 to 8) (size 9 to 14) (size 15 to 20)
#    0.000    0.364    7.273    2.727    0.000    0.000 
#    0.000    7.273    0.000    2.182    0.000    0.000 
#    0.000    0.000    0.000    0.000    0.000    0.000 
#
# Total GULP energy -272765.276722 kJ/mol
# GULP energy per Si atom -12398.421669 kJ/mol
# Density = 2.341076 g / cm^3
# Si number density = 23.464167 Si / 1000 Ang^3
#
#
#
# Elastic Constant Matrix: (Units=GPa)
#
#
# Indices 1 2 3 4 5 6 
#
# 1 120.0413 41.8190 18.8195 0.0000 -39.5604 0.0000
# 2 41.8190 97.5149 11.4733 0.0000 -24.6349 0.0000
# 3 18.8195 11.4733 46.1024 0.0000 -32.0388 0.0000
# 4 0.0000 0.0000 0.0000 21.3979 0.0000 -12.4534
# 5 -39.5604 -24.6349 -32.0388 0.0000 38.0843 0.0000
# 6 0.0000 0.0000 0.0000 -12.4534 0.0000 23.3925
#
#
#
# Elastic Compliance Matrix: (Units=1/GPa)
#
#
# Indices 1 2 3 4 5 6 
#
# 1 0.014943 -0.001791 0.010419 0.000000 0.023129 0.000000
# 2 -0.001791 0.013183 0.005016 0.000000 0.010887 0.000000
# 3 0.010419 0.005016 0.062513 0.000000 0.066657 0.000000
# 4 0.000000 0.000000 0.000000 0.067713 0.000000 0.036048
# 5 0.023129 0.010887 0.066657 0.000000 0.113402 0.000000
# 6 0.000000 0.000000 0.000000 0.036048 0.000000 0.061940
#
#
# Mechanical properties :
#
#
# Convention : Reuss Voigt Hill
#
# Bulk Modulus (GPa) = 8.47978 45.32025 26.90001
# Shear Modulus (GPa) = 14.46281 29.34472 21.90377
#
# Velocity S-wave (km/s) = 2.48539 3.54024 3.05864
# Velocity P-wave (km/s) = 3.44354 6.00564 4.89519
#
# Compressibility (1/GPa) = 0.11792755
#
# Stress axis : x y z
#
# Youngs Moduli (GPa) = 66.91911 75.85463 15.99678
#
# Poissons Ratio (x) = 0.13588 -0.16668
# Poissons Ratio (y) = 0.11987 -0.08024
# Poissons Ratio (z) = -0.69726 -0.38049
#
# Static dielectric constant tensor:
#      x y z
#    x 4.483580 0.000000 -0.227290 
#    y 0.000000 4.247490 0.000000 
#    z -0.227290 0.000000 3.830380 
# 
# 
# High freq. dielectric constant tensor:
#      x y z
#    x 1.938870 0.000000 -0.026040 
#    y 0.000000 1.937690 0.000000 
#    z -0.026040 0.000000 1.886050 
# 
# From -- ./inp_files/120704.got.cif
#   From: 2010.06.25/outbox.cif.g09.slc.cpg/sg12_61_cif.got.tgz:120704.got - 2010.06.28 00:19:55.
