data_PCOD8114234
_publ_section_title
;
Structure prediction by ZEFSAII (Michael W. Deem and Ramdas Pophale) SiO2 
 PCOD8114234
Probable space group: C 2/M
;
_chemical_formula_sum "Si O2"
_cell_formula_units_Z 64
_cell_length_a 11.743756
_cell_length_b 18.288558
_cell_length_c 17.667089
_cell_angle_alpha 90.000000
_cell_angle_beta 104.756865
_cell_angle_gamma 90.000000
_cell_volume 3669.314038
_symmetry_space_group_name_H-M "C 2/M"
_symmetry_group_IT_number 12
_symmetry_cell_setting 'monoclinic'
loop_
_space_group_symop_operation_xyz
x,y,z
-x,y,-z
-x,-y,-z
x,-y,z
1/2+x,1/2+y,z
1/2-x,1/2+y,-z
1/2-x,1/2-y,-z
1/2+x,1/2-y,z
loop_
_atom_site_type_symbol
_atom_site_label
_atom_site_fract_x
_atom_site_fract_y
_atom_site_fract_z
Si Si1 0.942251 0.842192 0.570179
Si Si2 0.789723 0.416287 0.440412
Si Si3 0.413660 0.086656 0.161258
Si Si4 0.369188 0.817288 0.585959
Si Si5 0.376322 0.158598 0.308225
Si Si6 0.318755 0.086916 0.823986
Si Si7 0.137120 0.580097 0.006960
Si Si8 0.182300 0.820792 0.681927
O O1 0.850194 0.905928 0.572781
O O2 0.869357 0.766191 0.557113
O O3 0.000000 0.857146 0.500000
O O4 0.045968 0.842243 0.649213
O O5 0.822463 0.500000 0.460803
O O6 0.866205 0.368472 0.511824
O O7 0.821986 0.395161 0.360744
O O8 0.352652 0.124216 0.222247
O O9 0.551782 0.105551 0.184769
O O10 0.395658 0.000000 0.162023
O O11 0.350893 0.118862 0.073558
O O12 0.485086 0.832776 0.654171
O O13 0.255691 0.835544 0.617817
O O14 0.307181 0.235160 0.297613
O O15 0.304170 0.117027 0.908638
O O16 0.225643 0.130153 0.758260
O O17 0.295100 0.000000 0.815420
O O18 0.194287 0.500000 0.009404
O O19 0.000000 0.570780 0.000000
#
# Coordination Sequence:
#
# PCOD8114234 Si02
#       8
#     8   8   8   8   8   8   8   8
#     4  11  22  39  57  71  98 141 181 212 252 310
#     4  12  25  38  54  77 106 135 171 217 261 305
#     4   9  16  29  52  79 106 134 165 209 263 308
#     4  11  21  39  57  73  99 138 180 214 258 307
#     4  11  22  35  54  78 105 136 174 214 257 311
#     4   9  17  31  52  79 106 129 168 217 256 301
#     4   7  12  25  47  75 105 134 160 200 260 311
#     4  11  21  35  57  76 102 141 177 210 256 310
#
# _framework density 17.441952000000001
#
# number of rings (size 3 to 8) (size 9 to 14) (size 15 to 20)
#    0.000    1.875    3.750    4.125    0.000    2.750 
#    0.000    0.625    0.000    0.000    0.000    0.875 
#    0.000    4.000    0.000    0.000    0.000    0.000 
#
# Total GULP energy -396665.474160 kJ/mol
# GULP energy per Si atom -12395.796067 kJ/mol
# Density = 1.740225 g / cm^3
# Si number density = 17.441952 Si / 1000 Ang^3
#
#
#
# Elastic Constant Matrix: (Units=GPa)
#
#
# Indices 1 2 3 4 5 6 
#
# 1 48.0177 17.7137 25.7126 0.0000 -2.9695 0.0000
# 2 17.7137 69.6153 48.0899 0.0000 4.1850 0.0000
# 3 25.7126 48.0899 139.3909 0.0000 -14.5931 0.0000
# 4 0.0000 0.0000 0.0000 24.0404 0.0000 2.4049
# 5 -2.9695 4.1850 -14.5931 0.0000 21.6572 0.0000
# 6 0.0000 0.0000 0.0000 2.4049 0.0000 9.0529
#
#
#
# Elastic Compliance Matrix: (Units=1/GPa)
#
#
# Indices 1 2 3 4 5 6 
#
# 1 0.024026 -0.004416 -0.002662 0.000000 0.002354 0.000000
# 2 -0.004416 0.021303 -0.007563 0.000000 -0.009818 0.000000
# 3 -0.002662 -0.007563 0.011178 0.000000 0.008628 0.000000
# 4 0.000000 0.000000 0.000000 0.042732 0.000000 -0.011352
# 5 0.002354 -0.009818 0.008628 0.000000 0.054208 0.000000
# 6 0.000000 0.000000 0.000000 -0.011352 0.000000 0.113478
#
#
# Mechanical properties :
#
#
# Convention : Reuss Voigt Hill
#
# Bulk Modulus (GPa) = 36.73136 48.89516 42.81326
# Shear Modulus (GPa) = 16.37838 21.98393 19.18115
#
# Velocity S-wave (km/s) = 3.06767 3.55407 3.31979
# Velocity P-wave (km/s) = 5.80107 6.70342 6.26850
#
# Compressibility (1/GPa) = 0.02722469
#
# Stress axis : x y z
#
# Youngs Moduli (GPa) = 41.62209 46.94205 89.46510
#
# Poissons Ratio (x) = 0.20730 0.23815
# Poissons Ratio (y) = 0.18381 0.67660
# Poissons Ratio (z) = 0.11079 0.35501
#
# Static dielectric constant tensor:
#      x y z
#    x 3.110600 0.000000 -0.025120 
#    y 0.000000 3.023120 0.000000 
#    z -0.025120 0.000000 3.491160 
# 
# 
# High freq. dielectric constant tensor:
#      x y z
#    x 1.653420 0.000000 -0.004040 
#    y 0.000000 1.651260 0.000000 
#    z -0.004040 0.000000 1.685650 
# 
# From -- ./inp_files/263946.got.cif
#   From: 2010.06.25/outbox.cif.g09.slc.cpg/sg12_132_cif.got.tgz:263946.got - 2010.06.28 00:19:55.
