data_PCOD8114171
_publ_section_title
;
Structure prediction by ZEFSAII (Michael W. Deem and Ramdas Pophale) SiO2 
 PCOD8114171
Probable space group: C 2/M
;
_chemical_formula_sum "Si O2"
_cell_formula_units_Z 40
_cell_length_a 14.479285
_cell_length_b 8.427018
_cell_length_c 17.856722
_cell_angle_alpha 90.000000
_cell_angle_beta 112.329201
_cell_angle_gamma 90.000000
_cell_volume 2015.450413
_symmetry_space_group_name_H-M "C 2/M"
_symmetry_group_IT_number 12
_symmetry_cell_setting 'monoclinic'
loop_
_space_group_symop_operation_xyz
x,y,z
-x,y,-z
-x,-y,-z
x,-y,z
1/2+x,1/2+y,z
1/2-x,1/2+y,-z
1/2-x,1/2-y,-z
1/2+x,1/2-y,z
loop_
_atom_site_type_symbol
_atom_site_label
_atom_site_fract_x
_atom_site_fract_y
_atom_site_fract_z
Si Si1 0.660447 0.685447 0.292863
Si Si2 0.079988 0.187725 0.424603
Si Si3 0.855538 0.814015 0.004228
Si Si4 0.360867 0.312046 0.396884
Si Si5 0.060470 0.684349 0.117728
O O1 0.637731 0.500000 0.276721
O O2 0.626630 0.755778 0.362877
O O3 0.777955 0.720285 0.323173
O O4 0.600375 0.780558 0.212211
O O5 0.141059 0.245758 0.516686
O O6 0.965377 0.242237 0.393598
O O7 0.083590 0.000000 0.425528
O O8 0.871934 0.778697 0.921404
O O9 0.859614 0.000000 0.019626
O O10 0.750000 0.750000 0.000000
O O11 0.944575 0.733678 0.078650
O O12 0.344396 0.500000 0.385176
O O13 0.070136 0.500000 0.101895
#
# Coordination Sequence:
#
# PCOD8114171 Si02
#       5
#     8   8   8   8   8
#     4  11  21  34  52  80 113 145 180 231 288 336
#     4   8  17  33  54  75 104 144 187 229 278 335
#     4  11  22  41  66  90 115 147 182 225 279 340
#     4   9  17  34  55  76 102 143 191 232 275 335
#     4  11  23  40  59  85 116 150 191 235 278 331
#
# _framework density 19.846681
#
# number of rings (size 3 to 8) (size 9 to 14) (size 15 to 20)
#    0.000    2.000    0.000    7.200    0.000    1.600 
#    0.000   11.000    0.000    0.000    0.000    0.000 
#    0.000    0.000    0.000    0.000    0.000    0.000 
#
# Total GULP energy -248011.326242 kJ/mol
# GULP energy per Si atom -12400.566312 kJ/mol
# Density = 1.980151 g / cm^3
# Si number density = 19.846681 Si / 1000 Ang^3
#
#
#
# Elastic Constant Matrix: (Units=GPa)
#
#
# Indices 1 2 3 4 5 6 
#
# 1 100.5476 13.7870 39.3066 0.0000 14.2569 0.0000
# 2 13.7870 62.8504 18.0296 0.0000 4.4787 0.0000
# 3 39.3066 18.0296 111.3828 0.0000 16.9269 0.0000
# 4 0.0000 0.0000 0.0000 30.6168 0.0000 5.1409
# 5 14.2569 4.4787 16.9269 0.0000 22.0787 0.0000
# 6 0.0000 0.0000 0.0000 5.1409 0.0000 29.8035
#
#
#
# Elastic Compliance Matrix: (Units=1/GPa)
#
#
# Indices 1 2 3 4 5 6 
#
# 1 0.012134 -0.001357 -0.003298 0.000000 -0.005032 0.000000
# 2 -0.001357 0.016881 -0.002112 0.000000 -0.000928 0.000000
# 3 -0.003298 -0.002112 0.011426 0.000000 -0.006202 0.000000
# 4 0.000000 0.000000 0.000000 0.033636 0.000000 -0.005802
# 5 -0.005032 -0.000928 -0.006202 0.000000 0.053485 0.000000
# 6 0.000000 0.000000 0.000000 -0.005802 0.000000 0.034554
#
#
# Mechanical properties :
#
#
# Convention : Reuss Voigt Hill
#
# Bulk Modulus (GPa) = 37.16592 46.33638 41.75115
# Shear Modulus (GPa) = 27.08270 30.07698 28.57984
#
# Velocity S-wave (km/s) = 3.69805 3.89712 3.79889
# Velocity P-wave (km/s) = 6.08287 6.60666 6.35017
#
# Compressibility (1/GPa) = 0.02690637
#
# Stress axis : x y z
#
# Youngs Moduli (GPa) = 82.41108 59.23940 87.51742
#
# Poissons Ratio (x) = 0.08040 0.28861
# Poissons Ratio (y) = 0.11185 0.18488
# Poissons Ratio (z) = 0.27177 0.12514
#
# Static dielectric constant tensor:
#      x y z
#    x 3.202450 0.000000 -0.073250 
#    y 0.000000 3.420520 0.000000 
#    z -0.073250 0.000000 3.698930 
# 
# 
# High freq. dielectric constant tensor:
#      x y z
#    x 1.778780 0.000000 0.006230 
#    y 0.000000 1.763770 0.000000 
#    z 0.006230 0.000000 1.775020 
# 
# From -- ./inp_files/267377.got.cif
#   From: 2010.06.25/outbox.cif.g09.slc.cpg/sg12_134_cif.got.tgz:267377.got - 2010.06.28 00:19:55.
