data_PCOD8114725
_publ_section_title
;
Structure prediction by ZEFSAII (Michael W. Deem and Ramdas Pophale) SiO2 
 PCOD8114725
Probable space group: C 2/M
;
_chemical_formula_sum "Si O2"
_cell_formula_units_Z 64
_cell_length_a 18.275040
_cell_length_b 20.336641
_cell_length_c 12.557941
_cell_angle_alpha 90.000000
_cell_angle_beta 137.631419
_cell_angle_gamma 90.000000
_cell_volume 3145.210674
_symmetry_space_group_name_H-M "C 2/M"
_symmetry_group_IT_number 12
_symmetry_cell_setting 'monoclinic'
loop_
_space_group_symop_operation_xyz
x,y,z
-x,y,-z
-x,-y,-z
x,-y,z
1/2+x,1/2+y,z
1/2-x,1/2+y,-z
1/2-x,1/2-y,-z
1/2+x,1/2-y,z
loop_
_atom_site_type_symbol
_atom_site_label
_atom_site_fract_x
_atom_site_fract_y
_atom_site_fract_z
Si Si1 0.762408 0.208098 0.166772
Si Si2 0.893015 0.746159 0.828429
Si Si3 0.886855 0.688445 0.599199
Si Si4 0.824338 0.117928 0.705563
Si Si5 0.796910 0.074748 0.910627
Si Si6 0.580496 0.314462 0.501797
Si Si7 0.365373 0.172494 0.165244
Si Si8 0.492034 0.573930 0.728904
O O1 0.694773 0.255274 0.172375
O O2 0.823734 0.159623 0.315944
O O3 0.844010 0.253663 0.185330
O O4 0.685122 0.165818 0.007421
O O5 0.865654 0.696325 0.702687
O O6 0.904355 0.819027 0.793405
O O7 0.000000 0.719609 0.000000
O O8 0.797973 0.637856 0.459566
O O9 0.873531 0.760256 0.530687
O O10 0.006150 0.659484 0.702847
O O11 0.823854 0.079452 0.815396
O O12 0.882161 0.071821 0.681086
O O13 0.691465 0.118576 0.822115
O O14 0.767258 0.000000 0.906566
O O15 0.902207 0.097594 0.091115
O O16 0.500000 0.279257 0.500000
O O17 0.522605 0.375787 0.384007
O O18 0.509810 0.500000 0.704187
#
# Coordination Sequence:
#
# PCOD8114725 Si02
#       8
#     8   8   8   8   8   8   8   8
#     4  11  22  36  61  91 126 160 207 250 317 365
#     4  12  21  35  57  92 125 162 199 247 315 376
#     4  12  24  38  60  96 132 159 199 257 320 376
#     4  12  23  38  63  91 128 163 205 256 312 370
#     4  11  24  43  65  90 123 166 211 256 306 369
#     4  12  22  37  60  91 126 160 200 257 316 369
#     4  11  23  40  61  93 127 166 202 256 310 380
#     4  11  25  43  63  89 123 166 215 259 305 366
#
# _framework density 20.348399000000001
#
# number of rings (size 3 to 8) (size 9 to 14) (size 15 to 20)
#    0.000    0.500    6.250    3.375    1.750    1.250 
#    0.000    2.500    0.000    0.000    0.000    1.750 
#    0.000    0.000    0.000    0.000    0.000    0.000 
#
# Total GULP energy -396687.783835 kJ/mol
# GULP energy per Si atom -12396.493245 kJ/mol
# Density = 2.030208 g / cm^3
# Si number density = 20.348399 Si / 1000 Ang^3
#
#
#
# Elastic Constant Matrix: (Units=GPa)
#
#
# Indices 1 2 3 4 5 6 
#
# 1 79.1465 2.1267 18.5796 0.0000 -0.6216 0.0000
# 2 2.1267 50.0986 19.9662 0.0000 2.4647 0.0000
# 3 18.5796 19.9662 138.1771 0.0000 -0.5346 0.0000
# 4 0.0000 0.0000 0.0000 26.5568 0.0000 1.9230
# 5 -0.6216 2.4647 -0.5346 0.0000 35.4669 0.0000
# 6 0.0000 0.0000 0.0000 1.9230 0.0000 19.5467
#
#
#
# Elastic Compliance Matrix: (Units=1/GPa)
#
#
# Indices 1 2 3 4 5 6 
#
# 1 0.013049 0.000144 -0.001775 0.000000 0.000192 0.000000
# 2 0.000144 0.021264 -0.003098 0.000000 -0.001522 0.000000
# 3 -0.001775 -0.003098 0.007925 0.000000 0.000304 0.000000
# 4 0.000000 0.000000 0.000000 0.037925 0.000000 -0.003731
# 5 0.000192 -0.001522 0.000304 0.000000 0.028309 0.000000
# 6 0.000000 0.000000 0.000000 -0.003731 0.000000 0.051527
#
#
# Mechanical properties :
#
#
# Convention : Reuss Voigt Hill
#
# Bulk Modulus (GPa) = 30.50603 38.75189 34.62896
# Shear Modulus (GPa) = 27.71887 31.43071 29.57479
#
# Velocity S-wave (km/s) = 3.69482 3.93444 3.81651
# Velocity P-wave (km/s) = 5.76426 6.30280 6.03954
#
# Compressibility (1/GPa) = 0.03278041
#
# Stress axis : x y z
#
# Youngs Moduli (GPa) = 76.63402 47.02780 126.19067
#
# Poissons Ratio (x) = -0.00677 0.22394
# Poissons Ratio (y) = -0.01103 0.39092
# Poissons Ratio (z) = 0.13600 0.14568
#
# Static dielectric constant tensor:
#      x y z
#    x 3.788130 0.000000 0.005430 
#    y 0.000000 3.198330 0.000000 
#    z 0.005430 0.000000 4.052760 
# 
# 
# High freq. dielectric constant tensor:
#      x y z
#    x 1.806220 0.000000 -0.004090 
#    y 0.000000 1.743310 0.000000 
#    z -0.004090 0.000000 1.817800 
# 
# From -- ./inp_files/169690.got.cif
#   From: 2010.06.25/outbox.cif.g09.slc.cpg/sg12_85_cif.got.tgz:169690.got - 2010.06.28 00:19:55.
