data_PCOD8114878
_publ_section_title
;
Structure prediction by ZEFSAII (Michael W. Deem and Ramdas Pophale) SiO2 
 PCOD8114878
Probable space group: C 2/M
;
_chemical_formula_sum "Si O2"
_cell_formula_units_Z 40
_cell_length_a 13.817786
_cell_length_b 13.501624
_cell_length_c 11.507332
_cell_angle_alpha 90.000000
_cell_angle_beta 59.869079
_cell_angle_gamma 90.000000
_cell_volume 1856.757949
_symmetry_space_group_name_H-M "C 2/M"
_symmetry_group_IT_number 12
_symmetry_cell_setting 'monoclinic'
loop_
_space_group_symop_operation_xyz
x,y,z
-x,y,-z
-x,-y,-z
x,-y,z
1/2+x,1/2+y,z
1/2-x,1/2+y,-z
1/2-x,1/2-y,-z
1/2+x,1/2-y,z
loop_
_atom_site_type_symbol
_atom_site_label
_atom_site_fract_x
_atom_site_fract_y
_atom_site_fract_z
Si Si1 0.063561 0.107285 0.580858
Si Si2 0.803052 0.612119 0.343214
Si Si3 0.006109 0.686615 0.357975
Si Si4 0.367499 0.787235 0.072738
Si Si5 0.717406 0.113871 0.099537
O O1 0.191621 0.139368 0.481235
O O2 0.007092 0.199550 0.683262
O O3 0.000000 0.091790 0.500000
O O4 0.057620 0.000000 0.651473
O O5 0.796042 0.500000 0.300475
O O6 0.907837 0.619595 0.366173
O O7 0.813402 0.685403 0.228394
O O8 0.000000 0.686952 0.500000
O O9 0.123778 0.643018 0.249289
O O10 0.327616 0.678291 0.058658
O O11 0.500000 0.788746 0.000000
O O12 0.328477 0.867850 0.002083
O O13 0.750986 0.000000 0.093493
#
# Coordination Sequence:
#
# PCOD8114878 Si02
#       5
#     8   8   8   8   8
#     4   9  19  36  58  87 122 160 203 253 311 369
#     4  11  22  38  65  92 120 166 215 256 307 374
#     4  11  22  39  61  90 128 163 207 260 310 370
#     4  11  23  43  68  93 126 164 212 265 309 371
#     4  11  25  43  66  96 128 165 208 261 318 373
#
# _framework density 21.542926000000001
#
# number of rings (size 3 to 8) (size 9 to 14) (size 15 to 20)
#    0.000    1.400    2.000    4.200    0.000    2.800 
#    0.000    7.000    0.000    0.000    0.000    0.000 
#    0.000    0.000    0.000    0.000    0.000    0.000 
#
# Total GULP energy -248002.039944 kJ/mol
# GULP energy per Si atom -12400.101997 kJ/mol
# Density = 2.149389 g / cm^3
# Si number density = 21.542926 Si / 1000 Ang^3
#
#
#
# Elastic Constant Matrix: (Units=GPa)
#
#
# Indices 1 2 3 4 5 6 
#
# 1 67.8266 15.7582 -4.7758 0.0000 8.1985 0.0000
# 2 15.7582 142.1796 17.6151 0.0000 1.7429 0.0000
# 3 -4.7758 17.6151 38.2609 0.0000 19.8522 0.0000
# 4 0.0000 0.0000 0.0000 165.9463 0.0000 -155.5138
# 5 8.1985 1.7429 19.8522 0.0000 22.9675 0.0000
# 6 0.0000 0.0000 0.0000 -155.5138 0.0000 195.1024
#
#
#
# Elastic Compliance Matrix: (Units=1/GPa)
#
#
# Indices 1 2 3 4 5 6 
#
# 1 0.018615 -0.003471 0.013114 0.000000 -0.017716 0.000000
# 2 -0.003471 0.008354 -0.008329 0.000000 0.007804 0.000000
# 3 0.013114 -0.008329 0.061120 0.000000 -0.056879 0.000000
# 4 0.000000 0.000000 0.000000 0.023816 0.000000 0.018984
# 5 -0.017716 0.007804 -0.056879 0.000000 0.098435 0.000000
# 6 0.000000 0.000000 0.000000 0.018984 0.000000 0.020257
#
#
# Mechanical properties :
#
#
# Convention : Reuss Voigt Hill
#
# Bulk Modulus (GPa) = 11.02319 33.94024 22.48171
# Shear Modulus (GPa) = 19.36424 91.44787 55.40605
#
# Velocity S-wave (km/s) = 3.00136 6.52237 5.07688
# Velocity P-wave (km/s) = 4.13991 8.51532 6.69513
#
# Compressibility (1/GPa) = 0.09071788
#
# Stress axis : x y z
#
# Youngs Moduli (GPa) = 53.72121 119.70012 16.36126
#
# Poissons Ratio (x) = 0.41544 -0.21456
# Poissons Ratio (y) = 0.18645 0.13627
# Poissons Ratio (z) = -0.70449 0.99693
#
# Static dielectric constant tensor:
#      x y z
#    x 4.049090 0.000000 -0.029380 
#    y 0.000000 4.333280 0.000000 
#    z -0.029380 0.000000 3.765950 
# 
# 
# High freq. dielectric constant tensor:
#      x y z
#    x 1.855180 0.000000 -0.010090 
#    y 0.000000 1.859040 0.000000 
#    z -0.010090 0.000000 1.822410 
# 
# From -- ./inp_files/141836.got.cif
#   From: 2010.06.25/outbox.cif.g09.slc.cpg/sg12_71_cif.got.tgz:141836.got - 2010.06.28 00:19:55.
