data_PCOD8114481
_publ_section_title
;
Structure prediction by ZEFSAII (Michael W. Deem and Ramdas Pophale) SiO2 
 PCOD8114481
Probable space group: C 2/M
;
_chemical_formula_sum "Si O2"
_cell_formula_units_Z 56
_cell_length_a 27.794010
_cell_length_b 17.693662
_cell_length_c 9.615764
_cell_angle_alpha 90.000000
_cell_angle_beta 35.884656
_cell_angle_gamma 90.000000
_cell_volume 2771.823071
_symmetry_space_group_name_H-M "C 2/M"
_symmetry_group_IT_number 12
_symmetry_cell_setting 'monoclinic'
loop_
_space_group_symop_operation_xyz
x,y,z
-x,y,-z
-x,-y,-z
x,-y,z
1/2+x,1/2+y,z
1/2-x,1/2+y,-z
1/2-x,1/2-y,-z
1/2+x,1/2-y,z
loop_
_atom_site_type_symbol
_atom_site_label
_atom_site_fract_x
_atom_site_fract_y
_atom_site_fract_z
Si Si1 0.797537 0.151536 0.312734
Si Si2 0.160631 0.588809 0.426863
Si Si3 0.819659 0.691852 0.861923
Si Si4 0.679320 0.823581 0.817028
Si Si5 0.011389 0.333833 0.126325
Si Si6 0.024843 0.087090 0.095967
Si Si7 0.469700 0.291306 0.421593
O O1 0.722113 0.128569 0.389947
O O2 0.763243 0.143861 0.551773
O O3 0.825266 0.235826 0.213383
O O4 0.877997 0.100066 0.104552
O O5 0.170630 0.500000 0.416076
O O6 0.188078 0.615278 0.208954
O O7 0.064158 0.609296 0.672663
O O8 0.890349 0.742307 0.631186
O O9 0.750000 0.750000 0.000000
O O10 0.823912 0.665172 0.010301
O O11 0.602166 0.871065 0.929917
O O12 0.025877 0.266806 0.204187
O O13 0.000000 0.298211 0.000000
O O14 0.964991 0.132688 0.341237
O O15 0.004992 0.000000 0.168725
O O16 0.000000 0.112499 0.000000
O O17 0.500000 0.317486 0.500000
#
# Coordination Sequence:
#
# PCOD8114481 Si02
#       7
#     8   8   8   8   8   8   8
#     4  11  22  40  67  93 128 164 216 275 314 381
#     4  11  25  42  63  94 133 174 205 261 336 388
#     4  11  23  41  66  95 125 166 214 269 314 385
#     4  11  22  39  67 101 120 163 221 267 322 368
#     4  11  21  40  64  94 126 166 212 264 313 389
#     4  11  25  42  60  89 130 174 216 268 324 381
#     4  11  22  38  64  89 124 161 210 265 318 380
#
# _framework density 20.203310999999999
#
# number of rings (size 3 to 8) (size 9 to 14) (size 15 to 20)
#    0.000    1.000    5.714    0.857    2.000    0.571 
#    0.000    3.571    0.000    0.000    0.000    0.000 
#    0.000    0.000    0.000    0.000    0.000    0.000 
#
# Total GULP energy -346869.309963 kJ/mol
# GULP energy per Si atom -12388.189642 kJ/mol
# Density = 2.015733 g / cm^3
# Si number density = 20.203311 Si / 1000 Ang^3
#
#
#
# Elastic Constant Matrix: (Units=GPa)
#
#
# Indices 1 2 3 4 5 6 
#
# 1 103.0912 13.0984 36.1840 0.0000 15.0693 0.0000
# 2 13.0984 48.7764 22.0331 0.0000 10.7236 0.0000
# 3 36.1840 22.0331 95.2148 0.0000 25.5758 0.0000
# 4 0.0000 0.0000 0.0000 28.2106 0.0000 -2.0432
# 5 15.0693 10.7236 25.5758 0.0000 38.3942 0.0000
# 6 0.0000 0.0000 0.0000 -2.0432 0.0000 23.6917
#
#
#
# Elastic Compliance Matrix: (Units=1/GPa)
#
#
# Indices 1 2 3 4 5 6 
#
# 1 0.011354 -0.001034 -0.003600 0.000000 -0.001769 0.000000
# 2 -0.001034 0.023380 -0.004107 0.000000 -0.003388 0.000000
# 3 -0.003600 -0.004107 0.014778 0.000000 -0.007284 0.000000
# 4 0.000000 0.000000 0.000000 0.035670 0.000000 0.003076
# 5 -0.001769 -0.003388 -0.007284 0.000000 0.032538 0.000000
# 6 0.000000 0.000000 0.000000 0.003076 0.000000 0.042474
#
#
# Mechanical properties :
#
#
# Convention : Reuss Voigt Hill
#
# Bulk Modulus (GPa) = 31.22195 43.30149 37.26172
# Shear Modulus (GPa) = 26.54599 29.77710 28.16155
#
# Velocity S-wave (km/s) = 3.62877 3.84327 3.73756
# Velocity P-wave (km/s) = 5.74845 6.41667 6.09173
#
# Compressibility (1/GPa) = 0.03202875
#
# Stress axis : x y z
#
# Youngs Moduli (GPa) = 88.07651 42.77251 67.66966
#
# Poissons Ratio (x) = 0.04421 0.24363
# Poissons Ratio (y) = 0.09104 0.27793
# Poissons Ratio (z) = 0.31710 0.17567
#
# Static dielectric constant tensor:
#      x y z
#    x 4.050100 0.000000 0.243530 
#    y 0.000000 3.345800 0.000000 
#    z 0.243530 0.000000 4.024130 
# 
# 
# High freq. dielectric constant tensor:
#      x y z
#    x 1.798140 0.000000 0.000600 
#    y 0.000000 1.756870 0.000000 
#    z 0.000600 0.000000 1.813110 
# 
# From -- ./inp_files/105915.got.cif
#   From: 2010.06.25/outbox.cif.g09.slc.cpg/sg12_53_cif.got.tgz:105915.got - 2010.06.28 00:19:55.
