data_PCOD8114416
_publ_section_title
;
Structure prediction by ZEFSAII (Michael W. Deem and Ramdas Pophale) SiO2 
 PCOD8114416
Probable space group: C 2/M
;
_chemical_formula_sum "Si O2"
_cell_formula_units_Z 64
_cell_length_a 11.168253
_cell_length_b 15.546438
_cell_length_c 18.174493
_cell_angle_alpha 90.000000
_cell_angle_beta 110.423007
_cell_angle_gamma 90.000000
_cell_volume 2957.221291
_symmetry_space_group_name_H-M "C 2/M"
_symmetry_group_IT_number 12
_symmetry_cell_setting 'monoclinic'
loop_
_space_group_symop_operation_xyz
x,y,z
-x,y,-z
-x,-y,-z
x,-y,z
1/2+x,1/2+y,z
1/2-x,1/2+y,-z
1/2-x,1/2-y,-z
1/2+x,1/2-y,z
loop_
_atom_site_type_symbol
_atom_site_label
_atom_site_fract_x
_atom_site_fract_y
_atom_site_fract_z
Si Si1 0.265084 0.090503 0.927279
Si Si2 0.631750 0.145161 0.198770
Si Si3 0.737070 0.321928 0.196277
Si Si4 0.115808 0.695185 0.916717
Si Si5 0.004733 0.123752 0.919186
Si Si6 0.150018 0.247281 0.546283
Si Si7 0.094759 0.398094 0.642102
Si Si8 0.685004 0.904389 0.367535
O O1 0.275902 0.114329 0.845088
O O2 0.114399 0.073803 0.900484
O O3 0.335991 0.000000 0.959347
O O4 0.308758 0.161027 0.995960
O O5 0.669465 0.244216 0.226501
O O6 0.488376 0.129276 0.137674
O O7 0.645426 0.088427 0.274078
O O8 0.790310 0.282782 0.130654
O O9 0.629533 0.392033 0.151333
O O10 0.844376 0.369221 0.267367
O O11 0.035546 0.775193 0.928044
O O12 0.000000 0.086312 0.000000
O O13 0.250000 0.250000 0.500000
O O14 0.157040 0.338598 0.591480
O O15 0.201236 0.164862 0.602469
O O16 0.000000 0.227966 0.500000
O O17 0.120564 0.500000 0.632325
O O18 0.942139 0.379319 0.612364
O O19 0.731441 0.000000 0.401995
#
# Coordination Sequence:
#
# PCOD8114416 Si02
#       8
#     8   8   8   8   8   8   8   8
#     4  12  25  38  54  84 128 170 225 295 351 395
#     4  11  22  39  66  91 127 175 230 282 344 403
#     4  11  21  39  69  91 126 177 229 279 335 408
#     4  11  21  38  62  87 116 171 228 284 337 399
#     4  11  22  38  59  82 119 172 231 283 343 407
#     4  12  26  49  82 112 147 186 228 278 349 431
#     4  11  25  46  75 110 144 184 233 285 345 420
#     4  11  24  44  74 108 145 187 233 284 348 419
#
# _framework density 21.641936999999999
#
# number of rings (size 3 to 8) (size 9 to 14) (size 15 to 20)
#    0.000    0.750    6.250    2.625    0.000    3.750 
#    2.250    0.000    0.000    0.000    0.000    0.000 
#    0.000    0.000    0.000    0.000    0.000    0.000 
#
# Total GULP energy -396539.759036 kJ/mol
# GULP energy per Si atom -12391.867470 kJ/mol
# Density = 2.159268 g / cm^3
# Si number density = 21.641937 Si / 1000 Ang^3
#
#
#
# Elastic Constant Matrix: (Units=GPa)
#
#
# Indices 1 2 3 4 5 6 
#
# 1 119.4202 26.4509 39.4426 0.0000 -2.3058 0.0000
# 2 26.4509 96.4437 19.1322 0.0000 -1.3749 0.0000
# 3 39.4426 19.1322 74.7645 0.0000 -6.8305 0.0000
# 4 0.0000 0.0000 0.0000 9.0885 0.0000 11.3351
# 5 -2.3058 -1.3749 -6.8305 0.0000 43.7495 0.0000
# 6 0.0000 0.0000 0.0000 11.3351 0.0000 -7.3614
#
#
#
# Elastic Compliance Matrix: (Units=1/GPa)
#
#
# Indices 1 2 3 4 5 6 
#
# 1 0.010454 -0.001867 -0.005065 0.000000 -0.000298 0.000000
# 2 -0.001867 0.011257 -0.001900 0.000000 -0.000041 0.000000
# 3 -0.005065 -0.001900 0.016742 0.000000 0.002287 0.000000
# 4 0.000000 0.000000 0.000000 0.037676 0.000000 0.058013
# 5 -0.000298 -0.000041 0.002287 0.000000 0.023197 0.000000
# 6 0.000000 0.000000 0.000000 0.058013 0.000000 -0.046515
#
#
# Mechanical properties :
#
#
# Convention : Reuss Voigt Hill
#
# Bulk Modulus (GPa) = 48.09693 51.18664 49.64179
# Shear Modulus (GPa) = 64.59569 22.80218 43.69893
#
# Velocity S-wave (km/s) = 5.46921 3.24946 4.49840
# Velocity P-wave (km/s) = 7.88386 6.14667 7.06883
#
# Compressibility (1/GPa) = 0.02079135
#
# Stress axis : x y z
#
# Youngs Moduli (GPa) = 95.65413 88.83385 59.72861
#
# Poissons Ratio (x) = 0.16583 0.30251
# Poissons Ratio (y) = 0.17856 0.11346
# Poissons Ratio (z) = 0.48447 0.16875
#
# Static dielectric constant tensor:
#      x y z
#    x 4.109680 0.000000 0.098450 
#    y 0.000000 3.923870 0.000000 
#    z 0.098450 0.000000 3.840330 
# 
# 
# High freq. dielectric constant tensor:
#      x y z
#    x 1.857620 0.000000 -0.001190 
#    y 0.000000 1.850650 0.000000 
#    z -0.001190 0.000000 1.839170 
# 
# From -- ./inp_files/305455.got.cif
#   From: 2010.06.25/outbox.cif.g09.slc.cpg/sg12_153_cif.got.tgz:305455.got - 2010.06.28 00:19:55.
