data_PCOD8114900
_publ_section_title
;
Structure prediction by ZEFSAII (Michael W. Deem and Ramdas Pophale) SiO2 
 PCOD8114900
Probable space group: C 2/M
;
_chemical_formula_sum "Si O2"
_cell_formula_units_Z 48
_cell_length_a 29.411873
_cell_length_b 15.938675
_cell_length_c 11.760532
_cell_angle_alpha 90.000000
_cell_angle_beta 26.326380
_cell_angle_gamma 90.000000
_cell_volume 2445.004852
_symmetry_space_group_name_H-M "C 2/M"
_symmetry_group_IT_number 12
_symmetry_cell_setting 'monoclinic'
loop_
_space_group_symop_operation_xyz
x,y,z
-x,y,-z
-x,-y,-z
x,-y,z
1/2+x,1/2+y,z
1/2-x,1/2+y,-z
1/2-x,1/2-y,-z
1/2+x,1/2-y,z
loop_
_atom_site_type_symbol
_atom_site_label
_atom_site_fract_x
_atom_site_fract_y
_atom_site_fract_z
Si Si1 0.566466 0.646005 0.519853
Si Si2 0.533672 0.909210 0.056616
Si Si3 0.659737 0.500000 0.721522
Si Si4 0.856947 0.680433 0.550719
Si Si5 0.570391 0.500000 0.679325
Si Si6 0.355008 0.401024 0.899526
Si Si7 0.207526 0.664826 0.555252
O O1 0.610765 0.736847 0.452709
O O2 0.597426 0.583902 0.551005
O O3 0.622022 0.611651 0.283805
O O4 0.442913 0.645816 0.776981
O O5 0.454358 0.881615 0.332754
O O6 0.569839 0.000000 0.015417
O O7 0.500000 0.913376 0.000000
O O8 0.632803 0.851215 0.829700
O O9 0.644900 0.500000 0.620087
O O10 0.718556 0.584343 0.630735
O O11 0.549640 0.500000 0.025624
O O12 0.845387 0.693148 0.442564
O O13 0.755718 0.639032 0.829824
O O14 0.355313 0.500000 0.929637
O O15 0.250000 0.750000 0.500000
#
# Coordination Sequence:
#
# PCOD8114900 Si02
#       7
#     8   8   4   8   4   8   8
#     4  11  22  42  63  96 124 163 208 271 316 374
#     4   9  19  37  56  81 117 157 202 249 300 367
#     4  11  24  38  63  91 127 174 214 255 315 393
#     4  11  24  36  65  90 128 160 209 261 315 370
#     4  11  22  39  60  89 131 160 210 265 318 364
#     4  11  22  42  69  93 121 164 217 264 319 382
#     4  11  23  39  58  90 127 168 210 253 316 383
#
# _framework density 19.631862999999999
#
# number of rings (size 3 to 8) (size 9 to 14) (size 15 to 20)
#    0.000    1.333    2.500    3.500    7.000    0.000 
#    0.000    0.000    0.000    0.000    0.000    4.667 
#    0.000    0.000    0.000    0.000    0.000    0.000 
#
# Total GULP energy -297318.320021 kJ/mol
# GULP energy per Si atom -12388.263334 kJ/mol
# Density = 1.958718 g / cm^3
# Si number density = 19.631863 Si / 1000 Ang^3
#
#
#
# Elastic Constant Matrix: (Units=GPa)
#
#
# Indices 1 2 3 4 5 6 
#
# 1 67.9749 40.5453 15.5825 0.0000 -2.4977 0.0000
# 2 40.5453 156.6704 54.9773 0.0000 -15.7181 0.0000
# 3 15.5825 54.9773 122.4804 0.0000 -13.1696 0.0000
# 4 0.0000 0.0000 0.0000 29.7335 0.0000 -8.4544
# 5 -2.4977 -15.7181 -13.1696 0.0000 24.7132 0.0000
# 6 0.0000 0.0000 0.0000 -8.4544 0.0000 33.4559
#
#
#
# Elastic Compliance Matrix: (Units=1/GPa)
#
#
# Indices 1 2 3 4 5 6 
#
# 1 0.017440 -0.004529 -0.000325 0.000000 -0.001291 0.000000
# 2 -0.004529 0.008997 -0.003072 0.000000 0.003627 0.000000
# 3 -0.000325 -0.003072 0.009941 0.000000 0.003311 0.000000
# 4 0.000000 0.000000 0.000000 0.036236 0.000000 0.009157
# 5 -0.001291 0.003627 0.003311 0.000000 0.044405 0.000000
# 6 0.000000 0.000000 0.000000 0.009157 0.000000 0.032204
#
#
# Mechanical properties :
#
#
# Convention : Reuss Voigt Hill
#
# Bulk Modulus (GPa) = 48.71890 63.25953 55.98922
# Shear Modulus (GPa) = 29.08404 33.31523 31.19963
#
# Velocity S-wave (km/s) = 3.85316 4.12393 3.99085
# Velocity P-wave (km/s) = 6.68326 7.41408 7.05814
#
# Compressibility (1/GPa) = 0.02052591
#
# Stress axis : x y z
#
# Youngs Moduli (GPa) = 57.34056 111.15025 100.59498
#
# Poissons Ratio (x) = 0.50338 0.03266
# Poissons Ratio (y) = 0.25969 0.30904
# Poissons Ratio (z) = 0.01862 0.34147
#
# Static dielectric constant tensor:
#      x y z
#    x 3.498190 0.000000 0.029500 
#    y 0.000000 3.624680 0.000000 
#    z 0.029500 0.000000 4.028440 
# 
# 
# High freq. dielectric constant tensor:
#      x y z
#    x 1.747190 0.000000 0.000800 
#    y 0.000000 1.774830 0.000000 
#    z 0.000800 0.000000 1.780420 
# 
# From -- ./inp_files/189388.got.cif
#   From: 2010.06.25/outbox.cif.g09.slc.cpg/sg12_95_cif.got.tgz:189388.got - 2010.06.28 00:19:55.
