data_PCOD8114411
_publ_section_title
;
Structure prediction by ZEFSAII (Michael W. Deem and Ramdas Pophale) SiO2 
 PCOD8114411
Probable space group: C 2/M
;
_chemical_formula_sum "Si O2"
_cell_formula_units_Z 56
_cell_length_a 9.663064
_cell_length_b 16.386574
_cell_length_c 27.263720
_cell_angle_alpha 90.000000
_cell_angle_beta 38.637556
_cell_angle_gamma 90.000000
_cell_volume 2695.536860
_symmetry_space_group_name_H-M "C 2/M"
_symmetry_group_IT_number 12
_symmetry_cell_setting 'monoclinic'
loop_
_space_group_symop_operation_xyz
x,y,z
-x,y,-z
-x,-y,-z
x,-y,z
1/2+x,1/2+y,z
1/2-x,1/2+y,-z
1/2-x,1/2-y,-z
1/2+x,1/2-y,z
loop_
_atom_site_type_symbol
_atom_site_label
_atom_site_fract_x
_atom_site_fract_y
_atom_site_fract_z
Si Si1 0.984529 0.712535 0.947395
Si Si2 0.082712 0.150441 0.698343
Si Si3 0.373357 0.094211 0.333634
Si Si4 0.584032 0.195577 0.200934
Si Si5 0.888231 0.592179 0.166638
Si Si6 0.939357 0.348190 0.420543
Si Si7 0.052562 0.164216 0.593522
O O1 0.166454 0.779407 0.880876
O O2 0.015638 0.626891 0.910811
O O3 0.750000 0.750000 0.000000
O O4 0.000000 0.692136 0.000000
O O5 0.058785 0.226284 0.742566
O O6 0.878975 0.088683 0.762627
O O7 0.320049 0.107167 0.643300
O O8 0.086152 0.178998 0.641418
O O9 0.585015 0.132335 0.246328
O O10 0.332005 0.136253 0.397294
O O11 0.159028 0.107663 0.358629
O O12 0.420437 0.000000 0.328585
O O13 0.466213 0.154219 0.187097
O O14 0.976409 0.500000 0.150896
O O15 0.983748 0.253004 0.420145
O O16 0.767253 0.379715 0.509471
#
# Coordination Sequence:
#
# PCOD8114411 Si02
#       7
#     8   8   8   8   8   8   8
#     4  11  24  45  72 103 131 169 211 259 316 393
#     4  11  21  38  65  93 126 168 224 272 317 380
#     4  12  25  41  62  93 131 169 217 275 332 381
#     4  11  22  40  69  93 127 169 216 250 319 392
#     4  11  24  42  69 101 134 172 212 265 326 386
#     4  11  22  37  60  90 127 171 225 275 324 377
#     4  11  21  38  61  88 124 176 226 270 321 387
#
# _framework density 20.775082999999999
#
# number of rings (size 3 to 8) (size 9 to 14) (size 15 to 20)
#    0.000    0.857    5.714    1.286    2.000    4.286 
#    0.000    2.143    0.000    2.571    0.000    0.000 
#    0.000    0.000    0.000    0.000    0.000    0.000 
#
# Total GULP energy -347196.338211 kJ/mol
# GULP energy per Si atom -12399.869222 kJ/mol
# Density = 2.072780 g / cm^3
# Si number density = 20.775083 Si / 1000 Ang^3
#
#
#
# Elastic Constant Matrix: (Units=GPa)
#
#
# Indices 1 2 3 4 5 6 
#
# 1 104.0621 32.2903 52.0487 -0.0004 7.6101 0.0024
# 2 32.2903 92.4919 40.4376 0.0016 5.9997 0.0015
# 3 52.0487 40.4376 152.2559 0.0172 4.8235 0.0033
# 4 -0.0004 0.0016 0.0172 12.0815 0.0024 -2.4356
# 5 7.6101 5.9997 4.8235 0.0024 44.0145 -0.0029
# 6 0.0024 0.0015 0.0033 -2.4356 -0.0029 20.9389
#
#
#
# Elastic Compliance Matrix: (Units=1/GPa)
#
#
# Indices 1 2 3 4 5 6 
#
# 1 0.012263 -0.002690 -0.003434 0.000006 -0.001377 0.000000
# 2 -0.002690 0.012899 -0.002474 0.000002 -0.001022 0.000000
# 3 -0.003434 -0.002474 0.008398 -0.000012 0.000011 -0.000002
# 4 0.000006 0.000002 -0.000012 0.084759 -0.000004 0.009859
# 5 -0.001377 -0.001022 0.000011 -0.000004 0.023096 0.000003
# 6 0.000000 0.000000 -0.000002 0.009859 0.000003 0.048905
#
#
# Mechanical properties :
#
#
# Convention : Reuss Voigt Hill
#
# Bulk Modulus (GPa) = 61.10987 66.48480 63.79733
# Shear Modulus (GPa) = 23.47747 30.34252 26.91000
#
# Velocity S-wave (km/s) = 3.36531 3.82583 3.60293
# Velocity P-wave (km/s) = 6.67677 7.18245 6.93422
#
# Compressibility (1/GPa) = 0.01636397
#
# Stress axis : x y z
#
# Youngs Moduli (GPa) = 81.54804 77.52632 119.07043
#
# Poissons Ratio (x) = 0.20858 0.40887
# Poissons Ratio (y) = 0.21940 0.29454
# Poissons Ratio (z) = 0.28002 0.19178
#
# Static dielectric constant tensor:
#      x y z
#    x 3.677650 0.000000 0.024980 
#    y 0.000000 3.422280 0.000010 
#    z 0.024980 0.000010 4.143910 
# 
# 
# High freq. dielectric constant tensor:
#      x y z
#    x 1.815750 0.000000 0.007220 
#    y 0.000000 1.783330 0.000000 
#    z 0.007220 0.000000 1.828000 
# 
# From -- ./inp_files/356650.got.cif
#   From: 2010.06.25/outbox.cif.g09.slc.cpg/sg12_179_cif.got.tgz:356650.got - 2010.06.28 00:19:55.
