data_PCOD8114511
_publ_section_title
;
Structure prediction by ZEFSAII (Michael W. Deem and Ramdas Pophale) SiO2 
 PCOD8114511
Probable space group: C 2/M
;
_chemical_formula_sum "Si O2"
_cell_formula_units_Z 56
_cell_length_a 14.760821
_cell_length_b 18.965776
_cell_length_c 12.490983
_cell_angle_alpha 90.000000
_cell_angle_beta 52.495427
_cell_angle_gamma 90.000000
_cell_volume 2774.072472
_symmetry_space_group_name_H-M "C 2/M"
_symmetry_group_IT_number 12
_symmetry_cell_setting 'monoclinic'
loop_
_space_group_symop_operation_xyz
x,y,z
-x,y,-z
-x,-y,-z
x,-y,z
1/2+x,1/2+y,z
1/2-x,1/2+y,-z
1/2-x,1/2-y,-z
1/2+x,1/2-y,z
loop_
_atom_site_type_symbol
_atom_site_label
_atom_site_fract_x
_atom_site_fract_y
_atom_site_fract_z
Si Si1 0.974857 0.676607 0.772695
Si Si2 0.424533 0.329438 0.849216
Si Si3 0.144486 0.915677 0.721753
Si Si4 0.764781 0.670506 0.452539
Si Si5 0.777461 0.174127 0.754914
Si Si6 0.755497 0.173806 0.163432
Si Si7 0.389831 0.075474 0.012570
O O1 0.983540 0.753231 0.823306
O O2 0.883307 0.675705 0.741148
O O3 0.917256 0.621767 0.891832
O O4 0.100628 0.652099 0.648376
O O5 0.512940 0.390879 0.814686
O O6 0.389310 0.332771 0.749385
O O7 0.313225 0.337120 0.005014
O O8 0.209352 0.885141 0.572617
O O9 0.203478 0.887371 0.787151
O O10 0.149587 0.000000 0.717369
O O11 0.750000 0.750000 0.500000
O O12 0.697202 0.663076 0.388912
O O13 0.710837 0.248691 0.817345
O O14 0.696517 0.111033 0.844603
O O15 0.339095 0.000000 0.009908
O O16 0.500000 0.059782 0.000000
#
# Coordination Sequence:
#
# PCOD8114511 Si02
#       7
#     8   8   8   8   8   8   8
#     4  11  21  40  70 100 130 166 224 272 330 393
#     4  11  22  41  72 103 126 170 222 281 330 393
#     4  12  29  47  63  96 140 183 226 271 330 401
#     4  12  24  43  69  94 130 186 221 263 322 400
#     4  11  21  40  70 100 130 166 224 272 330 393
#     4  11  22  41  72 103 126 170 222 281 330 393
#     4  11  22  35  60  99 131 162 205 274 346 389
#
# _framework density 20.186927000000001
#
# number of rings (size 3 to 8) (size 9 to 14) (size 15 to 20)
#    0.000    0.714    7.143    1.286    0.000    4.571 
#    0.000    1.429    0.000    0.000    0.000    0.000 
#    0.000    0.000    0.000    0.000    0.000    0.000 
#
# Total GULP energy -347120.548724 kJ/mol
# GULP energy per Si atom -12397.162454 kJ/mol
# Density = 2.014098 g / cm^3
# Si number density = 20.186927 Si / 1000 Ang^3
#
#
#
# Elastic Constant Matrix: (Units=GPa)
#
#
# Indices 1 2 3 4 5 6 
#
# 1 99.4524 31.0960 32.4396 0.0000 13.9583 0.0000
# 2 31.0960 151.6740 25.2355 0.0000 12.3170 0.0000
# 3 32.4396 25.2355 90.6135 0.0000 15.0374 0.0000
# 4 0.0000 0.0000 0.0000 31.8888 0.0000 -0.9337
# 5 13.9583 12.3170 15.0374 0.0000 28.9182 0.0000
# 6 0.0000 0.0000 0.0000 -0.9337 0.0000 22.5218
#
#
#
# Elastic Compliance Matrix: (Units=1/GPa)
#
#
# Indices 1 2 3 4 5 6 
#
# 1 0.012136 -0.001658 -0.003314 0.000000 -0.003428 0.000000
# 2 -0.001658 0.007262 -0.001147 0.000000 -0.001696 0.000000
# 3 -0.003314 -0.001147 0.013347 0.000000 -0.004852 0.000000
# 4 0.000000 0.000000 0.000000 0.031397 0.000000 0.001302
# 5 -0.003428 -0.001696 -0.004852 0.000000 0.039481 0.000000
# 6 0.000000 0.000000 0.000000 0.001302 0.000000 0.044455
#
#
# Mechanical properties :
#
#
# Convention : Reuss Voigt Hill
#
# Bulk Modulus (GPa) = 48.76725 57.69800 53.23263
# Shear Modulus (GPa) = 29.91306 33.53035 31.72170
#
# Velocity S-wave (km/s) = 3.85360 4.07995 3.96839
# Velocity P-wave (km/s) = 6.63405 7.13012 6.88655
#
# Compressibility (1/GPa) = 0.02050556
#
# Stress axis : x y z
#
# Youngs Moduli (GPa) = 82.40207 137.70945 74.92346
#
# Poissons Ratio (x) = 0.22836 0.24828
# Poissons Ratio (y) = 0.13665 0.08595
# Poissons Ratio (z) = 0.27307 0.15798
#
# Static dielectric constant tensor:
#      x y z
#    x 4.002330 0.000000 -0.021760 
#    y 0.000000 3.701770 0.000000 
#    z -0.021760 0.000000 3.704020 
# 
# 
# High freq. dielectric constant tensor:
#      x y z
#    x 1.797230 0.000000 0.004530 
#    y 0.000000 1.785810 0.000000 
#    z 0.004530 0.000000 1.780090 
# 
# From -- ./inp_files/146040.got.cif
#   From: 2010.06.25/outbox.cif.g09.slc.cpg/sg12_74_cif.got.tgz:146040.got - 2010.06.28 00:19:55.
