data_PCOD8114044
_publ_section_title
;
Structure prediction by ZEFSAII (Michael W. Deem and Ramdas Pophale) SiO2 
 PCOD8114044
Probable space group: C 2/M
;
_chemical_formula_sum "Si O2"
_cell_formula_units_Z 48
_cell_length_a 13.661893
_cell_length_b 22.046904
_cell_length_c 11.926644
_cell_angle_alpha 90.000000
_cell_angle_beta 137.300649
_cell_angle_gamma 90.000000
_cell_volume 2436.146348
_symmetry_space_group_name_H-M "C 2/M"
_symmetry_group_IT_number 12
_symmetry_cell_setting 'monoclinic'
loop_
_space_group_symop_operation_xyz
x,y,z
-x,y,-z
-x,-y,-z
x,-y,z
1/2+x,1/2+y,z
1/2-x,1/2+y,-z
1/2-x,1/2-y,-z
1/2+x,1/2-y,z
loop_
_atom_site_type_symbol
_atom_site_label
_atom_site_fract_x
_atom_site_fract_y
_atom_site_fract_z
Si Si1 0.220114 0.319028 0.508881
Si Si2 0.157465 0.125772 0.603046
Si Si3 0.590635 0.870948 0.797748
Si Si4 0.233521 0.500000 0.235264
Si Si5 0.831695 0.831951 0.851907
Si Si6 0.848026 0.299109 0.928519
Si Si7 0.440949 0.000000 0.123806
O O1 0.250000 0.250000 0.500000
O O2 0.302978 0.363636 0.493332
O O3 0.291489 0.327891 0.688771
O O4 0.049907 0.335792 0.368702
O O5 0.170684 0.056084 0.646514
O O6 0.258701 0.164552 0.764768
O O7 0.000000 0.149450 0.500000
O O8 0.720057 0.878261 0.816362
O O9 0.551322 0.939780 0.794927
O O10 0.651376 0.833304 0.953772
O O11 0.080525 0.500000 0.165135
O O12 0.202641 0.500000 0.075196
O O13 0.796359 0.770377 0.892203
O O14 0.000000 0.852241 0.000000
O O15 0.000000 0.295363 0.000000
#
# Coordination Sequence:
#
# PCOD8114044 Si02
#       7
#     8   8   8   4   8   8   4
#     4  12  24  42  64  95 134 171 220 269 324 395
#     4  12  25  38  67 101 134 167 212 269 340 383
#     4  12  24  43  69  97 128 176 223 269 328 391
#     4  11  21  44  63 100 133 167 215 274 331 383
#     4  11  26  42  63  96 135 175 216 270 331 393
#     4  11  20  42  65  98 128 169 214 268 330 396
#     4  11  22  40  75  93 126 172 227 270 317 395
#
# _framework density 19.703249
#
# number of rings (size 3 to 8) (size 9 to 14) (size 15 to 20)
#    0.000    0.500    6.667    2.250    4.667    0.000 
#    0.000    2.917    0.000    0.000    0.000    0.000 
#    0.000    0.000    0.000    0.000    0.000    0.000 
#
# Total GULP energy -297563.109016 kJ/mol
# GULP energy per Si atom -12398.462876 kJ/mol
# Density = 1.965840 g / cm^3
# Si number density = 19.703249 Si / 1000 Ang^3
#
#
#
# Elastic Constant Matrix: (Units=GPa)
#
#
# Indices 1 2 3 4 5 6 
#
# 1 130.4513 4.2919 76.8033 0.0000 42.6261 0.0000
# 2 4.2919 87.6602 24.4541 0.0000 1.4655 0.0000
# 3 76.8033 24.4541 140.2333 0.0000 32.3956 0.0000
# 4 0.0000 0.0000 0.0000 31.0702 0.0000 5.6311
# 5 42.6261 1.4655 32.3956 0.0000 65.6801 0.0000
# 6 0.0000 0.0000 0.0000 5.6311 0.0000 14.6296
#
#
#
# Elastic Compliance Matrix: (Units=1/GPa)
#
#
# Indices 1 2 3 4 5 6 
#
# 1 0.012969 0.001141 -0.006040 0.000000 -0.005463 0.000000
# 2 0.001141 0.012135 -0.002830 0.000000 0.000384 0.000000
# 3 -0.006040 -0.002830 0.011300 0.000000 -0.001590 0.000000
# 4 0.000000 0.000000 0.000000 0.034599 0.000000 -0.013318
# 5 -0.005463 0.000384 -0.001590 0.000000 0.019547 0.000000
# 6 0.000000 0.000000 0.000000 -0.013318 0.000000 0.073481
#
#
# Mechanical properties :
#
#
# Convention : Reuss Voigt Hill
#
# Bulk Modulus (GPa) = 47.73999 63.27147 55.50573
# Shear Modulus (GPa) = 26.81392 39.12901 32.97147
#
# Velocity S-wave (km/s) = 3.69302 4.46120 4.09516
# Velocity P-wave (km/s) = 6.51665 7.66279 7.11284
#
# Compressibility (1/GPa) = 0.02094680
#
# Stress axis : x y z
#
# Youngs Moduli (GPa) = 77.10421 82.40736 88.49646
#
# Poissons Ratio (x) = -0.09405 0.53452
# Poissons Ratio (y) = -0.08800 0.25044
# Poissons Ratio (z) = 0.46571 0.23321
#
# Static dielectric constant tensor:
#      x y z
#    x 3.845210 0.000000 -0.219840 
#    y 0.000000 25.175900 0.000000 
#    z -0.219840 0.000000 4.071750 
# 
# 
# High freq. dielectric constant tensor:
#      x y z
#    x 1.772450 0.000000 0.003200 
#    y 0.000000 1.762530 0.000000 
#    z 0.003200 0.000000 1.781150 
# 
# From -- ./inp_files/135565.got.cif
#   From: 2010.06.25/outbox.cif.g09.slc.cpg/sg12_68_cif.got.tgz:135565.got - 2010.06.28 00:19:55.
