data_PCOD8114094
_publ_section_title
;
Structure prediction by ZEFSAII (Michael W. Deem and Ramdas Pophale) SiO2 
 PCOD8114094
Probable space group: C 2/M
;
_chemical_formula_sum "Si O2"
_cell_formula_units_Z 56
_cell_length_a 23.420743
_cell_length_b 8.746355
_cell_length_c 19.246408
_cell_angle_alpha 90.000000
_cell_angle_beta 128.110773
_cell_angle_gamma 90.000000
_cell_volume 3102.074977
_symmetry_space_group_name_H-M "C 2/M"
_symmetry_group_IT_number 12
_symmetry_cell_setting 'monoclinic'
loop_
_space_group_symop_operation_xyz
x,y,z
-x,y,-z
-x,-y,-z
x,-y,z
1/2+x,1/2+y,z
1/2-x,1/2+y,-z
1/2-x,1/2-y,-z
1/2+x,1/2-y,z
loop_
_atom_site_type_symbol
_atom_site_label
_atom_site_fract_x
_atom_site_fract_y
_atom_site_fract_z
Si Si1 0.438133 0.182173 0.403363
Si Si2 0.992443 0.180890 0.828986
Si Si3 0.721344 0.166712 0.873774
Si Si4 0.935364 0.316549 0.244202
Si Si5 0.220113 0.668467 0.708422
Si Si6 0.124132 0.182729 0.024279
Si Si7 0.633292 0.820721 0.180690
O O1 0.500000 0.251406 0.500000
O O2 0.453367 0.236979 0.336052
O O3 0.358907 0.237232 0.371839
O O4 0.438436 0.000000 0.405299
O O5 0.005988 0.237241 0.760938
O O6 0.919121 0.259119 0.798998
O O7 0.983743 0.000000 0.825080
O O8 0.059008 0.238031 0.926879
O O9 0.645585 0.247534 0.838753
O O10 0.719478 0.148865 0.790032
O O11 0.798742 0.248658 0.949659
O O12 0.722305 0.000000 0.909786
O O13 0.937701 0.500000 0.239438
O O14 0.232550 0.500000 0.684234
O O15 0.284800 0.780449 0.733951
O O16 0.110299 0.244645 0.090904
O O17 0.128787 0.000000 0.032990
O O18 0.625113 0.000000 0.166806
#
# Coordination Sequence:
#
# PCOD8114094 Si02
#       7
#     8   8   8   8   8   8   8
#     4   8  14  28  55  85 104 122 151 187 233 291
#     4  11  22  33  46  65  94 132 168 201 239 284
#     4   7  12  26  46  65  89 122 154 186 230 278
#     4   9  17  30  48  71 100 128 155 191 234 283
#     4   8  14  28  50  73  98 126 155 189 231 282
#     4   9  18  33  50  67  90 125 167 205 241 282
#     4  11  21  32  48  69  94 125 165 208 242 276
#
# _framework density 18.052432
#
# number of rings (size 3 to 8) (size 9 to 14) (size 15 to 20)
#    0.000    3.000    0.000    4.714    0.000    3.429 
#    0.000    6.429    0.000    2.571    0.000    0.000 
#    0.000    0.000    0.000    0.000    0.000    0.000 
#
# Total GULP energy -346904.057041 kJ/mol
# GULP energy per Si atom -12389.430609 kJ/mol
# Density = 1.801134 g / cm^3
# Si number density = 18.052432 Si / 1000 Ang^3
#
#
#
# Elastic Constant Matrix: (Units=GPa)
#
#
# Indices 1 2 3 4 5 6 
#
# 1 103.9344 22.4541 53.9680 0.0000 8.2575 0.0000
# 2 22.4541 41.1277 17.8630 0.0000 3.6002 0.0000
# 3 53.9680 17.8630 94.7265 0.0000 19.2377 0.0000
# 4 0.0000 0.0000 0.0000 11.1009 0.0000 -1.5074
# 5 8.2575 3.6002 19.2377 0.0000 23.3117 0.0000
# 6 0.0000 0.0000 0.0000 -1.5074 0.0000 24.6973
#
#
#
# Elastic Compliance Matrix: (Units=1/GPa)
#
#
# Indices 1 2 3 4 5 6 
#
# 1 0.014530 -0.004723 -0.007797 0.000000 0.002017 0.000000
# 2 -0.004723 0.028019 -0.002467 0.000000 -0.000618 0.000000
# 3 -0.007797 -0.002467 0.017811 0.000000 -0.011555 0.000000
# 4 0.000000 0.000000 0.000000 0.090836 0.000000 0.005544
# 5 0.002017 -0.000618 -0.011555 0.000000 0.051814 0.000000
# 6 0.000000 0.000000 0.000000 0.005544 0.000000 0.040829
#
#
# Mechanical properties :
#
#
# Convention : Reuss Voigt Hill
#
# Bulk Modulus (GPa) = 32.91099 47.59541 40.25320
# Shear Modulus (GPa) = 17.60926 21.52223 19.56575
#
# Velocity S-wave (km/s) = 3.12661 3.45658 3.29573
# Velocity P-wave (km/s) = 5.59505 6.50791 6.06867
#
# Compressibility (1/GPa) = 0.03038499
#
# Stress axis : x y z
#
# Youngs Moduli (GPa) = 68.82175 35.69031 56.14502
#
# Poissons Ratio (x) = 0.16856 0.43778
# Poissons Ratio (y) = 0.32504 0.13853
# Poissons Ratio (z) = 0.53662 0.08806
#
# Static dielectric constant tensor:
#      x y z
#    x 3.560110 0.000000 0.405720 
#    y 0.000000 2.985280 0.000000 
#    z 0.405720 0.000000 3.436230 
# 
# 
# High freq. dielectric constant tensor:
#      x y z
#    x 1.703690 0.000000 0.021610 
#    y 0.000000 1.665860 0.000000 
#    z 0.021610 0.000000 1.670340 
# 
# From -- ./inp_files/319326.got.cif
#   From: 2010.06.25/outbox.cif.g09.slc.cpg/sg12_160_cif.got.tgz:319326.got - 2010.06.28 00:19:55.
