data_PCOD8114513
_publ_section_title
;
Structure prediction by ZEFSAII (Michael W. Deem and Ramdas Pophale) SiO2 
 PCOD8114513
Probable space group: C 2/M
;
_chemical_formula_sum "Si O2"
_cell_formula_units_Z 40
_cell_length_a 18.130805
_cell_length_b 18.501060
_cell_length_c 5.405523
_cell_angle_alpha 90.000000
_cell_angle_beta 92.029545
_cell_angle_gamma 90.000000
_cell_volume 1812.086391
_symmetry_space_group_name_H-M "C 2/M"
_symmetry_group_IT_number 12
_symmetry_cell_setting 'monoclinic'
loop_
_space_group_symop_operation_xyz
x,y,z
-x,y,-z
-x,-y,-z
x,-y,z
1/2+x,1/2+y,z
1/2-x,1/2+y,-z
1/2-x,1/2-y,-z
1/2+x,1/2-y,z
loop_
_atom_site_type_symbol
_atom_site_label
_atom_site_fract_x
_atom_site_fract_y
_atom_site_fract_z
Si Si1 0.677178 0.500000 0.379638
Si Si2 0.771033 0.500000 0.900386
Si Si3 0.189072 0.231992 0.694831
Si Si4 0.423760 0.364758 0.590633
Si Si5 0.958582 0.279226 0.754064
Si Si6 0.319551 0.155883 0.921204
O O1 0.717107 0.500000 0.652549
O O2 0.628096 0.429190 0.331633
O O3 0.731496 0.500000 0.158575
O O4 0.824157 0.569374 0.911604
O O5 0.250000 0.250000 0.500000
O O6 0.117312 0.186991 0.610976
O O7 0.158079 0.305621 0.817065
O O8 0.233910 0.178858 0.883097
O O9 0.500000 0.399244 0.500000
O O10 0.445446 0.306860 0.806032
O O11 0.000000 0.293811 0.500000
O O12 0.877287 0.316006 0.719873
O O13 0.000000 0.311942 0.000000
#
# Coordination Sequence:
#
# PCOD8114513 Si02
#       6
#     4   4   8   8   8   8
#     4  12  27  44  62 101 142 180 219 271 334 410
#     4  12  28  44  69  99 138 178 225 279 342 395
#     4  11  21  40  71  98 130 181 231 282 327 394
#     4  11  23  43  68  99 141 179 222 273 337 402
#     4  11  25  43  70 101 132 174 232 285 340 400
#     4  11  24  41  69  97 135 175 232 283 334 400
#
# _framework density 22.074003999999999
#
# number of rings (size 3 to 8) (size 9 to 14) (size 15 to 20)
#    0.000    0.800    4.000    3.900    2.800    3.200 
#    0.000    2.500    0.000    0.000    0.000    0.700 
#    0.000    0.000    0.000    0.000    0.000    0.000 
#
# Total GULP energy -247787.135092 kJ/mol
# GULP energy per Si atom -12389.356755 kJ/mol
# Density = 2.202376 g / cm^3
# Si number density = 22.074004 Si / 1000 Ang^3
#
#
#
# Elastic Constant Matrix: (Units=GPa)
#
#
# Indices 1 2 3 4 5 6 
#
# 1 108.2179 35.2792 37.3668 0.0000 -9.7197 0.0000
# 2 35.2792 137.6733 26.4852 0.0000 -28.1389 0.0000
# 3 37.3668 26.4852 102.0369 0.0000 -11.4614 0.0000
# 4 0.0000 0.0000 0.0000 31.2667 0.0000 -12.4351
# 5 -9.7197 -28.1389 -11.4614 0.0000 36.4966 0.0000
# 6 0.0000 0.0000 0.0000 -12.4351 0.0000 98.2492
#
#
#
# Elastic Compliance Matrix: (Units=1/GPa)
#
#
# Indices 1 2 3 4 5 6 
#
# 1 0.011171 -0.002142 -0.003510 0.000000 0.000221 0.000000
# 2 -0.002142 0.009275 -0.000916 0.000000 0.006293 0.000000
# 3 -0.003510 -0.000916 0.011547 0.000000 0.001985 0.000000
# 4 0.000000 0.000000 0.000000 0.033678 0.000000 0.004263
# 5 0.000221 0.006293 0.001985 0.000000 0.032934 0.000000
# 6 0.000000 0.000000 0.000000 0.004263 0.000000 0.010718
#
#
# Mechanical properties :
#
#
# Convention : Reuss Voigt Hill
#
# Bulk Modulus (GPa) = 53.03420 60.68783 56.86102
# Shear Modulus (GPa) = 38.83691 49.78897 44.31294
#
# Velocity S-wave (km/s) = 4.19907 4.75441 4.48534
# Velocity P-wave (km/s) = 6.89836 7.59551 7.25531
#
# Compressibility (1/GPa) = 0.01885576
#
# Stress axis : x y z
#
# Youngs Moduli (GPa) = 89.51930 107.81773 86.60620
#
# Poissons Ratio (x) = 0.23096 0.30399
# Poissons Ratio (y) = 0.19176 0.07934
# Poissons Ratio (z) = 0.31421 0.09878
#
# Static dielectric constant tensor:
#      x y z
#    x 4.485180 0.000000 0.312700 
#    y 0.000000 4.044380 0.000000 
#    z 0.312700 0.000000 4.000250 
# 
# 
# High freq. dielectric constant tensor:
#      x y z
#    x 1.885360 0.000000 0.001680 
#    y 0.000000 1.851010 0.000000 
#    z 0.001680 0.000000 1.865810 
# 
# From -- ./inp_files/15246.got.cif
#   From: 2010.06.25/outbox.cif.g09.slc.cpg/sg12_8_cif.got.tgz:15246.got - 2010.06.28 00:19:55.
