data_PCOD8114556
_publ_section_title
;
Structure prediction by ZEFSAII (Michael W. Deem and Ramdas Pophale) SiO2 
 PCOD8114556
Probable space group: C 2/M
;
_chemical_formula_sum "Si O2"
_cell_formula_units_Z 48
_cell_length_a 20.634412
_cell_length_b 17.921883
_cell_length_c 8.936432
_cell_angle_alpha 90.000000
_cell_angle_beta 44.187192
_cell_angle_gamma 90.000000
_cell_volume 2303.433484
_symmetry_space_group_name_H-M "C 2/M"
_symmetry_group_IT_number 12
_symmetry_cell_setting 'monoclinic'
loop_
_space_group_symop_operation_xyz
x,y,z
-x,y,-z
-x,-y,-z
x,-y,z
1/2+x,1/2+y,z
1/2-x,1/2+y,-z
1/2-x,1/2-y,-z
1/2+x,1/2-y,z
loop_
_atom_site_type_symbol
_atom_site_label
_atom_site_fract_x
_atom_site_fract_y
_atom_site_fract_z
Si Si1 0.267526 0.084498 0.468665
Si Si2 0.594865 0.350577 0.902132
Si Si3 0.559156 0.177622 0.273208
Si Si4 0.572864 0.194934 0.772272
Si Si5 0.593148 0.337620 0.259754
Si Si6 0.733207 0.086834 0.874377
O O1 0.176630 0.094767 0.718350
O O2 0.343467 0.140848 0.408524
O O3 0.245408 0.103662 0.333707
O O4 0.303839 0.000000 0.425858
O O5 0.607856 0.269063 0.802147
O O6 0.500000 0.387077 0.000000
O O7 0.588935 0.349142 0.089653
O O8 0.500000 0.134649 0.500000
O O9 0.484790 0.213678 0.280848
O O10 0.608826 0.249616 0.265828
O O11 0.634313 0.123187 0.077770
O O12 0.500000 0.151144 0.000000
O O13 0.500000 0.366642 0.500000
O O14 0.682676 0.380866 0.170113
O O15 0.724462 0.000000 0.923886
#
# Coordination Sequence:
#
# PCOD8114556 Si02
#       6
#     8   8   8   8   8   8
#     4  11  25  41  65  95 129 170 207 255 315 377
#     4  11  22  42  68  95 122 162 214 267 313 362
#     4  11  24  41  67  97 126 165 211 259 314 373
#     4  11  21  42  67  97 125 161 211 263 310 366
#     4  11  23  42  67  94 125 164 211 264 315 367
#     4  11  25  43  62  93 133 170 207 253 315 379
#
# _framework density 20.838456999999998
#
# number of rings (size 3 to 8) (size 9 to 14) (size 15 to 20)
#    0.000    1.000    5.000    2.000    4.667    2.667 
#    0.000    0.000    0.000    0.000    0.000    0.000 
#    0.000    0.000    0.000    0.000    0.000    0.000 
#
# Total GULP energy -297530.974173 kJ/mol
# GULP energy per Si atom -12397.123924 kJ/mol
# Density = 2.079103 g / cm^3
# Si number density = 20.838457 Si / 1000 Ang^3
#
#
#
# Elastic Constant Matrix: (Units=GPa)
#
#
# Indices 1 2 3 4 5 6 
#
# 1 100.8797 42.3391 39.3340 0.0000 2.7878 0.0000
# 2 42.3391 75.8222 33.1327 0.0000 1.8079 0.0000
# 3 39.3340 33.1327 143.8170 0.0000 9.9153 0.0000
# 4 0.0000 0.0000 0.0000 23.1768 0.0000 6.8578
# 5 2.7878 1.8079 9.9153 0.0000 30.4979 0.0000
# 6 0.0000 0.0000 0.0000 6.8578 0.0000 10.6751
#
#
#
# Elastic Compliance Matrix: (Units=1/GPa)
#
#
# Indices 1 2 3 4 5 6 
#
# 1 0.013536 -0.006607 -0.002170 0.000000 -0.000140 0.000000
# 2 -0.006607 0.017891 -0.002336 0.000000 0.000303 0.000000
# 3 -0.002170 -0.002336 0.008247 0.000000 -0.002344 0.000000
# 4 0.000000 0.000000 0.000000 0.053273 0.000000 -0.034223
# 5 -0.000140 0.000303 -0.002344 0.000000 0.033546 0.000000
# 6 0.000000 0.000000 0.000000 -0.034223 0.000000 0.115661
#
#
# Mechanical properties :
#
#
# Convention : Reuss Voigt Hill
#
# Bulk Modulus (GPa) = 57.31247 61.12561 59.21904
# Shear Modulus (GPa) = 18.50518 26.58418 22.54468
#
# Velocity S-wave (km/s) = 2.98322 3.57561 3.29276
# Velocity P-wave (km/s) = 6.27925 6.81494 6.55257
#
# Compressibility (1/GPa) = 0.01744821
#
# Stress axis : x y z
#
# Youngs Moduli (GPa) = 73.87876 55.89295 121.26201
#
# Poissons Ratio (x) = 0.36926 0.26318
# Poissons Ratio (y) = 0.48809 0.28324
# Poissons Ratio (z) = 0.16034 0.13055
#
# Static dielectric constant tensor:
#      x y z
#    x 3.793090 0.000000 0.062600 
#    y 0.000000 3.562880 0.000000 
#    z 0.062600 0.000000 4.064580 
# 
# 
# High freq. dielectric constant tensor:
#      x y z
#    x 1.819500 0.000000 0.003570 
#    y 0.000000 1.796050 0.000000 
#    z 0.003570 0.000000 1.836370 
# 
# From -- ./inp_files/87738.got.cif
#   From: 2010.06.25/outbox.cif.g09.slc.cpg/sg12_44_cif.got.tgz:87738.got - 2010.06.28 00:19:55.
