data_PCOD8114919
_publ_section_title
;
Structure prediction by ZEFSAII (Michael W. Deem and Ramdas Pophale) SiO2 
 PCOD8114919
Probable space group: C 2/M
;
_chemical_formula_sum "Si O2"
_cell_formula_units_Z 40
_cell_length_a 20.864734
_cell_length_b 8.331245
_cell_length_c 10.332403
_cell_angle_alpha 90.000000
_cell_angle_beta 100.238622
_cell_angle_gamma 90.000000
_cell_volume 1767.472812
_symmetry_space_group_name_H-M "C 2/M"
_symmetry_group_IT_number 12
_symmetry_cell_setting 'monoclinic'
loop_
_space_group_symop_operation_xyz
x,y,z
-x,y,-z
-x,-y,-z
x,-y,z
1/2+x,1/2+y,z
1/2-x,1/2+y,-z
1/2-x,1/2-y,-z
1/2+x,1/2-y,z
loop_
_atom_site_type_symbol
_atom_site_label
_atom_site_fract_x
_atom_site_fract_y
_atom_site_fract_z
Si Si1 0.089984 0.313573 0.095929
Si Si2 0.795634 0.186886 0.402949
Si Si3 0.729091 0.312173 0.132854
Si Si4 0.529294 0.686194 0.820560
Si Si5 0.431123 0.186427 0.424072
O O1 0.080673 0.500000 0.059654
O O2 0.164018 0.276466 0.158298
O O3 0.043102 0.263596 0.197843
O O4 0.068674 0.206055 0.967151
O O5 0.750000 0.250000 0.500000
O O6 0.782497 0.275568 0.261600
O O7 0.870553 0.222045 0.468580
O O8 0.783577 0.000000 0.379756
O O9 0.716574 0.500000 0.118516
O O10 0.750000 0.250000 0.000000
O O11 0.524195 0.500000 0.782456
O O12 0.570752 0.781460 0.729520
O O13 0.500000 0.255849 0.500000
O O14 0.424026 0.000000 0.454337
#
# Coordination Sequence:
#
# PCOD8114919 Si02
#       5
#     8   8   8   8   8
#     4  11  22  39  64  95 131 172 219 273 335 398
#     4  12  27  48  72 102 141 183 231 285 345 411
#     4  12  25  44  69  99 135 178 228 281 343 410
#     4  11  22  39  63  95 133 171 220 275 334 396
#     4  11  25  45  69  96 132 177 227 277 333 400
#
# _framework density 22.631181999999999
#
# number of rings (size 3 to 8) (size 9 to 14) (size 15 to 20)
#    0.000    0.600    0.000   10.200    2.800    1.600 
#    0.000    0.000    0.000    0.000    0.000    0.000 
#    0.000    0.000    0.000    0.000    0.000    0.000 
#
# Total GULP energy -248131.584036 kJ/mol
# GULP energy per Si atom -12406.579202 kJ/mol
# Density = 2.257967 g / cm^3
# Si number density = 22.631182 Si / 1000 Ang^3
#
#
#
# Elastic Constant Matrix: (Units=GPa)
#
#
# Indices 1 2 3 4 5 6 
#
# 1 154.1890 29.0884 37.9625 0.0000 -15.4032 0.0000
# 2 29.0884 116.2918 23.3715 0.0000 -5.8899 0.0000
# 3 37.9625 23.3715 91.2026 0.0000 -14.7251 0.0000
# 4 0.0000 0.0000 0.0000 32.7847 0.0000 -1.4548
# 5 -15.4032 -5.8899 -14.7251 0.0000 36.8079 0.0000
# 6 0.0000 0.0000 0.0000 -1.4548 0.0000 41.1989
#
#
#
# Elastic Compliance Matrix: (Units=1/GPa)
#
#
# Indices 1 2 3 4 5 6 
#
# 1 0.007537 -0.001285 -0.002493 0.000000 0.001951 0.000000
# 2 -0.001285 0.009296 -0.001811 0.000000 0.000225 0.000000
# 3 -0.002493 -0.001811 0.013097 0.000000 0.003907 0.000000
# 4 0.000000 0.000000 0.000000 0.030550 0.000000 0.001079
# 5 0.001951 0.000225 0.003907 0.000000 0.029583 0.000000
# 6 0.000000 0.000000 0.000000 0.001079 0.000000 0.024311
#
#
# Mechanical properties :
#
#
# Convention : Reuss Voigt Hill
#
# Bulk Modulus (GPa) = 53.32822 60.28091 56.80457
# Shear Modulus (GPa) = 37.93577 40.24236 39.08907
#
# Velocity S-wave (km/s) = 4.09866 4.22142 4.16049
# Velocity P-wave (km/s) = 6.78335 7.10314 6.94509
#
# Compressibility (1/GPa) = 0.01875180
#
# Stress axis : x y z
#
# Youngs Moduli (GPa) = 132.68464 107.57437 76.35376
#
# Poissons Ratio (x) = 0.13827 0.19033
# Poissons Ratio (y) = 0.17055 0.13826
# Poissons Ratio (z) = 0.33074 0.19479
#
# Static dielectric constant tensor:
#      x y z
#    x 4.465960 0.000000 -0.134420 
#    y 0.000000 4.002070 0.000000 
#    z -0.134420 0.000000 3.922640 
# 
# 
# High freq. dielectric constant tensor:
#      x y z
#    x 1.909060 0.000000 -0.009600 
#    y 0.000000 1.902980 0.000000 
#    z -0.009600 0.000000 1.886130 
# 
# From -- ./inp_files/162511.got.cif
#   From: 2010.06.25/outbox.cif.g09.slc.cpg/sg12_82_cif.got.tgz:162511.got - 2010.06.28 00:19:55.
