data_PCOD8114995
_publ_section_title
;
Structure prediction by ZEFSAII (Michael W. Deem and Ramdas Pophale) SiO2 
 PCOD8114995
Probable space group: C 2/M
;
_chemical_formula_sum "Si O2"
_cell_formula_units_Z 40
_cell_length_a 18.751449
_cell_length_b 16.911837
_cell_length_c 12.312577
_cell_angle_alpha 90.000000
_cell_angle_beta 151.786008
_cell_angle_gamma 90.000000
_cell_volume 1845.953622
_symmetry_space_group_name_H-M "C 2/M"
_symmetry_group_IT_number 12
_symmetry_cell_setting 'monoclinic'
loop_
_space_group_symop_operation_xyz
x,y,z
-x,y,-z
-x,-y,-z
x,-y,z
1/2+x,1/2+y,z
1/2-x,1/2+y,-z
1/2-x,1/2-y,-z
1/2+x,1/2-y,z
loop_
_atom_site_type_symbol
_atom_site_label
_atom_site_fract_x
_atom_site_fract_y
_atom_site_fract_z
Si Si1 0.143606 0.407111 0.531544
Si Si2 0.337693 0.088874 0.816954
Si Si3 0.173280 0.350789 0.969285
Si Si4 0.320342 0.335735 0.579333
Si Si5 0.666808 0.672302 0.024771
O O1 0.115823 0.500000 0.516318
O O2 0.244602 0.397609 0.559824
O O3 0.222927 0.366846 0.740296
O O4 0.987685 0.360482 0.305141
O O5 0.209799 0.139299 0.585211
O O6 0.328074 0.000000 0.760991
O O7 0.500000 0.125163 0.000000
O O8 0.312129 0.088258 0.912036
O O9 0.301322 0.367174 0.050444
O O10 0.197063 0.265264 0.055095
O O11 0.250000 0.250000 0.500000
O O12 0.497593 0.340184 0.838023
#
# Coordination Sequence:
#
# PCOD8114995 Si02
#       5
#     8   8   8   8   8
#     4  12  25  45  72 102 138 181 226 279 344 409
#     4  11  22  40  67  94 128 174 224 269 326 402
#     4  11  24  45  69  97 135 181 226 275 336 409
#     4  12  23  43  70 100 133 180 225 281 336 404
#     4  11  26  43  68 101 135 175 228 279 337 403
#
# _framework density 21.669017
#
# number of rings (size 3 to 8) (size 9 to 14) (size 15 to 20)
#    0.000    0.600    4.000    3.600    0.000    5.600 
#    0.000    1.000    0.000    0.000    0.000    0.000 
#    0.000    0.000    0.000    0.000    0.000    0.000 
#
# Total GULP energy -248061.797222 kJ/mol
# GULP energy per Si atom -12403.089861 kJ/mol
# Density = 2.161970 g / cm^3
# Si number density = 21.669017 Si / 1000 Ang^3
#
#
#
# Elastic Constant Matrix: (Units=GPa)
#
#
# Indices 1 2 3 4 5 6 
#
# 1 114.4132 30.8357 39.2997 0.0000 0.4050 0.0000
# 2 30.8357 94.1693 38.0246 0.0000 -17.3050 0.0000
# 3 39.2997 38.0246 74.1053 0.0000 -29.1022 0.0000
# 4 0.0000 0.0000 0.0000 30.9276 0.0000 -10.1235
# 5 0.4050 -17.3050 -29.1022 0.0000 35.9882 0.0000
# 6 0.0000 0.0000 0.0000 -10.1235 0.0000 24.7656
#
#
#
# Elastic Compliance Matrix: (Units=1/GPa)
#
#
# Indices 1 2 3 4 5 6 
#
# 1 0.012291 -0.002015 -0.008674 0.000000 -0.008121 0.000000
# 2 -0.002015 0.013766 -0.004963 0.000000 0.002629 0.000000
# 3 -0.008674 -0.004963 0.028929 0.000000 0.021105 0.000000
# 4 0.000000 0.000000 0.000000 0.037328 0.000000 0.015259
# 5 -0.008121 0.002629 0.021105 0.000000 0.046209 0.000000
# 6 0.000000 0.000000 0.000000 0.015259 0.000000 0.046616
#
#
# Mechanical properties :
#
#
# Convention : Reuss Voigt Hill
#
# Bulk Modulus (GPa) = 42.22343 55.44533 48.83438
# Shear Modulus (GPa) = 22.28790 29.97146 26.12968
#
# Velocity S-wave (km/s) = 3.21060 3.72310 3.47631
# Velocity P-wave (km/s) = 5.76818 6.64266 6.22080
#
# Compressibility (1/GPa) = 0.02368353
#
# Stress axis : x y z
#
# Youngs Moduli (GPa) = 81.35744 72.64348 34.56744
#
# Poissons Ratio (x) = 0.14636 0.29984
# Poissons Ratio (y) = 0.16392 0.17154
# Poissons Ratio (z) = 0.70570 0.36050
#
# Static dielectric constant tensor:
#      x y z
#    x 4.181020 0.000000 0.000500 
#    y 0.000000 3.795140 0.000000 
#    z 0.000500 0.000000 3.896040 
# 
# 
# High freq. dielectric constant tensor:
#      x y z
#    x 1.863800 0.000000 -0.010160 
#    y 0.000000 1.849060 0.000000 
#    z -0.010160 0.000000 1.851410 
# 
# From -- ./inp_files/47156.got.cif
#   From: 2010.06.25/outbox.cif.g09.slc.cpg/sg12_24_cif.got.tgz:47156.got - 2010.06.28 00:19:55.
