data_PCOD8114921
_publ_section_title
;
Structure prediction by ZEFSAII (Michael W. Deem and Ramdas Pophale) SiO2 
 PCOD8114921
Probable space group: C 2/M
;
_chemical_formula_sum "Si O2"
_cell_formula_units_Z 56
_cell_length_a 19.138011
_cell_length_b 14.709319
_cell_length_c 15.005810
_cell_angle_alpha 90.000000
_cell_angle_beta 141.908746
_cell_angle_gamma 90.000000
_cell_volume 2606.001517
_symmetry_space_group_name_H-M "C 2/M"
_symmetry_group_IT_number 12
_symmetry_cell_setting 'monoclinic'
loop_
_space_group_symop_operation_xyz
x,y,z
-x,y,-z
-x,-y,-z
x,-y,z
1/2+x,1/2+y,z
1/2-x,1/2+y,-z
1/2-x,1/2-y,-z
1/2+x,1/2-y,z
loop_
_atom_site_type_symbol
_atom_site_label
_atom_site_fract_x
_atom_site_fract_y
_atom_site_fract_z
Si Si1 0.034484 0.896277 0.896949
Si Si2 0.414113 0.401992 0.244800
Si Si3 0.516740 0.102149 0.260015
Si Si4 0.338052 0.744387 0.669073
Si Si5 0.301796 0.278117 0.829998
Si Si6 0.665363 0.903571 0.060333
Si Si7 0.553126 0.216977 0.647465
O O1 0.112560 0.890989 0.887108
O O2 0.922969 0.841332 0.754137
O O3 0.001726 0.000000 0.888703
O O4 0.105160 0.855271 0.051637
O O5 0.477413 0.500000 0.324054
O O6 0.484700 0.316716 0.354267
O O7 0.298731 0.403397 0.182313
O O8 0.594607 0.160784 0.271021
O O9 0.391667 0.102224 0.093505
O O10 0.503187 0.143663 0.344265
O O11 0.567012 0.000000 0.318554
O O12 0.250000 0.750000 0.500000
O O13 0.270622 0.729358 0.694256
O O14 0.189443 0.292987 0.776510
O O15 0.367459 0.183584 0.914907
O O16 0.629422 0.000000 0.070567
O O17 0.500000 0.197149 0.500000
#
# Coordination Sequence:
#
# PCOD8114921 Si02
#       7
#     8   8   8   8   8   8   8
#     4  11  23  42  69  96 126 169 222 273 324 387
#     4   9  18  35  63  96 128 161 208 268 326 385
#     4  11  23  41  65  91 127 169 215 265 324 390
#     4  12  26  44  63  91 133 175 215 265 331 395
#     4  11  23  39  66  96 129 169 217 274 322 387
#     4   9  18  35  62  96 123 152 205 268 321 374
#     4  11  22  39  63  96 133 174 214 266 330 395
#
# _framework density 21.488859000000001
#
# number of rings (size 3 to 8) (size 9 to 14) (size 15 to 20)
#    0.000    1.429    2.857    2.143    0.000    6.857 
#    0.000    2.857    0.000    0.000    0.000    0.000 
#    0.000    0.000    0.000    0.000    0.000    0.000 
#
# Total GULP energy -346940.082528 kJ/mol
# GULP energy per Si atom -12390.717233 kJ/mol
# Density = 2.143995 g / cm^3
# Si number density = 21.488859 Si / 1000 Ang^3
#
#
#
# Elastic Constant Matrix: (Units=GPa)
#
#
# Indices 1 2 3 4 5 6 
#
# 1 65.0935 30.5484 4.4003 0.0000 -13.5285 0.0000
# 2 30.5484 174.1592 41.8994 0.0000 -2.6839 0.0000
# 3 4.4003 41.8994 94.6910 0.0000 -12.1570 0.0000
# 4 0.0000 0.0000 0.0000 13.2674 0.0000 0.1984
# 5 -13.5285 -2.6839 -12.1570 0.0000 29.8718 0.0000
# 6 0.0000 0.0000 0.0000 0.1984 0.0000 18.6344
#
#
#
# Elastic Compliance Matrix: (Units=1/GPa)
#
#
# Indices 1 2 3 4 5 6 
#
# 1 0.018789 -0.003608 0.001872 0.000000 0.008947 0.000000
# 2 -0.003608 0.007129 -0.003286 0.000000 -0.002331 0.000000
# 3 0.001872 -0.003286 0.012660 0.000000 0.005705 0.000000
# 4 0.000000 0.000000 0.000000 0.075385 0.000000 -0.000803
# 5 0.008947 -0.002331 0.005705 0.000000 0.039641 0.000000
# 6 0.000000 0.000000 0.000000 -0.000803 0.000000 0.053673
#
#
# Mechanical properties :
#
#
# Convention : Reuss Voigt Hill
#
# Bulk Modulus (GPa) = 35.04626 54.18221 44.61423
# Shear Modulus (GPa) = 22.04268 29.49441 25.76855
#
# Velocity S-wave (km/s) = 3.20624 3.70881 3.46664
# Velocity P-wave (km/s) = 5.48189 6.60372 6.06878
#
# Compressibility (1/GPa) = 0.02853372
#
# Stress axis : x y z
#
# Youngs Moduli (GPa) = 53.22352 140.26328 78.98754
#
# Poissons Ratio (x) = 0.50609 -0.14787
# Poissons Ratio (y) = 0.19204 0.25957
# Poissons Ratio (z) = -0.09964 0.46094
#
# Static dielectric constant tensor:
#      x y z
#    x 3.858640 0.000000 -0.083920 
#    y 0.000000 4.474360 0.000000 
#    z -0.083920 0.000000 3.639040 
# 
# 
# High freq. dielectric constant tensor:
#      x y z
#    x 1.837160 0.000000 -0.009720 
#    y 0.000000 1.858380 0.000000 
#    z -0.009720 0.000000 1.823840 
# 
# From -- ./inp_files/233766.got.cif
#   From: 2010.06.25/outbox.cif.g09.slc.cpg/sg12_117_cif.got.tgz:233766.got - 2010.06.28 00:19:55.
