data_PCOD8114241
_publ_section_title
;
Structure prediction by ZEFSAII (Michael W. Deem and Ramdas Pophale) SiO2 
 PCOD8114241
Probable space group: C 2/M
;
_chemical_formula_sum "Si O2"
_cell_formula_units_Z 48
_cell_length_a 17.345814
_cell_length_b 15.430105
_cell_length_c 15.720273
_cell_angle_alpha 90.000000
_cell_angle_beta 144.343603
_cell_angle_gamma 90.000000
_cell_volume 2452.645986
_symmetry_space_group_name_H-M "C 2/M"
_symmetry_group_IT_number 12
_symmetry_cell_setting 'monoclinic'
loop_
_space_group_symop_operation_xyz
x,y,z
-x,y,-z
-x,-y,-z
x,-y,z
1/2+x,1/2+y,z
1/2-x,1/2+y,-z
1/2-x,1/2-y,-z
1/2+x,1/2-y,z
loop_
_atom_site_type_symbol
_atom_site_label
_atom_site_fract_x
_atom_site_fract_y
_atom_site_fract_z
Si Si1 0.262892 0.900167 0.240952
Si Si2 0.960476 0.639979 0.283163
Si Si3 0.746834 0.902586 0.573515
Si Si4 0.097445 0.746067 0.015298
Si Si5 0.232492 0.402899 0.043310
Si Si6 0.505342 0.315038 0.759902
O O1 0.407173 0.892100 0.326832
O O2 0.270107 0.868927 0.344930
O O3 0.212690 0.000000 0.188652
O O4 0.166082 0.835570 0.104325
O O5 0.107319 0.603094 0.399898
O O6 0.863677 0.605055 0.123480
O O7 0.968495 0.744370 0.290114
O O8 0.857044 0.851036 0.618870
O O9 0.797850 0.000000 0.621548
O O10 0.199071 0.668168 0.085587
O O11 0.012444 0.766526 0.856193
O O12 0.000000 0.710803 0.000000
O O13 0.220891 0.500000 0.070590
O O14 0.383040 0.388759 0.147309
#
# Coordination Sequence:
#
# PCOD8114241 Si02
#       6
#     8   8   8   8   8   8
#     4  11  21  35  58  84 115 151 183 228 283 338
#     4  11  21  38  56  85 117 151 186 229 280 337
#     4  11  23  35  55  88 117 148 186 228 284 340
#     4  11  21  38  58  83 116 145 192 236 277 332
#     4  11  22  38  62  84 110 151 191 235 281 325
#     4  11  21  37  59  83 114 152 186 231 284 330
#
# _framework density 19.570699000000001
#
# number of rings (size 3 to 8) (size 9 to 14) (size 15 to 20)
#    0.000    1.000    5.000    4.000    0.000    2.667 
#    0.000    0.000    0.000    0.000    0.000    1.167 
#    0.000    0.000    0.000    0.000    0.000    0.000 
#
# Total GULP energy -297588.645536 kJ/mol
# GULP energy per Si atom -12399.526897 kJ/mol
# Density = 1.952616 g / cm^3
# Si number density = 19.570699 Si / 1000 Ang^3
#
#
#
# Elastic Constant Matrix: (Units=GPa)
#
#
# Indices 1 2 3 4 5 6 
#
# 1 89.7150 41.5596 29.9754 -0.0001 21.9043 -0.0001
# 2 41.5596 118.5457 28.4986 -0.0001 8.5326 -0.0001
# 3 29.9754 28.4986 78.6282 -0.0003 25.8525 -0.0002
# 4 -0.0001 -0.0001 -0.0003 10.8862 -0.0001 4.4814
# 5 21.9043 8.5326 25.8525 -0.0001 30.7320 -0.0001
# 6 -0.0001 -0.0001 -0.0002 4.4814 -0.0001 27.9295
#
#
#
# Elastic Compliance Matrix: (Units=1/GPa)
#
#
# Indices 1 2 3 4 5 6 
#
# 1 0.015926 -0.004586 -0.001515 0.000000 -0.008804 0.000000
# 2 -0.004586 0.010564 -0.003029 0.000000 0.002883 0.000000
# 3 -0.001515 -0.003029 0.019023 0.000000 -0.014082 0.000000
# 4 0.000000 0.000000 0.000000 0.098356 0.000000 -0.015782
# 5 -0.008804 0.002883 -0.014082 0.000000 0.049860 0.000000
# 6 0.000000 0.000000 0.000000 -0.015782 0.000000 0.038337
#
#
# Mechanical properties :
#
#
# Convention : Reuss Voigt Hill
#
# Bulk Modulus (GPa) = 36.68985 54.10625 45.39805
# Shear Modulus (GPa) = 19.27450 26.36656 22.82053
#
# Velocity S-wave (km/s) = 3.14166 3.67447 3.41846
# Velocity P-wave (km/s) = 5.65226 6.76083 6.23125
#
# Compressibility (1/GPa) = 0.02725549
#
# Stress axis : x y z
#
# Youngs Moduli (GPa) = 62.78918 94.66354 52.56661
#
# Poissons Ratio (x) = 0.43409 0.07963
# Poissons Ratio (y) = 0.28792 0.15920
# Poissons Ratio (z) = 0.09512 0.28670
#
# Static dielectric constant tensor:
#      x y z
#    x 3.669390 0.000000 0.167740 
#    y 0.000000 3.685160 0.000000 
#    z 0.167740 0.000000 3.392760 
# 
# 
# High freq. dielectric constant tensor:
#      x y z
#    x 1.754880 0.000000 0.021290 
#    y 0.000000 1.765520 0.000000 
#    z 0.021290 0.000000 1.750570 
# 
# From -- ./inp_files/155475.got.cif
#   From: 2010.06.25/outbox.cif.g09.slc.cpg/sg12_78_cif.got.tgz:155475.got - 2010.06.28 00:19:55.
