data_PCOD8114103
_publ_section_title
;
Structure prediction by ZEFSAII (Michael W. Deem and Ramdas Pophale) SiO2 
 PCOD8114103
Probable space group: C 2/M
;
_chemical_formula_sum "Si O2"
_cell_formula_units_Z 40
_cell_length_a 28.574488
_cell_length_b 7.839215
_cell_length_c 28.124729
_cell_angle_alpha 90.000000
_cell_angle_beta 159.058229
_cell_angle_gamma 90.000000
_cell_volume 2251.733497
_symmetry_space_group_name_H-M "C 2/M"
_symmetry_group_IT_number 12
_symmetry_cell_setting 'monoclinic'
loop_
_space_group_symop_operation_xyz
x,y,z
-x,y,-z
-x,-y,-z
x,-y,z
1/2+x,1/2+y,z
1/2-x,1/2+y,-z
1/2-x,1/2-y,-z
1/2+x,1/2-y,z
loop_
_atom_site_type_symbol
_atom_site_label
_atom_site_fract_x
_atom_site_fract_y
_atom_site_fract_z
Si Si1 0.917107 0.802843 0.792080
Si Si2 0.682432 0.000000 0.132840
Si Si3 0.873952 0.807777 0.646985
Si Si4 0.218596 0.807034 0.103010
Si Si5 0.860228 0.696839 0.141401
Si Si6 0.878225 0.500000 0.820730
O O1 0.884455 0.722773 0.709103
O O2 0.846335 0.674633 0.761870
O O3 0.870739 0.000000 0.756639
O O4 0.072803 0.792375 0.944645
O O5 0.745443 0.828308 0.170434
O O6 0.710044 0.000000 0.215459
O O7 0.529302 0.000000 0.977722
O O8 0.750000 0.750000 0.500000
O O9 0.004382 0.791842 0.739650
O O10 0.851983 0.000000 0.639832
O O11 0.315946 0.759448 0.152629
O O12 0.244530 0.000000 0.146391
O O13 0.889408 0.500000 0.162508
O O14 0.750000 0.750000 0.000000
#
# Coordination Sequence:
#
# PCOD8114103 Si02
#       6
#     8   4   8   8   8   4
#     4   9  18  32  49  72 104 138 178 218 263 322
#     4   9  18  30  48  75 105 137 177 225 266 314
#     4  11  23  36  51  77 110 146 183 223 269 321
#     4   9  18  31  48  75 106 136 174 219 265 319
#     4  11  21  32  53  79 106 146 184 217 270 326
#     4   9  18  30  50  73 101 143 179 215 276 315
#
# _framework density 17.764092000000002
#
# number of rings (size 3 to 8) (size 9 to 14) (size 15 to 20)
#    0.000    2.200    2.000    1.200    5.600    0.800 
#    0.000    4.000    0.000    0.000    0.000    2.800 
#    0.000    6.400    0.000    0.000    0.000    0.000 
#
# Total GULP energy -247894.867439 kJ/mol
# GULP energy per Si atom -12394.743372 kJ/mol
# Density = 1.772366 g / cm^3
# Si number density = 17.764092 Si / 1000 Ang^3
#
#
#
# Elastic Constant Matrix: (Units=GPa)
#
#
# Indices 1 2 3 4 5 6 
#
# 1 152.1959 78.3404 40.8061 0.0035 -12.8956 0.0009
# 2 78.3404 109.3834 20.4694 -0.0012 -8.1340 -0.0010
# 3 40.8061 20.4694 65.8251 -0.0061 2.8378 -0.0021
# 4 0.0035 -0.0012 -0.0061 19.3529 0.0018 -0.9513
# 5 -12.8956 -8.1340 2.8378 0.0018 13.6443 0.0006
# 6 0.0009 -0.0010 -0.0021 -0.9513 0.0006 33.3328
#
#
#
# Elastic Compliance Matrix: (Units=1/GPa)
#
#
# Indices 1 2 3 4 5 6 
#
# 1 0.012686 -0.007308 -0.005974 -0.000006 0.008876 -0.000001
# 2 -0.007308 0.014518 -0.000060 0.000002 0.001761 0.000001
# 3 -0.005974 -0.000060 0.019333 0.000008 -0.009704 0.000002
# 4 -0.000006 0.000002 0.000008 0.051745 -0.000013 0.001477
# 5 0.008876 0.001761 -0.009704 -0.000013 0.084748 -0.000003
# 6 -0.000001 0.000001 0.000002 0.001477 -0.000003 0.030043
#
#
# Mechanical properties :
#
#
# Convention : Reuss Voigt Hill
#
# Bulk Modulus (GPa) = 50.37381 67.40403 58.88892
# Shear Modulus (GPa) = 20.29439 25.78521 23.03980
#
# Velocity S-wave (km/s) = 3.38366 3.81404 3.60528
# Velocity P-wave (km/s) = 6.60941 7.57774 7.11008
#
# Compressibility (1/GPa) = 0.01985159
#
# Stress axis : x y z
#
# Youngs Moduli (GPa) = 78.82815 68.87961 51.72621
#
# Poissons Ratio (x) = 0.50334 0.30903
# Poissons Ratio (y) = 0.57604 0.00313
# Poissons Ratio (z) = 0.47095 0.00417
#
# Static dielectric constant tensor:
#      x y z
#    x 3.405590 0.000000 0.191260 
#    y 0.000000 3.602780 0.000060 
#    z 0.191260 0.000060 3.571270 
# 
# 
# High freq. dielectric constant tensor:
#      x y z
#    x 1.687160 0.000000 -0.003890 
#    y 0.000000 1.704040 0.000000 
#    z -0.003890 0.000000 1.635950 
# 
# From -- ./inp_files/92867.got.cif
#   From: 2010.06.25/outbox.cif.g09.slc.cpg/sg12_47_cif.got.tgz:92867.got - 2010.06.28 00:19:55.
