data_PCOD8114498
_publ_section_title
;
Structure prediction by ZEFSAII (Michael W. Deem and Ramdas Pophale) SiO2 
 PCOD8114498
Probable space group: C 2/M
;
_chemical_formula_sum "Si O2"
_cell_formula_units_Z 48
_cell_length_a 11.367778
_cell_length_b 17.459339
_cell_length_c 11.980122
_cell_angle_alpha 90.000000
_cell_angle_beta 107.574296
_cell_angle_gamma 90.000000
_cell_volume 2266.763236
_symmetry_space_group_name_H-M "C 2/M"
_symmetry_group_IT_number 12
_symmetry_cell_setting 'monoclinic'
loop_
_space_group_symop_operation_xyz
x,y,z
-x,y,-z
-x,-y,-z
x,-y,z
1/2+x,1/2+y,z
1/2-x,1/2+y,-z
1/2-x,1/2-y,-z
1/2+x,1/2-y,z
loop_
_atom_site_type_symbol
_atom_site_label
_atom_site_fract_x
_atom_site_fract_y
_atom_site_fract_z
Si Si1 0.192815 0.325580 0.301830
Si Si2 0.674900 0.350957 0.276813
Si Si3 0.777489 0.911602 0.947349
Si Si4 0.364056 0.912379 0.494922
Si Si5 0.398649 0.652355 0.190659
Si Si6 0.451075 0.188790 0.104069
O O1 0.214918 0.235122 0.317053
O O2 0.194251 0.361195 0.424852
O O3 0.302663 0.363752 0.262276
O O4 0.062399 0.345397 0.208311
O O5 0.674634 0.363735 0.144305
O O6 0.771880 0.407275 0.363258
O O7 0.534815 0.366129 0.277150
O O8 0.644295 0.879405 0.944733
O O9 0.766029 0.000000 0.911699
O O10 0.870587 0.902211 0.077424
O O11 0.500000 0.881962 0.500000
O O12 0.373477 0.000000 0.537509
O O13 0.386549 0.740733 0.148843
O O14 0.500000 0.219784 0.000000
#
# Coordination Sequence:
#
# PCOD8114498 Si02
#       6
#     8   8   8   8   8   8
#     4  11  23  42  69  97 129 167 220 270 316 381
#     4  11  24  43  67  94 130 175 220 264 315 387
#     4  12  24  40  65  97 137 175 214 264 324 387
#     4  11  26  47  69  95 131 169 214 270 326 385
#     4  11  23  41  66  99 131 169 216 269 319 382
#     4  11  21  40  67  94 132 171 216 268 319 379
#
# _framework density 21.175568999999999
#
# number of rings (size 3 to 8) (size 9 to 14) (size 15 to 20)
#    0.000    0.833    3.333    5.000    2.333    5.667 
#    0.000    0.833    0.000    0.000    0.000    0.000 
#    0.000    0.000    0.000    0.000    0.000    0.000 
#
# Total GULP energy -297762.557828 kJ/mol
# GULP energy per Si atom -12406.773243 kJ/mol
# Density = 2.112737 g / cm^3
# Si number density = 21.175569 Si / 1000 Ang^3
#
#
#
# Elastic Constant Matrix: (Units=GPa)
#
#
# Indices 1 2 3 4 5 6 
#
# 1 110.7290 38.6168 49.0189 0.0000 -6.9482 0.0000
# 2 38.6168 87.9870 22.5201 0.0000 -5.8474 0.0000
# 3 49.0189 22.5201 98.2515 0.0000 -7.1523 0.0000
# 4 0.0000 0.0000 0.0000 27.6911 0.0000 -0.2550
# 5 -6.9482 -5.8474 -7.1523 0.0000 47.5508 0.0000
# 6 0.0000 0.0000 0.0000 -0.2550 0.0000 23.0139
#
#
#
# Elastic Compliance Matrix: (Units=1/GPa)
#
#
# Indices 1 2 3 4 5 6 
#
# 1 0.012964 -0.004258 -0.005452 0.000000 0.000551 0.000000
# 2 -0.004258 0.013527 -0.000910 0.000000 0.000904 0.000000
# 3 -0.005452 -0.000910 0.013185 0.000000 0.001075 0.000000
# 4 0.000000 0.000000 0.000000 0.036116 0.000000 0.000400
# 5 0.000551 0.000904 0.001075 0.000000 0.021383 0.000000
# 6 0.000000 0.000000 0.000000 0.000400 0.000000 0.043456
#
#
# Mechanical properties :
#
#
# Convention : Reuss Voigt Hill
#
# Bulk Modulus (GPa) = 54.24233 57.47545 55.85889
# Shear Modulus (GPa) = 29.75872 32.10526 30.93199
#
# Velocity S-wave (km/s) = 3.75284 3.89800 3.82611
# Velocity P-wave (km/s) = 6.66705 6.88915 6.77901
#
# Compressibility (1/GPa) = 0.01843579
#
# Stress axis : x y z
#
# Youngs Moduli (GPa) = 77.13641 73.92537 75.84437
#
# Poissons Ratio (x) = 0.31476 0.41350
# Poissons Ratio (y) = 0.32843 0.06905
# Poissons Ratio (z) = 0.42054 0.06730
#
# Static dielectric constant tensor:
#      x y z
#    x 3.944000 0.000000 0.075410 
#    y 0.000000 3.539900 0.000000 
#    z 0.075410 0.000000 3.736200 
# 
# 
# High freq. dielectric constant tensor:
#      x y z
#    x 1.844950 0.000000 0.003780 
#    y 0.000000 1.813410 0.000000 
#    z 0.003780 0.000000 1.828310 
# 
# From -- ./inp_files/131746.got.cif
#   From: 2010.06.25/outbox.cif.g09.slc.cpg/sg12_66_cif.got.tgz:131746.got - 2010.06.28 00:19:55.
