data_PCOD8114056
_publ_section_title
;
Structure prediction by ZEFSAII (Michael W. Deem and Ramdas Pophale) SiO2 
 PCOD8114056
Probable space group: C 2/M
;
_chemical_formula_sum "Si O2"
_cell_formula_units_Z 40
_cell_length_a 21.619626
_cell_length_b 11.042905
_cell_length_c 8.749468
_cell_angle_alpha 90.000000
_cell_angle_beta 113.002302
_cell_angle_gamma 90.000000
_cell_volume 1922.789915
_symmetry_space_group_name_H-M "C 2/M"
_symmetry_group_IT_number 12
_symmetry_cell_setting 'monoclinic'
loop_
_space_group_symop_operation_xyz
x,y,z
-x,y,-z
-x,-y,-z
x,-y,z
1/2+x,1/2+y,z
1/2-x,1/2+y,-z
1/2-x,1/2-y,-z
1/2+x,1/2-y,z
loop_
_atom_site_type_symbol
_atom_site_label
_atom_site_fract_x
_atom_site_fract_y
_atom_site_fract_z
Si Si1 0.934884 0.860553 0.524945
Si Si2 0.565685 0.243991 0.165383
Si Si3 0.406663 0.000000 0.285605
Si Si4 0.184598 0.141888 0.093298
Si Si5 0.443624 0.000000 0.672450
Si Si6 0.672024 0.767493 0.770555
O O1 0.946619 0.844552 0.716157
O O2 0.869081 0.787720 0.410302
O O3 0.000000 0.806686 0.500000
O O4 0.925279 0.000000 0.473784
O O5 0.628258 0.282258 0.124496
O O6 0.581781 0.116214 0.259962
O O7 0.500000 0.235288 0.000000
O O8 0.412211 0.000000 0.474100
O O9 0.476146 0.000000 0.262421
O O10 0.366401 0.881788 0.192776
O O11 0.256313 0.188442 0.224689
O O12 0.175529 0.000000 0.117221
O O13 0.180069 0.165297 0.907679
#
# Coordination Sequence:
#
# PCOD8114056 Si02
#       6
#     8   8   4   8   4   8
#     4  11  23  41  66  96 129 173 222 265 321 391
#     4  12  25  42  65  98 132 171 216 275 332 384
#     4  11  20  42  72  94 131 168 221 274 319 388
#     4  11  25  44  65  96 136 171 218 270 329 390
#     4  11  23  40  68 102 128 168 218 272 330 381
#     4  11  23  43  68  95 127 179 220 266 325 389
#
# _framework density 20.803106
#
# number of rings (size 3 to 8) (size 9 to 14) (size 15 to 20)
#    0.000    0.800    3.000    5.100    0.000    4.800 
#    3.600    0.000    0.000    0.000    0.000    0.000 
#    0.000    0.000    0.000    0.000    0.000    0.000 
#
# Total GULP energy -248139.800838 kJ/mol
# GULP energy per Si atom -12406.990042 kJ/mol
# Density = 2.075576 g / cm^3
# Si number density = 20.803106 Si / 1000 Ang^3
#
#
#
# Elastic Constant Matrix: (Units=GPa)
#
#
# Indices 1 2 3 4 5 6 
#
# 1 122.0686 51.8808 23.7428 0.0000 1.3009 0.0000
# 2 51.8808 115.8882 24.3495 0.0000 5.3747 0.0000
# 3 23.7428 24.3495 81.1385 0.0000 6.9766 0.0000
# 4 0.0000 0.0000 0.0000 27.0875 0.0000 9.7637
# 5 1.3009 5.3747 6.9766 0.0000 30.9232 0.0000
# 6 0.0000 0.0000 0.0000 9.7637 0.0000 -22.1059
#
#
#
# Elastic Compliance Matrix: (Units=1/GPa)
#
#
# Indices 1 2 3 4 5 6 
#
# 1 0.010360 -0.004292 -0.001805 0.000000 0.000717 0.000000
# 2 -0.004292 0.011018 -0.001939 0.000000 -0.001297 0.000000
# 3 -0.001805 -0.001939 0.013664 0.000000 -0.002670 0.000000
# 4 0.000000 0.000000 0.000000 0.031847 0.000000 0.014066
# 5 0.000717 -0.001297 -0.002670 0.000000 0.033136 0.000000
# 6 0.000000 0.000000 0.000000 0.014066 0.000000 -0.039024
#
#
# Mechanical properties :
#
#
# Convention : Reuss Voigt Hill
#
# Bulk Modulus (GPa) = 52.71531 57.67126 55.19329
# Shear Modulus (GPa) = 59.95488 21.78913 40.87201
#
# Velocity S-wave (km/s) = 5.37427 3.23986 4.43731
# Velocity P-wave (km/s) = 7.99409 6.46361 7.26924
#
# Compressibility (1/GPa) = 0.01896982
#
# Stress axis : x y z
#
# Youngs Moduli (GPa) = 96.52838 90.76115 73.18331
#
# Poissons Ratio (x) = 0.38953 0.13211
# Poissons Ratio (y) = 0.41428 0.14191
# Poissons Ratio (z) = 0.17425 0.17599
#
# Static dielectric constant tensor:
#      x y z
#    x 3.782580 0.000000 0.132570 
#    y 0.000000 3.885240 0.000000 
#    z 0.132570 0.000000 3.720510 
# 
# 
# High freq. dielectric constant tensor:
#      x y z
#    x 1.814330 0.000000 0.008660 
#    y 0.000000 1.830230 0.000000 
#    z 0.008660 0.000000 1.814300 
# 
# From -- ./inp_files/83748.got.cif
#   From: 2010.06.25/outbox.cif.g09.slc.cpg/sg12_42_cif.got.tgz:83748.got - 2010.06.28 00:19:55.
