data_PCOD8114849
_publ_section_title
;
Structure prediction by ZEFSAII (Michael W. Deem and Ramdas Pophale) SiO2 
 PCOD8114849
Probable space group: C 2/M
;
_chemical_formula_sum "Si O2"
_cell_formula_units_Z 48
_cell_length_a 28.184812
_cell_length_b 8.806279
_cell_length_c 15.720057
_cell_angle_alpha 90.000000
_cell_angle_beta 142.240255
_cell_angle_gamma 90.000000
_cell_volume 2389.255889
_symmetry_space_group_name_H-M "C 2/M"
_symmetry_group_IT_number 12
_symmetry_cell_setting 'monoclinic'
loop_
_space_group_symop_operation_xyz
x,y,z
-x,y,-z
-x,-y,-z
x,-y,z
1/2+x,1/2+y,z
1/2-x,1/2+y,-z
1/2-x,1/2-y,-z
1/2+x,1/2-y,z
loop_
_atom_site_type_symbol
_atom_site_label
_atom_site_fract_x
_atom_site_fract_y
_atom_site_fract_z
Si Si1 0.883111 0.320702 0.548015
Si Si2 0.809847 0.677742 0.148921
Si Si3 0.391850 0.675985 0.917342
Si Si4 0.936666 0.824241 0.790864
Si Si5 0.016841 0.677836 0.616164
Si Si6 0.735754 0.321166 0.740755
O O1 0.873146 0.500000 0.525277
O O2 0.892986 0.278114 0.660272
O O3 0.806006 0.242189 0.402568
O O4 0.957869 0.256020 0.602658
O O5 0.793772 0.500000 0.133636
O O6 0.895018 0.712277 0.231888
O O7 0.804400 0.748130 0.234342
O O8 0.750000 0.750000 0.000000
O O9 0.371592 0.500000 0.903161
O O10 0.397414 0.711697 0.825312
O O11 0.326176 0.778926 0.866532
O O12 0.472503 0.717943 0.077212
O O13 0.926456 0.000000 0.752613
O O14 0.001099 0.500000 0.587340
O O15 0.000000 0.752136 0.500000
O O16 0.726775 0.500000 0.733584
#
# Coordination Sequence:
#
# PCOD8114849 Si02
#       6
#     8   8   8   8   8   8
#     4  11  22  38  62  89 119 159 199 244 301 354
#     4  11  23  41  62  88 122 158 198 245 299 354
#     4   9  20  41  65  87 119 158 194 243 304 359
#     4   9  20  40  64  91 119 151 195 246 302 362
#     4   9  18  37  61  83 114 155 196 237 286 347
#     4  12  25  40  59  88 122 158 203 250 294 349
#
# _framework density 20.089936000000002
#
# number of rings (size 3 to 8) (size 9 to 14) (size 15 to 20)
#    0.000    1.833    1.667    3.500    2.333    2.000 
#    0.000    5.000    0.000    0.000    0.000    0.000 
#    0.000    0.000    0.000    0.000    0.000    0.000 
#
# Total GULP energy -297675.076906 kJ/mol
# GULP energy per Si atom -12403.128204 kJ/mol
# Density = 2.004421 g / cm^3
# Si number density = 20.089936 Si / 1000 Ang^3
#
#
#
# Elastic Constant Matrix: (Units=GPa)
#
#
# Indices 1 2 3 4 5 6 
#
# 1 42.8920 18.8139 0.7005 0.0000 6.5516 0.0000
# 2 18.8139 91.8887 34.3797 0.0000 5.6774 0.0000
# 3 0.7005 34.3797 91.2079 0.0000 -7.4118 0.0000
# 4 0.0000 0.0000 0.0000 34.0515 0.0000 -5.0555
# 5 6.5516 5.6774 -7.4118 0.0000 33.0450 0.0000
# 6 0.0000 0.0000 0.0000 -5.0555 0.0000 29.5838
#
#
#
# Elastic Compliance Matrix: (Units=1/GPa)
#
#
# Indices 1 2 3 4 5 6 
#
# 1 0.026419 -0.005794 0.001667 0.000000 -0.003869 0.000000
# 2 -0.005794 0.014305 -0.005555 0.000000 -0.002555 0.000000
# 3 0.001667 -0.005555 0.013339 0.000000 0.003616 0.000000
# 4 0.000000 0.000000 0.000000 0.030132 0.000000 0.005149
# 5 -0.003869 -0.002555 0.003616 0.000000 0.032279 0.000000
# 6 0.000000 0.000000 0.000000 0.005149 0.000000 0.034682
#
#
# Mechanical properties :
#
#
# Convention : Reuss Voigt Hill
#
# Bulk Modulus (GPa) = 28.81948 37.08630 32.95289
# Shear Modulus (GPa) = 27.45922 30.80902 29.13412
#
# Velocity S-wave (km/s) = 3.70106 3.92031 3.81226
# Velocity P-wave (km/s) = 5.71315 6.24436 5.98465
#
# Compressibility (1/GPa) = 0.03469875
#
# Stress axis : x y z
#
# Youngs Moduli (GPa) = 37.85084 69.90376 74.96792
#
# Poissons Ratio (x) = 0.40501 -0.12494
# Poissons Ratio (y) = 0.21930 0.41648
# Poissons Ratio (z) = -0.06308 0.38834
#
# Static dielectric constant tensor:
#      x y z
#    x 3.713300 0.000000 0.060510 
#    y 0.000000 3.429380 0.000000 
#    z 0.060510 0.000000 3.641180 
# 
# 
# High freq. dielectric constant tensor:
#      x y z
#    x 1.786780 0.000000 0.003750 
#    y 0.000000 1.767520 0.000000 
#    z 0.003750 0.000000 1.793880 
# 
# From -- ./inp_files/244897.got.cif
#   From: 2010.06.25/outbox.cif.g09.slc.cpg/sg12_123_cif.got.tgz:244897.got - 2010.06.28 00:19:55.
