data_PCOD8114985
_publ_section_title
;
Structure prediction by ZEFSAII (Michael W. Deem and Ramdas Pophale) SiO2 
 PCOD8114985
Probable space group: C 2/M
;
_chemical_formula_sum "Si O2"
_cell_formula_units_Z 40
_cell_length_a 10.057817
_cell_length_b 22.800947
_cell_length_c 8.133120
_cell_angle_alpha 90.000000
_cell_angle_beta 79.631801
_cell_angle_gamma 90.000000
_cell_volume 1834.695050
_symmetry_space_group_name_H-M "C 2/M"
_symmetry_group_IT_number 12
_symmetry_cell_setting 'monoclinic'
loop_
_space_group_symop_operation_xyz
x,y,z
-x,y,-z
-x,-y,-z
x,-y,z
1/2+x,1/2+y,z
1/2-x,1/2+y,-z
1/2-x,1/2-y,-z
1/2+x,1/2-y,z
loop_
_atom_site_type_symbol
_atom_site_label
_atom_site_fract_x
_atom_site_fract_y
_atom_site_fract_z
Si Si1 0.298097 0.866255 0.340728
Si Si2 0.048960 0.064654 0.303257
Si Si3 0.951776 0.568021 0.825496
Si Si4 0.799103 0.869022 0.266935
Si Si5 0.359532 0.754448 0.115361
O O1 0.179614 0.894189 0.255420
O O2 0.428126 0.908560 0.316135
O O3 0.254656 0.860694 0.537823
O O4 0.329198 0.802863 0.259822
O O5 0.000000 0.063219 0.500000
O O6 0.923986 0.086395 0.221795
O O7 0.091096 0.000000 0.233388
O O8 0.922391 0.500000 0.790333
O O9 0.818283 0.607046 0.826034
O O10 0.000000 0.577322 0.000000
O O11 0.862836 0.807462 0.203554
O O12 0.500000 0.770905 0.000000
O O13 0.250000 0.750000 0.000000
#
# Coordination Sequence:
#
# PCOD8114985 Si02
#       5
#     8   8   8   8   8
#     4  11  22  40  65  93 124 161 209 258 306 365
#     4   9  19  36  60  91 123 153 192 248 306 358
#     4  11  24  41  62  92 130 167 204 251 311 375
#     4  11  23  40  65  93 122 161 212 259 305 366
#     4  12  25  42  63  87 125 166 205 255 314 373
#
# _framework density 21.801988000000001
#
# number of rings (size 3 to 8) (size 9 to 14) (size 15 to 20)
#    0.000    1.200    0.000    6.600    0.000    3.200 
#    0.000    6.000    0.000    6.000    0.000    0.000 
#    0.000    0.000    0.000    0.000    0.000    0.000 
#
# Total GULP energy -248077.159463 kJ/mol
# GULP energy per Si atom -12403.857973 kJ/mol
# Density = 2.175237 g / cm^3
# Si number density = 21.801988 Si / 1000 Ang^3
#
#
#
# Elastic Constant Matrix: (Units=GPa)
#
#
# Indices 1 2 3 4 5 6 
#
# 1 143.6472 42.9295 11.9933 0.0000 12.0196 0.0000
# 2 42.9295 148.4164 30.9330 0.0000 3.5263 0.0000
# 3 11.9933 30.9330 51.5283 0.0000 8.3992 0.0000
# 4 0.0000 0.0000 0.0000 29.4142 0.0000 -2.0613
# 5 12.0196 3.5263 8.3992 0.0000 26.8155 0.0000
# 6 0.0000 0.0000 0.0000 -2.0613 0.0000 38.0396
#
#
#
# Elastic Compliance Matrix: (Units=1/GPa)
#
#
# Indices 1 2 3 4 5 6 
#
# 1 0.007892 -0.002210 0.000020 0.000000 -0.003253 0.000000
# 2 -0.002210 0.008325 -0.004707 0.000000 0.001370 0.000000
# 3 0.000020 -0.004707 0.023319 0.000000 -0.006694 0.000000
# 4 0.000000 0.000000 0.000000 0.034127 0.000000 0.001849
# 5 -0.003253 0.001370 -0.006694 0.000000 0.040667 0.000000
# 6 0.000000 0.000000 0.000000 0.001849 0.000000 0.026389
#
#
# Mechanical properties :
#
#
# Convention : Reuss Voigt Hill
#
# Bulk Modulus (GPa) = 38.84508 57.25596 48.05052
# Shear Modulus (GPa) = 30.65731 36.03626 33.34678
#
# Velocity S-wave (km/s) = 3.75396 4.06998 3.91516
# Velocity P-wave (km/s) = 6.05356 6.95738 6.52115
#
# Compressibility (1/GPa) = 0.02574329
#
# Stress axis : x y z
#
# Youngs Moduli (GPa) = 126.70338 120.11411 42.88374
#
# Poissons Ratio (x) = 0.26542 -0.00085
# Poissons Ratio (y) = 0.27998 0.20185
# Poissons Ratio (z) = -0.00251 0.56536
#
# Static dielectric constant tensor:
#      x y z
#    x 4.150440 0.000000 -0.089700 
#    y 0.000000 4.315720 0.000000 
#    z -0.089700 0.000000 3.876350 
# 
# 
# High freq. dielectric constant tensor:
#      x y z
#    x 1.873020 0.000000 -0.003170 
#    y 0.000000 1.872800 0.000000 
#    z -0.003170 0.000000 1.853340 
# 
# From -- ./inp_files/39239.got.cif
#   From: 2010.06.25/outbox.cif.g09.slc.cpg/sg12_20_cif.got.tgz:39239.got - 2010.06.28 00:19:55.
