data_PCOD8114825
_publ_section_title
;
Structure prediction by ZEFSAII (Michael W. Deem and Ramdas Pophale) SiO2 
 PCOD8114825
Probable space group: C 2/M
;
_chemical_formula_sum "Si O2"
_cell_formula_units_Z 56
_cell_length_a 20.540511
_cell_length_b 32.860692
_cell_length_c 8.960383
_cell_angle_alpha 90.000000
_cell_angle_beta 29.040071
_cell_angle_gamma 90.000000
_cell_volume 2935.845846
_symmetry_space_group_name_H-M "C 2/M"
_symmetry_group_IT_number 12
_symmetry_cell_setting 'monoclinic'
loop_
_space_group_symop_operation_xyz
x,y,z
-x,y,-z
-x,-y,-z
x,-y,z
1/2+x,1/2+y,z
1/2-x,1/2+y,-z
1/2-x,1/2-y,-z
1/2+x,1/2-y,z
loop_
_atom_site_type_symbol
_atom_site_label
_atom_site_fract_x
_atom_site_fract_y
_atom_site_fract_z
Si Si1 0.153470 0.579256 0.020955
Si Si2 0.849660 0.579695 0.627396
Si Si3 0.841559 0.500000 0.486397
Si Si4 0.660362 0.000000 0.847905
Si Si5 0.736458 0.666983 0.851798
Si Si6 0.982375 0.295056 0.205826
Si Si7 0.229077 0.332458 0.869014
Si Si8 0.984606 0.799980 0.201089
O O1 0.152008 0.568452 0.196781
O O2 0.001957 0.587618 0.267502
O O3 0.219339 0.540846 0.804733
O O4 0.242700 0.619223 0.812057
O O5 0.783667 0.541111 0.676161
O O6 0.764714 0.619771 0.761298
O O7 0.793456 0.500000 0.413941
O O8 0.000999 0.500000 0.187620
O O9 0.832051 0.695669 0.561234
O O10 0.753310 0.677657 0.991990
O O11 0.584856 0.675613 0.107180
O O12 0.014312 0.247586 0.154405
O O13 0.000000 0.309966 0.000000
O O14 0.081297 0.318611 0.118106
O O15 0.334887 0.308814 0.556046
O O16 0.000000 0.814811 0.000000
#
# Coordination Sequence:
#
# PCOD8114825 Si02
#       8
#     8   8   4   4   8   8   8   8
#     4   9  17  32  52  77 109 142 178 223 275 324
#     4   9  17  32  52  77 109 142 178 223 275 324
#     4   9  17  27  45  78 111 140 177 218 266 324
#     4   9  17  27  45  78 111 140 177 218 266 324
#     4  11  22  38  60  85 111 146 192 235 276 329
#     4  11  23  39  59  82 113 148 185 233 286 337
#     4  11  22  38  60  85 111 146 192 235 276 329
#     4  11  25  41  55  80 115 152 187 227 288 341
#
# _framework density 19.074570999999999
#
# number of rings (size 3 to 8) (size 9 to 14) (size 15 to 20)
#    0.000    1.857    1.429    3.000    0.000    9.714 
#    0.000    0.000    0.000    0.857    0.000    6.000 
#    0.000    0.000    0.000    0.000    0.000    0.000 
#
# Total GULP energy -347296.793623 kJ/mol
# GULP energy per Si atom -12403.456915 kJ/mol
# Density = 1.903116 g / cm^3
# Si number density = 19.074571 Si / 1000 Ang^3
#
#
#
# Elastic Constant Matrix: (Units=GPa)
#
#
# Indices 1 2 3 4 5 6 
#
# 1 81.9870 43.7713 12.4212 0.0000 12.0199 0.0000
# 2 43.7713 99.8839 16.7877 0.0000 15.2680 0.0000
# 3 12.4212 16.7877 56.9929 0.0000 12.2485 0.0000
# 4 0.0000 0.0000 0.0000 16.1430 0.0000 4.3686
# 5 12.0199 15.2680 12.2485 0.0000 29.3552 0.0000
# 6 0.0000 0.0000 0.0000 4.3686 0.0000 21.4055
#
#
#
# Elastic Compliance Matrix: (Units=1/GPa)
#
#
# Indices 1 2 3 4 5 6 
#
# 1 0.016245 -0.006515 -0.001011 0.000000 -0.002842 0.000000
# 2 -0.006515 0.013742 -0.001829 0.000000 -0.003717 0.000000
# 3 -0.001011 -0.001829 0.019786 0.000000 -0.006890 0.000000
# 4 0.000000 0.000000 0.000000 0.065568 0.000000 -0.013381
# 5 -0.002842 -0.003717 -0.006890 0.000000 0.040037 0.000000
# 6 0.000000 0.000000 0.000000 -0.013381 0.000000 0.049448
#
#
# Mechanical properties :
#
#
# Convention : Reuss Voigt Hill
#
# Bulk Modulus (GPa) = 32.19215 42.75826 37.47521
# Shear Modulus (GPa) = 21.37763 24.43965 22.90864
#
# Velocity S-wave (km/s) = 3.35138 3.58336 3.46931
# Velocity P-wave (km/s) = 5.64706 6.29172 5.97808
#
# Compressibility (1/GPa) = 0.03106347
#
# Stress axis : x y z
#
# Youngs Moduli (GPa) = 61.55817 72.76945 50.54084
#
# Poissons Ratio (x) = 0.47406 0.05109
# Poissons Ratio (y) = 0.40103 0.09245
# Poissons Ratio (z) = 0.06222 0.13311
#
# Static dielectric constant tensor:
#      x y z
#    x 3.418820 0.000000 0.184100 
#    y 0.000000 3.588110 0.000000 
#    z 0.184100 0.000000 3.213640 
# 
# 
# High freq. dielectric constant tensor:
#      x y z
#    x 1.739440 0.000000 0.020630 
#    y 0.000000 1.754210 0.000000 
#    z 0.020630 0.000000 1.713710 
# 
# From -- ./inp_files/91599.got.cif
#   From: 2010.06.25/outbox.cif.g09.slc.cpg/sg12_46_cif.got.tgz:91599.got - 2010.06.28 00:19:55.
