data_PCOD8114256
_publ_section_title
;
Structure prediction by ZEFSAII (Michael W. Deem and Ramdas Pophale) SiO2 
 PCOD8114256
Probable space group: C 2/M
;
_chemical_formula_sum "Si O2"
_cell_formula_units_Z 64
_cell_length_a 29.029689
_cell_length_b 17.260204
_cell_length_c 12.071482
_cell_angle_alpha 90.000000
_cell_angle_beta 29.038609
_cell_angle_gamma 90.000000
_cell_volume 2935.943308
_symmetry_space_group_name_H-M "C 2/M"
_symmetry_group_IT_number 12
_symmetry_cell_setting 'monoclinic'
loop_
_space_group_symop_operation_xyz
x,y,z
-x,y,-z
-x,-y,-z
x,-y,z
1/2+x,1/2+y,z
1/2-x,1/2+y,-z
1/2-x,1/2-y,-z
1/2+x,1/2-y,z
loop_
_atom_site_type_symbol
_atom_site_label
_atom_site_fract_x
_atom_site_fract_y
_atom_site_fract_z
Si Si1 0.032762 0.637628 0.544644
Si Si2 0.731105 0.839732 0.033676
Si Si3 0.790911 0.409069 0.349352
Si Si4 0.997705 0.585447 0.164279
Si Si5 0.199386 0.339736 0.444018
Si Si6 0.008915 0.813722 0.610155
Si Si7 0.339196 0.411900 0.988555
Si Si8 0.294809 0.329508 0.671594
O O1 0.145233 0.643790 0.297140
O O2 0.999210 0.579650 0.709659
O O3 0.988034 0.722277 0.660655
O O4 0.000000 0.599352 0.500000
O O5 0.816074 0.888884 0.909344
O O6 0.750000 0.750000 0.000000
O O7 0.717797 0.853976 0.929300
O O8 0.781488 0.500000 0.396697
O O9 0.758997 0.355789 0.520494
O O10 0.720280 0.390762 0.395430
O O11 0.900441 0.386410 0.093562
O O12 0.974057 0.500000 0.166163
O O13 0.914269 0.645438 0.308711
O O14 0.249094 0.400729 0.258005
O O15 0.220556 0.254407 0.352118
O O16 0.105905 0.835146 0.470647
O O17 0.000000 0.839566 0.500000
O O18 0.925787 0.858706 0.850109
O O19 0.372547 0.500000 0.921009
#
# Coordination Sequence:
#
# PCOD8114256 Si02
#       8
#     8   8   8   8   8   8   8   8
#     4  11  21  35  63  94 132 173 203 270 336 400
#     4  12  19  40  64  94 136 172 216 273 333 393
#     4  11  27  46  68  97 138 178 222 289 344 394
#     4  11  22  41  67  96 132 173 221 275 341 405
#     4  12  24  45  70  98 131 177 229 282 330 405
#     4  11  22  41  64  94 134 175 217 271 329 391
#     4  12  25  39  66  98 132 180 222 270 332 404
#     4  12  24  43  72 101 129 180 231 276 335 399
#
# _framework density 21.798787000000001
#
# number of rings (size 3 to 8) (size 9 to 14) (size 15 to 20)
#    0.000    0.500    6.250    3.375    1.750    2.500 
#    0.000    0.625    0.000    1.500    0.000    0.000 
#    0.000    0.000    0.000    0.000    0.000    0.000 
#
# Total GULP energy -396535.358258 kJ/mol
# GULP energy per Si atom -12391.729946 kJ/mol
# Density = 2.174917 g / cm^3
# Si number density = 21.798787 Si / 1000 Ang^3
#
#
#
# Elastic Constant Matrix: (Units=GPa)
#
#
# Indices 1 2 3 4 5 6 
#
# 1 120.6069 37.3148 42.3725 0.0000 27.9359 0.0000
# 2 37.3148 76.1214 36.8731 0.0000 2.5757 0.0000
# 3 42.3725 36.8731 77.6964 0.0000 15.7460 0.0000
# 4 0.0000 0.0000 0.0000 18.5591 0.0000 -2.7298
# 5 27.9359 2.5757 15.7460 0.0000 37.0222 0.0000
# 6 0.0000 0.0000 0.0000 -2.7298 0.0000 21.3250
#
#
#
# Elastic Compliance Matrix: (Units=1/GPa)
#
#
# Indices 1 2 3 4 5 6 
#
# 1 0.012575 -0.004344 -0.003211 0.000000 -0.007821 0.000000
# 2 -0.004344 0.018768 -0.007592 0.000000 0.005201 0.000000
# 3 -0.003211 -0.007592 0.019289 0.000000 -0.005253 0.000000
# 4 0.000000 0.000000 0.000000 0.054916 0.000000 0.007030
# 5 -0.007821 0.005201 -0.005253 0.000000 0.034784 0.000000
# 6 0.000000 0.000000 0.000000 0.007030 0.000000 0.047793
#
#
# Mechanical properties :
#
#
# Convention : Reuss Voigt Hill
#
# Bulk Modulus (GPa) = 49.16956 56.39394 52.78175
# Shear Modulus (GPa) = 22.20249 25.90553 24.05401
#
# Velocity S-wave (km/s) = 3.19489 3.45105 3.32544
# Velocity P-wave (km/s) = 6.01787 6.46576 6.24583
#
# Compressibility (1/GPa) = 0.02033779
#
# Stress axis : x y z
#
# Youngs Moduli (GPa) = 79.52153 53.28251 51.84198
#
# Poissons Ratio (x) = 0.23147 0.16649
# Poissons Ratio (y) = 0.34545 0.39357
# Poissons Ratio (z) = 0.25538 0.40451
#
# Static dielectric constant tensor:
#      x y z
#    x 4.228520 0.000000 0.369630 
#    y 0.000000 3.680490 0.000000 
#    z 0.369630 0.000000 4.518290 
# 
# 
# High freq. dielectric constant tensor:
#      x y z
#    x 1.865340 0.000000 0.007280 
#    y 0.000000 1.834670 0.000000 
#    z 0.007280 0.000000 1.856120 
# 
# From -- ./inp_files/190027.got.cif
#   From: 2010.06.25/outbox.cif.g09.slc.cpg/sg12_96_cif.got.tgz:190027.got - 2010.06.28 00:19:55.
