data_PCOD8114675
_publ_section_title
;
Structure prediction by ZEFSAII (Michael W. Deem and Ramdas Pophale) SiO2 
 PCOD8114675
Probable space group: C 2/M
;
_chemical_formula_sum "Si O2"
_cell_formula_units_Z 56
_cell_length_a 19.824048
_cell_length_b 8.607897
_cell_length_c 21.105367
_cell_angle_alpha 90.000000
_cell_angle_beta 54.910465
_cell_angle_gamma 90.000000
_cell_volume 2946.936881
_symmetry_space_group_name_H-M "C 2/M"
_symmetry_group_IT_number 12
_symmetry_cell_setting 'monoclinic'
loop_
_space_group_symop_operation_xyz
x,y,z
-x,y,-z
-x,-y,-z
x,-y,z
1/2+x,1/2+y,z
1/2-x,1/2+y,-z
1/2-x,1/2-y,-z
1/2+x,1/2-y,z
loop_
_atom_site_type_symbol
_atom_site_label
_atom_site_fract_x
_atom_site_fract_y
_atom_site_fract_z
Si Si1 0.309917 0.813925 0.157607
Si Si2 0.593628 0.681734 0.441988
Si Si3 0.663733 0.182560 0.526820
Si Si4 0.137778 0.317757 0.285647
Si Si5 0.427023 0.168567 0.990163
Si Si6 0.025810 0.316180 0.696295
Si Si7 0.452275 0.185903 0.174486
O O1 0.223686 0.726438 0.207471
O O2 0.351947 0.750545 0.069179
O O3 0.366633 0.764579 0.187130
O O4 0.298520 0.000000 0.162404
O O5 0.500000 0.739312 0.500000
O O6 0.601953 0.500000 0.450435
O O7 0.648253 0.772408 0.462949
O O8 0.628295 0.721117 0.354708
O O9 0.750000 0.250000 0.500000
O O10 0.592236 0.252513 0.610833
O O11 0.666340 0.000000 0.532409
O O12 0.133215 0.500000 0.303454
O O13 0.065375 0.267217 0.276670
O O14 0.394463 0.000000 0.985399
O O15 0.500000 0.143047 0.000000
O O16 0.467571 0.255539 0.907248
O O17 0.034065 0.500000 0.694533
O O18 0.044661 0.246974 0.755909
O O19 0.459176 0.000000 0.169334
#
# Coordination Sequence:
#
# PCOD8114675 Si02
#       7
#     8   8   8   8   8   8   8
#     4   9  17  30  53  82 106 132 176 230 269 310
#     4  11  23  40  61  81 103 140 187 229 275 326
#     4  11  23  39  58  83 114 145 182 226 273 323
#     4  11  22  36  53  76 109 145 179 217 270 331
#     4   7  11  23  46  76 104 131 170 221 269 309
#     4   9  19  34  51  73 106 145 179 216 265 320
#     4   8  14  28  52  78 103 135 178 223 265 316
#
# _framework density 19.002782
#
# number of rings (size 3 to 8) (size 9 to 14) (size 15 to 20)
#    0.000    2.571    1.429    3.000    2.000    0.571 
#    0.000    0.714    0.000    5.571    0.000    0.000 
#    0.000    0.000    0.000    0.000    0.000    0.000 
#
# Total GULP energy -347003.524475 kJ/mol
# GULP energy per Si atom -12392.983017 kJ/mol
# Density = 1.895953 g / cm^3
# Si number density = 19.002782 Si / 1000 Ang^3
#
#
#
# Elastic Constant Matrix: (Units=GPa)
#
#
# Indices 1 2 3 4 5 6 
#
# 1 123.5018 21.4933 55.5920 0.0000 -10.7519 -0.0003
# 2 21.4933 30.0720 14.2562 -0.0001 -3.8604 -0.0003
# 3 55.5920 14.2562 111.8737 0.0000 -15.2225 0.0001
# 4 0.0000 -0.0001 0.0000 13.5671 0.0001 -7.7103
# 5 -10.7519 -3.8604 -15.2225 0.0001 36.1504 0.0000
# 6 -0.0003 -0.0003 0.0001 -7.7103 0.0000 19.9223
#
#
#
# Elastic Compliance Matrix: (Units=1/GPa)
#
#
# Indices 1 2 3 4 5 6 
#
# 1 0.011314 -0.005720 -0.004793 0.000000 0.000736 0.000000
# 2 -0.005720 0.038419 -0.001832 0.000001 0.001630 0.000001
# 3 -0.004793 -0.001832 0.012022 0.000000 0.003441 0.000000
# 4 0.000000 0.000001 0.000000 0.094490 0.000000 0.036569
# 5 0.000736 0.001630 0.003441 0.000000 0.029504 0.000000
# 6 0.000000 0.000001 0.000000 0.036569 0.000000 0.064348
#
#
# Mechanical properties :
#
#
# Convention : Reuss Voigt Hill
#
# Bulk Modulus (GPa) = 26.97878 49.79225 38.38551
# Shear Modulus (GPa) = 17.41294 25.53502 21.47398
#
# Velocity S-wave (km/s) = 3.03039 3.66970 3.36526
# Velocity P-wave (km/s) = 5.14514 6.64944 5.94506
#
# Compressibility (1/GPa) = 0.03706617
#
# Stress axis : x y z
#
# Youngs Moduli (GPa) = 88.38543 26.02861 83.18008
#
# Poissons Ratio (x) = 0.14888 0.39870
# Poissons Ratio (y) = 0.50554 0.15236
# Poissons Ratio (z) = 0.42365 0.04768
#
# Static dielectric constant tensor:
#      x y z
#    x 3.447650 0.000000 -0.044580 
#    y 0.000000 3.031440 0.000000 
#    z -0.044580 0.000000 3.905890 
# 
# 
# High freq. dielectric constant tensor:
#      x y z
#    x 1.727520 0.000000 -0.003490 
#    y 0.000000 1.694450 0.000000 
#    z -0.003490 0.000000 1.757330 
# 
# From -- ./inp_files/275073.got.cif
#   From: 2010.06.25/outbox.cif.g09.slc.cpg/sg12_138_cif.got.tgz:275073.got - 2010.06.28 00:19:55.
