data_PCOD8114400
_publ_section_title
;
Structure prediction by ZEFSAII (Michael W. Deem and Ramdas Pophale) SiO2 
 PCOD8114400
Probable space group: C 2/M
;
_chemical_formula_sum "Si O2"
_cell_formula_units_Z 40
_cell_length_a 15.906684
_cell_length_b 24.983483
_cell_length_c 9.402146
_cell_angle_alpha 90.000000
_cell_angle_beta 30.478586
_cell_angle_gamma 90.000000
_cell_volume 1895.190316
_symmetry_space_group_name_H-M "C 2/M"
_symmetry_group_IT_number 12
_symmetry_cell_setting 'monoclinic'
loop_
_space_group_symop_operation_xyz
x,y,z
-x,y,-z
-x,-y,-z
x,-y,z
1/2+x,1/2+y,z
1/2-x,1/2+y,-z
1/2-x,1/2-y,-z
1/2+x,1/2-y,z
loop_
_atom_site_type_symbol
_atom_site_label
_atom_site_fract_x
_atom_site_fract_y
_atom_site_fract_z
Si Si1 0.245980 0.097430 0.195444
Si Si2 0.938565 0.904963 0.825580
Si Si3 0.937153 0.500000 0.826411
Si Si4 0.172481 0.213991 0.333554
Si Si5 0.745401 0.500000 0.807779
Si Si6 0.462613 0.287500 0.894365
O O1 0.187332 0.101947 0.119614
O O2 0.283398 0.159400 0.182402
O O3 0.111880 0.075731 0.504287
O O4 0.396427 0.054173 0.976973
O O5 0.948032 0.850893 0.901136
O O6 0.871872 0.948430 0.034074
O O7 0.833435 0.500000 0.832491
O O8 0.130532 0.500000 0.506461
O O9 0.000000 0.202818 0.500000
O O10 0.113143 0.232886 0.576312
O O11 0.288397 0.260198 0.099449
O O12 0.500000 0.269924 0.000000
#
# Coordination Sequence:
#
# PCOD8114400 Si02
#       6
#     8   8   4   8   4   8
#     4   9  16  31  52  77 106 140 182 224 266 327
#     4   9  17  32  51  75 106 143 182 218 270 327
#     4   9  17  27  47  82 111 134 170 230 285 310
#     4  11  21  38  58  84 109 149 193 230 272 329
#     4   9  17  29  46  78 112 138 173 224 276 324
#     4  11  23  38  56  83 116 149 185 230 282 330
#
# _framework density 21.106058999999998
#
# number of rings (size 3 to 8) (size 9 to 14) (size 15 to 20)
#    0.000    2.200    4.000    1.800    0.000    4.000 
#    3.600    0.500    0.000    0.000    0.000    6.300 
#    0.000    0.000    0.000    0.000    0.000    0.000 
#
# Total GULP energy -247810.890809 kJ/mol
# GULP energy per Si atom -12390.544540 kJ/mol
# Density = 2.105802 g / cm^3
# Si number density = 21.106059 Si / 1000 Ang^3
#
#
#
# Elastic Constant Matrix: (Units=GPa)
#
#
# Indices 1 2 3 4 5 6 
#
# 1 24.5432 11.1180 14.6788 0.0002 5.8600 -0.0005
# 2 11.1180 89.6060 63.4034 0.0002 -6.2094 -0.0007
# 3 14.6788 63.4034 130.0853 0.0001 4.2582 -0.0005
# 4 0.0002 0.0002 0.0001 42.5307 -0.0002 4.7558
# 5 5.8600 -6.2094 4.2582 -0.0002 19.1407 0.0005
# 6 -0.0005 -0.0007 -0.0005 4.7558 0.0005 8.1950
#
#
#
# Elastic Compliance Matrix: (Units=1/GPa)
#
#
# Indices 1 2 3 4 5 6 
#
# 1 0.048446 -0.005548 -0.002234 -0.000001 -0.016135 0.000004
# 2 -0.005548 0.018787 -0.008850 0.000000 0.009762 0.000000
# 3 -0.002234 -0.008850 0.012415 0.000000 -0.004949 0.000000
# 4 -0.000001 0.000000 0.000000 0.025144 0.000001 -0.014592
# 5 -0.016135 0.009762 -0.004949 0.000001 0.061452 -0.000004
# 6 0.000004 0.000000 0.000000 -0.014592 -0.000004 0.130493
#
#
# Mechanical properties :
#
#
# Convention : Reuss Voigt Hill
#
# Bulk Modulus (GPa) = 21.55967 46.95944 34.25956
# Shear Modulus (GPa) = 14.47325 24.30891 19.39108
#
# Velocity S-wave (km/s) = 2.62150 3.39743 3.03437
# Velocity P-wave (km/s) = 4.40456 6.13902 5.34264
#
# Compressibility (1/GPa) = 0.04638289
#
# Stress axis : x y z
#
# Youngs Moduli (GPa) = 20.64136 53.22778 80.54744
#
# Poissons Ratio (x) = 0.29532 0.17997
# Poissons Ratio (y) = 0.11452 0.71287
# Poissons Ratio (z) = 0.04612 0.47108
#
# Static dielectric constant tensor:
#      x y z
#    x 3.191980 0.000000 0.106380 
#    y 0.000000 3.948130 0.000000 
#    z 0.106380 0.000000 4.105870 
# 
# 
# High freq. dielectric constant tensor:
#      x y z
#    x 1.771720 0.000000 0.015580 
#    y 0.000000 1.833720 0.000000 
#    z 0.015580 0.000000 1.836800 
# 
# From -- ./inp_files/79782.got.cif
#   From: 2010.06.25/outbox.cif.g09.slc.cpg/sg12_40_cif.got.tgz:79782.got - 2010.06.28 00:19:55.
