data_PCOD8114436
_publ_section_title
;
Structure prediction by ZEFSAII (Michael W. Deem and Ramdas Pophale) SiO2 
 PCOD8114436
Probable space group: C 2/M
;
_chemical_formula_sum "Si O2"
_cell_formula_units_Z 56
_cell_length_a 15.248969
_cell_length_b 16.705444
_cell_length_c 20.524633
_cell_angle_alpha 90.000000
_cell_angle_beta 149.318186
_cell_angle_gamma 90.000000
_cell_volume 2667.926834
_symmetry_space_group_name_H-M "C 2/M"
_symmetry_group_IT_number 12
_symmetry_cell_setting 'monoclinic'
loop_
_space_group_symop_operation_xyz
x,y,z
-x,y,-z
-x,-y,-z
x,-y,z
1/2+x,1/2+y,z
1/2-x,1/2+y,-z
1/2-x,1/2-y,-z
1/2+x,1/2-y,z
loop_
_atom_site_type_symbol
_atom_site_label
_atom_site_fract_x
_atom_site_fract_y
_atom_site_fract_z
Si Si1 0.060770 0.218699 0.200224
Si Si2 0.506485 0.351748 0.580773
Si Si3 0.662874 0.091773 0.423177
Si Si4 0.887060 0.317691 0.484000
Si Si5 0.860929 0.701440 0.178032
Si Si6 0.158234 0.682871 0.142983
Si Si7 0.563191 0.591262 0.966804
O O1 0.228774 0.228025 0.350744
O O2 0.059114 0.284153 0.142516
O O3 0.902003 0.234651 0.147523
O O4 0.060271 0.131603 0.165859
O O5 0.500000 0.372705 0.500000
O O6 0.353448 0.400452 0.516360
O O7 0.491153 0.255836 0.584091
O O8 0.688832 0.376213 0.732603
O O9 0.672388 0.112737 0.505700
O O10 0.534004 0.156993 0.311438
O O11 0.599383 0.000000 0.373613
O O12 0.000000 0.359667 0.500000
O O13 0.749767 0.745388 0.162107
O O14 0.747913 0.630936 0.075546
O O15 0.000000 0.642709 0.000000
O O16 0.575704 0.500000 0.955073
O O17 0.500000 0.603353 0.000000
#
# Coordination Sequence:
#
# PCOD8114436 Si02
#       7
#     8   8   8   8   8   8   8
#     4  12  21  38  64  92 121 164 221 256 307 381
#     4  11  21  42  66  92 124 162 211 269 310 363
#     4  12  25  40  62  95 129 164 204 257 328 383
#     4  11  21  38  65  89 119 163 209 256 310 376
#     4  12  21  38  64  92 124 162 214 263 305 375
#     4  12  22  37  64  99 118 158 221 263 316 361
#     4  11  24  40  58  88 135 171 200 256 325 384
#
# _framework density 20.990079999999999
#
# number of rings (size 3 to 8) (size 9 to 14) (size 15 to 20)
#    0.000    0.429    8.571    2.143    0.000    1.143 
#    0.000    0.000    0.000    0.429    0.000    0.000 
#    0.000    0.000    0.000    0.000    0.000    0.000 
#
# Total GULP energy -347007.651317 kJ/mol
# GULP energy per Si atom -12393.130404 kJ/mol
# Density = 2.094231 g / cm^3
# Si number density = 20.990080 Si / 1000 Ang^3
#
#
#
# Elastic Constant Matrix: (Units=GPa)
#
#
# Indices 1 2 3 4 5 6 
#
# 1 107.3942 30.1609 13.1667 -0.0007 2.6252 -0.0005
# 2 30.1609 55.2568 1.4519 -0.0037 -3.5835 0.0014
# 3 13.1667 1.4519 122.9032 -0.0046 -0.7318 -0.0004
# 4 -0.0007 -0.0037 -0.0046 18.1629 0.0019 -1.2278
# 5 2.6252 -3.5835 -0.7318 0.0019 25.8784 0.0019
# 6 -0.0005 0.0014 -0.0004 -1.2278 0.0019 8.1985
#
#
#
# Elastic Compliance Matrix: (Units=1/GPa)
#
#
# Indices 1 2 3 4 5 6 
#
# 1 0.011256 -0.006246 -0.001144 -0.000001 -0.002039 0.000002
# 2 -0.006246 0.021732 0.000434 0.000004 0.003655 -0.000004
# 3 -0.001144 0.000434 0.008256 0.000002 0.000410 0.000001
# 4 -0.000001 0.000004 0.000002 0.055620 -0.000004 0.008329
# 5 -0.002039 0.003655 0.000410 -0.000004 0.039367 -0.000011
# 6 0.000002 -0.000004 0.000001 0.008329 -0.000011 0.123221
#
#
# Mechanical properties :
#
#
# Convention : Reuss Voigt Hill
#
# Bulk Modulus (GPa) = 36.58660 41.67923 39.13292
# Shear Modulus (GPa) = 17.70068 26.49961 22.10014
#
# Velocity S-wave (km/s) = 2.90709 3.55700 3.24834
# Velocity P-wave (km/s) = 5.36064 6.06378 5.72302
#
# Compressibility (1/GPa) = 0.02733241
#
# Stress axis : x y z
#
# Youngs Moduli (GPa) = 88.84369 46.01476 121.11863
#
# Poissons Ratio (x) = 0.28740 0.13858
# Poissons Ratio (y) = 0.55491 -0.05258
# Poissons Ratio (z) = 0.10165 -0.01998
#
# Static dielectric constant tensor:
#      x y z
#    x 4.529090 -0.000010 0.176400 
#    y -0.000010 3.342120 -0.000010 
#    z 0.176400 -0.000010 4.219110 
# 
# 
# High freq. dielectric constant tensor:
#      x y z
#    x 1.837320 0.000000 0.001620 
#    y 0.000000 1.768510 0.000000 
#    z 0.001620 0.000000 1.840070 
# 
# From -- ./inp_files/311727.got.cif
#   From: 2010.06.25/outbox.cif.g09.slc.cpg/sg12_156_cif.got.tgz:311727.got - 2010.06.28 00:19:55.
