data_PCOD8114495
_publ_section_title
;
Structure prediction by ZEFSAII (Michael W. Deem and Ramdas Pophale) SiO2 
 PCOD8114495
Probable space group: C 2/M
;
_chemical_formula_sum "Si O2"
_cell_formula_units_Z 60
_cell_length_a 15.180695
_cell_length_b 17.827746
_cell_length_c 12.058984
_cell_angle_alpha 90.000000
_cell_angle_beta 114.493131
_cell_angle_gamma 90.000000
_cell_volume 2969.924741
_symmetry_space_group_name_H-M "C 2/M"
_symmetry_group_IT_number 12
_symmetry_cell_setting 'monoclinic'
loop_
_space_group_symop_operation_xyz
x,y,z
-x,y,-z
-x,-y,-z
x,-y,z
1/2+x,1/2+y,z
1/2-x,1/2+y,-z
1/2-x,1/2-y,-z
1/2+x,1/2-y,z
loop_
_atom_site_type_symbol
_atom_site_label
_atom_site_fract_x
_atom_site_fract_y
_atom_site_fract_z
Si Si1 0.686422 0.337888 0.638840
Si Si2 0.041069 0.587162 0.635811
Si Si3 0.000000 0.703498 0.000000
Si Si4 0.732418 0.824695 0.733568
Si Si5 0.905053 0.341537 0.736813
Si Si6 0.163327 0.801988 0.995201
Si Si7 0.888605 0.175186 0.643165
Si Si8 0.581052 0.412162 0.777101
O O1 0.692302 0.259983 0.708886
O O2 0.794028 0.367926 0.669266
O O3 0.626338 0.325553 0.495773
O O4 0.629054 0.397891 0.682422
O O5 0.057405 0.500000 0.629884
O O6 0.144621 0.621589 0.715824
O O7 0.000000 0.622183 0.500000
O O8 0.968687 0.601631 0.698956
O O9 0.936216 0.653282 0.882557
O O10 0.066611 0.753277 0.954708
O O11 0.786763 0.846869 0.648015
O O12 0.811265 0.834571 0.871112
O O13 0.919494 0.257952 0.697430
O O14 0.145230 0.870957 0.903444
O O15 0.250000 0.750000 0.000000
O O16 0.970966 0.116692 0.720389
O O17 0.580825 0.500000 0.803283
#
# Coordination Sequence:
#
# PCOD8114495 Si02
#       8
#     8   8   4   8   8   8   8   8
#     4  11  22  39  64  95 124 165 211 264 307 365
#     4  11  24  40  59  89 130 167 200 252 317 375
#     4  12  20  40  68  92 118 156 208 266 318 352
#     4  11  21  40  66  93 120 161 222 261 305 366
#     4  11  21  40  66  94 118 160 218 264 306 367
#     4  12  21  42  66  90 124 166 209 260 310 365
#     4  11  22  39  65  92 126 164 211 261 310 364
#     4  12  26  42  62  96 132 168 207 252 320 391
#
# _framework density 20.202531
#
# number of rings (size 3 to 8) (size 9 to 14) (size 15 to 20)
#    0.000    0.667    5.333    5.200    0.000    2.667 
#    0.000    2.667    0.000    0.000    0.000    0.000 
#    0.000    0.000    0.000    0.000    0.000    0.000 
#
# Total GULP energy -372168.209810 kJ/mol
# GULP energy per Si atom -12405.606994 kJ/mol
# Density = 2.015655 g / cm^3
# Si number density = 20.202531 Si / 1000 Ang^3
#
#
#
# Elastic Constant Matrix: (Units=GPa)
#
#
# Indices 1 2 3 4 5 6 
#
# 1 96.4948 29.4379 -14.2795 0.0000 2.5399 0.0000
# 2 29.4379 58.7635 7.9139 0.0000 7.4268 0.0000
# 3 -14.2795 7.9139 101.7849 0.0000 5.1295 0.0000
# 4 0.0000 0.0000 0.0000 21.5572 0.0000 -1.4765
# 5 2.5399 7.4268 5.1295 0.0000 33.8256 0.0000
# 6 0.0000 0.0000 0.0000 -1.4765 0.0000 15.0368
#
#
#
# Elastic Compliance Matrix: (Units=1/GPa)
#
#
# Indices 1 2 3 4 5 6 
#
# 1 0.012749 -0.006718 0.002302 0.000000 0.000169 0.000000
# 2 -0.006718 0.021184 -0.002399 0.000000 -0.003783 0.000000
# 3 0.002302 -0.002399 0.010396 0.000000 -0.001223 0.000000
# 4 0.000000 0.000000 0.000000 0.046702 0.000000 0.004586
# 5 0.000169 -0.003783 -0.001223 0.000000 0.030567 0.000000
# 6 0.000000 0.000000 0.000000 0.004586 0.000000 0.066954
#
#
# Mechanical properties :
#
#
# Convention : Reuss Voigt Hill
#
# Bulk Modulus (GPa) = 32.57366 33.68753 33.13059
# Shear Modulus (GPa) = 23.53892 29.68197 26.61045
#
# Velocity S-wave (km/s) = 3.41713 3.83720 3.63324
# Velocity P-wave (km/s) = 5.63272 6.02854 5.83399
#
# Compressibility (1/GPa) = 0.03069966
#
# Stress axis : x y z
#
# Youngs Moduli (GPa) = 78.43734 47.20544 96.19285
#
# Poissons Ratio (x) = 0.31713 -0.22148
# Poissons Ratio (y) = 0.52695 0.23076
# Poissons Ratio (z) = -0.18060 0.11324
#
# Static dielectric constant tensor:
#      x y z
#    x 3.781550 0.000000 -0.023660 
#    y 0.000000 3.300070 0.000000 
#    z -0.023660 0.000000 3.953450 
# 
# 
# High freq. dielectric constant tensor:
#      x y z
#    x 1.806680 0.000000 0.001190 
#    y 0.000000 1.751350 0.000000 
#    z 0.001190 0.000000 1.808560 
# 
# From -- ./inp_files/146200.got.cif
#   From: 2010.06.25/outbox.cif.g09.slc.cpg/sg12_74_cif.got.tgz:146200.got - 2010.06.28 00:19:55.
