data_PCOD8114325
_publ_section_title
;
Structure prediction by ZEFSAII (Michael W. Deem and Ramdas Pophale) SiO2 
 PCOD8114325
Probable space group: C 2/M
;
_chemical_formula_sum "Si O2"
_cell_formula_units_Z 36
_cell_length_a 15.124579
_cell_length_b 17.443171
_cell_length_c 15.119446
_cell_angle_alpha 90.000000
_cell_angle_beta 26.959585
_cell_angle_gamma 90.000000
_cell_volume 1808.379706
_symmetry_space_group_name_H-M "C 2/M"
_symmetry_group_IT_number 12
_symmetry_cell_setting 'monoclinic'
loop_
_space_group_symop_operation_xyz
x,y,z
-x,y,-z
-x,-y,-z
x,-y,z
1/2+x,1/2+y,z
1/2-x,1/2+y,-z
1/2-x,1/2-y,-z
1/2+x,1/2-y,z
loop_
_atom_site_type_symbol
_atom_site_label
_atom_site_fract_x
_atom_site_fract_y
_atom_site_fract_z
Si Si1 0.000000 0.291937 0.500000
Si Si2 0.371514 0.307073 0.452887
Si Si3 0.436227 0.913678 0.309210
Si Si4 0.874949 0.088783 0.893956
Si Si5 0.263373 0.584995 0.321951
O O1 0.977648 0.237499 0.436208
O O2 0.813005 0.349180 0.676468
O O3 0.250000 0.250000 0.500000
O O4 0.202644 0.366634 0.634825
O O5 0.544166 0.353637 0.251696
O O6 0.350699 0.904766 0.483767
O O7 0.430477 0.000000 0.280576
O O8 0.657670 0.883437 0.111005
O O9 0.006308 0.095698 0.865720
O O10 0.882985 0.000000 0.853447
O O11 0.222919 0.500000 0.318029
#
# Coordination Sequence:
#
# PCOD8114325 Si02
#       5
#     4   8   8   8   8
#     4  12  21  36  53  86 118 148 180 220 279 336
#     4  11  21  37  55  82 118 147 180 224 280 329
#     4   9  18  37  62  81 105 147 191 229 272 323
#     4   9  18  37  62  81 105 147 191 229 272 323
#     4   9  18  35  57  83 112 144 182 226 275 335
#
# _framework density 19.907323000000002
#
# number of rings (size 3 to 8) (size 9 to 14) (size 15 to 20)
#    0.000    2.222    4.444    2.333    0.000    0.889 
#    0.000    6.667    0.000    8.000    0.000    0.000 
#    0.000    0.000    0.000    0.000    0.000    0.000 
#
# Total GULP energy -223025.868248 kJ/mol
# GULP energy per Si atom -12390.326014 kJ/mol
# Density = 1.986201 g / cm^3
# Si number density = 19.907323 Si / 1000 Ang^3
#
#
#
# Elastic Constant Matrix: (Units=GPa)
#
#
# Indices 1 2 3 4 5 6 
#
# 1 102.4723 60.7387 25.3824 0.0103 -20.8485 0.0054
# 2 60.7387 110.8291 36.1405 0.0606 -20.4675 0.0089
# 3 25.3824 36.1405 104.0567 0.0389 -38.8184 -0.0008
# 4 0.0103 0.0606 0.0389 11.9108 -0.0338 -15.3145
# 5 -20.8485 -20.4675 -38.8184 -0.0338 22.3548 0.0010
# 6 0.0054 0.0089 -0.0008 -15.3145 0.0010 48.5321
#
#
#
# Elastic Compliance Matrix: (Units=1/GPa)
#
#
# Indices 1 2 3 4 5 6 
#
# 1 0.016438 -0.007467 0.004975 0.000093 0.017134 0.000029
# 2 -0.007467 0.014252 -0.002438 -0.000093 0.001852 -0.000031
# 3 0.004975 -0.002438 0.028794 0.000104 0.052409 0.000032
# 4 0.000093 -0.000093 0.000104 0.141280 0.000393 0.044581
# 5 0.017134 0.001852 0.052409 0.000393 0.153415 0.000120
# 6 0.000029 -0.000031 0.000032 0.044581 0.000120 0.034673
#
#
# Mechanical properties :
#
#
# Convention : Reuss Voigt Hill
#
# Bulk Modulus (GPa) = 20.15077 62.43126 41.29101
# Shear Modulus (GPa) = 12.04084 29.56597 20.80340
#
# Velocity S-wave (km/s) = 2.46203 3.85798 3.23617
# Velocity P-wave (km/s) = 4.26924 7.16062 5.89495
#
# Compressibility (1/GPa) = 0.04962590
#
# Stress axis : x y z
#
# Youngs Moduli (GPa) = 60.83379 70.16510 34.72903
#
# Poissons Ratio (x) = 0.52393 -0.17279
# Poissons Ratio (y) = 0.45425 0.08466
# Poissons Ratio (z) = -0.30267 0.17104
#
# Static dielectric constant tensor:
#      x y z
#    x 3.805630 -0.000320 -0.414160 
#    y -0.000320 4.310800 0.000210 
#    z -0.414160 0.000210 3.630420 
# 
# 
# High freq. dielectric constant tensor:
#      x y z
#    x 1.742780 0.000000 -0.040910 
#    y 0.000000 1.800510 0.000010 
#    z -0.040910 0.000010 1.761330 
# 
# From -- ./inp_files/216178.got.cif
#   From: 2010.06.25/outbox.cif.g09.slc.cpg/sg12_109_cif.got.tgz:216178.got - 2010.06.28 00:19:55.
