data_PCOD8114568
_publ_section_title
;
Structure prediction by ZEFSAII (Michael W. Deem and Ramdas Pophale) SiO2 
 PCOD8114568
Probable space group: C 2/M
;
_chemical_formula_sum "Si O2"
_cell_formula_units_Z 56
_cell_length_a 13.588415
_cell_length_b 18.950220
_cell_length_c 20.046151
_cell_angle_alpha 90.000000
_cell_angle_beta 147.843381
_cell_angle_gamma 90.000000
_cell_volume 2747.374365
_symmetry_space_group_name_H-M "C 2/M"
_symmetry_group_IT_number 12
_symmetry_cell_setting 'monoclinic'
loop_
_space_group_symop_operation_xyz
x,y,z
-x,y,-z
-x,-y,-z
x,-y,z
1/2+x,1/2+y,z
1/2-x,1/2+y,-z
1/2-x,1/2-y,-z
1/2+x,1/2-y,z
loop_
_atom_site_type_symbol
_atom_site_label
_atom_site_fract_x
_atom_site_fract_y
_atom_site_fract_z
Si Si1 0.463939 0.222763 0.742723
Si Si2 0.631215 0.632490 0.874480
Si Si3 0.941079 0.919757 0.890782
Si Si4 0.710282 0.791403 0.763234
Si Si5 0.947280 0.337424 0.870662
Si Si6 0.898392 0.920211 0.284305
Si Si7 0.929795 0.802787 0.530867
O O1 0.505275 0.297318 0.801962
O O2 0.635228 0.202453 0.795047
O O3 0.440569 0.164190 0.786341
O O4 0.280489 0.224293 0.591724
O O5 0.603042 0.592779 0.929009
O O6 0.571588 0.584049 0.778093
O O7 0.846152 0.649600 0.986196
O O8 0.771307 0.868848 0.774221
O O9 0.872306 0.000000 0.847370
O O10 0.000000 0.900800 0.000000
O O11 0.555698 0.763668 0.623506
O O12 0.881512 0.737147 0.863347
O O13 0.811353 0.399564 0.816513
O O14 0.044755 0.866924 0.402417
O O15 0.937581 0.000000 0.330260
O O16 0.000000 0.830687 0.500000
#
# Coordination Sequence:
#
# PCOD8114568 Si02
#       7
#     8   8   8   8   8   8   8
#     4  12  22  40  67 101 122 166 218 274 318 376
#     4  12  23  40  70  96 129 164 218 268 324 382
#     4  11  25  43  62  91 135 176 207 255 322 390
#     4  11  23  37  66  93 128 161 218 267 316 377
#     4  11  23  40  63 101 128 163 213 271 322 378
#     4  11  25  42  64  95 133 173 212 264 329 388
#     4  11  21  43  66  94 128 170 217 271 323 370
#
# _framework density 20.383096999999999
#
# number of rings (size 3 to 8) (size 9 to 14) (size 15 to 20)
#    0.000    0.714    7.143    2.571    2.000    2.000 
#    0.000    1.429    0.000    1.286    0.000    0.000 
#    0.000    0.000    0.000    0.000    0.000    0.000 
#
# Total GULP energy -347228.749206 kJ/mol
# GULP energy per Si atom -12401.026757 kJ/mol
# Density = 2.033670 g / cm^3
# Si number density = 20.383097 Si / 1000 Ang^3
#
#
#
# Elastic Constant Matrix: (Units=GPa)
#
#
# Indices 1 2 3 4 5 6 
#
# 1 123.9490 14.1830 13.1068 -0.0070 -14.5749 -0.0005
# 2 14.1830 91.7644 31.1942 -0.0086 14.1395 -0.0012
# 3 13.1068 31.1942 84.4113 -0.0204 0.7800 -0.0042
# 4 -0.0070 -0.0086 -0.0204 13.3301 -0.0031 -2.9481
# 5 -14.5749 14.1395 0.7800 -0.0031 32.2470 0.0002
# 6 -0.0005 -0.0012 -0.0042 -2.9481 0.0002 26.4823
#
#
#
# Elastic Compliance Matrix: (Units=1/GPa)
#
#
# Indices 1 2 3 4 5 6 
#
# 1 0.008935 -0.001883 -0.000737 0.000004 0.004882 0.000000
# 2 -0.001883 0.013858 -0.004766 -0.000001 -0.006812 0.000000
# 3 -0.000737 -0.004766 0.013709 0.000019 0.001425 0.000004
# 4 0.000004 -0.000001 0.000019 0.076912 0.000009 0.008562
# 5 0.004882 -0.006812 0.001425 0.000009 0.036170 0.000001
# 6 0.000000 0.000000 0.000004 0.008562 0.000001 0.038714
#
#
# Mechanical properties :
#
#
# Convention : Reuss Voigt Hill
#
# Bulk Modulus (GPa) = 46.01578 46.34362 46.17970
# Shear Modulus (GPa) = 23.77405 30.52126 27.14765
#
# Velocity S-wave (km/s) = 3.41891 3.87380 3.65344
# Velocity P-wave (km/s) = 6.18140 6.54172 6.36411
#
# Compressibility (1/GPa) = 0.02173168
#
# Stress axis : x y z
#
# Youngs Moduli (GPa) = 111.91642 72.15892 72.94332
#
# Poissons Ratio (x) = 0.13586 0.05374
# Poissons Ratio (y) = 0.21072 0.34765
# Poissons Ratio (z) = 0.08245 0.34391
#
# Static dielectric constant tensor:
#      x y z
#    x 3.986060 0.000000 -0.077260 
#    y 0.000000 3.492580 0.000000 
#    z -0.077260 0.000000 3.630460 
# 
# 
# High freq. dielectric constant tensor:
#      x y z
#    x 1.823900 0.000000 -0.010760 
#    y 0.000000 1.771670 0.000000 
#    z -0.010760 0.000000 1.786510 
# 
# From -- ./inp_files/311758.got.cif
#   From: 2010.06.25/outbox.cif.g09.slc.cpg/sg12_156_cif.got.tgz:311758.got - 2010.06.28 00:19:55.
