data_PCOD8114864
_publ_section_title
;
Structure prediction by ZEFSAII (Michael W. Deem and Ramdas Pophale) SiO2 
 PCOD8114864
Probable space group: C 2/M
;
_chemical_formula_sum "Si O2"
_cell_formula_units_Z 56
_cell_length_a 14.843370
_cell_length_b 29.406863
_cell_length_c 11.935135
_cell_angle_alpha 90.000000
_cell_angle_beta 28.897244
_cell_angle_gamma 90.000000
_cell_volume 2517.512683
_symmetry_space_group_name_H-M "C 2/M"
_symmetry_group_IT_number 12
_symmetry_cell_setting 'monoclinic'
loop_
_space_group_symop_operation_xyz
x,y,z
-x,y,-z
-x,-y,-z
x,-y,z
1/2+x,1/2+y,z
1/2-x,1/2+y,-z
1/2-x,1/2-y,-z
1/2+x,1/2-y,z
loop_
_atom_site_type_symbol
_atom_site_label
_atom_site_fract_x
_atom_site_fract_y
_atom_site_fract_z
Si Si1 0.882334 0.810792 0.738367
Si Si2 0.286904 0.447934 0.707633
Si Si3 0.992005 0.268850 0.887175
Si Si4 0.464099 0.448390 0.914504
Si Si5 0.197973 0.403416 0.025392
Si Si6 0.325260 0.309947 0.403460
Si Si7 0.282160 0.092156 0.450594
O O1 0.000000 0.822371 0.500000
O O2 0.034657 0.790514 0.655325
O O3 0.727798 0.770757 0.901727
O O4 0.781320 0.856321 0.891304
O O5 0.500000 0.436791 0.500000
O O6 0.252451 0.500000 0.709172
O O7 0.208893 0.415123 0.693922
O O8 0.187749 0.439097 0.933727
O O9 0.112658 0.297697 0.666271
O O10 0.089028 0.218385 0.794881
O O11 0.000000 0.292848 0.000000
O O12 0.392179 0.500000 0.001923
O O13 0.662623 0.448822 0.633418
O O14 0.500000 0.427976 0.000000
O O15 0.309253 0.420665 0.013016
O O16 0.980240 0.400206 0.294699
O O17 0.342945 0.364018 0.377862
#
# Coordination Sequence:
#
# PCOD8114864 Si02
#       7
#     8   8   8   8   8   8   8
#     4  12  22  40  68  99 131 175 212 265 341 410
#     4  11  22  38  64 102 139 171 211 266 341 408
#     4  11  24  41  66  96 129 171 219 275 325 401
#     4  11  26  47  69  93 128 181 235 280 329 389
#     4  12  24  40  69 102 137 174 217 276 337 408
#     4  11  23  42  65  92 133 171 219 267 328 398
#     4  12  24  42  69  99 135 180 218 275 339 407
#
# _framework density 22.244178000000002
#
# number of rings (size 3 to 8) (size 9 to 14) (size 15 to 20)
#    0.000    0.571    5.714    3.000    0.000    4.000 
#    0.000    1.429    0.000    0.000    0.000    0.000 
#    0.000    0.000    0.000    0.000    0.000    0.000 
#
# Total GULP energy -346979.721384 kJ/mol
# GULP energy per Si atom -12392.132907 kJ/mol
# Density = 2.219355 g / cm^3
# Si number density = 22.244178 Si / 1000 Ang^3
#
#
#
# Elastic Constant Matrix: (Units=GPa)
#
#
# Indices 1 2 3 4 5 6 
#
# 1 116.8111 20.0634 57.4540 -0.0006 -4.1792 0.0003
# 2 20.0634 86.0389 23.0913 -0.0004 -1.8379 0.0000
# 3 57.4540 23.0913 104.1097 -0.0012 -21.9082 0.0006
# 4 -0.0006 -0.0004 -0.0012 2.8164 0.0003 4.9273
# 5 -4.1792 -1.8379 -21.9082 0.0003 39.4645 -0.0005
# 6 0.0003 0.0000 0.0006 4.9273 -0.0005 23.9461
#
#
#
# Elastic Compliance Matrix: (Units=1/GPa)
#
#
# Indices 1 2 3 4 5 6 
#
# 1 0.012083 -0.000994 -0.007006 -0.000001 -0.002656 0.000000
# 2 -0.000994 0.012480 -0.002400 0.000001 -0.000856 0.000000
# 3 -0.007006 -0.002400 0.015653 0.000007 0.007836 -0.000002
# 4 -0.000001 0.000001 0.000007 0.554776 -0.000002 -0.114154
# 5 -0.002656 -0.000856 0.007836 -0.000002 0.029368 0.000001
# 6 0.000000 0.000000 -0.000002 -0.114154 0.000001 0.065250
#
#
# Mechanical properties :
#
#
# Convention : Reuss Voigt Hill
#
# Bulk Modulus (GPa) = 51.50493 56.46412 53.98452
# Shear Modulus (GPa) = 6.97465 27.00215 16.98840
#
# Velocity S-wave (km/s) = 1.77265 3.48788 2.76655
# Velocity P-wave (km/s) = 5.23396 6.45440 5.87595
#
# Compressibility (1/GPa) = 0.01941562
#
# Stress axis : x y z
#
# Youngs Moduli (GPa) = 82.76324 80.12707 63.88538
#
# Poissons Ratio (x) = 0.07964 0.44761
# Poissons Ratio (y) = 0.08226 0.15331
# Poissons Ratio (z) = 0.57988 0.19229
#
# Static dielectric constant tensor:
#      x y z
#    x 4.066780 0.000000 -0.078890 
#    y 0.000000 3.886440 0.000000 
#    z -0.078890 0.000000 4.300630 
# 
# 
# High freq. dielectric constant tensor:
#      x y z
#    x 1.870020 0.000000 -0.017220 
#    y 0.000000 1.870310 0.000000 
#    z -0.017220 0.000000 1.879420 
# 
# From -- ./inp_files/150398.got.cif
#   From: 2010.06.25/outbox.cif.g09.slc.cpg/sg12_76_cif.got.tgz:150398.got - 2010.06.28 00:19:55.
