data_PCOD8114242
_publ_section_title
;
Structure prediction by ZEFSAII (Michael W. Deem and Ramdas Pophale) SiO2 
 PCOD8114242
Probable space group: C 2/M
;
_chemical_formula_sum "Si O2"
_cell_formula_units_Z 56
_cell_length_a 23.103110
_cell_length_b 27.275000
_cell_length_c 11.297063
_cell_angle_alpha 90.000000
_cell_angle_beta 23.577559
_cell_angle_gamma 90.000000
_cell_volume 2847.409883
_symmetry_space_group_name_H-M "C 2/M"
_symmetry_group_IT_number 12
_symmetry_cell_setting 'monoclinic'
loop_
_space_group_symop_operation_xyz
x,y,z
-x,y,-z
-x,-y,-z
x,-y,z
1/2+x,1/2+y,z
1/2-x,1/2+y,-z
1/2-x,1/2-y,-z
1/2+x,1/2-y,z
loop_
_atom_site_type_symbol
_atom_site_label
_atom_site_fract_x
_atom_site_fract_y
_atom_site_fract_z
Si Si1 0.697930 0.376047 0.297948
Si Si2 0.863980 0.234467 0.187536
Si Si3 0.168530 0.598226 0.193982
Si Si4 0.939243 0.657722 0.988428
Si Si5 0.048541 0.053907 0.274333
Si Si6 0.859125 0.226697 0.701081
Si Si7 0.333449 0.180431 0.616768
O O1 0.546071 0.403343 0.613671
O O2 0.696886 0.318767 0.268502
O O3 0.776478 0.402744 0.042840
O O4 0.799570 0.376300 0.223989
O O5 0.750000 0.250000 0.500000
O O6 0.807529 0.194496 0.197990
O O7 0.911912 0.284109 0.032954
O O8 0.000000 0.209798 0.000000
O O9 0.195593 0.650627 0.207277
O O10 0.000000 0.582020 0.500000
O O11 0.277283 0.562181 0.062499
O O12 0.058153 0.647612 0.663948
O O13 0.000000 0.640441 0.000000
O O14 0.000000 0.056182 0.500000
O O15 0.014693 0.000000 0.283721
O O16 0.905623 0.268459 0.520761
O O17 0.000000 0.205775 0.500000
O O18 0.750000 0.250000 0.000000
#
# Coordination Sequence:
#
# PCOD8114242 Si02
#       7
#     8   8   8   8   8   8   8
#     4  11  21  37  58  82 119 152 195 239 289 353
#     4  11  22  36  51  73 114 164 208 243 273 330
#     4  11  21  35  58  88 118 151 184 238 297 351
#     4  11  22  37  54  78 112 156 200 244 282 342
#     4   9  21  40  61  88 118 149 191 242 297 357
#     4  12  23  32  48  81 117 159 189 223 284 343
#     4  12  22  34  54  81 122 153 197 243 283 341
#
# _framework density 19.666996000000001
#
# number of rings (size 3 to 8) (size 9 to 14) (size 15 to 20)
#    0.000    1.000    7.143    2.571    0.000    1.429 
#    0.000    0.000    0.000    0.429    0.000    1.000 
#    0.000    0.000    0.000    0.000    0.000    0.000 
#
# Total GULP energy -346936.199029 kJ/mol
# GULP energy per Si atom -12390.578537 kJ/mol
# Density = 1.962223 g / cm^3
# Si number density = 19.666996 Si / 1000 Ang^3
#
#
#
# Elastic Constant Matrix: (Units=GPa)
#
#
# Indices 1 2 3 4 5 6 
#
# 1 106.7902 27.4034 40.5252 0.0044 -32.9277 -0.0016
# 2 27.4034 79.8095 24.7737 0.0066 -17.8176 -0.0022
# 3 40.5252 24.7737 96.6373 0.0091 -31.3711 -0.0062
# 4 0.0044 0.0066 0.0091 18.6507 -0.0058 -9.8983
# 5 -32.9277 -17.8176 -31.3711 -0.0058 38.2035 0.0023
# 6 -0.0016 -0.0022 -0.0062 -9.8983 0.0023 11.9669
#
#
#
# Elastic Compliance Matrix: (Units=1/GPa)
#
#
# Indices 1 2 3 4 5 6 
#
# 1 0.013444 -0.001942 -0.002280 0.000001 0.008809 -0.000001
# 2 -0.001942 0.014556 -0.001714 -0.000004 0.003708 -0.000002
# 3 -0.002280 -0.001714 0.014788 -0.000001 0.009379 0.000005
# 4 0.000001 -0.000004 -0.000001 0.095571 0.000008 0.079051
# 5 0.008809 0.003708 0.009379 0.000008 0.043199 0.000005
# 6 -0.000001 -0.000002 0.000005 0.079051 0.000005 0.148950
#
#
# Mechanical properties :
#
#
# Convention : Reuss Voigt Hill
#
# Bulk Modulus (GPa) = 32.34420 52.07131 42.20775
# Shear Modulus (GPa) = 14.17691 26.46650 20.32171
#
# Velocity S-wave (km/s) = 2.68777 3.67240 3.21797
# Velocity P-wave (km/s) = 5.11017 6.67203 5.94263
#
# Compressibility (1/GPa) = 0.03091745
#
# Stress axis : x y z
#
# Youngs Moduli (GPa) = 74.38257 68.69875 67.62180
#
# Poissons Ratio (x) = 0.13339 0.15420
# Poissons Ratio (y) = 0.14442 0.11588
# Poissons Ratio (z) = 0.16961 0.11772
#
# Static dielectric constant tensor:
#      x y z
#    x 3.729790 -0.000020 -0.318800 
#    y -0.000020 3.376320 0.000120 
#    z -0.318800 0.000120 3.748780 
# 
# 
# High freq. dielectric constant tensor:
#      x y z
#    x 1.762720 0.000000 -0.020360 
#    y 0.000000 1.717140 0.000010 
#    z -0.020360 0.000010 1.770620 
# 
# From -- ./inp_files/178683.got.cif
#   From: 2010.06.25/outbox.cif.g09.slc.cpg/sg12_90_cif.got.tgz:178683.got - 2010.06.28 00:19:55.
