data_PCOD8114762
_publ_section_title
;
Structure prediction by ZEFSAII (Michael W. Deem and Ramdas Pophale) SiO2 
 PCOD8114762
Probable space group: C 2/M
;
_chemical_formula_sum "Si O2"
_cell_formula_units_Z 40
_cell_length_a 8.750282
_cell_length_b 16.237231
_cell_length_c 15.556933
_cell_angle_alpha 90.000000
_cell_angle_beta 128.932882
_cell_angle_gamma 90.000000
_cell_volume 1719.380811
_symmetry_space_group_name_H-M "C 2/M"
_symmetry_group_IT_number 12
_symmetry_cell_setting 'monoclinic'
loop_
_space_group_symop_operation_xyz
x,y,z
-x,y,-z
-x,-y,-z
x,-y,z
1/2+x,1/2+y,z
1/2-x,1/2+y,-z
1/2-x,1/2-y,-z
1/2+x,1/2-y,z
loop_
_atom_site_type_symbol
_atom_site_label
_atom_site_fract_x
_atom_site_fract_y
_atom_site_fract_z
Si Si1 0.121319 0.909658 0.734660
Si Si2 0.795795 0.597698 0.157753
Si Si3 0.279213 0.139057 0.443901
Si Si4 0.688332 0.178463 0.354352
Si Si5 0.879931 0.903193 0.079590
O O1 0.177876 0.849473 0.677747
O O2 0.187904 0.870658 0.850332
O O3 0.884044 0.921884 0.652600
O O4 0.218302 0.000000 0.755122
O O5 0.836554 0.500000 0.186733
O O6 0.595533 0.629739 0.130468
O O7 0.963825 0.655266 0.255818
O O8 0.781014 0.617663 0.050119
O O9 0.500000 0.110522 0.500000
O O10 0.248562 0.134991 0.535372
O O11 0.227630 0.225743 0.381321
O O12 0.905364 0.000000 0.095777
#
# Coordination Sequence:
#
# PCOD8114762 Si02
#       5
#     8   8   8   8   8
#     4  11  23  39  63  95 125 153 200 259 303 350
#     4   9  17  34  61  90 123 163 205 243 291 363
#     4  11  24  42  60  80 116 164 204 243 303 368
#     4  11  22  37  59  87 119 159 200 248 308 356
#     4   8  17  34  57  89 126 161 196 244 302 355
#
# _framework density 23.264188000000001
#
# number of rings (size 3 to 8) (size 9 to 14) (size 15 to 20)
#    0.000    2.000    0.000    6.000    0.000    3.600 
#    0.000    4.000    0.000    2.400    0.000    0.000 
#    0.000    0.000    0.000    0.000    0.000    0.000 
#
# Total GULP energy -247849.937869 kJ/mol
# GULP energy per Si atom -12392.496893 kJ/mol
# Density = 2.321124 g / cm^3
# Si number density = 23.264188 Si / 1000 Ang^3
#
#
#
# Elastic Constant Matrix: (Units=GPa)
#
#
# Indices 1 2 3 4 5 6 
#
# 1 77.0315 29.0467 32.3144 0.0000 -32.5387 0.0000
# 2 29.0467 31.2562 35.6993 0.0000 -11.8600 0.0000
# 3 32.3144 35.6993 129.1419 0.0000 -30.6896 0.0000
# 4 0.0000 0.0000 0.0000 40.0550 0.0000 4.2181
# 5 -32.5387 -11.8600 -30.6896 0.0000 55.4340 0.0000
# 6 0.0000 0.0000 0.0000 4.2181 0.0000 28.5280
#
#
#
# Elastic Compliance Matrix: (Units=1/GPa)
#
#
# Indices 1 2 3 4 5 6 
#
# 1 0.024905 -0.021631 0.002443 0.000000 0.011343 0.000000
# 2 -0.021631 0.066067 -0.014404 0.000000 -0.006536 0.000000
# 3 0.002443 -0.014404 0.012347 0.000000 0.005188 0.000000
# 4 0.000000 0.000000 0.000000 0.025361 0.000000 -0.003750
# 5 0.011343 -0.006536 0.005188 0.000000 0.026172 0.000000
# 6 0.000000 0.000000 0.000000 -0.003750 0.000000 0.035608
#
#
# Mechanical properties :
#
#
# Convention : Reuss Voigt Hill
#
# Bulk Modulus (GPa) = 27.67363 47.95004 37.81183
# Shear Modulus (GPa) = 18.54012 34.16134 26.35073
#
# Velocity S-wave (km/s) = 2.82607 3.83614 3.36917
# Velocity P-wave (km/s) = 4.75080 6.34643 5.60568
#
# Compressibility (1/GPa) = 0.03613549
#
# Stress axis : x y z
#
# Youngs Moduli (GPa) = 40.15307 15.13624 80.99367
#
# Poissons Ratio (x) = 0.32741 -0.19790
# Poissons Ratio (y) = 0.86854 1.16663
# Poissons Ratio (z) = -0.09811 0.21802
#
# Static dielectric constant tensor:
#      x y z
#    x 4.413920 0.000000 -0.436930 
#    y 0.000000 3.643520 0.000000 
#    z -0.436930 0.000000 4.798940 
# 
# 
# High freq. dielectric constant tensor:
#      x y z
#    x 1.920020 0.000000 -0.011410 
#    y 0.000000 1.881560 0.000000 
#    z -0.011410 0.000000 1.942620 
# 
# From -- ./inp_files/197327.got.cif
#   From: 2010.06.25/outbox.cif.g09.slc.cpg/sg12_99_cif.got.tgz:197327.got - 2010.06.28 00:19:55.
