data_PCOD8114571
_publ_section_title
;
Structure prediction by ZEFSAII (Michael W. Deem and Ramdas Pophale) SiO2 
 PCOD8114571
Probable space group: C 2/M
;
_chemical_formula_sum "Si O2"
_cell_formula_units_Z 48
_cell_length_a 20.300309
_cell_length_b 15.062629
_cell_length_c 17.590188
_cell_angle_alpha 90.000000
_cell_angle_beta 21.942928
_cell_angle_gamma 90.000000
_cell_volume 2009.912124
_symmetry_space_group_name_H-M "C 2/M"
_symmetry_group_IT_number 12
_symmetry_cell_setting 'monoclinic'
loop_
_space_group_symop_operation_xyz
x,y,z
-x,y,-z
-x,-y,-z
x,-y,z
1/2+x,1/2+y,z
1/2-x,1/2+y,-z
1/2-x,1/2-y,-z
1/2+x,1/2-y,z
loop_
_atom_site_type_symbol
_atom_site_label
_atom_site_fract_x
_atom_site_fract_y
_atom_site_fract_z
Si Si1 0.049430 0.403068 0.646886
Si Si2 0.286346 0.661278 0.917751
Si Si3 0.740167 0.267988 0.658748
Si Si4 0.830096 0.901933 0.473160
Si Si5 0.955191 0.901991 0.959607
Si Si6 0.182919 0.268461 0.261827
O O1 0.046179 0.500000 0.609508
O O2 0.069451 0.321486 0.563169
O O3 0.229297 0.396038 0.501897
O O4 0.883654 0.398780 0.881761
O O5 0.461544 0.614826 0.762316
O O6 0.306990 0.684522 0.805817
O O7 0.250000 0.750000 0.000000
O O8 0.744329 0.171328 0.618835
O O9 0.591470 0.329939 0.779268
O O10 0.691956 0.251826 0.798515
O O11 0.806874 0.000000 0.534586
O O12 0.969907 0.000000 0.905104
O O13 0.759979 0.862525 0.147030
O O14 0.000000 0.914945 0.000000
O O15 0.000000 0.278085 0.500000
#
# Coordination Sequence:
#
# PCOD8114571 Si02
#       6
#     8   8   8   8   8   8
#     4  11  24  43  72 102 137 183 230 285 347 420
#     4  12  24  44  68  96 138 183 230 283 345 408
#     4  11  21  43  67  96 137 173 226 283 345 407
#     4  11  24  42  69 100 133 179 233 281 341 409
#     4   9  20  36  61  95 133 176 217 269 337 411
#     4  11  22  40  64  96 134 185 223 279 348 407
#
# _framework density 23.881640999999998
#
# number of rings (size 3 to 8) (size 9 to 14) (size 15 to 20)
#    0.000    1.167    3.333    2.500    2.333    1.000 
#    0.000    5.000    0.000    6.500    0.000    0.000 
#    0.000    0.000    0.000    0.000    0.000    0.000 
#
# Total GULP energy -297334.415353 kJ/mol
# GULP energy per Si atom -12388.933973 kJ/mol
# Density = 2.382729 g / cm^3
# Si number density = 23.881641 Si / 1000 Ang^3
#
#
#
# Elastic Constant Matrix: (Units=GPa)
#
#
# Indices 1 2 3 4 5 6 
#
# 1 39.2870 12.4991 19.7989 -0.0256 10.1268 0.0092
# 2 12.4991 159.5767 35.7094 -0.0645 14.3393 0.0256
# 3 19.7989 35.7094 124.3706 -0.0503 0.7099 0.0273
# 4 -0.0256 -0.0645 -0.0503 34.1013 0.0311 3.0687
# 5 10.1268 14.3393 0.7099 0.0311 29.6521 -0.0136
# 6 0.0092 0.0256 0.0273 3.0687 -0.0136 15.6403
#
#
#
# Elastic Compliance Matrix: (Units=1/GPa)
#
#
# Indices 1 2 3 4 5 6 
#
# 1 0.030559 -0.000437 -0.004681 0.000027 -0.010113 -0.000023
# 2 -0.000437 0.007020 -0.001928 0.000014 -0.003199 -0.000013
# 3 -0.004681 -0.001928 0.009326 0.000005 0.002308 -0.000009
# 4 0.000027 0.000014 0.000005 0.029852 -0.000050 -0.005857
# 5 -0.010113 -0.003199 0.002308 -0.000050 0.038670 0.000051
# 6 -0.000023 -0.000013 -0.000009 -0.005857 0.000051 0.065087
#
#
# Mechanical properties :
#
#
# Convention : Reuss Voigt Hill
#
# Bulk Modulus (GPa) = 30.47673 51.02769 40.75221
# Shear Modulus (GPa) = 24.32581 32.89386 28.60983
#
# Velocity S-wave (km/s) = 3.19501 3.71532 3.46495
# Velocity P-wave (km/s) = 5.13810 6.31016 5.75405
#
# Compressibility (1/GPa) = 0.03281192
#
# Stress axis : x y z
#
# Youngs Moduli (GPa) = 32.72376 142.45703 107.22677
#
# Poissons Ratio (x) = 0.06228 0.50198
# Poissons Ratio (y) = 0.01431 0.20669
# Poissons Ratio (z) = 0.15320 0.27460
#
# Static dielectric constant tensor:
#      x y z
#    x 5.644890 0.000040 -0.295770 
#    y 0.000040 4.568320 0.000250 
#    z -0.295770 0.000250 5.336950 
# 
# 
# High freq. dielectric constant tensor:
#      x y z
#    x 1.939420 0.000000 -0.008840 
#    y 0.000000 1.937500 0.000010 
#    z -0.008840 0.000010 1.967350 
# 
# From -- ./inp_files/325643.got.cif
#   From: 2010.06.25/outbox.cif.g09.slc.cpg/sg12_163_cif.got.tgz:325643.got - 2010.06.28 00:19:55.
