data_PCOD8114273
_publ_section_title
;
Structure prediction by ZEFSAII (Michael W. Deem and Ramdas Pophale) SiO2 
 PCOD8114273
Probable space group: C 2/M
;
_chemical_formula_sum "Si O2"
_cell_formula_units_Z 40
_cell_length_a 16.479967
_cell_length_b 31.946141
_cell_length_c 9.923751
_cell_angle_alpha 90.000000
_cell_angle_beta 153.914066
_cell_angle_gamma 90.000000
_cell_volume 2297.341345
_symmetry_space_group_name_H-M "C 2/M"
_symmetry_group_IT_number 12
_symmetry_cell_setting 'monoclinic'
loop_
_space_group_symop_operation_xyz
x,y,z
-x,y,-z
-x,-y,-z
x,-y,z
1/2+x,1/2+y,z
1/2-x,1/2+y,-z
1/2-x,1/2-y,-z
1/2+x,1/2-y,z
loop_
_atom_site_type_symbol
_atom_site_label
_atom_site_fract_x
_atom_site_fract_y
_atom_site_fract_z
Si Si1 0.496359 0.436814 0.653441
Si Si2 0.295547 0.774914 0.700806
Si Si3 0.312244 0.000000 0.131045
Si Si4 0.497955 0.657368 0.657669
Si Si5 0.684572 0.000000 0.186066
Si Si6 0.288649 0.781466 0.176900
O O1 0.500000 0.436000 0.500000
O O2 0.483727 0.389833 0.692213
O O3 0.308259 0.460228 0.415115
O O4 0.685638 0.459800 0.982545
O O5 0.250000 0.750000 0.500000
O O6 0.167316 0.814802 0.531909
O O7 0.282531 0.740156 0.795648
O O8 0.500000 0.793696 0.000000
O O9 0.500000 0.000000 0.500000
O O10 0.360320 0.000000 0.042083
O O11 0.500000 0.659845 0.500000
O O12 0.687296 0.674954 0.999841
O O13 0.500000 0.000000 0.000000
O O14 0.500000 0.793377 0.500000
O O15 0.250000 0.750000 0.000000
#
# Coordination Sequence:
#
# PCOD8114273 Si02
#       6
#     8   8   4   8   4   8
#     4   8  18  35  56  84 111 144 179 216 263 327
#     4  12  22  34  53  75 106 142 182 230 279 310
#     4   9  17  35  64  86 110 139 177 217 268 320
#     4  11  21  36  57  79 108 144 190 227 260 320
#     4   9  17  35  64  86 110 143 173 211 270 336
#     4  12  20  36  55  75  98 142 194 224 261 319
#
# _framework density 17.411431
#
# number of rings (size 3 to 8) (size 9 to 14) (size 15 to 20)
#    0.000    1.600    6.000    1.200    0.000    1.600 
#    0.000    2.000    8.800    0.000    0.000    0.000 
#    0.000    0.000    0.000    0.000    0.000    0.000 
#
# Total GULP energy -247906.638137 kJ/mol
# GULP energy per Si atom -12395.331907 kJ/mol
# Density = 1.737180 g / cm^3
# Si number density = 17.411431 Si / 1000 Ang^3
#
#
#
# Elastic Constant Matrix: (Units=GPa)
#
#
# Indices 1 2 3 4 5 6 
#
# 1 99.9804 52.1969 52.7300 0.0000 11.5182 0.0000
# 2 52.1969 170.1741 76.1299 0.0000 12.8039 0.0000
# 3 52.7300 76.1299 159.4588 0.0000 24.1116 0.0002
# 4 0.0000 0.0000 0.0000 23.0765 0.0000 -3.0401
# 5 11.5182 12.8039 24.1116 0.0000 39.4581 0.0001
# 6 0.0000 0.0000 0.0002 -3.0401 0.0001 -6.7410
#
#
#
# Elastic Compliance Matrix: (Units=1/GPa)
#
#
# Indices 1 2 3 4 5 6 
#
# 1 0.013023 -0.002618 -0.002876 0.000000 -0.001195 0.000000
# 2 -0.002618 0.008001 -0.002950 0.000000 -0.000030 0.000000
# 3 -0.002876 -0.002950 0.009210 0.000000 -0.003831 0.000000
# 4 0.000000 0.000000 0.000000 0.040904 0.000000 -0.018447
# 5 -0.001195 -0.000030 -0.003831 0.000000 0.028043 0.000000
# 6 0.000000 0.000000 0.000000 -0.018447 0.000000 -0.140027
#
#
# Mechanical properties :
#
#
# Convention : Reuss Voigt Hill
#
# Bulk Modulus (GPa) = 74.92512 87.96966 81.44739
# Shear Modulus (GPa) = -256.28652 27.72916 -114.27868
#
# Velocity S-wave (km/s) = -12.14553 3.99505 -8.11029
# Velocity P-wave (km/s) = 12.39192 8.48023 6.38926
#
# Compressibility (1/GPa) = 0.01334666
#
# Stress axis : x y z
#
# Youngs Moduli (GPa) = 76.78613 124.98089 108.57952
#
# Poissons Ratio (x) = 0.32721 0.31227
# Poissons Ratio (y) = 0.20103 0.32029
# Poissons Ratio (z) = 0.22083 0.36867
#
# Static dielectric constant tensor:
#      x y z
#    x 3.195760 0.000000 0.142690 
#    y 0.000000 3.788550 0.000000 
#    z 0.142690 0.000000 3.366450 
# 
# 
# High freq. dielectric constant tensor:
#      x y z
#    x 1.663510 0.000000 0.010510 
#    y 0.000000 1.669950 0.000000 
#    z 0.010510 0.000000 1.682900 
# 
# From -- ./inp_files/68496.got.cif
#   From: 2010.06.25/outbox.cif.g09.slc.cpg/sg12_35_cif.got.tgz:68496.got - 2010.06.28 00:19:55.
