data_PCOD8114751
_publ_section_title
;
Structure prediction by ZEFSAII (Michael W. Deem and Ramdas Pophale) SiO2 
 PCOD8114751
Probable space group: C 2/M
;
_chemical_formula_sum "Si O2"
_cell_formula_units_Z 56
_cell_length_a 15.961953
_cell_length_b 26.153636
_cell_length_c 15.106228
_cell_angle_alpha 90.000000
_cell_angle_beta 151.695130
_cell_angle_gamma 90.000000
_cell_volume 2990.211049
_symmetry_space_group_name_H-M "C 2/M"
_symmetry_group_IT_number 12
_symmetry_cell_setting 'monoclinic'
loop_
_space_group_symop_operation_xyz
x,y,z
-x,y,-z
-x,-y,-z
x,-y,z
1/2+x,1/2+y,z
1/2-x,1/2+y,-z
1/2-x,1/2-y,-z
1/2+x,1/2-y,z
loop_
_atom_site_type_symbol
_atom_site_label
_atom_site_fract_x
_atom_site_fract_y
_atom_site_fract_z
Si Si1 0.879997 0.847404 0.019484
Si Si2 0.038125 0.744867 0.128134
Si Si3 0.248844 0.441431 0.799878
Si Si4 0.642761 0.057260 0.505570
Si Si5 0.969951 0.707223 0.254926
Si Si6 0.411863 0.710313 0.509284
Si Si7 0.692346 0.643354 0.441706
O O1 0.960776 0.801364 0.037867
O O2 0.004112 0.853172 0.219622
O O3 0.883837 0.901009 0.968888
O O4 0.678793 0.833873 0.858732
O O5 0.246844 0.747207 0.337138
O O6 0.943435 0.720674 0.126460
O O7 0.000000 0.714312 0.000000
O O8 0.322099 0.500000 0.873255
O O9 0.221399 0.424139 0.672740
O O10 0.067636 0.438552 0.685906
O O11 0.720226 0.088456 0.494508
O O12 0.703145 0.000000 0.543308
O O13 0.956089 0.758696 0.301931
O O14 0.164250 0.685035 0.457296
O O15 0.500000 0.694912 0.500000
O O16 0.347889 0.656460 0.493103
#
# Coordination Sequence:
#
# PCOD8114751 Si02
#       7
#     8   8   8   8   8   8   8
#     4  12  22  33  60  79 114 149 191 231 280 337
#     4  11  23  36  56  85 112 152 201 230 286 342
#     4   9  20  36  58  87 117 151 187 231 290 352
#     4   9  19  39  59  81 118 153 186 234 293 349
#     4  11  22  41  54  80 120 153 189 244 279 348
#     4  11  23  40  56  78 122 156 195 244 284 335
#     4  11  22  37  57  85 108 151 196 230 287 338
#
# _framework density 18.727775000000001
#
# number of rings (size 3 to 8) (size 9 to 14) (size 15 to 20)
#    0.000    1.429    4.286    3.000    4.000    1.714 
#    0.000    1.429    0.000    0.429    0.000    0.000 
#    0.000    5.714    0.000    0.000    0.000    0.000 
#
# Total GULP energy -346986.680157 kJ/mol
# GULP energy per Si atom -12392.381434 kJ/mol
# Density = 1.868515 g / cm^3
# Si number density = 18.727775 Si / 1000 Ang^3
#
#
#
# Elastic Constant Matrix: (Units=GPa)
#
#
# Indices 1 2 3 4 5 6 
#
# 1 118.0943 48.8091 29.5909 0.0000 -6.9708 0.0000
# 2 48.8091 101.7604 32.4187 0.0000 -6.7183 0.0000
# 3 29.5909 32.4187 83.5148 0.0000 -4.1979 0.0000
# 4 0.0000 0.0000 0.0000 30.5120 0.0000 -4.1299
# 5 -6.9708 -6.7183 -4.1979 0.0000 27.3887 0.0000
# 6 0.0000 0.0000 0.0000 -4.1299 0.0000 15.0972
#
#
#
# Elastic Compliance Matrix: (Units=1/GPa)
#
#
# Indices 1 2 3 4 5 6 
#
# 1 0.010920 -0.004493 -0.002057 0.000000 0.001362 0.000000
# 2 -0.004493 0.013183 -0.003447 0.000000 0.001562 0.000000
# 3 -0.002057 -0.003447 0.014080 0.000000 0.000789 0.000000
# 4 0.000000 0.000000 0.000000 0.034034 0.000000 0.009310
# 5 0.001362 0.001562 0.000789 0.000000 0.037362 0.000000
# 6 0.000000 0.000000 0.000000 0.009310 0.000000 0.068784
#
#
# Mechanical properties :
#
#
# Convention : Reuss Voigt Hill
#
# Bulk Modulus (GPa) = 54.97298 58.33410 56.65354
# Shear Modulus (GPa) = 24.45923 27.43630 25.94776
#
# Velocity S-wave (km/s) = 3.61784 3.83169 3.72630
# Velocity P-wave (km/s) = 6.84610 7.12684 6.98788
#
# Compressibility (1/GPa) = 0.01819075
#
# Stress axis : x y z
#
# Youngs Moduli (GPa) = 91.57101 75.85392 71.02042
#
# Poissons Ratio (x) = 0.34080 0.14608
# Poissons Ratio (y) = 0.41141 0.24481
# Poissons Ratio (z) = 0.18835 0.26147
#
# Static dielectric constant tensor:
#      x y z
#    x 3.395780 0.000000 0.048040 
#    y 0.000000 3.408960 0.000000 
#    z 0.048040 0.000000 3.497990 
# 
# 
# High freq. dielectric constant tensor:
#      x y z
#    x 1.715690 0.000000 0.012260 
#    y 0.000000 1.700370 0.000000 
#    z 0.012260 0.000000 1.739020 
# 
# From -- ./inp_files/219160.got.cif
#   From: 2010.06.25/outbox.cif.g09.slc.cpg/sg12_110_cif.got.tgz:219160.got - 2010.06.28 00:19:55.
