data_PCOD8114872
_publ_section_title
;
Structure prediction by ZEFSAII (Michael W. Deem and Ramdas Pophale) SiO2 
 PCOD8114872
Probable space group: C 2/M
;
_chemical_formula_sum "Si O2"
_cell_formula_units_Z 48
_cell_length_a 9.237875
_cell_length_b 15.670214
_cell_length_c 26.333370
_cell_angle_alpha 90.000000
_cell_angle_beta 142.380846
_cell_angle_gamma 90.000000
_cell_volume 2326.885882
_symmetry_space_group_name_H-M "C 2/M"
_symmetry_group_IT_number 12
_symmetry_cell_setting 'monoclinic'
loop_
_space_group_symop_operation_xyz
x,y,z
-x,y,-z
-x,-y,-z
x,-y,z
1/2+x,1/2+y,z
1/2-x,1/2+y,-z
1/2-x,1/2-y,-z
1/2+x,1/2-y,z
loop_
_atom_site_type_symbol
_atom_site_label
_atom_site_fract_x
_atom_site_fract_y
_atom_site_fract_z
Si Si1 0.069080 0.162512 0.180276
Si Si2 0.678334 0.905671 0.003155
Si Si3 0.702922 0.164834 0.171068
Si Si4 0.868890 0.905456 0.315012
Si Si5 0.931559 0.595957 0.670797
Si Si6 0.760818 0.758602 0.561853
O O1 0.197230 0.250551 0.203159
O O2 0.281746 0.097030 0.250032
O O3 0.922967 0.135603 0.089643
O O4 0.903859 0.169451 0.183779
O O5 0.732054 0.000000 0.996867
O O6 0.500000 0.912341 0.000000
O O7 0.557434 0.850512 0.925144
O O8 0.761420 0.091575 0.228130
O O9 0.664200 0.885089 0.299151
O O10 0.066383 0.832708 0.371526
O O11 0.976277 0.000000 0.355237
O O12 0.856932 0.500000 0.632441
O O13 0.822752 0.666562 0.603108
O O14 0.500000 0.790779 0.500000
O O15 0.750000 0.750000 0.500000
#
# Coordination Sequence:
#
# PCOD8114872 Si02
#       6
#     8   8   8   8   8   8
#     4  11  22  38  64  93 129 175 220 264 320 380
#     4   9  19  36  57  89 128 168 219 270 313 371
#     4  11  22  38  64  93 130 174 219 266 320 377
#     4  11  25  45  68  99 134 170 214 270 327 386
#     4  11  25  45  69  98 133 173 215 265 328 391
#     4  12  26  46  71  96 128 167 213 267 328 392
#
# _framework density 20.628428
#
# number of rings (size 3 to 8) (size 9 to 14) (size 15 to 20)
#    0.000    1.167    3.333    2.500    2.333    3.333 
#    0.000    2.500    0.000    6.000    0.000    0.000 
#    0.000    0.000    0.000    0.000    0.000    0.000 
#
# Total GULP energy -297532.697868 kJ/mol
# GULP energy per Si atom -12397.195744 kJ/mol
# Density = 2.058148 g / cm^3
# Si number density = 20.628428 Si / 1000 Ang^3
#
#
#
# Elastic Constant Matrix: (Units=GPa)
#
#
# Indices 1 2 3 4 5 6 
#
# 1 120.7045 43.4396 52.2077 0.0000 -5.0392 0.0000
# 2 43.4396 129.2008 42.0441 0.0000 -3.4493 0.0000
# 3 52.2077 42.0441 120.2041 0.0001 -3.8210 0.0002
# 4 0.0000 0.0000 0.0001 22.3746 0.0000 -2.5377
# 5 -5.0392 -3.4493 -3.8210 0.0000 39.4459 0.0001
# 6 0.0000 0.0000 0.0002 -2.5377 0.0001 23.0132
#
#
#
# Elastic Compliance Matrix: (Units=1/GPa)
#
#
# Indices 1 2 3 4 5 6 
#
# 1 0.010837 -0.002368 -0.003853 0.000000 0.000804 0.000000
# 2 -0.002368 0.009260 -0.002201 0.000000 0.000294 0.000000
# 3 -0.003853 -0.002201 0.010774 0.000000 0.000359 0.000000
# 4 0.000000 0.000000 0.000000 0.045260 0.000000 0.004991
# 5 0.000804 0.000294 0.000359 0.000000 0.025514 0.000000
# 6 0.000000 0.000000 0.000000 0.004991 0.000000 0.044004
#
#
# Mechanical properties :
#
#
# Convention : Reuss Voigt Hill
#
# Bulk Modulus (GPa) = 71.29253 71.72137 71.50695
# Shear Modulus (GPa) = 29.90987 32.46127 31.18557
#
# Velocity S-wave (km/s) = 3.81193 3.97119 3.89238
# Velocity P-wave (km/s) = 7.34914 7.47468 7.41217
#
# Compressibility (1/GPa) = 0.01402672
#
# Stress axis : x y z
#
# Youngs Moduli (GPa) = 92.27592 107.98820 92.81738
#
# Poissons Ratio (x) = 0.25576 0.35761
# Poissons Ratio (y) = 0.21854 0.20429
# Poissons Ratio (z) = 0.35553 0.23768
#
# Static dielectric constant tensor:
#      x y z
#    x 3.684840 0.000000 -0.042290 
#    y 0.000000 3.888850 0.000000 
#    z -0.042290 0.000000 3.570160 
# 
# 
# High freq. dielectric constant tensor:
#      x y z
#    x 1.802470 0.000000 -0.002840 
#    y 0.000000 1.817050 0.000000 
#    z -0.002840 0.000000 1.813600 
# 
# From -- ./inp_files/356360.got.cif
#   From: 2010.06.25/outbox.cif.g09.slc.cpg/sg12_179_cif.got.tgz:356360.got - 2010.06.28 00:19:55.
