data_PCOD8114563
_publ_section_title
;
Structure prediction by ZEFSAII (Michael W. Deem and Ramdas Pophale) SiO2 
 PCOD8114563
Probable space group: C 2/M
;
_chemical_formula_sum "Si O2"
_cell_formula_units_Z 44
_cell_length_a 11.889453
_cell_length_b 23.044827
_cell_length_c 11.416888
_cell_angle_alpha 90.000000
_cell_angle_beta 143.677461
_cell_angle_gamma 90.000000
_cell_volume 1852.878407
_symmetry_space_group_name_H-M "C 2/M"
_symmetry_group_IT_number 12
_symmetry_cell_setting 'monoclinic'
loop_
_space_group_symop_operation_xyz
x,y,z
-x,y,-z
-x,-y,-z
x,-y,z
1/2+x,1/2+y,z
1/2-x,1/2+y,-z
1/2-x,1/2-y,-z
1/2+x,1/2-y,z
loop_
_atom_site_type_symbol
_atom_site_label
_atom_site_fract_x
_atom_site_fract_y
_atom_site_fract_z
Si Si1 0.126657 0.876311 0.497284
Si Si2 0.586527 0.326690 0.220074
Si Si3 0.293248 0.000000 0.972222
Si Si4 0.010039 0.692290 0.143270
Si Si5 0.258591 0.000000 0.675661
Si Si6 0.000000 0.634226 0.500000
Si Si7 0.732822 0.886230 0.907738
O O1 0.032533 0.859781 0.295573
O O2 0.313468 0.838540 0.651253
O O3 0.171064 0.944417 0.539167
O O4 0.000000 0.856147 0.500000
O O5 0.525414 0.260435 0.174192
O O6 0.810409 0.328838 0.374206
O O7 0.424339 0.360628 0.005065
O O8 0.201506 0.000000 0.765350
O O9 0.517945 0.000000 0.150347
O O10 0.222654 0.943774 0.981682
O O11 0.831315 0.666410 0.061632
O O12 0.000000 0.674242 0.000000
O O13 0.927723 0.597632 0.326589
#
# Coordination Sequence:
#
# PCOD8114563 Si02
#       7
#     8   8   4   8   4   4   8
#     4  12  25  42  72 110 146 187 236 295 365 423
#     4  12  27  47  70 107 144 192 243 292 359 424
#     4  11  22  43  73 104 144 184 243 292 361 427
#     4  12  24  45  71 107 148 189 237 296 358 426
#     4  11  21  42  70 107 148 185 228 303 360 423
#     4  12  26  49  70 102 148 189 252 284 356 424
#     4  12  26  47  73 105 143 195 237 300 354 425
#
# _framework density 23.746835999999998
#
# number of rings (size 3 to 8) (size 9 to 14) (size 15 to 20)
#    0.000    0.182    3.636    6.273    1.273    1.091 
#    0.000    3.636    0.000    0.000    0.000    0.000 
#    0.000    0.000    0.000    0.000    0.000    0.000 
#
# Total GULP energy -272658.460327 kJ/mol
# GULP energy per Si atom -12393.566379 kJ/mol
# Density = 2.369279 g / cm^3
# Si number density = 23.746836 Si / 1000 Ang^3
#
#
#
# Elastic Constant Matrix: (Units=GPa)
#
#
# Indices 1 2 3 4 5 6 
#
# 1 116.0794 29.2972 21.3957 0.0000 16.1049 0.0000
# 2 29.2972 128.7738 22.7687 0.0000 18.3149 0.0000
# 3 21.3957 22.7687 99.7090 0.0000 9.7718 0.0000
# 4 0.0000 0.0000 0.0000 37.5444 0.0000 -15.6318
# 5 16.1049 18.3149 9.7718 0.0000 43.3828 0.0000
# 6 0.0000 0.0000 0.0000 -15.6318 0.0000 23.8100
#
#
#
# Elastic Compliance Matrix: (Units=1/GPa)
#
#
# Indices 1 2 3 4 5 6 
#
# 1 0.009638 -0.001567 -0.001457 0.000000 -0.002588 0.000000
# 2 -0.001567 0.008767 -0.001391 0.000000 -0.002806 0.000000
# 3 -0.001457 -0.001391 0.010787 0.000000 -0.001302 0.000000
# 4 0.000000 0.000000 0.000000 0.036655 0.000000 0.024065
# 5 -0.002588 -0.002806 -0.001302 0.000000 0.025489 0.000000
# 6 0.000000 0.000000 0.000000 0.024065 0.000000 0.057798
#
#
# Mechanical properties :
#
#
# Convention : Reuss Voigt Hill
#
# Bulk Modulus (GPa) = 49.10840 54.60950 51.85895
# Shear Modulus (GPa) = 30.34896 39.02082 34.68489
#
# Velocity S-wave (km/s) = 3.57882 4.05804 3.82594
# Velocity P-wave (km/s) = 6.14834 6.70845 6.43450
#
# Compressibility (1/GPa) = 0.02036312
#
# Stress axis : x y z
#
# Youngs Moduli (GPa) = 103.75741 114.06311 92.70503
#
# Poissons Ratio (x) = 0.17874 0.13504
# Poissons Ratio (y) = 0.16259 0.12892
# Poissons Ratio (z) = 0.15114 0.15863
#
# Static dielectric constant tensor:
#      x y z
#    x 4.600230 0.000000 0.065190 
#    y 0.000000 4.037530 0.000000 
#    z 0.065190 0.000000 4.514200 
# 
# 
# High freq. dielectric constant tensor:
#      x y z
#    x 1.967180 0.000000 0.002430 
#    y 0.000000 1.923450 0.000000 
#    z 0.002430 0.000000 1.974260 
# 
# From -- ./inp_files/136126.got.cif
#   From: 2010.06.25/outbox.cif.g09.slc.cpg/sg12_69_cif.got.tgz:136126.got - 2010.06.28 00:19:55.
