data_PCOD8114760
_publ_section_title
;
Structure prediction by ZEFSAII (Michael W. Deem and Ramdas Pophale) SiO2 
 PCOD8114760
Probable space group: C 2/M
;
_chemical_formula_sum "Si O2"
_cell_formula_units_Z 64
_cell_length_a 18.871386
_cell_length_b 8.852038
_cell_length_c 30.981835
_cell_angle_alpha 90.000000
_cell_angle_beta 139.534892
_cell_angle_gamma 90.000000
_cell_volume 3358.835748
_symmetry_space_group_name_H-M "C 2/M"
_symmetry_group_IT_number 12
_symmetry_cell_setting 'monoclinic'
loop_
_space_group_symop_operation_xyz
x,y,z
-x,y,-z
-x,-y,-z
x,-y,z
1/2+x,1/2+y,z
1/2-x,1/2+y,-z
1/2-x,1/2-y,-z
1/2+x,1/2-y,z
loop_
_atom_site_type_symbol
_atom_site_label
_atom_site_fract_x
_atom_site_fract_y
_atom_site_fract_z
Si Si1 0.636386 0.830315 0.442914
Si Si2 0.822739 0.673323 0.925503
Si Si3 0.479735 0.826593 0.920676
Si Si4 0.932679 0.177277 0.810542
Si Si5 0.201298 0.178226 0.700416
Si Si6 0.057233 0.678218 0.703816
Si Si7 0.904307 0.676434 0.179959
Si Si8 0.532319 0.172445 0.561576
O O1 0.750000 0.750000 0.500000
O O2 0.557545 0.761218 0.369122
O O3 0.576364 0.818004 0.460609
O O4 0.663725 0.000000 0.442584
O O5 0.782619 0.500000 0.905836
O O6 0.882916 0.714363 0.908806
O O7 0.722131 0.784982 0.885557
O O8 0.904036 0.699096 0.002982
O O9 0.473385 0.716677 0.877226
O O10 0.467963 0.000000 0.899994
O O11 0.822510 0.264163 0.747863
O O12 0.024502 0.225202 0.819278
O O13 0.912154 0.000000 0.797697
O O14 0.157532 0.244379 0.725344
O O15 0.127927 0.227082 0.625920
O O16 0.202277 0.000000 0.704549
O O17 0.068436 0.500000 0.700332
O O18 0.060918 0.720624 0.755480
O O19 0.922668 0.500000 0.179336
O O20 0.500000 0.237801 0.500000
O O21 0.574563 0.000000 0.577919
#
# Coordination Sequence:
#
# PCOD8114760 Si02
#       8
#     8   8   8   8   8   8   8   8
#     4   9  18  33  53  78 108 139 175 220 269 321
#     4   9  19  37  61  87 114 145 180 224 277 330
#     4   9  19  38  62  86 113 145 184 226 270 327
#     4  12  25  39  56  80 113 150 187 229 279 331
#     4  11  22  37  59  84 111 145 187 232 276 329
#     4   9  20  39  59  80 109 146 186 229 277 329
#     4  11  23  38  57  82 112 146 186 232 279 329
#     4   9  19  37  58  80 109 146 186 228 275 325
#
# _framework density 19.054221999999999
#
# number of rings (size 3 to 8) (size 9 to 14) (size 15 to 20)
#    0.000    2.125    0.000    4.875    0.000    7.750 
#    0.000    3.750    0.000    0.000    0.000    0.000 
#    0.000    0.000    0.000    0.000    0.000    0.000 
#
# Total GULP energy -396881.241089 kJ/mol
# GULP energy per Si atom -12402.538784 kJ/mol
# Density = 1.901085 g / cm^3
# Si number density = 19.054222 Si / 1000 Ang^3
#
#
#
# Elastic Constant Matrix: (Units=GPa)
#
#
# Indices 1 2 3 4 5 6 
#
# 1 92.4235 39.2613 60.4375 0.0000 -1.4384 0.0000
# 2 39.2613 80.8605 41.2426 0.0000 -2.6055 -0.0002
# 3 60.4375 41.2426 104.9873 0.0000 0.8007 0.0000
# 4 0.0000 0.0000 0.0000 31.5272 0.0000 9.6477
# 5 -1.4384 -2.6055 0.8007 0.0000 36.3786 0.0000
# 6 0.0000 -0.0002 0.0000 9.6477 0.0000 23.3736
#
#
#
# Elastic Compliance Matrix: (Units=1/GPa)
#
#
# Indices 1 2 3 4 5 6 
#
# 1 0.018564 -0.004428 -0.008952 0.000000 0.000614 0.000000
# 2 -0.004428 0.016578 -0.003972 0.000000 0.001100 0.000000
# 3 -0.008952 -0.003972 0.016246 0.000000 -0.000996 0.000000
# 4 0.000000 0.000000 0.000000 0.036304 0.000000 -0.014985
# 5 0.000614 0.001100 -0.000996 0.000000 0.027614 0.000000
# 6 0.000000 0.000000 0.000000 -0.014985 0.000000 0.048968
#
#
# Mechanical properties :
#
#
# Convention : Reuss Voigt Hill
#
# Bulk Modulus (GPa) = 59.93419 62.23932 61.08676
# Shear Modulus (GPa) = 24.44509 27.41121 25.92815
#
# Velocity S-wave (km/s) = 3.58568 3.79699 3.69284
# Velocity P-wave (km/s) = 6.97607 7.20819 7.09308
#
# Compressibility (1/GPa) = 0.01668497
#
# Stress axis : x y z
#
# Youngs Moduli (GPa) = 53.86715 60.32011 61.55310
#
# Poissons Ratio (x) = 0.26710 0.55102
# Poissons Ratio (y) = 0.23853 0.24448
# Poissons Ratio (z) = 0.48222 0.23958
#
# Static dielectric constant tensor:
#      x y z
#    x 3.446640 0.000000 -0.099610 
#    y 0.000000 3.461080 0.000000 
#    z -0.099610 0.000000 3.677030 
# 
# 
# High freq. dielectric constant tensor:
#      x y z
#    x 1.737700 0.000000 -0.001030 
#    y 0.000000 1.736220 0.000000 
#    z -0.001030 0.000000 1.753430 
# 
# From -- ./inp_files/378363.got.cif
#   From: 2010.06.25/outbox.cif.g09.slc.cpg/sg12_190_cif.got.tgz:378363.got - 2010.06.28 00:19:55.
