data_PCOD8114040
_publ_section_title
;
Structure prediction by ZEFSAII (Michael W. Deem and Ramdas Pophale) SiO2 
 PCOD8114040
Probable space group: C 2/M
;
_chemical_formula_sum "Si O2"
_cell_formula_units_Z 40
_cell_length_a 21.565295
_cell_length_b 14.604273
_cell_length_c 14.107249
_cell_angle_alpha 90.000000
_cell_angle_beta 160.337588
_cell_angle_gamma 90.000000
_cell_volume 1494.974448
_symmetry_space_group_name_H-M "C 2/M"
_symmetry_group_IT_number 12
_symmetry_cell_setting 'monoclinic'
loop_
_space_group_symop_operation_xyz
x,y,z
-x,y,-z
-x,-y,-z
x,-y,z
1/2+x,1/2+y,z
1/2-x,1/2+y,-z
1/2-x,1/2-y,-z
1/2+x,1/2-y,z
loop_
_atom_site_type_symbol
_atom_site_label
_atom_site_fract_x
_atom_site_fract_y
_atom_site_fract_z
Si Si1 0.149324 0.819342 0.086645
Si Si2 0.390329 0.000000 0.245959
Si Si3 0.347356 0.500000 0.363744
Si Si4 0.918064 0.500000 0.755707
Si Si5 0.500000 0.837995 0.000000
Si Si6 0.074491 0.146249 0.776450
Si Si7 0.500000 0.233015 0.500000
Si Si8 0.765441 0.000000 0.693415
O O1 0.363236 0.827479 0.365502
O O2 0.118751 0.913115 0.100938
O O3 0.033060 0.809824 0.820912
O O4 0.124070 0.729405 0.114171
O O5 0.500000 0.000000 0.500000
O O6 0.545429 0.000000 0.389760
O O7 0.260946 0.088279 0.052993
O O8 0.500000 0.500000 0.500000
O O9 0.388614 0.589613 0.485797
O O10 0.132729 0.500000 0.024578
O O11 0.883189 0.592858 0.765650
O O12 0.744999 0.500000 0.435265
O O13 0.116360 0.210701 0.746181
#
# Coordination Sequence:
#
# PCOD8114040 Si02
#       8
#     8   4   4   4   4   8   4   4
#     4  12  27  50  75 114 153 205 252 315 385 451
#     4  11  20  41  72 113 157 193 243 321 389 444
#     4  11  21  42  76 111 147 196 249 314 380 440
#     4  11  27  55  75 110 152 199 257 312 383 458
#     4  11  30  53  76 108 156 201 262 309 380 460
#     4  11  23  41  70 112 155 195 252 312 376 456
#     4  12  26  42  76 112 152 200 254 317 378 445
#     4  12  26  46  80 106 152 205 253 314 379 455
#
# _framework density 26.756308000000001
#
# number of rings (size 3 to 8) (size 9 to 14) (size 15 to 20)
#    0.000    0.600    3.000    4.800    5.600    1.200 
#    7.200    0.000    0.000    0.000    0.000    0.000 
#    0.000    0.000    0.000    0.000    0.000    0.000 
#
# Total GULP energy -247803.033590 kJ/mol
# GULP energy per Si atom -12390.151680 kJ/mol
# Density = 2.669541 g / cm^3
# Si number density = 26.756308 Si / 1000 Ang^3
#
#
#
# Elastic Constant Matrix: (Units=GPa)
#
#
# Indices 1 2 3 4 5 6 
#
# 1 149.1179 64.7198 51.7520 0.0000 -31.7928 0.0000
# 2 64.7198 168.3311 27.1164 0.0000 -23.1977 0.0000
# 3 51.7520 27.1164 112.7504 0.0000 -34.4621 0.0000
# 4 0.0000 0.0000 0.0000 9.6964 0.0000 -23.9670
# 5 -31.7928 -23.1977 -34.4621 0.0000 60.4934 0.0000
# 6 0.0000 0.0000 0.0000 -23.9670 0.0000 38.5971
#
#
#
# Elastic Compliance Matrix: (Units=1/GPa)
#
#
# Indices 1 2 3 4 5 6 
#
# 1 0.009442 -0.002850 -0.002985 0.000000 0.002168 0.000000
# 2 -0.002850 0.007215 -0.000047 0.000000 0.001242 0.000000
# 3 -0.002985 -0.000047 0.011825 0.000000 0.005149 0.000000
# 4 0.000000 0.000000 0.000000 -0.192829 0.000000 -0.119737
# 5 0.002168 0.001242 0.005149 0.000000 0.021080 0.000000
# 6 0.000000 0.000000 0.000000 -0.119737 0.000000 -0.048442
#
#
# Mechanical properties :
#
#
# Convention : Reuss Voigt Hill
#
# Bulk Modulus (GPa) = 59.82546 79.70843 69.76694
# Shear Modulus (GPa) = -28.67442 40.86480 6.09519
#
# Velocity S-wave (km/s) = -3.27722 3.91230 1.51095
# Velocity P-wave (km/s) = 2.84389 7.08966 5.40144
#
# Compressibility (1/GPa) = 0.01671529
#
# Stress axis : x y z
#
# Youngs Moduli (GPa) = 105.91411 138.59321 84.56893
#
# Poissons Ratio (x) = 0.39504 0.25247
# Poissons Ratio (y) = 0.30189 0.00401
# Poissons Ratio (z) = 0.31620 0.00657
#
# Static dielectric constant tensor:
#      x y z
#    x 5.830170 0.000000 -0.132980 
#    y 0.000000 5.159470 0.000000 
#    z -0.132980 0.000000 5.047740 
# 
# 
# High freq. dielectric constant tensor:
#      x y z
#    x 2.087780 0.000000 -0.015150 
#    y 0.000000 2.082320 0.000000 
#    z -0.015150 0.000000 2.075170 
# 
# From -- ./inp_files/241366.got.cif
#   From: 2010.06.25/outbox.cif.g09.slc.cpg/sg12_121_cif.got.tgz:241366.got - 2010.06.28 00:19:55.
