data_PCOD8114562
_publ_section_title
;
Structure prediction by ZEFSAII (Michael W. Deem and Ramdas Pophale) SiO2 
 PCOD8114562
Probable space group: C 2/M
;
_chemical_formula_sum "Si O2"
_cell_formula_units_Z 48
_cell_length_a 12.592321
_cell_length_b 14.886612
_cell_length_c 28.159632
_cell_angle_alpha 90.000000
_cell_angle_beta 156.017315
_cell_angle_gamma 90.000000
_cell_volume 2145.591442
_symmetry_space_group_name_H-M "C 2/M"
_symmetry_group_IT_number 12
_symmetry_cell_setting 'monoclinic'
loop_
_space_group_symop_operation_xyz
x,y,z
-x,y,-z
-x,-y,-z
x,-y,z
1/2+x,1/2+y,z
1/2-x,1/2+y,-z
1/2-x,1/2-y,-z
1/2+x,1/2-y,z
loop_
_atom_site_type_symbol
_atom_site_label
_atom_site_fract_x
_atom_site_fract_y
_atom_site_fract_z
Si Si1 0.014927 0.400525 0.216898
Si Si2 0.134889 0.500000 0.107768
Si Si3 0.142428 0.349522 0.944403
Si Si4 0.927902 0.655804 0.359195
Si Si5 0.302666 0.599707 0.826356
Si Si6 0.522572 0.334530 0.454655
Si Si7 0.224460 0.500000 0.633740
O O1 0.908690 0.500000 0.162194
O O2 0.309783 0.409940 0.356332
O O3 0.009544 0.340638 0.167438
O O4 0.840688 0.354456 0.187144
O O5 0.456708 0.500000 0.245517
O O6 0.038273 0.405601 0.092232
O O7 0.000000 0.500000 0.000000
O O8 0.250000 0.250000 0.000000
O O9 0.394269 0.410697 0.038417
O O10 0.728119 0.660425 0.233337
O O11 0.951238 0.750942 0.392733
O O12 0.828227 0.587875 0.357659
O O13 0.199717 0.624746 0.446268
O O14 0.184490 0.500000 0.769080
O O15 0.500000 0.304687 0.500000
O O16 0.000000 0.500000 0.500000
#
# Coordination Sequence:
#
# PCOD8114562 Si02
#       7
#     8   4   8   8   8   8   4
#     4  11  24  41  71 103 138 179 236 299 375 444
#     4  12  28  52  76 109 157 206 266 312 386 487
#     4  12  26  46  74 106 145 192 248 313 375 450
#     4  11  24  43  68  97 144 189 241 303 369 447
#     4  11  21  42  70 101 138 181 229 303 370 445
#     4  11  24  43  66 104 142 184 246 306 365 450
#     4  12  28  46  74 103 151 204 250 308 394 453
#
# _framework density 22.371454
#
# number of rings (size 3 to 8) (size 9 to 14) (size 15 to 20)
#    0.000    0.667    4.167    3.000    3.500    4.333 
#    0.000    0.000    0.000    0.000    0.000    0.000 
#    0.000    0.000    0.000    0.000    0.000    0.000 
#
# Total GULP energy -297334.731670 kJ/mol
# GULP energy per Si atom -12388.947153 kJ/mol
# Density = 2.232054 g / cm^3
# Si number density = 22.371454 Si / 1000 Ang^3
#
#
#
# Elastic Constant Matrix: (Units=GPa)
#
#
# Indices 1 2 3 4 5 6 
#
# 1 147.7499 36.9889 57.9926 0.0016 -4.7122 0.0006
# 2 36.9889 89.3439 9.7312 0.0026 -0.3953 0.0018
# 3 57.9926 9.7312 127.3203 0.0009 4.0384 -0.0012
# 4 0.0016 0.0026 0.0009 27.3488 -0.0001 4.4160
# 5 -4.7122 -0.3953 4.0384 -0.0001 56.0496 0.0025
# 6 0.0006 0.0018 -0.0012 4.4160 0.0025 29.5729
#
#
#
# Elastic Compliance Matrix: (Units=1/GPa)
#
#
# Indices 1 2 3 4 5 6 
#
# 1 0.009203 -0.003373 -0.003967 0.000000 0.001036 0.000000
# 2 -0.003373 0.012524 0.000587 -0.000001 -0.000238 0.000000
# 3 -0.003967 0.000587 0.009649 0.000000 -0.001025 0.000001
# 4 0.000000 -0.000001 0.000000 0.037468 0.000000 -0.005595
# 5 0.001036 -0.000238 -0.001025 0.000000 0.018001 -0.000002
# 6 0.000000 0.000000 0.000001 -0.005595 -0.000002 0.034650
#
#
# Mechanical properties :
#
#
# Convention : Reuss Voigt Hill
#
# Bulk Modulus (GPa) = 55.96242 63.75995 59.86118
# Shear Modulus (GPa) = 35.47169 39.90767 37.68968
#
# Velocity S-wave (km/s) = 3.98625 4.22817 4.10899
# Velocity P-wave (km/s) = 6.80120 7.23871 7.02336
#
# Compressibility (1/GPa) = 0.01786914
#
# Stress axis : x y z
#
# Youngs Moduli (GPa) = 108.66379 79.84459 103.64157
#
# Poissons Ratio (x) = 0.26934 0.41112
# Poissons Ratio (y) = 0.36656 -0.06082
# Poissons Ratio (z) = 0.43104 -0.04685
#
# Static dielectric constant tensor:
#      x y z
#    x 4.255430 0.000010 0.089390 
#    y 0.000010 3.473720 -0.000020 
#    z 0.089390 -0.000020 4.489490 
# 
# 
# High freq. dielectric constant tensor:
#      x y z
#    x 1.890840 0.000000 -0.002930 
#    y 0.000000 1.874160 0.000000 
#    z -0.002930 0.000000 1.903660 
# 
# From -- ./inp_files/358522.got.cif
#   From: 2010.06.25/outbox.cif.g09.slc.cpg/sg12_180_cif.got.tgz:358522.got - 2010.06.28 00:19:55.
