data_PCOD8114294
_publ_section_title
;
Structure prediction by ZEFSAII (Michael W. Deem and Ramdas Pophale) SiO2 
 PCOD8114294
Probable space group: C 2/M
;
_chemical_formula_sum "Si O2"
_cell_formula_units_Z 24
_cell_length_a 21.174597
_cell_length_b 7.346968
_cell_length_c 16.560472
_cell_angle_alpha 90.000000
_cell_angle_beta 29.049822
_cell_angle_gamma 90.000000
_cell_volume 1250.972699
_symmetry_space_group_name_H-M "C 2/M"
_symmetry_group_IT_number 12
_symmetry_cell_setting 'monoclinic'
loop_
_space_group_symop_operation_xyz
x,y,z
-x,y,-z
-x,-y,-z
x,-y,z
1/2+x,1/2+y,z
1/2-x,1/2+y,-z
1/2-x,1/2-y,-z
1/2+x,1/2-y,z
loop_
_atom_site_type_symbol
_atom_site_label
_atom_site_fract_x
_atom_site_fract_y
_atom_site_fract_z
Si Si1 0.458466 0.298790 0.963394
Si Si2 0.709388 0.000000 0.241099
Si Si3 0.534425 0.000000 0.593391
Si Si4 0.100698 0.787400 0.649470
O O1 0.525612 0.500000 0.892204
O O2 0.517086 0.204892 0.818042
O O3 0.500000 0.194264 0.000000
O O4 0.301407 0.319546 0.132860
O O5 0.635216 0.000000 0.407922
O O6 0.612843 0.000000 0.273606
O O7 0.556318 0.182365 0.619571
O O8 0.250000 0.750000 0.500000
O O9 0.072371 0.000000 0.666582
#
# Coordination Sequence:
#
# PCOD8114294 Si02
#       4
#     8   4   4   8
#     4   8  16  33  58  78 112 151 180 228 286 328
#     4   9  19  38  58  82 116 160 180 227 298 338
#     4  11  22  36  63  84 111 154 196 225 285 346
#     4  11  21  36  58  88 113 146 193 241 276 333
#
# _framework density 19.185071000000001
#
# number of rings (size 3 to 8) (size 9 to 14) (size 15 to 20)
#    1.000    1.333    1.667    2.000    0.000    1.333 
#    0.000    4.167    3.667    0.000    0.000    0.000 
#    0.000    0.000    0.000    0.000    0.000    0.000 
#
# Total GULP energy -148694.096745 kJ/mol
# GULP energy per Si atom -12391.174729 kJ/mol
# Density = 1.914141 g / cm^3
# Si number density = 19.185071 Si / 1000 Ang^3
#
#
#
# Elastic Constant Matrix: (Units=GPa)
#
#
# Indices 1 2 3 4 5 6 
#
# 1 178.6693 44.0930 91.0829 0.0000 -5.7339 0.0001
# 2 44.0930 72.5795 19.6259 0.0021 4.2997 -0.0015
# 3 91.0829 19.6259 150.2201 0.0014 -6.3537 -0.0012
# 4 0.0000 0.0021 0.0014 16.4954 0.0002 4.4803
# 5 -5.7339 4.2997 -6.3537 0.0002 37.0607 0.0001
# 6 0.0001 -0.0015 -0.0012 4.4803 0.0001 8.6191
#
#
#
# Elastic Compliance Matrix: (Units=1/GPa)
#
#
# Indices 1 2 3 4 5 6 
#
# 1 0.009247 -0.004331 -0.004995 0.000002 0.001077 -0.000002
# 2 -0.004331 0.016458 0.000369 -0.000003 -0.002516 0.000005
# 3 -0.004995 0.000369 0.009673 -0.000001 0.000843 0.000002
# 4 0.000002 -0.000003 -0.000001 0.070589 0.000000 -0.036692
# 5 0.001077 -0.002516 0.000843 0.000000 0.027586 -0.000001
# 6 -0.000002 0.000005 0.000002 -0.036692 -0.000001 0.135093
#
#
# Mechanical properties :
#
#
# Convention : Reuss Voigt Hill
#
# Bulk Modulus (GPa) = 57.25888 79.00807 68.13347
# Shear Modulus (GPa) = 17.10100 28.87952 22.99026
#
# Velocity S-wave (km/s) = 2.98882 3.88404 3.46546
# Velocity P-wave (km/s) = 6.46692 7.83491 7.18356
#
# Compressibility (1/GPa) = 0.01746454
#
# Stress axis : x y z
#
# Youngs Moduli (GPa) = 108.14681 60.76028 103.37975
#
# Poissons Ratio (x) = 0.26312 0.51641
# Poissons Ratio (y) = 0.46833 -0.03816
# Poissons Ratio (z) = 0.54022 -0.02243
#
# Static dielectric constant tensor:
#      x y z
#    x 3.589210 0.000000 0.173150 
#    y 0.000000 3.209200 0.000000 
#    z 0.173150 0.000000 3.630550 
# 
# 
# High freq. dielectric constant tensor:
#      x y z
#    x 1.750010 0.000000 0.014580 
#    y 0.000000 1.706500 0.000000 
#    z 0.014580 0.000000 1.759000 
# 
# From -- ./inp_files/55386.got.cif
#   From: 2010.06.25/outbox.cif.g09.slc.cpg/sg12_28_cif.got.tgz:55386.got - 2010.06.28 00:19:55.
