data_PCOD8114390
_publ_section_title
;
Structure prediction by ZEFSAII (Michael W. Deem and Ramdas Pophale) SiO2 
 PCOD8114390
Probable space group: C 2/M
;
_chemical_formula_sum "Si O2"
_cell_formula_units_Z 64
_cell_length_a 13.935089
_cell_length_b 18.378077
_cell_length_c 25.639628
_cell_angle_alpha 90.000000
_cell_angle_beta 35.042378
_cell_angle_gamma 90.000000
_cell_volume 3770.259328
_symmetry_space_group_name_H-M "C 2/M"
_symmetry_group_IT_number 12
_symmetry_cell_setting 'monoclinic'
loop_
_space_group_symop_operation_xyz
x,y,z
-x,y,-z
-x,-y,-z
x,-y,z
1/2+x,1/2+y,z
1/2-x,1/2+y,-z
1/2-x,1/2-y,-z
1/2+x,1/2-y,z
loop_
_atom_site_type_symbol
_atom_site_label
_atom_site_fract_x
_atom_site_fract_y
_atom_site_fract_z
Si Si1 0.964207 0.416346 0.600041
Si Si2 0.911522 0.178761 0.762301
Si Si3 0.956064 0.795261 0.863738
Si Si4 0.309341 0.176207 0.754482
Si Si5 0.410594 0.917060 0.091368
Si Si6 0.671246 0.137633 0.052246
Si Si7 0.186678 0.084436 0.905885
Si Si8 0.769881 0.083792 0.391912
O O1 0.948819 0.500000 0.624041
O O2 0.943700 0.366720 0.659957
O O3 0.821420 0.397881 0.621574
O O4 0.145689 0.400821 0.495099
O O5 0.925920 0.200574 0.815881
O O6 0.896936 0.249904 0.733369
O O7 0.749685 0.130334 0.824345
O O8 0.071448 0.134868 0.671401
O O9 0.909046 0.716326 0.905275
O O10 0.147627 0.809819 0.791330
O O11 0.842817 0.855841 0.942976
O O12 0.263475 0.129194 0.824831
O O13 0.541366 0.913441 0.080223
O O14 0.353750 0.000000 0.107672
O O15 0.500000 0.885326 0.000000
O O16 0.702478 0.097940 0.092677
O O17 0.185812 0.000000 0.890946
O O18 0.000000 0.113176 0.000000
O O19 0.828088 0.000000 0.366132
#
# Coordination Sequence:
#
# PCOD8114390 Si02
#       8
#     8   8   8   8   8   8   8   8
#     4   9  19  37  60  84 110 139 175 226 283 334
#     4  12  22  36  57  81 112 143 186 227 275 328
#     4  11  22  34  55  79 108 147 186 230 268 318
#     4  12  22  36  57  81 112 143 186 227 275 328
#     4  11  23  36  52  79 110 147 190 229 271 321
#     4  11  21  38  54  72 113 154 188 228 268 310
#     4  11  23  36  52  79 110 147 190 229 271 321
#     4   9  19  37  60  84 110 139 175 226 283 334
#
# _framework density 16.974959999999999
#
# number of rings (size 3 to 8) (size 9 to 14) (size 15 to 20)
#    0.000    1.250    6.250    1.875    0.000    1.000 
#    0.000    0.000    0.000    0.000    0.000    0.000 
#    0.000    6.000    0.000    0.000    0.000    0.000 
#
# Total GULP energy -396935.802387 kJ/mol
# GULP energy per Si atom -12404.243825 kJ/mol
# Density = 1.693632 g / cm^3
# Si number density = 16.974960 Si / 1000 Ang^3
#
#
#
# Elastic Constant Matrix: (Units=GPa)
#
#
# Indices 1 2 3 4 5 6 
#
# 1 80.4494 29.4435 33.0365 0.0048 6.4643 0.0003
# 2 29.4435 88.7042 56.2405 0.0044 -0.4901 0.0001
# 3 33.0365 56.2405 102.9776 0.0065 3.3521 0.0027
# 4 0.0048 0.0044 0.0065 33.3847 -0.0007 7.2116
# 5 6.4643 -0.4901 3.3521 -0.0007 23.4946 -0.0012
# 6 0.0003 0.0001 0.0027 7.2116 -0.0012 22.7627
#
#
#
# Elastic Compliance Matrix: (Units=1/GPa)
#
#
# Indices 1 2 3 4 5 6 
#
# 1 0.015119 -0.003124 -0.003021 -0.000001 -0.003794 0.000000
# 2 -0.003124 0.017959 -0.008887 0.000000 0.002502 0.000001
# 3 -0.003021 -0.008887 0.015585 -0.000001 -0.001578 -0.000001
# 4 -0.000001 0.000000 -0.000001 0.032154 0.000001 -0.010187
# 5 -0.003794 0.002502 -0.001578 0.000001 0.043884 0.000002
# 6 0.000000 0.000001 -0.000001 -0.010187 0.000002 0.047159
#
#
# Mechanical properties :
#
#
# Convention : Reuss Voigt Hill
#
# Bulk Modulus (GPa) = 53.76742 56.61912 55.19327
# Shear Modulus (GPa) = 24.02408 26.15577 25.08993
#
# Velocity S-wave (km/s) = 3.76608 3.92962 3.84872
# Velocity P-wave (km/s) = 7.11720 7.34956 7.23431
#
# Compressibility (1/GPa) = 0.01859862
#
# Stress axis : x y z
#
# Youngs Moduli (GPa) = 66.14265 55.68205 64.16415
#
# Poissons Ratio (x) = 0.17397 0.19381
# Poissons Ratio (y) = 0.20665 0.57025
# Poissons Ratio (z) = 0.19978 0.49487
#
# Static dielectric constant tensor:
#      x y z
#    x 3.137730 0.000000 0.000010 
#    y 0.000000 3.159530 0.000000 
#    z 0.000010 0.000000 3.121320 
# 
# 
# High freq. dielectric constant tensor:
#      x y z
#    x 1.655970 0.000000 0.001750 
#    y 0.000000 1.659730 0.000000 
#    z 0.001750 0.000000 1.649300 
# 
# From -- ./inp_files/170582.got.cif
#   From: 2010.06.25/outbox.cif.g09.slc.cpg/sg12_86_cif.got.tgz:170582.got - 2010.06.28 00:19:55.
