data_PCOD8114679
_publ_section_title
;
Structure prediction by ZEFSAII (Michael W. Deem and Ramdas Pophale) SiO2 
 PCOD8114679
Probable space group: C 2/M
;
_chemical_formula_sum "Si O2"
_cell_formula_units_Z 56
_cell_length_a 18.669240
_cell_length_b 9.011753
_cell_length_c 20.348963
_cell_angle_alpha 90.000000
_cell_angle_beta 61.382630
_cell_angle_gamma 90.000000
_cell_volume 3005.332203
_symmetry_space_group_name_H-M "C 2/M"
_symmetry_group_IT_number 12
_symmetry_cell_setting 'monoclinic'
loop_
_space_group_symop_operation_xyz
x,y,z
-x,y,-z
-x,-y,-z
x,-y,z
1/2+x,1/2+y,z
1/2-x,1/2+y,-z
1/2-x,1/2-y,-z
1/2+x,1/2-y,z
loop_
_atom_site_type_symbol
_atom_site_label
_atom_site_fract_x
_atom_site_fract_y
_atom_site_fract_z
Si Si1 0.955618 0.170064 0.418554
Si Si2 0.569472 0.824100 0.703592
Si Si3 0.674825 0.173094 0.998210
Si Si4 0.282221 0.325844 0.288531
Si Si5 0.095595 0.327379 0.162078
Si Si6 0.265324 0.674840 0.145472
Si Si7 0.625504 0.329662 0.408667
O O1 0.926070 0.277475 0.374089
O O2 0.896578 0.198372 0.505921
O O3 0.048280 0.208320 0.397086
O O4 0.949052 0.000000 0.398170
O O5 0.645324 0.759246 0.708724
O O6 0.486847 0.756399 0.772415
O O7 0.573263 0.000000 0.707070
O O8 0.664764 0.248237 0.930914
O O9 0.692096 0.000000 0.981485
O O10 0.750000 0.250000 0.000000
O O11 0.598544 0.199609 0.081482
O O12 0.294424 0.500000 0.292265
O O13 0.282286 0.279234 0.212389
O O14 0.197165 0.280957 0.358412
O O15 0.093708 0.500000 0.179235
O O16 0.176007 0.262685 0.163320
O O17 0.270754 0.500000 0.131659
O O18 0.652538 0.500000 0.386338
#
# Coordination Sequence:
#
# PCOD8114679 Si02
#       7
#     8   8   8   8   8   8   8
#     4   9  19  37  59  83 109 134 168 217 266 311
#     4  11  22  36  54  76 106 144 182 217 259 314
#     4   9  16  29  51  78 105 132 168 215 263 310
#     4  11  23  37  53  76 109 144 178 220 264 309
#     4   8  16  32  53  76 101 131 170 215 259 306
#     4   9  18  34  54  76 103 134 172 218 265 312
#     4   9  19  37  60  83 107 136 171 214 263 317
#
# _framework density 18.633547
#
# number of rings (size 3 to 8) (size 9 to 14) (size 15 to 20)
#    0.000    2.571    0.000    3.857    0.000    4.000 
#    0.000   10.714    0.000    4.286    0.000    0.000 
#    0.000    0.000    0.000    0.000    0.000    0.000 
#
# Total GULP energy -347113.220824 kJ/mol
# GULP energy per Si atom -12396.900744 kJ/mol
# Density = 1.859114 g / cm^3
# Si number density = 18.633547 Si / 1000 Ang^3
#
#
#
# Elastic Constant Matrix: (Units=GPa)
#
#
# Indices 1 2 3 4 5 6 
#
# 1 93.0626 43.8439 62.8336 0.0000 20.8659 0.0001
# 2 43.8439 67.8963 54.6167 -0.0001 8.5615 0.0002
# 3 62.8336 54.6167 122.9672 0.0000 22.7168 -0.0001
# 4 0.0000 -0.0001 0.0000 33.1374 0.0000 -0.0278
# 5 20.8659 8.5615 22.7168 0.0000 9.8384 0.0000
# 6 0.0001 0.0002 -0.0001 -0.0278 0.0000 10.1668
#
#
#
# Elastic Compliance Matrix: (Units=1/GPa)
#
#
# Indices 1 2 3 4 5 6 
#
# 1 0.026390 -0.011261 0.000081 0.000000 -0.046357 0.000000
# 2 -0.011261 0.027940 -0.011468 0.000000 0.026048 0.000000
# 3 0.000081 -0.011468 0.019832 0.000000 -0.035984 0.000000
# 4 0.000000 0.000000 0.000000 0.030177 0.000000 0.000083
# 5 -0.046357 0.026048 -0.035984 0.000000 0.260380 0.000000
# 6 0.000000 0.000000 0.000000 0.000083 0.000000 0.098360
#
#
# Mechanical properties :
#
#
# Convention : Reuss Voigt Hill
#
# Bulk Modulus (GPa) = 34.64211 67.39050 51.01631
# Shear Modulus (GPa) = 9.65255 18.80396 14.22825
#
# Velocity S-wave (km/s) = 2.27847 3.18015 2.76630
# Velocity P-wave (km/s) = 5.05505 7.05189 6.13526
#
# Compressibility (1/GPa) = 0.02886660
#
# Stress axis : x y z
#
# Youngs Moduli (GPa) = 37.89310 35.79051 50.42298
#
# Poissons Ratio (x) = 0.40303 -0.00407
# Poissons Ratio (y) = 0.42671 0.57825
# Poissons Ratio (z) = -0.00306 0.41044
#
# Static dielectric constant tensor:
#      x y z
#    x 3.255260 0.000000 -0.005070 
#    y 0.000000 3.336910 0.000000 
#    z -0.005070 0.000000 3.801260 
# 
# 
# High freq. dielectric constant tensor:
#      x y z
#    x 1.700250 0.000000 0.005800 
#    y 0.000000 1.713730 0.000000 
#    z 0.005800 0.000000 1.740940 
# 
# From -- ./inp_files/313764.got.cif
#   From: 2010.06.25/outbox.cif.g09.slc.cpg/sg12_157_cif.got.tgz:313764.got - 2010.06.28 00:19:55.
