data_PCOD8114407
_publ_section_title
;
Structure prediction by ZEFSAII (Michael W. Deem and Ramdas Pophale) SiO2 
 PCOD8114407
Probable space group: C 2/M
;
_chemical_formula_sum "Si O2"
_cell_formula_units_Z 40
_cell_length_a 7.666791
_cell_length_b 23.388055
_cell_length_c 10.486409
_cell_angle_alpha 90.000000
_cell_angle_beta 84.882985
_cell_angle_gamma 90.000000
_cell_volume 1872.838108
_symmetry_space_group_name_H-M "C 2/M"
_symmetry_group_IT_number 12
_symmetry_cell_setting 'monoclinic'
loop_
_space_group_symop_operation_xyz
x,y,z
-x,y,-z
-x,-y,-z
x,-y,z
1/2+x,1/2+y,z
1/2-x,1/2+y,-z
1/2-x,1/2-y,-z
1/2+x,1/2-y,z
loop_
_atom_site_type_symbol
_atom_site_label
_atom_site_fract_x
_atom_site_fract_y
_atom_site_fract_z
Si Si1 0.384429 0.000000 0.214271
Si Si2 0.306311 0.374899 0.019085
Si Si3 0.730732 0.000000 0.068830
Si Si4 0.872859 0.688165 0.745285
Si Si5 0.488943 0.698055 0.357072
Si Si6 0.710219 0.879403 0.737432
O O1 0.307484 0.053925 0.294972
O O2 0.595049 0.000000 0.195921
O O3 0.342865 0.000000 0.068037
O O4 0.333286 0.439502 0.075417
O O5 0.187316 0.334096 0.113401
O O6 0.500000 0.347859 0.000000
O O7 0.209980 0.373261 0.890256
O O8 0.710801 0.681044 0.658904
O O9 0.934055 0.754401 0.745189
O O10 0.042870 0.652916 0.688465
O O11 0.500000 0.721996 0.500000
O O12 0.609612 0.642085 0.336018
#
# Coordination Sequence:
#
# PCOD8114407 Si02
#       6
#     4   8   4   8   8   8
#     4   9  18  36  63  94 132 172 205 246 315 386
#     4  11  21  38  61 101 136 166 208 255 324 383
#     4   9  17  32  60  93 133 173 204 245 305 399
#     4  12  24  42  66  93 126 169 213 266 318 379
#     4  12  27  46  66  92 121 172 226 268 319 374
#     4  11  23  42  66  98 135 166 208 263 317 388
#
# _framework density 21.357959999999999
#
# number of rings (size 3 to 8) (size 9 to 14) (size 15 to 20)
#    0.000    1.000    6.000    1.500    0.000    0.800 
#    3.600    1.500    0.000    1.200    0.000    0.000 
#    0.000    0.000    0.000    0.000    0.000    0.000 
#
# Total GULP energy -247932.732813 kJ/mol
# GULP energy per Si atom -12396.636641 kJ/mol
# Density = 2.130935 g / cm^3
# Si number density = 21.357960 Si / 1000 Ang^3
#
#
#
# Elastic Constant Matrix: (Units=GPa)
#
#
# Indices 1 2 3 4 5 6 
#
# 1 149.5245 50.7449 14.4967 0.0000 8.1925 0.0000
# 2 50.7449 124.7361 30.0702 0.0000 -13.0047 0.0000
# 3 14.4967 30.0702 54.3696 0.0000 2.2970 0.0000
# 4 0.0000 0.0000 0.0000 14.0734 0.0000 -6.2887
# 5 8.1925 -13.0047 2.2970 0.0000 24.6203 0.0000
# 6 0.0000 0.0000 0.0000 -6.2887 0.0000 30.2800
#
#
#
# Elastic Compliance Matrix: (Units=1/GPa)
#
#
# Indices 1 2 3 4 5 6 
#
# 1 0.008261 -0.003902 0.000159 0.000000 -0.004825 0.000000
# 2 -0.003902 0.011864 -0.005864 0.000000 0.008112 0.000000
# 3 0.000159 -0.005864 0.021812 0.000000 -0.005185 0.000000
# 4 0.000000 0.000000 0.000000 0.078325 0.000000 0.016267
# 5 -0.004825 0.008112 -0.005185 0.000000 0.046991 0.000000
# 6 0.000000 0.000000 0.000000 0.016267 0.000000 0.036403
#
#
# Mechanical properties :
#
#
# Convention : Reuss Voigt Hill
#
# Bulk Modulus (GPa) = 44.00650 57.69487 50.85068
# Shear Modulus (GPa) = 21.69720 29.34930 25.52325
#
# Velocity S-wave (km/s) = 3.19075 3.71099 3.46066
# Velocity P-wave (km/s) = 5.85009 6.74046 6.31100
#
# Compressibility (1/GPa) = 0.02272392
#
# Stress axis : x y z
#
# Youngs Moduli (GPa) = 121.04936 84.29051 45.84579
#
# Poissons Ratio (x) = 0.32892 -0.00731
# Poissons Ratio (y) = 0.47236 0.26883
# Poissons Ratio (z) = -0.01929 0.49426
#
# Static dielectric constant tensor:
#      x y z
#    x 3.982150 0.000000 -0.070640 
#    y 0.000000 4.082170 0.000000 
#    z -0.070640 0.000000 3.426520 
# 
# 
# High freq. dielectric constant tensor:
#      x y z
#    x 1.853070 0.000000 -0.011180 
#    y 0.000000 1.840890 0.000000 
#    z -0.011180 0.000000 1.793770 
# 
# From -- ./inp_files/121320.got.cif
#   From: 2010.06.25/outbox.cif.g09.slc.cpg/sg12_61_cif.got.tgz:121320.got - 2010.06.28 00:19:55.
