data_PCOD8114405
_publ_section_title
;
Structure prediction by ZEFSAII (Michael W. Deem and Ramdas Pophale) SiO2 
 PCOD8114405
Probable space group: C 2/M
;
_chemical_formula_sum "Si O2"
_cell_formula_units_Z 40
_cell_length_a 9.388713
_cell_length_b 24.625350
_cell_length_c 17.017385
_cell_angle_alpha 90.000000
_cell_angle_beta 31.876975
_cell_angle_gamma 90.000000
_cell_volume 2077.758659
_symmetry_space_group_name_H-M "C 2/M"
_symmetry_group_IT_number 12
_symmetry_cell_setting 'monoclinic'
loop_
_space_group_symop_operation_xyz
x,y,z
-x,y,-z
-x,-y,-z
x,-y,z
1/2+x,1/2+y,z
1/2-x,1/2+y,-z
1/2-x,1/2-y,-z
1/2+x,1/2-y,z
loop_
_atom_site_type_symbol
_atom_site_label
_atom_site_fract_x
_atom_site_fract_y
_atom_site_fract_z
Si Si1 0.541500 0.736818 0.891968
Si Si2 0.393204 0.062391 0.882388
Si Si3 0.711307 0.854881 0.832592
Si Si4 0.246821 0.652720 0.334115
Si Si5 0.785456 0.938653 0.207670
O O1 0.712904 0.791997 0.806125
O O2 0.676266 0.694065 0.771016
O O3 0.500000 0.713718 0.000000
O O4 0.250000 0.750000 0.000000
O O5 0.626651 0.103190 0.803424
O O6 0.378760 0.068388 0.795700
O O7 0.463914 0.000000 0.872421
O O8 0.099957 0.078829 0.053278
O O9 0.012184 0.865184 0.721378
O O10 0.500000 0.865315 0.000000
O O11 0.144083 0.598405 0.339157
O O12 0.000000 0.677213 0.500000
O O13 0.768972 0.000000 0.244650
#
# Coordination Sequence:
#
# PCOD8114405 Si02
#       5
#     8   8   8   8   8
#     4  11  22  41  66  88 114 161 205 246 293 358
#     4   9  18  34  63  94 116 152 210 256 284 345
#     4  11  21  38  60  89 119 158 207 242 298 361
#     4  12  26  40  60  93 126 157 198 252 308 356
#     4   9  19  36  60  90 121 158 200 246 302 354
#
# _framework density 19.251514
#
# number of rings (size 3 to 8) (size 9 to 14) (size 15 to 20)
#    0.000    1.600    6.000    1.200    5.600    2.400 
#    0.000    1.000    0.000    2.400    0.000    0.000 
#    0.000    0.000    0.000    0.000    0.000    0.000 
#
# Total GULP energy -247929.025181 kJ/mol
# GULP energy per Si atom -12396.451259 kJ/mol
# Density = 1.920770 g / cm^3
# Si number density = 19.251514 Si / 1000 Ang^3
#
#
#
# Elastic Constant Matrix: (Units=GPa)
#
#
# Indices 1 2 3 4 5 6 
#
# 1 120.0587 62.1490 52.6974 -0.0013 -2.1045 0.0019
# 2 62.1490 111.2498 41.1519 0.0013 10.4272 0.0020
# 3 52.6974 41.1519 95.4090 0.0283 6.2858 -0.0106
# 4 -0.0013 0.0013 0.0283 8.7188 -0.0036 -0.5891
# 5 -2.1045 10.4272 6.2858 -0.0036 22.5888 0.0028
# 6 0.0019 0.0020 -0.0106 -0.5891 0.0028 37.2057
#
#
#
# Elastic Compliance Matrix: (Units=1/GPa)
#
#
# Indices 1 2 3 4 5 6 
#
# 1 0.014142 -0.006440 -0.005415 0.000023 0.005797 -0.000002
# 2 -0.006440 0.013945 -0.002031 0.000001 -0.006472 0.000000
# 3 -0.005415 -0.002031 0.014587 -0.000049 -0.003626 0.000004
# 4 0.000023 0.000001 -0.000049 0.114818 0.000033 0.001818
# 5 0.005797 -0.006472 -0.003626 0.000033 0.048806 -0.000004
# 6 -0.000002 0.000000 0.000004 0.001818 -0.000004 0.026906
#
#
# Mechanical properties :
#
#
# Convention : Reuss Voigt Hill
#
# Bulk Modulus (GPa) = 67.11196 70.96824 69.04010
# Shear Modulus (GPa) = 18.80103 25.08394 21.94248
#
# Velocity S-wave (km/s) = 3.12845 3.61357 3.37972
# Velocity P-wave (km/s) = 6.92719 7.37253 7.15333
#
# Compressibility (1/GPa) = 0.01490047
#
# Stress axis : x y z
#
# Youngs Moduli (GPa) = 70.71343 71.71255 68.55473
#
# Poissons Ratio (x) = 0.46186 0.37122
# Poissons Ratio (y) = 0.45543 0.13923
# Poissons Ratio (z) = 0.38290 0.14564
#
# Static dielectric constant tensor:
#      x y z
#    x 3.639880 -0.000010 -0.074750 
#    y -0.000010 3.496040 0.000010 
#    z -0.074750 0.000010 3.105430 
# 
# 
# High freq. dielectric constant tensor:
#      x y z
#    x 1.763610 0.000000 -0.003310 
#    y 0.000000 1.760810 0.000000 
#    z -0.003310 0.000000 1.702560 
# 
# From -- ./inp_files/40529.got.cif
#   From: 2010.06.25/outbox.cif.g09.slc.cpg/sg12_21_cif.got.tgz:40529.got - 2010.06.28 00:19:55.
