data_PCOD8114155
_publ_section_title
;
Structure prediction by ZEFSAII (Michael W. Deem and Ramdas Pophale) SiO2 
 PCOD8114155
Probable space group: C 2/M
;
_chemical_formula_sum "Si O2"
_cell_formula_units_Z 36
_cell_length_a 16.875578
_cell_length_b 19.799605
_cell_length_c 13.475276
_cell_angle_alpha 90.000000
_cell_angle_beta 23.819125
_cell_angle_gamma 90.000000
_cell_volume 1818.334056
_symmetry_space_group_name_H-M "C 2/M"
_symmetry_group_IT_number 12
_symmetry_cell_setting 'monoclinic'
loop_
_space_group_symop_operation_xyz
x,y,z
-x,y,-z
-x,-y,-z
x,-y,z
1/2+x,1/2+y,z
1/2-x,1/2+y,-z
1/2-x,1/2-y,-z
1/2+x,1/2-y,z
loop_
_atom_site_type_symbol
_atom_site_label
_atom_site_fract_x
_atom_site_fract_y
_atom_site_fract_z
Si Si1 0.815121 0.158893 0.366834
Si Si2 0.190367 0.304766 0.714824
Si Si3 0.248454 0.190199 0.922944
Si Si4 0.000000 0.224193 0.500000
Si Si5 0.468523 0.923734 0.418704
O O1 0.777851 0.226645 0.348449
O O2 0.684404 0.154559 0.617991
O O3 0.750132 0.097318 0.368710
O O4 0.041593 0.155462 0.137431
O O5 0.391711 0.323584 0.543387
O O6 0.000000 0.320353 0.000000
O O7 0.326972 0.226302 0.734614
O O8 0.386342 0.129002 0.801905
O O9 0.250000 0.250000 0.000000
O O10 0.500000 0.917148 0.500000
O O11 0.511751 0.000000 0.334673
#
# Coordination Sequence:
#
# PCOD8114155 Si02
#       5
#     8   8   8   4   8
#     4  11  22  36  59  89 120 165 209 248 316 377
#     4  11  21  33  57  91 125 154 194 261 317 365
#     4  12  21  37  63  95 126 157 210 265 312 368
#     4  12  20  32  55  92 127 152 192 256 324 360
#     4  11  25  43  60  87 130 173 211 255 314 382
#
# _framework density 19.798342000000002
#
# number of rings (size 3 to 8) (size 9 to 14) (size 15 to 20)
#    0.000    0.667    7.778    1.333    0.000    0.889 
#    0.000    2.222    0.000    0.667    0.000    3.111 
#    0.000    0.000    0.000    0.000    0.000    0.000 
#
# Total GULP energy -223061.625993 kJ/mol
# GULP energy per Si atom -12392.312555 kJ/mol
# Density = 1.975328 g / cm^3
# Si number density = 19.798342 Si / 1000 Ang^3
#
#
#
# Elastic Constant Matrix: (Units=GPa)
#
#
# Indices 1 2 3 4 5 6 
#
# 1 119.6656 42.3980 48.9619 -0.0206 -20.5964 0.0070
# 2 42.3980 104.5095 24.3117 -0.0387 -9.6365 0.0196
# 3 48.9619 24.3117 110.3774 -0.0388 0.3718 0.0152
# 4 -0.0206 -0.0387 -0.0388 16.2746 0.0057 0.4351
# 5 -20.5964 -9.6365 0.3718 0.0057 41.5261 0.0008
# 6 0.0070 0.0196 0.0152 0.4351 0.0008 19.5492
#
#
#
# Elastic Compliance Matrix: (Units=1/GPa)
#
#
# Indices 1 2 3 4 5 6 
#
# 1 0.012472 -0.003444 -0.004792 -0.000006 0.005430 0.000003
# 2 -0.003444 0.011273 -0.000958 0.000020 0.000916 -0.000010
# 3 -0.004792 -0.000958 0.011406 0.000020 -0.002701 -0.000007
# 4 -0.000006 0.000020 0.000020 0.061482 -0.000007 -0.001368
# 5 0.005430 0.000916 -0.002701 -0.000007 0.027011 -0.000002
# 6 0.000003 -0.000010 -0.000007 -0.001368 -0.000002 0.051183
#
#
# Mechanical properties :
#
#
# Convention : Reuss Voigt Hill
#
# Bulk Modulus (GPa) = 59.65988 62.87730 61.26859
# Shear Modulus (GPa) = 25.15030 30.06203 27.60617
#
# Velocity S-wave (km/s) = 3.56803 3.90091 3.73817
# Velocity P-wave (km/s) = 6.86831 7.21923 7.04595
#
# Compressibility (1/GPa) = 0.01676168
#
# Stress axis : x y z
#
# Youngs Moduli (GPa) = 80.17793 88.70552 87.67523
#
# Poissons Ratio (x) = 0.30554 0.42015
# Poissons Ratio (y) = 0.27616 0.08401
# Poissons Ratio (z) = 0.38423 0.08500
#
# Static dielectric constant tensor:
#      x y z
#    x 4.632960 0.000050 0.761500 
#    y 0.000050 3.257980 0.000100 
#    z 0.761500 0.000100 4.850290 
# 
# 
# High freq. dielectric constant tensor:
#      x y z
#    x 1.802160 0.000000 -0.009340 
#    y 0.000000 1.707450 0.000010 
#    z -0.009340 0.000010 1.773290 
# 
# From -- ./inp_files/147419.got.cif
#   From: 2010.06.25/outbox.cif.g09.slc.cpg/sg12_74_cif.got.tgz:147419.got - 2010.06.28 00:19:55.
