data_PCOD8114544
_publ_section_title
;
Structure prediction by ZEFSAII (Michael W. Deem and Ramdas Pophale) SiO2 
 PCOD8114544
Probable space group: C 2/M
;
_chemical_formula_sum "Si O2"
_cell_formula_units_Z 40
_cell_length_a 18.783750
_cell_length_b 14.433894
_cell_length_c 13.614831
_cell_angle_alpha 90.000000
_cell_angle_beta 29.370664
_cell_angle_gamma 90.000000
_cell_volume 1810.420887
_symmetry_space_group_name_H-M "C 2/M"
_symmetry_group_IT_number 12
_symmetry_cell_setting 'monoclinic'
loop_
_space_group_symop_operation_xyz
x,y,z
-x,y,-z
-x,-y,-z
x,-y,z
1/2+x,1/2+y,z
1/2-x,1/2+y,-z
1/2-x,1/2-y,-z
1/2+x,1/2-y,z
loop_
_atom_site_type_symbol
_atom_site_label
_atom_site_fract_x
_atom_site_fract_y
_atom_site_fract_z
Si Si1 0.228703 0.602632 0.174682
Si Si2 0.466165 0.650474 0.238115
Si Si3 0.218976 0.396284 0.401551
Si Si4 0.264353 0.500000 0.835996
Si Si5 0.420561 0.848562 0.835878
Si Si6 0.921985 0.000000 0.445135
O O1 0.160277 0.500000 0.243028
O O2 0.185675 0.644805 0.332783
O O3 0.166237 0.665604 0.162230
O O4 0.402465 0.591139 0.963832
O O5 0.338830 0.666801 0.311692
O O6 0.539293 0.747631 0.175228
O O7 0.396722 0.593951 0.412952
O O8 0.283031 0.500000 0.315094
O O9 0.070766 0.401853 0.639824
O O10 0.301392 0.500000 0.676009
O O11 0.413246 0.500000 0.716597
O O12 0.175078 0.407223 0.971544
#
# Coordination Sequence:
#
# PCOD8114544 Si02
#       6
#     8   8   8   4   8   4
#     4  11  21  41  69  99 130 174 223 286 348 405
#     4  12  23  42  68  99 138 181 227 282 342 416
#     4  11  23  41  69  99 138 172 220 289 354 403
#     4  11  24  45  68  98 137 188 233 285 336 416
#     4  12  23  42  68 101 137 177 233 283 338 409
#     4  11  24  45  68  98 139 186 233 277 352 410
#
# _framework density 22.094311000000001
#
# number of rings (size 3 to 8) (size 9 to 14) (size 15 to 20)
#    0.000    0.600    6.000    2.400    0.000    4.800 
#    3.600    4.000    0.000    0.000    0.000    0.000 
#    0.000    0.000    0.000    0.000    0.000    0.000 
#
# Total GULP energy -247985.717012 kJ/mol
# GULP energy per Si atom -12399.285851 kJ/mol
# Density = 2.204402 g / cm^3
# Si number density = 22.094311 Si / 1000 Ang^3
#
#
#
# Elastic Constant Matrix: (Units=GPa)
#
#
# Indices 1 2 3 4 5 6 
#
# 1 91.4034 56.7970 39.3677 -0.0001 -5.2049 0.0001
# 2 56.7970 118.8290 47.1114 0.0000 19.7019 0.0000
# 3 39.3677 47.1114 125.4399 -0.0002 3.9962 0.0001
# 4 -0.0001 0.0000 -0.0002 18.8630 0.0001 -8.7956
# 5 -5.2049 19.7019 3.9962 0.0001 37.0525 0.0000
# 6 0.0001 0.0000 0.0001 -8.7956 0.0000 30.3527
#
#
#
# Elastic Compliance Matrix: (Units=1/GPa)
#
#
# Indices 1 2 3 4 5 6 
#
# 1 0.017935 -0.008795 -0.002564 0.000000 0.007473 0.000000
# 2 -0.008795 0.015163 -0.002647 0.000000 -0.009013 0.000000
# 3 -0.002564 -0.002647 0.009771 0.000000 -0.000006 0.000000
# 4 0.000000 0.000000 0.000000 0.061296 0.000000 0.017763
# 5 0.007473 -0.009013 -0.000006 0.000000 0.032831 0.000000
# 6 0.000000 0.000000 0.000000 0.017763 0.000000 0.038093
#
#
# Mechanical properties :
#
#
# Convention : Reuss Voigt Hill
#
# Bulk Modulus (GPa) = 67.30810 69.13605 68.22207
# Shear Modulus (GPa) = 24.03199 30.08004 27.05601
#
# Velocity S-wave (km/s) = 3.30161 3.69377 3.50318
# Velocity P-wave (km/s) = 6.71299 7.03926 6.87806
#
# Compressibility (1/GPa) = 0.01485705
#
# Stress axis : x y z
#
# Youngs Moduli (GPa) = 55.75545 65.94883 102.34347
#
# Poissons Ratio (x) = 0.58004 0.26237
# Poissons Ratio (y) = 0.49038 0.27095
# Poissons Ratio (z) = 0.14294 0.17460
#
# Static dielectric constant tensor:
#      x y z
#    x 4.027260 0.000000 0.042060 
#    y 0.000000 3.742430 0.000000 
#    z 0.042060 0.000000 4.155060 
# 
# 
# High freq. dielectric constant tensor:
#      x y z
#    x 1.870410 0.000000 -0.007110 
#    y 0.000000 1.853970 0.000000 
#    z -0.007110 0.000000 1.879230 
# 
# From -- ./inp_files/233315.got.cif
#   From: 2010.06.25/outbox.cif.g09.slc.cpg/sg12_117_cif.got.tgz:233315.got - 2010.06.28 00:19:55.
