data_PCOD8114613
_publ_section_title
;
Structure prediction by ZEFSAII (Michael W. Deem and Ramdas Pophale) SiO2 
 PCOD8114613
Probable space group: C 2/M
;
_chemical_formula_sum "Si O2"
_cell_formula_units_Z 56
_cell_length_a 8.900031
_cell_length_b 18.876329
_cell_length_c 20.123408
_cell_angle_alpha 90.000000
_cell_angle_beta 116.249594
_cell_angle_gamma 90.000000
_cell_volume 3032.095895
_symmetry_space_group_name_H-M "C 2/M"
_symmetry_group_IT_number 12
_symmetry_cell_setting 'monoclinic'
loop_
_space_group_symop_operation_xyz
x,y,z
-x,y,-z
-x,-y,-z
x,-y,z
1/2+x,1/2+y,z
1/2-x,1/2+y,-z
1/2-x,1/2-y,-z
1/2+x,1/2-y,z
loop_
_atom_site_type_symbol
_atom_site_label
_atom_site_fract_x
_atom_site_fract_y
_atom_site_fract_z
Si Si1 0.161160 0.579541 0.841051
Si Si2 0.258325 0.081370 0.585650
Si Si3 0.528877 0.173748 0.706149
Si Si4 0.520960 0.420459 0.841055
Si Si5 0.412985 0.581370 0.585651
Si Si6 0.383440 0.673747 0.706151
Si Si7 0.335623 0.415969 0.999999
O O1 0.085894 0.500000 0.822593
O O2 0.037554 0.631958 0.777886
O O3 0.344562 0.579723 0.844556
O O4 0.176815 0.605165 0.922005
O O5 0.413290 0.131223 0.632539
O O6 0.106629 0.096438 0.606623
O O7 0.201202 0.099061 0.499999
O O8 0.315988 0.000000 0.602242
O O9 0.454293 0.250001 0.704283
O O10 0.709688 0.181993 0.709680
O O11 0.559312 0.500000 0.822599
O O12 0.518237 0.368041 0.777890
O O13 0.667206 0.394833 0.922010
O O14 0.388509 0.500000 0.602242
O O15 0.351805 0.631221 0.632542
O O16 0.353860 0.500000 0.000000
O O17 0.500000 0.380151 0.000000
#
# Coordination Sequence:
#
# PCOD8114613 Si02
#       7
#     8   8   8   8   8   8   8
#     4   8  14  26  46  71  96 124 162 207 251 295
#     4   9  19  37  59  80 101 126 159 201 250 303
#     4  11  22  34  49  72 104 138 172 208 246 292
#     4   8  14  26  46  71  96 124 162 207 251 295
#     4   9  19  37  59  80 101 126 159 201 250 303
#     4  11  22  34  49  72 104 138 172 208 246 292
#     4   7  10  20  41  68  95 121 154 201 252 295
#
# _framework density 18.469073000000002
#
# number of rings (size 3 to 8) (size 9 to 14) (size 15 to 20)
#    0.000    3.000    0.000    4.286    0.000    2.857 
#    0.000    2.143    0.000    0.000    0.000    3.000 
#    0.000   16.000    0.000    0.000    0.000    0.000 
#
# Total GULP energy -346968.522409 kJ/mol
# GULP energy per Si atom -12391.732943 kJ/mol
# Density = 1.842704 g / cm^3
# Si number density = 18.469073 Si / 1000 Ang^3
#
#
#
# Elastic Constant Matrix: (Units=GPa)
#
#
# Indices 1 2 3 4 5 6 
#
# 1 40.1081 32.8700 35.4233 0.0000 -0.8542 0.0000
# 2 32.8700 108.7582 78.1967 0.0000 -1.8723 0.0000
# 3 35.4233 78.1967 142.5183 0.0000 -3.3733 0.0000
# 4 0.0000 0.0000 0.0000 5.7348 0.0000 -0.5675
# 5 -0.8542 -1.8723 -3.3733 0.0000 12.7847 0.0000
# 6 0.0000 0.0000 0.0000 -0.5675 0.0000 -8.0152
#
#
#
# Elastic Compliance Matrix: (Units=1/GPa)
#
#
# Indices 1 2 3 4 5 6 
#
# 1 0.035010 -0.007142 -0.004782 0.000000 0.000031 0.000000
# 2 -0.007142 0.016642 -0.007356 0.000000 0.000019 0.000000
# 3 -0.004782 -0.007356 0.012285 0.000000 0.001845 0.000000
# 4 0.000000 0.000000 0.000000 0.173161 0.000000 -0.012259
# 5 0.000031 0.000019 0.001845 0.000000 0.078710 0.000000
# 6 0.000000 0.000000 0.000000 -0.012259 0.000000 -0.123896
#
#
# Mechanical properties :
#
#
# Convention : Reuss Voigt Hill
#
# Bulk Modulus (GPa) = 39.40553 64.92940 52.16746
# Shear Modulus (GPa) = 20.92644 11.76051 16.34347
#
# Velocity S-wave (km/s) = 3.36974 2.52616 2.97797
# Velocity P-wave (km/s) = 6.04338 6.61368 6.33495
#
# Compressibility (1/GPa) = 0.02537715
#
# Stress axis : x y z
#
# Youngs Moduli (GPa) = 28.56301 60.08813 81.40101
#
# Poissons Ratio (x) = 0.42915 0.38930
# Poissons Ratio (y) = 0.20400 0.59875
# Poissons Ratio (z) = 0.13660 0.44198
#
# Static dielectric constant tensor:
#      x y z
#    x 2.945820 0.000000 -0.037800 
#    y 0.000000 3.249610 0.000000 
#    z -0.037800 0.000000 3.862240 
# 
# 
# High freq. dielectric constant tensor:
#      x y z
#    x 1.670520 0.000000 -0.002880 
#    y 0.000000 1.697190 0.000000 
#    z -0.002880 0.000000 1.740340 
# 
# From -- ./inp_files/300913.got.cif
#   From: 2010.06.25/outbox.cif.g09.slc.cpg/sg12_151_cif.got.tgz:300913.got - 2010.06.28 00:19:55.
