data_PCOD8114391
_publ_section_title
;
Structure prediction by ZEFSAII (Michael W. Deem and Ramdas Pophale) SiO2 
 PCOD8114391
Probable space group: C 2/M
;
_chemical_formula_sum "Si O2"
_cell_formula_units_Z 56
_cell_length_a 8.821323
_cell_length_b 27.863728
_cell_length_c 17.206700
_cell_angle_alpha 90.000000
_cell_angle_beta 46.079305
_cell_angle_gamma 90.000000
_cell_volume 3046.381689
_symmetry_space_group_name_H-M "C 2/M"
_symmetry_group_IT_number 12
_symmetry_cell_setting 'monoclinic'
loop_
_space_group_symop_operation_xyz
x,y,z
-x,y,-z
-x,-y,-z
x,-y,z
1/2+x,1/2+y,z
1/2-x,1/2+y,-z
1/2-x,1/2-y,-z
1/2+x,1/2-y,z
loop_
_atom_site_type_symbol
_atom_site_label
_atom_site_fract_x
_atom_site_fract_y
_atom_site_fract_z
Si Si1 0.600605 0.633585 0.819511
Si Si2 0.125600 0.603957 0.023528
Si Si3 0.795038 0.774568 0.117335
Si Si4 0.711603 0.812278 0.388983
Si Si5 0.228062 0.053447 0.881389
Si Si6 0.599297 0.190651 0.826622
Si Si7 0.556370 0.710830 0.393827
O O1 0.659164 0.675525 0.857428
O O2 0.669012 0.648591 0.708178
O O3 0.730819 0.587000 0.803746
O O4 0.353233 0.621818 0.913531
O O5 0.122920 0.573203 0.103172
O O6 0.968498 0.648239 0.093803
O O7 0.000000 0.575148 0.000000
O O8 0.604871 0.780187 0.126395
O O9 0.740798 0.728754 0.189485
O O10 0.000000 0.757146 0.000000
O O11 0.500000 0.836542 0.500000
O O12 0.638109 0.766122 0.365172
O O13 0.856657 0.794970 0.408505
O O14 0.300527 0.000000 0.831055
O O15 0.000000 0.052430 0.000000
O O16 0.749160 0.175684 0.701115
O O17 0.500000 0.693566 0.500000
#
# Coordination Sequence:
#
# PCOD8114391 Si02
#       7
#     8   8   8   8   8   8   8
#     4  11  21  38  54  80 108 141 189 222 268 331
#     4  11  22  34  53  83 115 141 179 226 271 328
#     4  12  22  33  48  75 109 150 180 214 266 321
#     4  11  23  36  54  75 107 148 190 234 266 314
#     4   9  19  38  60  79 105 142 179 224 278 327
#     4  12  23  33  50  74 112 150 181 226 264 316
#     4  11  23  36  51  74 106 153 196 223 266 316
#
# _framework density 18.382462
#
# number of rings (size 3 to 8) (size 9 to 14) (size 15 to 20)
#    0.000    1.000    4.286    4.714    4.000    0.286 
#    0.000    0.000    0.000    0.429    0.000    0.000 
#    0.000    3.429    0.000    0.000    0.000    0.000 
#
# Total GULP energy -347026.287023 kJ/mol
# GULP energy per Si atom -12393.795965 kJ/mol
# Density = 1.834062 g / cm^3
# Si number density = 18.382462 Si / 1000 Ang^3
#
#
#
# Elastic Constant Matrix: (Units=GPa)
#
#
# Indices 1 2 3 4 5 6 
#
# 1 99.7903 41.7169 22.2149 0.0000 15.1714 0.0000
# 2 41.7169 86.5303 25.8405 0.0000 13.6951 0.0000
# 3 22.2149 25.8405 107.2922 0.0000 2.9831 0.0000
# 4 0.0000 0.0000 0.0000 12.9192 0.0000 6.9373
# 5 15.1714 13.6951 2.9831 0.0000 27.6291 0.0000
# 6 0.0000 0.0000 0.0000 6.9373 0.0000 12.4777
#
#
#
# Elastic Compliance Matrix: (Units=1/GPa)
#
#
# Indices 1 2 3 4 5 6 
#
# 1 0.013199 -0.005250 -0.001343 0.000000 -0.004500 0.000000
# 2 -0.005250 0.015566 -0.002535 0.000000 -0.004559 0.000000
# 3 -0.001343 -0.002535 0.010184 0.000000 0.000895 0.000000
# 4 0.000000 0.000000 0.000000 0.110348 0.000000 -0.061351
# 5 -0.004500 -0.004559 0.000895 0.000000 0.040828 0.000000
# 6 0.000000 0.000000 0.000000 -0.061351 0.000000 0.114253
#
#
# Mechanical properties :
#
#
# Convention : Reuss Voigt Hill
#
# Bulk Modulus (GPa) = 48.32658 52.57305 50.44982
# Shear Modulus (GPa) = 15.17299 24.19455 19.68377
#
# Velocity S-wave (km/s) = 2.87610 3.63185 3.27584
# Velocity P-wave (km/s) = 6.11358 6.80064 6.46624
#
# Compressibility (1/GPa) = 0.02069255
#
# Stress axis : x y z
#
# Youngs Moduli (GPa) = 75.76358 64.24101 98.19122
#
# Poissons Ratio (x) = 0.33726 0.13190
# Poissons Ratio (y) = 0.39775 0.24894
# Poissons Ratio (z) = 0.10178 0.16287
#
# Static dielectric constant tensor:
#      x y z
#    x 3.592150 0.000000 0.021010 
#    y 0.000000 3.236400 0.000000 
#    z 0.021010 0.000000 3.672300 
# 
# 
# High freq. dielectric constant tensor:
#      x y z
#    x 1.734640 0.000000 0.003930 
#    y 0.000000 1.663130 0.000000 
#    z 0.003930 0.000000 1.709130 
# 
# From -- ./inp_files/259128.got.cif
#   From: 2010.06.25/outbox.cif.g09.slc.cpg/sg12_130_cif.got.tgz:259128.got - 2010.06.28 00:19:55.
