data_PCOD8114026
_publ_section_title
;
Structure prediction by ZEFSAII (Michael W. Deem and Ramdas Pophale) SiO2 
 PCOD8114026
Probable space group: C 2/M
;
_chemical_formula_sum "Si O2"
_cell_formula_units_Z 56
_cell_length_a 16.380578
_cell_length_b 22.813030
_cell_length_c 8.623760
_cell_angle_alpha 90.000000
_cell_angle_beta 121.800712
_cell_angle_gamma 90.000000
_cell_volume 2738.858556
_symmetry_space_group_name_H-M "C 2/M"
_symmetry_group_IT_number 12
_symmetry_cell_setting 'monoclinic'
loop_
_space_group_symop_operation_xyz
x,y,z
-x,y,-z
-x,-y,-z
x,-y,z
1/2+x,1/2+y,z
1/2-x,1/2+y,-z
1/2-x,1/2-y,-z
1/2+x,1/2-y,z
loop_
_atom_site_type_symbol
_atom_site_label
_atom_site_fract_x
_atom_site_fract_y
_atom_site_fract_z
Si Si1 0.534858 0.067187 0.709346
Si Si2 0.100016 0.065956 0.031035
Si Si3 0.105452 0.269170 0.542217
Si Si4 0.430610 0.167360 0.797300
Si Si5 0.717116 0.134609 0.843591
Si Si6 0.096110 0.064880 0.662148
Si Si7 0.236192 0.162885 0.774702
O O1 0.500000 0.077465 0.500000
O O2 0.475095 0.109490 0.762746
O O3 0.648556 0.081786 0.833775
O O4 0.519400 0.000000 0.746537
O O5 0.191242 0.108240 0.159194
O O6 0.118275 0.000000 0.115312
O O7 0.088895 0.063694 0.837810
O O8 0.000000 0.091556 0.000000
O O9 0.090929 0.280931 0.345643
O O10 0.152944 0.325933 0.667330
O O11 0.176648 0.215683 0.641296
O O12 0.000000 0.255209 0.500000
O O13 0.333626 0.151185 0.784673
O O14 0.500000 0.192907 0.000000
O O15 0.750614 0.172599 0.026670
O O16 0.183565 0.102356 0.688876
O O17 0.000000 0.094269 0.500000
O O18 0.109161 0.000000 0.605481
#
# Coordination Sequence:
#
# PCOD8114026 Si02
#       7
#     8   8   8   8   8   8   8
#     4  11  22  41  68  95 129 175 214 261 328 386
#     4   9  19  35  59  90 124 162 208 258 307 374
#     4  12  23  43  65  88 126 171 214 268 314 381
#     4  12  23  43  62  94 132 162 209 272 318 379
#     4  11  20  41  63  91 128 169 212 265 317 386
#     4   9  19  38  59  83 121 161 202 260 316 374
#     4  11  24  38  64  93 123 167 217 255 330 378
#
# _framework density 20.446473999999998
#
# number of rings (size 3 to 8) (size 9 to 14) (size 15 to 20)
#    0.000    1.286    4.286    1.714    0.000    2.571 
#    0.000    3.571    0.000    0.000    0.000    0.000 
#    0.000    0.000    0.000    0.000    0.000    0.000 
#
# Total GULP energy -347163.462142 kJ/mol
# GULP energy per Si atom -12398.695077 kJ/mol
# Density = 2.039994 g / cm^3
# Si number density = 20.446474 Si / 1000 Ang^3
#
#
#
# Elastic Constant Matrix: (Units=GPa)
#
#
# Indices 1 2 3 4 5 6 
#
# 1 159.7523 51.8570 28.7026 0.0000 26.8281 0.0000
# 2 51.8570 86.2087 46.0744 0.0000 7.4710 0.0000
# 3 28.7026 46.0744 114.7212 0.0000 11.9365 0.0000
# 4 0.0000 0.0000 0.0000 26.2775 0.0000 7.1546
# 5 26.8281 7.4710 11.9365 0.0000 31.4959 0.0000
# 6 0.0000 0.0000 0.0000 7.1546 0.0000 31.5522
#
#
#
# Elastic Compliance Matrix: (Units=1/GPa)
#
#
# Indices 1 2 3 4 5 6 
#
# 1 0.008918 -0.005052 0.000482 0.000000 -0.006581 0.000000
# 2 -0.005052 0.017684 -0.006090 0.000000 0.002416 0.000000
# 3 0.000482 -0.006090 0.011383 0.000000 -0.003281 0.000000
# 4 0.000000 0.000000 0.000000 0.040559 0.000000 -0.009197
# 5 -0.006581 0.002416 -0.003281 0.000000 0.038026 0.000000
# 6 0.000000 0.000000 0.000000 -0.009197 0.000000 0.033779
#
#
# Mechanical properties :
#
#
# Convention : Reuss Voigt Hill
#
# Bulk Modulus (GPa) = 59.99989 68.21670 64.10830
# Shear Modulus (GPa) = 28.21296 33.46834 30.84065
#
# Velocity S-wave (km/s) = 3.71866 4.05022 3.88797
# Velocity P-wave (km/s) = 6.91711 7.43696 7.18174
#
# Compressibility (1/GPa) = 0.01666670
#
# Stress axis : x y z
#
# Youngs Moduli (GPa) = 112.13138 56.54856 87.84920
#
# Poissons Ratio (x) = 0.28569 -0.04238
# Poissons Ratio (y) = 0.56649 0.53497
# Poissons Ratio (z) = -0.05410 0.34436
#
# Static dielectric constant tensor:
#      x y z
#    x 3.478490 0.000000 -0.149120 
#    y 0.000000 3.820560 0.000000 
#    z -0.149120 0.000000 3.617850 
# 
# 
# High freq. dielectric constant tensor:
#      x y z
#    x 1.804680 0.000000 0.015440 
#    y 0.000000 1.789570 0.000000 
#    z 0.015440 0.000000 1.809100 
# 
# From -- ./inp_files/65954.got.cif
#   From: 2010.06.25/outbox.cif.g09.slc.cpg/sg12_33_cif.got.tgz:65954.got - 2010.06.28 00:19:55.
