data_PCOD8114419
_publ_section_title
;
Structure prediction by ZEFSAII (Michael W. Deem and Ramdas Pophale) SiO2 
 PCOD8114419
Probable space group: C 2/M
;
_chemical_formula_sum "Si O2"
_cell_formula_units_Z 40
_cell_length_a 23.153018
_cell_length_b 8.524518
_cell_length_c 15.476512
_cell_angle_alpha 90.000000
_cell_angle_beta 41.388264
_cell_angle_gamma 90.000000
_cell_volume 2019.556102
_symmetry_space_group_name_H-M "C 2/M"
_symmetry_group_IT_number 12
_symmetry_cell_setting 'monoclinic'
loop_
_space_group_symop_operation_xyz
x,y,z
-x,y,-z
-x,-y,-z
x,-y,z
1/2+x,1/2+y,z
1/2-x,1/2+y,-z
1/2-x,1/2-y,-z
1/2+x,1/2-y,z
loop_
_atom_site_type_symbol
_atom_site_label
_atom_site_fract_x
_atom_site_fract_y
_atom_site_fract_z
Si Si1 0.192556 0.185713 0.485816
Si Si2 0.822151 0.813883 0.852370
Si Si3 0.999540 0.186275 0.739181
Si Si4 0.943970 0.186619 0.985155
Si Si5 0.249293 0.314369 0.239096
O O1 0.250000 0.250000 0.500000
O O2 0.229602 0.239889 0.353219
O O3 0.092995 0.250470 0.602225
O O4 0.193937 0.000000 0.490616
O O5 0.919125 0.756728 0.770290
O O6 0.813586 0.748671 0.765222
O O7 0.814455 0.000000 0.861799
O O8 0.750000 0.750000 0.000000
O O9 0.000760 0.000000 0.740256
O O10 0.983894 0.254370 0.852390
O O11 0.845062 0.242648 0.104774
O O12 0.948587 0.000000 0.981153
O O13 0.000000 0.259152 0.000000
O O14 0.241096 0.500000 0.255759
#
# Coordination Sequence:
#
# PCOD8114419 Si02
#       5
#     8   8   8   8   8
#     4  11  23  41  63  88 121 159 201 246 296 355
#     4  11  21  38  62  89 121 156 201 250 299 353
#     4   9  19  36  59  85 115 160 204 238 289 363
#     4   9  16  30  56  84 108 147 202 243 280 346
#     4  11  22  38  61  88 121 158 199 247 300 353
#
# _framework density 19.806332000000001
#
# number of rings (size 3 to 8) (size 9 to 14) (size 15 to 20)
#    0.000    1.800    2.000    3.000    0.000    4.000 
#    0.000    8.000    0.000    2.400    0.000    0.000 
#    0.000    0.000    0.000    0.000    0.000    0.000 
#
# Total GULP energy -247977.696581 kJ/mol
# GULP energy per Si atom -12398.884829 kJ/mol
# Density = 1.976125 g / cm^3
# Si number density = 19.806332 Si / 1000 Ang^3
#
#
#
# Elastic Constant Matrix: (Units=GPa)
#
#
# Indices 1 2 3 4 5 6 
#
# 1 133.0489 29.1329 8.9874 -0.0009 9.7625 0.0007
# 2 29.1329 50.5198 26.5867 0.0015 -3.3242 -0.0013
# 3 8.9874 26.5867 62.0699 -0.0002 9.5974 0.0010
# 4 -0.0009 0.0015 -0.0002 27.7122 0.0001 4.4781
# 5 9.7625 -3.3242 9.5974 0.0001 45.9166 -0.0002
# 6 0.0007 -0.0013 0.0010 4.4781 -0.0002 31.6406
#
#
#
# Elastic Compliance Matrix: (Units=1/GPa)
#
#
# Indices 1 2 3 4 5 6 
#
# 1 0.008979 -0.006324 0.001834 0.000001 -0.002750 -0.000001
# 2 -0.006324 0.030848 -0.013280 -0.000002 0.006353 0.000002
# 3 0.001834 -0.013280 0.022469 0.000001 -0.006048 -0.000002
# 4 0.000001 -0.000002 0.000001 0.036930 -0.000001 -0.005227
# 5 -0.002750 0.006353 -0.006048 -0.000001 0.024087 0.000001
# 6 -0.000001 0.000002 -0.000002 -0.005227 0.000001 0.032345
#
#
# Mechanical properties :
#
#
# Convention : Reuss Voigt Hill
#
# Bulk Modulus (GPa) = 37.37554 41.67251 39.52403
# Shear Modulus (GPa) = 24.98568 33.11599 29.05084
#
# Velocity S-wave (km/s) = 3.55561 4.09343 3.83397
# Velocity P-wave (km/s) = 5.98063 6.58994 6.29266
#
# Compressibility (1/GPa) = 0.02675546
#
# Stress axis : x y z
#
# Youngs Moduli (GPa) = 111.37592 32.41744 44.50643
#
# Poissons Ratio (x) = 0.20500 -0.08162
# Poissons Ratio (y) = 0.70430 0.59104
# Poissons Ratio (z) = -0.20424 0.43050
#
# Static dielectric constant tensor:
#      x y z
#    x 3.976870 0.000000 -0.088670 
#    y 0.000000 3.323110 0.000000 
#    z -0.088670 0.000000 3.805560 
# 
# 
# High freq. dielectric constant tensor:
#      x y z
#    x 1.794390 0.000000 0.000640 
#    y 0.000000 1.743770 0.000000 
#    z 0.000640 0.000000 1.780490 
# 
# From -- ./inp_files/220572.got.cif
#   From: 2010.06.25/outbox.cif.g09.slc.cpg/sg12_111_cif.got.tgz:220572.got - 2010.06.28 00:19:55.
