data_PCOD8114258
_publ_section_title
;
Structure prediction by ZEFSAII (Michael W. Deem and Ramdas Pophale) SiO2 
 PCOD8114258
Probable space group: C 2/M
;
_chemical_formula_sum "Si O2"
_cell_formula_units_Z 44
_cell_length_a 9.190385
_cell_length_b 23.369089
_cell_length_c 12.830709
_cell_angle_alpha 90.000000
_cell_angle_beta 135.343320
_cell_angle_gamma 90.000000
_cell_volume 1936.837427
_symmetry_space_group_name_H-M "C 2/M"
_symmetry_group_IT_number 12
_symmetry_cell_setting 'monoclinic'
loop_
_space_group_symop_operation_xyz
x,y,z
-x,y,-z
-x,-y,-z
x,-y,z
1/2+x,1/2+y,z
1/2-x,1/2+y,-z
1/2-x,1/2-y,-z
1/2+x,1/2-y,z
loop_
_atom_site_type_symbol
_atom_site_label
_atom_site_fract_x
_atom_site_fract_y
_atom_site_fract_z
Si Si1 0.345457 0.000000 0.824432
Si Si2 0.795953 0.500000 0.135811
Si Si3 0.966123 0.097178 0.283808
Si Si4 0.943571 0.279932 0.158425
Si Si5 0.590831 0.714032 0.654919
Si Si6 0.239708 0.500000 0.638855
Si Si7 0.168413 0.121011 0.005951
O O1 0.212592 0.942817 0.762042
O O2 0.460601 0.000000 0.770370
O O3 0.500000 0.000000 0.000000
O O4 0.732984 0.500000 0.223464
O O5 0.691148 0.553436 0.027086
O O6 0.998066 0.148811 0.381331
O O7 0.902767 0.132104 0.147962
O O8 0.166938 0.057741 0.364271
O O9 0.996267 0.253140 0.297075
O O10 0.159847 0.280566 0.206827
O O11 0.750000 0.250000 0.000000
O O12 0.881693 0.346556 0.139717
O O13 0.500000 0.738086 0.500000
O O14 0.000000 0.500000 0.500000
O O15 0.000000 0.145937 0.000000
#
# Coordination Sequence:
#
# PCOD8114258 Si02
#       7
#     4   4   8   8   8   4   8
#     4  11  21  35  66 104 144 175 232 304 365 423
#     4  12  22  38  66 105 138 178 235 303 369 427
#     4  11  24  43  69 103 142 193 239 300 365 442
#     4  12  26  46  77 105 140 195 257 309 360 437
#     4  12  28  50  71 106 151 191 243 307 381 442
#     4  11  26  46  68 100 151 198 243 291 366 459
#     4  12  22  39  70 106 140 177 247 311 365 422
#
# _framework density 22.717445000000001
#
# number of rings (size 3 to 8) (size 9 to 14) (size 15 to 20)
#    0.000    0.364    5.455    4.091    0.000    2.909 
#    0.000    3.636    0.000    0.000    0.000    0.000 
#    0.000    0.000    0.000    0.000    0.000    0.000 
#
# Total GULP energy -272795.974106 kJ/mol
# GULP energy per Si atom -12399.817005 kJ/mol
# Density = 2.266574 g / cm^3
# Si number density = 22.717445 Si / 1000 Ang^3
#
#
#
# Elastic Constant Matrix: (Units=GPa)
#
#
# Indices 1 2 3 4 5 6 
#
# 1 131.4055 20.5236 13.3894 0.0000 11.7366 0.0000
# 2 20.5236 100.7385 27.7929 0.0000 -0.0696 0.0000
# 3 13.3894 27.7929 75.3519 0.0000 -2.5250 0.0000
# 4 0.0000 0.0000 0.0000 16.4456 0.0000 -13.0003
# 5 11.7366 -0.0696 -2.5250 0.0000 41.5266 0.0000
# 6 0.0000 0.0000 0.0000 -13.0003 0.0000 26.0032
#
#
#
# Elastic Compliance Matrix: (Units=1/GPa)
#
#
# Indices 1 2 3 4 5 6 
#
# 1 0.008140 -0.001380 -0.001017 0.000000 -0.002365 0.000000
# 2 -0.001380 0.011287 -0.003912 0.000000 0.000171 0.000000
# 3 -0.001017 -0.003912 0.014935 0.000000 0.001189 0.000000
# 4 0.000000 0.000000 0.000000 0.100542 0.000000 0.050266
# 5 -0.002365 0.000171 0.001189 0.000000 0.024822 0.000000
# 6 0.000000 0.000000 0.000000 0.050266 0.000000 0.063587
#
#
# Mechanical properties :
#
#
# Convention : Reuss Voigt Hill
#
# Bulk Modulus (GPa) = 45.98825 47.87863 46.93344
# Shear Modulus (GPa) = 20.56093 33.18106 26.87100
#
# Velocity S-wave (km/s) = 3.01171 3.82592 3.44297
# Velocity P-wave (km/s) = 5.69046 6.37482 6.04234
#
# Compressibility (1/GPa) = 0.02174469
#
# Stress axis : x y z
#
# Youngs Moduli (GPa) = 122.84521 88.59553 66.95843
#
# Poissons Ratio (x) = 0.12222 0.06809
# Poissons Ratio (y) = 0.16947 0.26197
# Poissons Ratio (z) = 0.12492 0.34662
#
# Static dielectric constant tensor:
#      x y z
#    x 4.116060 0.000000 0.091300 
#    y 0.000000 4.014030 0.000000 
#    z 0.091300 0.000000 3.794040 
# 
# 
# High freq. dielectric constant tensor:
#      x y z
#    x 1.920120 0.000000 -0.005720 
#    y 0.000000 1.907950 0.000000 
#    z -0.005720 0.000000 1.870140 
# 
# From -- ./inp_files/124509.got.cif
#   From: 2010.06.25/outbox.cif.g09.slc.cpg/sg12_63_cif.got.tgz:124509.got - 2010.06.28 00:19:55.
