data_PCOD8114883
_publ_section_title
;
Structure prediction by ZEFSAII (Michael W. Deem and Ramdas Pophale) SiO2 
 PCOD8114883
Probable space group: C 2/M
;
_chemical_formula_sum "Si O2"
_cell_formula_units_Z 44
_cell_length_a 24.670623
_cell_length_b 13.602224
_cell_length_c 16.969227
_cell_angle_alpha 90.000000
_cell_angle_beta 158.406015
_cell_angle_gamma 90.000000
_cell_volume 2095.712534
_symmetry_space_group_name_H-M "C 2/M"
_symmetry_group_IT_number 12
_symmetry_cell_setting 'monoclinic'
loop_
_space_group_symop_operation_xyz
x,y,z
-x,y,-z
-x,-y,-z
x,-y,z
1/2+x,1/2+y,z
1/2-x,1/2+y,-z
1/2-x,1/2-y,-z
1/2+x,1/2-y,z
loop_
_atom_site_type_symbol
_atom_site_label
_atom_site_fract_x
_atom_site_fract_y
_atom_site_fract_z
Si Si1 0.769437 0.802246 0.648054
Si Si2 0.666445 0.500000 0.190770
Si Si3 0.500000 0.833827 0.500000
Si Si4 0.251414 0.790448 0.779870
Si Si5 0.639460 0.500000 0.632957
Si Si6 0.968275 0.797613 0.772610
Si Si7 0.009363 0.000000 0.284126
Si Si8 0.786504 0.500000 0.176393
O O1 0.801061 0.718572 0.756113
O O2 0.912390 0.805722 0.786389
O O3 0.623275 0.782919 0.399507
O O4 0.746362 0.905573 0.660539
O O5 0.686970 0.500000 0.123170
O O6 0.500000 0.500000 0.000000
O O7 0.408197 0.762616 0.433223
O O8 0.387118 0.903993 0.300653
O O9 0.239136 0.904822 0.785455
O O10 0.362601 0.737886 0.991945
O O11 0.500000 0.500000 0.500000
O O12 0.586584 0.500000 0.471919
O O13 0.944249 0.902740 0.700254
O O14 0.831860 0.000000 0.054239
#
# Coordination Sequence:
#
# PCOD8114883 Si02
#       8
#     8   4   4   8   4   8   4   4
#     4  11  23  41  66 101 133 173 219 282 334 403
#     4  12  21  38  70  98 137 167 218 282 352 384
#     4  11  22  39  66  92 138 163 222 275 328 382
#     4  12  23  46  66  95 138 180 225 275 339 395
#     4  12  28  46  64  92 138 188 225 265 334 414
#     4  11  24  41  71  99 134 172 226 273 342 404
#     4  12  21  46  69  99 131 177 229 272 334 413
#     4  11  22  38  66 106 123 168 221 287 334 388
#
# _framework density 20.995246000000002
#
# number of rings (size 3 to 8) (size 9 to 14) (size 15 to 20)
#    0.000    0.545    6.364    3.273    0.000    0.727 
#    3.273    5.455    0.000    0.000    0.000    0.000 
#    0.000    0.000    0.000    0.000    0.000    0.000 
#
# Total GULP energy -272796.805273 kJ/mol
# GULP energy per Si atom -12399.854785 kJ/mol
# Density = 2.094746 g / cm^3
# Si number density = 20.995246 Si / 1000 Ang^3
#
#
#
# Elastic Constant Matrix: (Units=GPa)
#
#
# Indices 1 2 3 4 5 6 
#
# 1 78.2808 41.5435 24.7999 0.0001 4.2902 0.0000
# 2 41.5435 141.0955 28.0446 0.0001 7.9711 0.0001
# 3 24.7999 28.0446 86.1282 0.0002 9.4959 0.0003
# 4 0.0001 0.0001 0.0002 12.1521 0.0001 5.0599
# 5 4.2902 7.9711 9.4959 0.0001 27.1466 0.0001
# 6 0.0000 0.0001 0.0003 5.0599 0.0001 30.6660
#
#
#
# Elastic Compliance Matrix: (Units=1/GPa)
#
#
# Indices 1 2 3 4 5 6 
#
# 1 0.015962 -0.004041 -0.003259 0.000000 -0.000196 0.000000
# 2 -0.004041 0.008654 -0.001502 0.000000 -0.001377 0.000000
# 3 -0.003259 -0.001502 0.013451 0.000000 -0.003749 0.000000
# 4 0.000000 0.000000 0.000000 0.088361 0.000000 -0.014580
# 5 -0.000196 -0.001377 -0.003749 0.000000 0.038584 0.000000
# 6 0.000000 0.000000 0.000000 -0.014580 0.000000 0.035015
#
#
# Mechanical properties :
#
#
# Convention : Reuss Voigt Hill
#
# Bulk Modulus (GPa) = 48.86858 54.92004 51.89431
# Shear Modulus (GPa) = 22.27642 28.06737 25.17189
#
# Velocity S-wave (km/s) = 3.26087 3.66025 3.46632
# Velocity P-wave (km/s) = 6.12407 6.63916 6.38681
#
# Compressibility (1/GPa) = 0.02046305
#
# Stress axis : x y z
#
# Youngs Moduli (GPa) = 62.64780 115.55859 74.34126
#
# Poissons Ratio (x) = 0.46698 0.24226
# Poissons Ratio (y) = 0.25316 0.11169
# Poissons Ratio (z) = 0.20415 0.17361
#
# Static dielectric constant tensor:
#      x y z
#    x 3.782700 0.000000 0.088140 
#    y 0.000000 4.025920 0.000000 
#    z 0.088140 0.000000 3.799620 
# 
# 
# High freq. dielectric constant tensor:
#      x y z
#    x 1.813320 0.000000 0.006370 
#    y 0.000000 1.834830 0.000000 
#    z 0.006370 0.000000 1.819990 
# 
# From -- ./inp_files/293659.got.cif
#   From: 2010.06.25/outbox.cif.g09.slc.cpg/sg12_147_cif.got.tgz:293659.got - 2010.06.28 00:19:55.
