data_PCOD8114334
_publ_section_title
;
Structure prediction by ZEFSAII (Michael W. Deem and Ramdas Pophale) SiO2 
 PCOD8114334
Probable space group: C 2/M
;
_chemical_formula_sum "Si O2"
_cell_formula_units_Z 40
_cell_length_a 22.702774
_cell_length_b 8.265873
_cell_length_c 18.321434
_cell_angle_alpha 90.000000
_cell_angle_beta 36.407246
_cell_angle_gamma 90.000000
_cell_volume 2040.623896
_symmetry_space_group_name_H-M "C 2/M"
_symmetry_group_IT_number 12
_symmetry_cell_setting 'monoclinic'
loop_
_space_group_symop_operation_xyz
x,y,z
-x,y,-z
-x,-y,-z
x,-y,z
1/2+x,1/2+y,z
1/2-x,1/2+y,-z
1/2-x,1/2-y,-z
1/2+x,1/2-y,z
loop_
_atom_site_type_symbol
_atom_site_label
_atom_site_fract_x
_atom_site_fract_y
_atom_site_fract_z
Si Si1 0.046125 0.312071 0.065970
Si Si2 0.860692 0.813462 0.883350
Si Si3 0.850838 0.187879 0.611102
Si Si4 0.362043 0.311747 0.169832
Si Si5 0.454133 0.812789 0.647074
O O1 0.050205 0.500000 0.082435
O O2 0.083147 0.207175 0.096641
O O3 0.933867 0.259712 0.160191
O O4 0.118029 0.279827 0.925902
O O5 0.918475 0.712927 0.764600
O O6 0.859500 0.000000 0.861877
O O7 0.750000 0.750000 0.000000
O O8 0.750435 0.283813 0.693533
O O9 0.884162 0.215262 0.661266
O O10 0.933117 0.252116 0.472741
O O11 0.832272 0.000000 0.616159
O O12 0.384535 0.500000 0.136489
O O13 0.447560 0.000000 0.632425
#
# Coordination Sequence:
#
# PCOD8114334 Si02
#       5
#     8   8   8   8   8
#     4  11  22  38  58  85 115 148 188 234 280 333
#     4  12  24  40  59  84 115 150 186 230 282 336
#     4  11  21  37  59  85 114 150 189 232 279 331
#     4  11  21  37  59  85 114 150 189 232 279 331
#     4  11  22  38  58  85 115 148 188 234 280 333
#
# _framework density 19.601849000000001
#
# number of rings (size 3 to 8) (size 9 to 14) (size 15 to 20)
#    0.000    0.800    0.000   12.600    0.000    0.000 
#    0.000    1.000    0.000    0.000    0.000    0.000 
#    0.000    0.000    0.000    0.000    0.000    0.000 
#
# Total GULP energy -248158.601457 kJ/mol
# GULP energy per Si atom -12407.930073 kJ/mol
# Density = 1.955723 g / cm^3
# Si number density = 19.601849 Si / 1000 Ang^3
#
#
#
# Elastic Constant Matrix: (Units=GPa)
#
#
# Indices 1 2 3 4 5 6 
#
# 1 88.0802 0.5831 63.2038 0.0029 2.8308 -0.0018
# 2 0.5831 102.5666 12.5861 -0.0022 -7.8725 0.0030
# 3 63.2038 12.5861 120.3452 -0.0004 -17.7186 0.0007
# 4 0.0029 -0.0022 -0.0004 34.3981 -0.0015 -1.8556
# 5 2.8308 -7.8725 -17.7186 -0.0015 28.9731 0.0002
# 6 -0.0018 0.0030 0.0007 -1.8556 0.0002 31.7113
#
#
#
# Elastic Compliance Matrix: (Units=1/GPa)
#
#
# Indices 1 2 3 4 5 6 
#
# 1 0.020328 0.000663 -0.012101 -0.000002 -0.009206 0.000001
# 2 0.000663 0.010034 -0.001105 0.000001 0.001986 -0.000001
# 3 -0.012101 -0.001105 0.016385 0.000002 0.010903 -0.000001
# 4 -0.000002 0.000001 0.000002 0.029163 0.000003 0.001707
# 5 -0.009206 0.001986 0.010903 0.000003 0.042621 -0.000001
# 6 0.000001 -0.000001 -0.000001 0.001707 -0.000001 0.031634
#
#
# Mechanical properties :
#
#
# Convention : Reuss Voigt Hill
#
# Bulk Modulus (GPa) = 46.16567 51.52645 48.84606
# Shear Modulus (GPa) = 27.40131 34.65777 31.02954
#
# Velocity S-wave (km/s) = 3.74290 4.20942 3.98300
# Velocity P-wave (km/s) = 6.50245 7.06889 6.79158
#
# Compressibility (1/GPa) = 0.02166112
#
# Stress axis : x y z
#
# Youngs Moduli (GPa) = 49.19346 99.66096 61.03016
#
# Poissons Ratio (x) = -0.06604 0.73851
# Poissons Ratio (y) = -0.03260 0.06744
# Poissons Ratio (z) = 0.59528 0.11013
#
# Static dielectric constant tensor:
#      x y z
#    x 3.440560 0.000000 -0.142650 
#    y 0.000000 3.659110 0.000000 
#    z -0.142650 0.000000 3.574790 
# 
# 
# High freq. dielectric constant tensor:
#      x y z
#    x 1.755340 0.000000 -0.013060 
#    y 0.000000 1.787720 0.000000 
#    z -0.013060 0.000000 1.764920 
# 
# From -- ./inp_files/75541.got.cif
#   From: 2010.06.25/outbox.cif.g09.slc.cpg/sg12_38_cif.got.tgz:75541.got - 2010.06.28 00:19:55.
