data_PCOD8114111
_publ_section_title
;
Structure prediction by ZEFSAII (Michael W. Deem and Ramdas Pophale) SiO2 
 PCOD8114111
Probable space group: C 2/M
;
_chemical_formula_sum "Si O2"
_cell_formula_units_Z 32
_cell_length_a 23.528792
_cell_length_b 8.928232
_cell_length_c 24.846174
_cell_angle_alpha 90.000000
_cell_angle_beta 157.681668
_cell_angle_gamma 90.000000
_cell_volume 1982.096878
_symmetry_space_group_name_H-M "C 2/M"
_symmetry_group_IT_number 12
_symmetry_cell_setting 'monoclinic'
loop_
_space_group_symop_operation_xyz
x,y,z
-x,y,-z
-x,-y,-z
x,-y,z
1/2+x,1/2+y,z
1/2-x,1/2+y,-z
1/2-x,1/2-y,-z
1/2+x,1/2-y,z
loop_
_atom_site_type_symbol
_atom_site_label
_atom_site_fract_x
_atom_site_fract_y
_atom_site_fract_z
Si Si1 0.968856 0.168867 0.629559
Si Si2 0.908815 0.177939 0.149684
Si Si3 0.831593 0.669074 0.682067
Si Si4 0.080490 0.676475 0.516297
O O1 0.034411 0.234087 0.742271
O O2 0.786260 0.169384 0.471361
O O3 0.019991 0.270722 0.623277
O O4 0.027986 0.000000 0.672163
O O5 0.022353 0.235637 0.203829
O O6 0.899595 0.000000 0.138349
O O7 0.750000 0.250000 0.000000
O O8 0.879846 0.500000 0.739282
O O9 0.744651 0.745001 0.656645
O O10 0.102237 0.500000 0.533917
O O11 0.000000 0.730397 0.500000
#
# Coordination Sequence:
#
# PCOD8114111 Si02
#       4
#     8   8   8   8
#     4   8  18  32  49  71  97 127 160 195 236 285
#     4  11  21  33  48  71 101 131 161 195 237 286
#     4   9  18  32  50  72  97 127 160 197 239 282
#     4   9  17  29  49  75  98 122 157 200 241 280
#
# _framework density 16.144518000000001
#
# number of rings (size 3 to 8) (size 9 to 14) (size 15 to 20)
#    1.500    1.250    0.000    2.250    0.000    4.000 
#    0.000    0.000    0.000    1.500    0.000   10.500 
#    0.000    0.000    0.000    0.000    0.000    0.000 
#
# Total GULP energy -198208.830778 kJ/mol
# GULP energy per Si atom -12388.051924 kJ/mol
# Density = 1.610777 g / cm^3
# Si number density = 16.144518 Si / 1000 Ang^3
#
#
#
# Elastic Constant Matrix: (Units=GPa)
#
#
# Indices 1 2 3 4 5 6 
#
# 1 112.9668 52.9864 48.2864 0.0000 28.6616 -0.0001
# 2 52.9864 89.1154 36.3569 -0.0028 13.5127 -0.0003
# 3 48.2864 36.3569 79.5207 -0.0022 18.4178 -0.0002
# 4 0.0000 -0.0028 -0.0022 25.8894 -0.0004 5.4255
# 5 28.6616 13.5127 18.4178 -0.0004 14.8042 0.0002
# 6 -0.0001 -0.0003 -0.0002 5.4255 0.0002 24.8364
#
#
#
# Elastic Compliance Matrix: (Units=1/GPa)
#
#
# Indices 1 2 3 4 5 6 
#
# 1 0.021073 -0.006760 -0.002367 -0.000002 -0.031684 0.000001
# 2 -0.006760 0.016447 -0.004171 0.000002 0.003264 0.000000
# 3 -0.002367 -0.004171 0.019634 0.000001 -0.016036 0.000000
# 4 -0.000002 0.000002 0.000001 0.040479 0.000002 -0.008843
# 5 -0.031684 0.003264 -0.016036 0.000002 0.145862 -0.000002
# 6 0.000001 0.000000 0.000000 -0.008843 -0.000002 0.042195
#
#
# Mechanical properties :
#
#
# Convention : Reuss Voigt Hill
#
# Bulk Modulus (GPa) = 32.72401 61.87360 47.29881
# Shear Modulus (GPa) = 15.50518 22.70420 19.10469
#
# Velocity S-wave (km/s) = 3.10239 3.75415 3.44372
# Velocity P-wave (km/s) = 5.75730 7.56304 6.72109
#
# Compressibility (1/GPa) = 0.03055860
#
# Stress axis : x y z
#
# Youngs Moduli (GPa) = 47.45321 60.79967 50.93217
#
# Poissons Ratio (x) = 0.41099 0.12057
# Poissons Ratio (y) = 0.32077 0.21244
# Poissons Ratio (z) = 0.11233 0.25360
#
# Static dielectric constant tensor:
#      x y z
#    x 2.928530 0.000000 0.018330 
#    y 0.000000 3.061870 0.000000 
#    z 0.018330 0.000000 2.797900 
# 
# 
# High freq. dielectric constant tensor:
#      x y z
#    x 1.603050 0.000000 0.009350 
#    y 0.000000 1.635070 0.000000 
#    z 0.009350 0.000000 1.588140 
# 
# From -- ./inp_files/82369.got.cif
#   From: 2010.06.25/outbox.cif.g09.slc.cpg/sg12_42_cif.got.tgz:82369.got - 2010.06.28 00:19:55.
