data_PCOD8114424
_publ_section_title
;
Structure prediction by ZEFSAII (Michael W. Deem and Ramdas Pophale) SiO2 
 PCOD8114424
Probable space group: C 2/M
;
_chemical_formula_sum "Si O2"
_cell_formula_units_Z 56
_cell_length_a 9.725710
_cell_length_b 16.414645
_cell_length_c 27.873970
_cell_angle_alpha 90.000000
_cell_angle_beta 142.722104
_cell_angle_gamma 90.000000
_cell_volume 2695.230588
_symmetry_space_group_name_H-M "C 2/M"
_symmetry_group_IT_number 12
_symmetry_cell_setting 'monoclinic'
loop_
_space_group_symop_operation_xyz
x,y,z
-x,y,-z
-x,-y,-z
x,-y,z
1/2+x,1/2+y,z
1/2-x,1/2+y,-z
1/2-x,1/2-y,-z
1/2+x,1/2-y,z
loop_
_atom_site_type_symbol
_atom_site_label
_atom_site_fract_x
_atom_site_fract_y
_atom_site_fract_z
Si Si1 0.283070 0.354013 0.306975
Si Si2 0.520394 0.703135 0.800019
Si Si3 0.853370 0.407514 0.831261
Si Si4 0.678628 0.092530 0.674741
Si Si5 0.749876 0.707919 0.051350
Si Si6 0.290040 0.371796 0.412423
Si Si7 0.776999 0.317691 0.411199
O O1 0.216987 0.410855 0.244055
O O2 0.264222 0.406689 0.351082
O O3 0.545106 0.323968 0.377197
O O4 0.101579 0.279939 0.259154
O O5 0.700673 0.660433 0.814898
O O6 0.323456 0.636944 0.756808
O O7 0.637493 0.726504 0.881960
O O8 0.831238 0.500000 0.845630
O O9 0.111560 0.376829 0.909987
O O10 0.416034 0.102707 0.611467
O O11 0.754678 0.132668 0.646159
O O12 0.755094 0.000000 0.693782
O O13 0.500000 0.685911 0.000000
O O14 0.750000 0.750000 0.000000
O O15 0.500000 0.409250 0.500000
O O16 0.323825 0.276148 0.413323
O O17 0.000000 0.353721 0.500000
#
# Coordination Sequence:
#
# PCOD8114424 Si02
#       7
#     8   8   8   8   8   8   8
#     4  11  21  38  66  93 124 169 225 270 315 379
#     4  11  22  40  68  93 128 167 213 252 318 384
#     4  11  24  42  70 102 132 167 211 268 320 376
#     4  12  25  40  60  92 131 167 213 273 329 377
#     4  11  24  45  72 103 131 170 210 252 311 392
#     4  11  22  39  62  89 127 174 226 273 327 381
#     4  11  21  38  63  90 120 172 229 273 315 381
#
# _framework density 20.777442000000001
#
# number of rings (size 3 to 8) (size 9 to 14) (size 15 to 20)
#    0.000    0.857    5.714    1.286    2.000    3.714 
#    0.000    3.571    0.000    0.000    0.000    0.000 
#    0.000    0.000    0.000    0.000    0.000    0.000 
#
# Total GULP energy -347133.460628 kJ/mol
# GULP energy per Si atom -12397.623594 kJ/mol
# Density = 2.073015 g / cm^3
# Si number density = 20.777442 Si / 1000 Ang^3
#
#
#
# Elastic Constant Matrix: (Units=GPa)
#
#
# Indices 1 2 3 4 5 6 
#
# 1 105.8953 23.2459 42.1878 0.0000 7.8242 0.0000
# 2 23.2459 97.6610 32.6077 -0.0001 0.0401 -0.0001
# 3 42.1878 32.6077 132.4973 -0.0002 5.0779 -0.0001
# 4 0.0000 -0.0001 -0.0002 0.5400 0.0000 -10.8830
# 5 7.8242 0.0401 5.0779 0.0000 48.8301 0.0000
# 6 0.0000 -0.0001 -0.0001 -10.8830 0.0000 11.4554
#
#
#
# Elastic Compliance Matrix: (Units=1/GPa)
#
#
# Indices 1 2 3 4 5 6 
#
# 1 0.011138 -0.001618 -0.003092 0.000000 -0.001462 0.000000
# 2 -0.001618 0.011395 -0.002308 0.000000 0.000490 0.000000
# 3 -0.003092 -0.002308 0.009117 0.000000 -0.000451 0.000000
# 4 0.000000 0.000000 0.000000 -0.102049 0.000000 -0.096949
# 5 -0.001462 0.000490 -0.000451 0.000000 0.020760 0.000000
# 6 0.000000 0.000000 0.000000 -0.096949 0.000000 -0.004810
#
#
# Mechanical properties :
#
#
# Convention : Reuss Voigt Hill
#
# Bulk Modulus (GPa) = 56.77300 59.12625 57.94963
# Shear Modulus (GPa) = -144.75882 28.03259 -58.36311
#
# Velocity S-wave (km/s) = -8.35598 3.67711 -5.30572
# Velocity P-wave (km/s) = 8.10635 6.82253 3.09564
#
# Compressibility (1/GPa) = 0.01761401
#
# Stress axis : x y z
#
# Youngs Moduli (GPa) = 89.77903 87.75756 109.68323
#
# Poissons Ratio (x) = 0.14201 0.33917
# Poissons Ratio (y) = 0.14528 0.25313
# Poissons Ratio (z) = 0.27762 0.20253
#
# Static dielectric constant tensor:
#      x y z
#    x 3.744250 0.000000 0.082780 
#    y 0.000000 3.598490 0.000000 
#    z 0.082780 0.000000 4.185560 
# 
# 
# High freq. dielectric constant tensor:
#      x y z
#    x 1.817110 0.000000 0.010310 
#    y 0.000000 1.794320 0.000000 
#    z 0.010310 0.000000 1.826990 
# 
# From -- ./inp_files/356765.got.cif
#   From: 2010.06.25/outbox.cif.g09.slc.cpg/sg12_179_cif.got.tgz:356765.got - 2010.06.28 00:19:55.
