data_PCOD8114913
_publ_section_title
;
Structure prediction by ZEFSAII (Michael W. Deem and Ramdas Pophale) SiO2 
 PCOD8114913
Probable space group: C 2/M
;
_chemical_formula_sum "Si O2"
_cell_formula_units_Z 48
_cell_length_a 9.103021
_cell_length_b 26.348153
_cell_length_c 11.202179
_cell_angle_alpha 90.000000
_cell_angle_beta 60.569138
_cell_angle_gamma 90.000000
_cell_volume 2340.082049
_symmetry_space_group_name_H-M "C 2/M"
_symmetry_group_IT_number 12
_symmetry_cell_setting 'monoclinic'
loop_
_space_group_symop_operation_xyz
x,y,z
-x,y,-z
-x,-y,-z
x,-y,z
1/2+x,1/2+y,z
1/2-x,1/2+y,-z
1/2-x,1/2-y,-z
1/2+x,1/2-y,z
loop_
_atom_site_type_symbol
_atom_site_label
_atom_site_fract_x
_atom_site_fract_y
_atom_site_fract_z
Si Si1 0.474156 0.344710 0.832430
Si Si2 0.994140 0.270116 0.140451
Si Si3 0.781586 0.361166 0.868226
Si Si4 0.356815 0.391261 0.635562
Si Si5 0.972912 0.441247 0.148072
Si Si6 0.193619 0.214377 0.417997
O O1 0.431612 0.285320 0.865051
O O2 0.666136 0.357495 0.795852
O O3 0.448677 0.362151 0.707922
O O4 0.338998 0.371999 0.970867
O O5 0.798254 0.270619 0.257978
O O6 0.106323 0.310422 0.168093
O O7 0.000000 0.284972 0.000000
O O8 0.905072 0.409657 0.813484
O O9 0.500000 0.420409 0.500000
O O10 0.219781 0.430909 0.736547
O O11 0.279847 0.346795 0.580987
O O12 0.014651 0.500000 0.149148
O O13 0.000000 0.424381 0.000000
O O14 0.250000 0.250000 0.500000
O O15 0.000000 0.228296 0.500000
#
# Coordination Sequence:
#
# PCOD8114913 Si02
#       6
#     8   8   8   8   8   8
#     4  11  24  37  61  96 134 169 212 262 333 379
#     4  12  22  35  64  93 127 173 220 259 317 390
#     4  11  22  39  62  96 129 164 214 276 322 385
#     4  11  23  44  63  91 134 173 215 266 317 399
#     4  11  23  43  73  99 124 166 220 277 337 384
#     4  11  25  40  57  89 133 178 215 257 320 385
#
# _framework density 20.512101000000001
#
# number of rings (size 3 to 8) (size 9 to 14) (size 15 to 20)
#    0.000    0.833    5.000    4.000    4.667    0.333 
#    0.000    3.333    0.000    1.000    0.000    0.000 
#    0.000    0.000    0.000    0.000    0.000    0.000 
#
# Total GULP energy -297461.807950 kJ/mol
# GULP energy per Si atom -12394.241998 kJ/mol
# Density = 2.046541 g / cm^3
# Si number density = 20.512101 Si / 1000 Ang^3
#
#
#
# Elastic Constant Matrix: (Units=GPa)
#
#
# Indices 1 2 3 4 5 6 
#
# 1 94.6921 49.3540 28.6826 0.0000 -14.1053 0.0000
# 2 49.3540 91.5753 14.7461 0.0000 1.0849 0.0000
# 3 28.6826 14.7461 123.7811 0.0000 -26.7506 0.0000
# 4 0.0000 0.0000 0.0000 20.5587 0.0000 -6.5946
# 5 -14.1053 1.0849 -26.7506 0.0000 29.2984 0.0000
# 6 0.0000 0.0000 0.0000 -6.5946 0.0000 18.6281
#
#
#
# Elastic Compliance Matrix: (Units=1/GPa)
#
#
# Indices 1 2 3 4 5 6 
#
# 1 0.016616 -0.008840 -0.001243 0.000000 0.007192 0.000000
# 2 -0.008840 0.015934 -0.001118 0.000000 -0.005866 0.000000
# 3 -0.001243 -0.001118 0.010439 0.000000 0.008975 0.000000
# 4 0.000000 0.000000 0.000000 0.054872 0.000000 0.019426
# 5 0.007192 -0.005866 0.008975 0.000000 0.046006 0.000000
# 6 0.000000 0.000000 0.000000 0.019426 0.000000 0.060559
#
#
# Mechanical properties :
#
#
# Convention : Reuss Voigt Hill
#
# Bulk Modulus (GPa) = 48.57171 55.06823 51.81997
# Shear Modulus (GPa) = 21.39589 28.18142 24.78866
#
# Velocity S-wave (km/s) = 3.23319 3.71063 3.48010
# Velocity P-wave (km/s) = 6.13750 6.72780 6.43942
#
# Compressibility (1/GPa) = 0.02058812
#
# Stress axis : x y z
#
# Youngs Moduli (GPa) = 60.18361 62.75989 95.79059
#
# Poissons Ratio (x) = 0.55480 0.11905
# Poissons Ratio (y) = 0.53203 0.10705
# Poissons Ratio (z) = 0.07480 0.07014
#
# Static dielectric constant tensor:
#      x y z
#    x 3.734720 0.000000 -0.216150 
#    y 0.000000 3.434140 0.000000 
#    z -0.216150 0.000000 3.969500 
# 
# 
# High freq. dielectric constant tensor:
#      x y z
#    x 1.802910 0.000000 -0.021140 
#    y 0.000000 1.771790 0.000000 
#    z -0.021140 0.000000 1.811250 
# 
# From -- ./inp_files/123489.got.cif
#   From: 2010.06.25/outbox.cif.g09.slc.cpg/sg12_62_cif.got.tgz:123489.got - 2010.06.28 00:19:55.
