data_PCOD8114050
_publ_section_title
;
Structure prediction by ZEFSAII (Michael W. Deem and Ramdas Pophale) SiO2 
 PCOD8114050
Probable space group: C 2/M
;
_chemical_formula_sum "Si O2"
_cell_formula_units_Z 48
_cell_length_a 12.682309
_cell_length_b 16.073914
_cell_length_c 12.397707
_cell_angle_alpha 90.000000
_cell_angle_beta 101.900727
_cell_angle_gamma 90.000000
_cell_volume 2473.005007
_symmetry_space_group_name_H-M "C 2/M"
_symmetry_group_IT_number 12
_symmetry_cell_setting 'monoclinic'
loop_
_space_group_symop_operation_xyz
x,y,z
-x,y,-z
-x,-y,-z
x,-y,z
1/2+x,1/2+y,z
1/2-x,1/2+y,-z
1/2-x,1/2-y,-z
1/2+x,1/2-y,z
loop_
_atom_site_type_symbol
_atom_site_label
_atom_site_fract_x
_atom_site_fract_y
_atom_site_fract_z
Si Si1 0.918567 0.000000 0.812676
Si Si2 0.161139 0.590508 0.071220
Si Si3 0.386892 0.899353 0.172441
Si Si4 0.622107 0.902125 0.499334
Si Si5 0.208951 0.149457 0.289084
Si Si6 0.643909 0.500000 0.951499
Si Si7 0.391413 0.173211 0.724540
O O1 0.880312 0.078061 0.735028
O O2 0.046894 0.000000 0.847059
O O3 0.879855 0.000000 0.927648
O O4 0.114998 0.500000 0.099106
O O5 0.285065 0.582056 0.058177
O O6 0.159098 0.651174 0.170919
O O7 0.095670 0.620247 0.951098
O O8 0.277597 0.856869 0.192724
O O9 0.483169 0.851915 0.252766
O O10 0.384845 0.000000 0.194958
O O11 0.500000 0.871898 0.500000
O O12 0.706785 0.858874 0.596153
O O13 0.659147 0.876486 0.386733
O O14 0.631146 0.000000 0.517189
O O15 0.136146 0.230386 0.292330
#
# Coordination Sequence:
#
# PCOD8114050 Si02
#       7
#     4   8   8   8   8   4   8
#     4  11  20  44  63  87 124 185 216 239 310 394
#     4   9  19  40  61  94 129 167 205 259 312 376
#     4  11  20  42  68  93 127 175 214 248 310 383
#     4  11  22  42  70  90 117 170 219 256 312 385
#     4  12  23  41  64  93 127 162 216 264 309 370
#     4   9  20  38  67  86 124 176 216 243 298 397
#     4  12  25  35  64 102 129 156 205 281 320 357
#
# _framework density 19.409586000000001
#
# number of rings (size 3 to 8) (size 9 to 14) (size 15 to 20)
#    0.500    0.667    5.000    2.500    0.000    3.333 
#    6.000    0.000    0.000    1.000    0.000    0.000 
#    0.000    0.000    0.000    0.000    0.000    0.000 
#
# Total GULP energy -297391.770348 kJ/mol
# GULP energy per Si atom -12391.323764 kJ/mol
# Density = 1.936541 g / cm^3
# Si number density = 19.409586 Si / 1000 Ang^3
#
#
#
# Elastic Constant Matrix: (Units=GPa)
#
#
# Indices 1 2 3 4 5 6 
#
# 1 46.6721 31.2597 12.0621 0.0000 18.9204 0.0000
# 2 31.2597 82.6266 36.8916 0.0000 12.6615 0.0000
# 3 12.0621 36.8916 120.9354 0.0000 16.6682 0.0000
# 4 0.0000 0.0000 0.0000 22.8425 0.0000 -2.9005
# 5 18.9204 12.6615 16.6682 0.0000 33.6310 0.0000
# 6 0.0000 0.0000 0.0000 -2.9005 0.0000 28.5892
#
#
#
# Elastic Compliance Matrix: (Units=1/GPa)
#
#
# Indices 1 2 3 4 5 6 
#
# 1 0.035606 -0.011985 0.002408 0.000000 -0.016713 0.000000
# 2 -0.011985 0.018414 -0.004718 0.000000 0.002148 0.000000
# 3 0.002408 -0.004718 0.010100 0.000000 -0.004584 0.000000
# 4 0.000000 0.000000 0.000000 0.044349 0.000000 0.004499
# 5 -0.016713 0.002148 -0.004584 0.000000 0.040600 0.000000
# 6 0.000000 0.000000 0.000000 0.004499 0.000000 0.035435
#
#
# Mechanical properties :
#
#
# Convention : Reuss Voigt Hill
#
# Bulk Modulus (GPa) = 28.14467 45.62899 36.88683
# Shear Modulus (GPa) = 22.22841 28.34725 25.28783
#
# Velocity S-wave (km/s) = 3.38779 3.82576 3.61342
# Velocity P-wave (km/s) = 5.46212 6.56314 6.03778
#
# Compressibility (1/GPa) = 0.03553071
#
# Stress axis : x y z
#
# Youngs Moduli (GPa) = 28.08502 54.30618 99.01235
#
# Poissons Ratio (x) = 0.65085 -0.23844
# Poissons Ratio (y) = 0.33659 0.46714
# Poissons Ratio (z) = -0.06763 0.25622
#
# Static dielectric constant tensor:
#      x y z
#    x 3.592650 0.000000 0.131870 
#    y 0.000000 3.302080 0.000000 
#    z 0.131870 0.000000 3.669410 
# 
# 
# High freq. dielectric constant tensor:
#      x y z
#    x 1.751680 0.000000 0.009400 
#    y 0.000000 1.728940 0.000000 
#    z 0.009400 0.000000 1.770510 
# 
# From -- ./inp_files/143129.got.cif
#   From: 2010.06.25/outbox.cif.g09.slc.cpg/sg12_72_cif.got.tgz:143129.got - 2010.06.28 00:19:55.
