data_PCOD8114180
_publ_section_title
;
Structure prediction by ZEFSAII (Michael W. Deem and Ramdas Pophale) SiO2 
 PCOD8114180
Probable space group: C 2/M
;
_chemical_formula_sum "Si O2"
_cell_formula_units_Z 56
_cell_length_a 10.343505
_cell_length_b 22.646508
_cell_length_c 15.378541
_cell_angle_alpha 90.000000
_cell_angle_beta 59.455889
_cell_angle_gamma 90.000000
_cell_volume 3102.468447
_symmetry_space_group_name_H-M "C 2/M"
_symmetry_group_IT_number 12
_symmetry_cell_setting 'monoclinic'
loop_
_space_group_symop_operation_xyz
x,y,z
-x,y,-z
-x,-y,-z
x,-y,z
1/2+x,1/2+y,z
1/2-x,1/2+y,-z
1/2-x,1/2-y,-z
1/2+x,1/2-y,z
loop_
_atom_site_type_symbol
_atom_site_label
_atom_site_fract_x
_atom_site_fract_y
_atom_site_fract_z
Si Si1 0.667866 0.677768 0.948991
Si Si2 0.666108 0.312270 0.292523
Si Si3 0.540341 0.500000 0.624215
Si Si4 0.832143 0.681937 0.062644
Si Si5 0.831914 0.327376 0.719993
Si Si6 0.857498 0.875389 0.372405
Si Si7 0.259049 0.500000 0.614603
Si Si8 0.835149 0.374696 0.389321
O O1 0.664039 0.748058 0.947549
O O2 0.769158 0.654247 0.835565
O O3 0.500000 0.652033 0.000000
O O4 0.737253 0.654695 0.015656
O O5 0.757471 0.337347 0.178766
O O6 0.671811 0.242152 0.293462
O O7 0.494316 0.331671 0.345258
O O8 0.740640 0.335691 0.354684
O O9 0.582141 0.441657 0.663784
O O10 0.361929 0.500000 0.665920
O O11 0.629852 0.500000 0.504222
O O12 0.000000 0.656016 0.000000
O O13 0.726371 0.357439 0.685757
O O14 0.999598 0.350316 0.654785
O O15 0.743968 0.871389 0.490956
O O16 0.155154 0.442012 0.648200
#
# Coordination Sequence:
#
# PCOD8114180 Si02
#       8
#     8   8   4   8   8   8   4   8
#     4   9  17  32  50  70 104 141 173 215 258 308
#     4  11  21  34  54  81 112 146 179 210 264 336
#     4   9  18  37  59  75  95 136 198 234 247 295
#     4   9  17  30  50  74 100 136 180 220 256 298
#     4  11  23  34  50  85 118 139 172 215 274 333
#     4  11  22  36  55  78 108 148 184 216 259 315
#     4   9  18  37  59  75  95 137 194 235 255 289
#     4  11  22  36  55  78 110 145 179 224 262 305
#
# _framework density 18.050142999999998
#
# number of rings (size 3 to 8) (size 9 to 14) (size 15 to 20)
#    0.000    1.857    1.429    3.429    0.000    8.571 
#    0.000    2.143    0.000    0.000    0.000   20.000 
#    0.000    0.000    0.000    0.000    0.000    0.000 
#
# Total GULP energy -347238.783789 kJ/mol
# GULP energy per Si atom -12401.385135 kJ/mol
# Density = 1.800906 g / cm^3
# Si number density = 18.050143 Si / 1000 Ang^3
#
#
#
# Elastic Constant Matrix: (Units=GPa)
#
#
# Indices 1 2 3 4 5 6 
#
# 1 126.7333 26.8733 25.0615 0.0000 7.5957 0.0000
# 2 26.8733 85.1479 18.6740 0.0000 5.8197 0.0000
# 3 25.0615 18.6740 79.8974 0.0000 3.2575 0.0000
# 4 0.0000 0.0000 0.0000 1.4255 0.0000 -0.0957
# 5 7.5957 5.8197 3.2575 0.0000 33.8891 0.0000
# 6 0.0000 0.0000 0.0000 -0.0957 0.0000 109.3105
#
#
#
# Elastic Compliance Matrix: (Units=1/GPa)
#
#
# Indices 1 2 3 4 5 6 
#
# 1 0.008883 -0.002223 -0.002210 0.000000 -0.001397 0.000000
# 2 -0.002223 0.013053 -0.002291 0.000000 -0.001523 0.000000
# 3 -0.002210 -0.002291 0.013762 0.000000 -0.000434 0.000000
# 4 0.000000 0.000000 0.000000 0.701555 0.000000 0.000614
# 5 -0.001397 -0.001523 -0.000434 0.000000 0.030124 0.000000
# 6 0.000000 0.000000 0.000000 0.000614 0.000000 0.009149
#
#
# Mechanical properties :
#
#
# Convention : Reuss Voigt Hill
#
# Bulk Modulus (GPa) = 44.94550 48.11071 46.52811
# Shear Modulus (GPa) = 6.27045 43.66967 24.97006
#
# Velocity S-wave (km/s) = 1.86586 4.92403 3.72341
# Velocity P-wave (km/s) = 5.44025 7.68374 6.65718
#
# Compressibility (1/GPa) = 0.02224917
#
# Stress axis : x y z
#
# Youngs Moduli (GPa) = 112.57820 76.61327 72.66188
#
# Poissons Ratio (x) = 0.17034 0.16056
# Poissons Ratio (y) = 0.25031 0.16648
# Poissons Ratio (z) = 0.24876 0.17554
#
# Static dielectric constant tensor:
#      x y z
#    x 3.439950 0.000000 0.010030 
#    y 0.000000 3.249330 0.000000 
#    z 0.010030 0.000000 3.413440 
# 
# 
# High freq. dielectric constant tensor:
#      x y z
#    x 1.717530 0.000000 0.000520 
#    y 0.000000 1.668970 0.000000 
#    z 0.000520 0.000000 1.698660 
# 
# From -- ./inp_files/198827.got.cif
#   From: 2010.06.25/outbox.cif.g09.slc.cpg/sg12_100_cif.got.tgz:198827.got - 2010.06.28 00:19:55.
