data_PCOD8114283
_publ_section_title
;
Structure prediction by ZEFSAII (Michael W. Deem and Ramdas Pophale) SiO2 
 PCOD8114283
Probable space group: C 2/M
;
_chemical_formula_sum "Si O2"
_cell_formula_units_Z 48
_cell_length_a 13.759739
_cell_length_b 28.062994
_cell_length_c 10.315304
_cell_angle_alpha 90.000000
_cell_angle_beta 140.227874
_cell_angle_gamma 90.000000
_cell_volume 2548.161361
_symmetry_space_group_name_H-M "C 2/M"
_symmetry_group_IT_number 12
_symmetry_cell_setting 'monoclinic'
loop_
_space_group_symop_operation_xyz
x,y,z
-x,y,-z
-x,-y,-z
x,-y,z
1/2+x,1/2+y,z
1/2-x,1/2+y,-z
1/2-x,1/2-y,-z
1/2+x,1/2-y,z
loop_
_atom_site_type_symbol
_atom_site_label
_atom_site_fract_x
_atom_site_fract_y
_atom_site_fract_z
Si Si1 0.191363 0.645417 0.939895
Si Si2 0.184476 0.946281 0.332720
Si Si3 0.679888 0.806273 0.189312
Si Si4 0.179561 0.198565 0.169837
Si Si5 0.667640 0.553802 0.014464
Si Si6 0.333535 0.145073 0.562797
O O1 0.244095 0.663186 0.135327
O O2 0.236257 0.590027 0.974353
O O3 0.278726 0.677732 0.926561
O O4 0.012758 0.651581 0.736105
O O5 0.291057 0.910830 0.523423
O O6 0.009750 0.935339 0.185374
O O7 0.226724 0.000000 0.417423
O O8 0.214949 0.939082 0.211813
O O9 0.741578 0.752419 0.244145
O O10 0.735056 0.829905 0.379783
O O11 0.500000 0.806181 0.000000
O O12 0.256957 0.167689 0.359456
O O13 0.000000 0.195753 0.000000
O O14 0.705403 0.500000 0.008299
#
# Coordination Sequence:
#
# PCOD8114283 Si02
#       6
#     8   8   8   8   8   8
#     4  11  21  36  57  83 111 142 182 227 270 319
#     4   9  18  34  56  81 110 142 177 220 270 323
#     4   9  22  39  54  77 114 150 180 220 272 323
#     4  11  21  37  58  79 108 147 186 225 268 319
#     4   9  18  34  56  81 110 142 177 220 270 323
#     4  11  21  36  57  83 111 142 182 227 270 319
#
# _framework density 18.837111
#
# number of rings (size 3 to 8) (size 9 to 14) (size 15 to 20)
#    0.000    2.000    1.667    3.500    0.000    0.667 
#    0.000   10.833    0.000    5.000    0.000    0.000 
#    0.000    0.000    0.000    0.000    0.000    0.000 
#
# Total GULP energy -297652.830912 kJ/mol
# GULP energy per Si atom -12402.201288 kJ/mol
# Density = 1.879424 g / cm^3
# Si number density = 18.837111 Si / 1000 Ang^3
#
#
#
# Elastic Constant Matrix: (Units=GPa)
#
#
# Indices 1 2 3 4 5 6 
#
# 1 96.4271 54.4910 29.9817 0.0000 -15.5674 0.0000
# 2 54.4910 140.3586 18.9064 0.0000 -8.9047 0.0000
# 3 29.9817 18.9064 23.2916 0.0000 -3.7751 0.0000
# 4 0.0000 0.0000 0.0000 18.4983 0.0000 8.0530
# 5 -15.5674 -8.9047 -3.7751 0.0000 26.4197 0.0000
# 6 0.0000 0.0000 0.0000 8.0530 0.0000 29.9996
#
#
#
# Elastic Compliance Matrix: (Units=1/GPa)
#
#
# Indices 1 2 3 4 5 6 
#
# 1 0.021198 -0.004753 -0.022178 0.000000 0.007720 0.000000
# 2 -0.004753 0.009150 -0.001294 0.000000 0.000099 0.000000
# 3 -0.022178 -0.001294 0.072012 0.000000 -0.003214 0.000000
# 4 0.000000 0.000000 0.000000 0.061212 0.000000 -0.016432
# 5 0.007720 0.000099 -0.003214 0.000000 0.041973 0.000000
# 6 0.000000 0.000000 0.000000 -0.016432 0.000000 0.037745
#
#
# Mechanical properties :
#
#
# Convention : Reuss Voigt Hill
#
# Bulk Modulus (GPa) = 21.78118 51.87059 36.82589
# Shear Modulus (GPa) = 15.87084 25.43007 20.65045
#
# Velocity S-wave (km/s) = 2.90579 3.67822 3.31458
# Velocity P-wave (km/s) = 4.77976 6.75538 5.85155
#
# Compressibility (1/GPa) = 0.04591119
#
# Stress axis : x y z
#
# Youngs Moduli (GPa) = 47.17364 109.28692 13.88664
#
# Poissons Ratio (x) = 0.51939 0.30798
# Poissons Ratio (y) = 0.22420 0.01797
# Poissons Ratio (z) = 1.04622 0.14140
#
# Static dielectric constant tensor:
#      x y z
#    x 3.438810 0.000000 -0.091780 
#    y 0.000000 3.762280 0.000000 
#    z -0.091780 0.000000 3.303240 
# 
# 
# High freq. dielectric constant tensor:
#      x y z
#    x 1.722440 0.000000 0.000900 
#    y 0.000000 1.750710 0.000000 
#    z 0.000900 0.000000 1.713690 
# 
# From -- ./inp_files/67424.got.cif
#   From: 2010.06.25/outbox.cif.g09.slc.cpg/sg12_34_cif.got.tgz:67424.got - 2010.06.28 00:19:55.
