data_PCOD8114060
_publ_section_title
;
Structure prediction by ZEFSAII (Michael W. Deem and Ramdas Pophale) SiO2 
 PCOD8114060
Probable space group: C 2/M
;
_chemical_formula_sum "Si O2"
_cell_formula_units_Z 44
_cell_length_a 26.630188
_cell_length_b 16.603769
_cell_length_c 8.240091
_cell_angle_alpha 90.000000
_cell_angle_beta 145.390890
_cell_angle_gamma 90.000000
_cell_volume 2069.387634
_symmetry_space_group_name_H-M "C 2/M"
_symmetry_group_IT_number 12
_symmetry_cell_setting 'monoclinic'
loop_
_space_group_symop_operation_xyz
x,y,z
-x,y,-z
-x,-y,-z
x,-y,z
1/2+x,1/2+y,z
1/2-x,1/2+y,-z
1/2-x,1/2-y,-z
1/2+x,1/2-y,z
loop_
_atom_site_type_symbol
_atom_site_label
_atom_site_fract_x
_atom_site_fract_y
_atom_site_fract_z
Si Si1 0.094631 0.908998 0.172982
Si Si2 0.213832 0.409146 0.812931
Si Si3 0.661091 0.316646 0.054845
Si Si4 0.000000 0.741861 0.500000
Si Si5 0.444254 0.812175 0.685337
Si Si6 0.708714 0.314376 0.688352
O O1 0.107653 0.839925 0.073688
O O2 0.175838 0.896088 0.513632
O O3 0.098936 0.000000 0.116465
O O4 0.000000 0.891977 0.000000
O O5 0.221733 0.500000 0.898702
O O6 0.282930 0.394737 0.850774
O O7 0.114718 0.393298 0.485160
O O8 0.237696 0.341419 0.010014
O O9 0.725211 0.238966 0.247633
O O10 0.587478 0.296732 0.723950
O O11 0.995468 0.690481 0.318915
O O12 0.379544 0.735812 0.511752
O O13 0.500000 0.815691 0.000000
#
# Coordination Sequence:
#
# PCOD8114060 Si02
#       6
#     8   8   8   4   8   8
#     4  11  24  39  59  99 137 164 203 264 337 393
#     4  11  23  43  65  94 133 169 212 268 333 391
#     4  11  22  39  66  90 124 170 221 262 316 390
#     4  12  20  40  66  98 124 164 230 270 328 382
#     4  11  23  41  68  97 129 171 224 277 320 384
#     4  11  20  43  65  93 123 171 221 264 318 383
#
# _framework density 21.262329000000001
#
# number of rings (size 3 to 8) (size 9 to 14) (size 15 to 20)
#    0.000    0.909    3.636    5.455    0.000    1.818 
#    0.000    1.364    0.000    0.000    0.000    0.000 
#    0.000    1.455    0.000    0.000    0.000    0.000 
#
# Total GULP energy -272689.448139 kJ/mol
# GULP energy per Si atom -12394.974915 kJ/mol
# Density = 2.121394 g / cm^3
# Si number density = 21.262329 Si / 1000 Ang^3
#
#
#
# Elastic Constant Matrix: (Units=GPa)
#
#
# Indices 1 2 3 4 5 6 
#
# 1 130.4567 43.8552 50.3190 0.0000 -2.3447 0.0000
# 2 43.8552 112.8993 46.8500 0.0000 12.8243 0.0000
# 3 50.3190 46.8500 142.4986 0.0000 -1.5856 0.0000
# 4 0.0000 0.0000 0.0000 29.5712 0.0000 -1.5209
# 5 -2.3447 12.8243 -1.5856 0.0000 33.5029 0.0000
# 6 0.0000 0.0000 0.0000 -1.5209 0.0000 17.3171
#
#
#
# Elastic Compliance Matrix: (Units=1/GPa)
#
#
# Indices 1 2 3 4 5 6 
#
# 1 0.009609 -0.002921 -0.002414 0.000000 0.001676 0.000000
# 2 -0.002921 0.011737 -0.002881 0.000000 -0.004833 0.000000
# 3 -0.002414 -0.002881 0.008832 0.000000 0.001352 0.000000
# 4 0.000000 0.000000 0.000000 0.033970 0.000000 0.002983
# 5 0.001676 -0.004833 0.001352 0.000000 0.031880 0.000000
# 6 0.000000 0.000000 0.000000 0.002983 0.000000 0.058008
#
#
# Mechanical properties :
#
#
# Convention : Reuss Voigt Hill
#
# Bulk Modulus (GPa) = 72.75144 74.21145 73.48145
# Shear Modulus (GPa) = 28.56334 32.40027 30.48181
#
# Velocity S-wave (km/s) = 3.66919 3.90787 3.79041
# Velocity P-wave (km/s) = 7.22779 7.43912 7.33422
#
# Compressibility (1/GPa) = 0.01374543
#
# Stress axis : x y z
#
# Youngs Moduli (GPa) = 104.07376 85.20278 113.22119
#
# Poissons Ratio (x) = 0.24889 0.27331
# Poissons Ratio (y) = 0.30401 0.32619
# Poissons Ratio (z) = 0.25123 0.24547
#
# Static dielectric constant tensor:
#      x y z
#    x 3.829180 0.000000 0.073120 
#    y 0.000000 3.554900 0.000000 
#    z 0.073120 0.000000 4.078460 
# 
# 
# High freq. dielectric constant tensor:
#      x y z
#    x 1.837110 0.000000 0.006440 
#    y 0.000000 1.810630 0.000000 
#    z 0.006440 0.000000 1.844180 
# 
# From -- ./inp_files/112694.got.cif
#   From: 2010.06.25/outbox.cif.g09.slc.cpg/sg12_57_cif.got.tgz:112694.got - 2010.06.28 00:19:55.
