data_PCOD8114708
_publ_section_title
;
Structure prediction by ZEFSAII (Michael W. Deem and Ramdas Pophale) SiO2 
 PCOD8114708
Probable space group: C 2/M
;
_chemical_formula_sum "Si O2"
_cell_formula_units_Z 40
_cell_length_a 15.591671
_cell_length_b 8.714789
_cell_length_c 16.641231
_cell_angle_alpha 90.000000
_cell_angle_beta 61.383900
_cell_angle_gamma 90.000000
_cell_volume 1984.972637
_symmetry_space_group_name_H-M "C 2/M"
_symmetry_group_IT_number 12
_symmetry_cell_setting 'monoclinic'
loop_
_space_group_symop_operation_xyz
x,y,z
-x,y,-z
-x,-y,-z
x,-y,z
1/2+x,1/2+y,z
1/2-x,1/2+y,-z
1/2-x,1/2-y,-z
1/2+x,1/2-y,z
loop_
_atom_site_type_symbol
_atom_site_label
_atom_site_fract_x
_atom_site_fract_y
_atom_site_fract_z
Si Si1 0.307039 0.319208 0.714436
Si Si2 0.048951 0.679394 0.102728
Si Si3 0.148008 0.321466 0.902576
Si Si4 0.206697 0.680725 0.599480
Si Si5 0.997530 0.178207 0.714590
O O1 0.286825 0.500000 0.723534
O O2 0.243274 0.247798 0.816971
O O3 0.269554 0.252202 0.646195
O O4 0.421543 0.283940 0.676336
O O5 0.065324 0.500000 0.114788
O O6 0.941139 0.707566 0.117344
O O7 0.059192 0.779330 0.178289
O O8 0.126076 0.745282 0.001755
O O9 0.161870 0.500000 0.910949
O O10 0.217315 0.500000 0.589974
O O11 0.250000 0.750000 0.500000
O O12 0.093276 0.721151 0.659525
O O13 0.026422 0.000000 0.701548
#
# Coordination Sequence:
#
# PCOD8114708 Si02
#       5
#     8   8   8   8   8
#     4   9  19  36  59  83 113 154 191 223 274 347
#     4   9  16  30  56  83 111 152 198 233 268 324
#     4   8  14  29  55  82 108 152 201 227 262 334
#     4  11  23  43  66  84 109 145 187 233 285 341
#     4  11  22  36  57  87 118 148 187 232 280 335
#
# _framework density 20.151409999999998
#
# number of rings (size 3 to 8) (size 9 to 14) (size 15 to 20)
#    0.000    2.400    2.000    2.400    0.000    1.600 
#    0.000   10.000    0.000    0.000    0.000    0.000 
#    0.000    0.000    0.000    0.000    0.000    0.000 
#
# Total GULP energy -247877.679477 kJ/mol
# GULP energy per Si atom -12393.883974 kJ/mol
# Density = 2.010554 g / cm^3
# Si number density = 20.151410 Si / 1000 Ang^3
#
#
#
# Elastic Constant Matrix: (Units=GPa)
#
#
# Indices 1 2 3 4 5 6 
#
# 1 101.5734 24.7504 58.7970 0.0000 9.6545 0.0000
# 2 24.7504 36.8975 22.1054 0.0000 3.1921 0.0001
# 3 58.7970 22.1054 143.6055 0.0000 7.5949 0.0000
# 4 0.0000 0.0000 0.0000 31.8489 0.0000 -1.4185
# 5 9.6545 3.1921 7.5949 0.0000 13.5252 0.0000
# 6 0.0000 0.0001 0.0000 -1.4185 0.0000 21.1674
#
#
#
# Elastic Compliance Matrix: (Units=1/GPa)
#
#
# Indices 1 2 3 4 5 6 
#
# 1 0.014764 -0.006536 -0.004703 0.000000 -0.006356 0.000000
# 2 -0.006536 0.033030 -0.002311 0.000000 -0.001832 0.000000
# 3 -0.004703 -0.002311 0.009315 0.000000 -0.001328 0.000000
# 4 0.000000 0.000000 0.000000 0.031492 0.000000 0.002110
# 5 -0.006356 -0.001832 -0.001328 0.000000 0.079651 0.000000
# 6 0.000000 0.000000 0.000000 0.002110 0.000000 0.047384
#
#
# Mechanical properties :
#
#
# Convention : Reuss Voigt Hill
#
# Bulk Modulus (GPa) = 33.32412 54.82021 44.07216
# Shear Modulus (GPa) = 19.78324 25.06987 22.42656
#
# Velocity S-wave (km/s) = 3.13666 3.53097 3.33964
# Velocity P-wave (km/s) = 5.44894 6.62472 6.06539
#
# Compressibility (1/GPa) = 0.03000830
#
# Stress axis : x y z
#
# Youngs Moduli (GPa) = 67.73192 30.27578 107.35413
#
# Poissons Ratio (x) = 0.19789 0.50485
# Poissons Ratio (y) = 0.44272 0.24812
# Poissons Ratio (z) = 0.31852 0.06997
#
# Static dielectric constant tensor:
#      x y z
#    x 3.506850 0.000000 0.218670 
#    y 0.000000 3.205840 0.000000 
#    z 0.218670 0.000000 3.787100 
# 
# 
# High freq. dielectric constant tensor:
#      x y z
#    x 1.786230 0.000000 0.000800 
#    y 0.000000 1.742650 0.000000 
#    z 0.000800 0.000000 1.796790 
# 
# From -- ./inp_files/211227.got.cif
#   From: 2010.06.25/outbox.cif.g09.slc.cpg/sg12_106_cif.got.tgz:211227.got - 2010.06.28 00:19:55.
