data_PCOD8114700
_publ_section_title
;
Structure prediction by ZEFSAII (Michael W. Deem and Ramdas Pophale) SiO2 
 PCOD8114700
Probable space group: C 2/M
;
_chemical_formula_sum "Si O2"
_cell_formula_units_Z 56
_cell_length_a 29.103528
_cell_length_b 8.860313
_cell_length_c 21.609774
_cell_angle_alpha 90.000000
_cell_angle_beta 30.607573
_cell_angle_gamma 90.000000
_cell_volume 2837.233591
_symmetry_space_group_name_H-M "C 2/M"
_symmetry_group_IT_number 12
_symmetry_cell_setting 'monoclinic'
loop_
_space_group_symop_operation_xyz
x,y,z
-x,y,-z
-x,-y,-z
x,-y,z
1/2+x,1/2+y,z
1/2-x,1/2+y,-z
1/2-x,1/2-y,-z
1/2+x,1/2-y,z
loop_
_atom_site_type_symbol
_atom_site_label
_atom_site_fract_x
_atom_site_fract_y
_atom_site_fract_z
Si Si1 0.665266 0.825722 0.358214
Si Si2 0.715793 0.676730 0.977138
Si Si3 0.021334 0.324809 0.626388
Si Si4 0.520813 0.173895 0.876787
Si Si5 0.994081 0.824923 0.783422
Si Si6 0.145259 0.674233 0.846457
Si Si7 0.864845 0.821726 0.729985
O O1 0.612709 0.794318 0.482696
O O2 0.768158 0.778202 0.247145
O O3 0.613948 0.731954 0.364186
O O4 0.661125 0.000000 0.344007
O O5 0.736254 0.500000 0.954934
O O6 0.767426 0.752843 0.860001
O O7 0.750000 0.750000 0.000000
O O8 0.611277 0.712663 0.089987
O O9 0.994985 0.500000 0.657291
O O10 0.038723 0.267004 0.675502
O O11 0.938980 0.233709 0.692332
O O12 0.539748 0.273987 0.794489
O O13 0.604370 0.199241 0.825845
O O14 0.513771 0.000000 0.865245
O O15 0.428149 0.224028 0.017525
O O16 0.013046 0.000000 0.750192
O O17 0.172759 0.500000 0.824122
O O18 0.860424 0.000000 0.738562
#
# Coordination Sequence:
#
# PCOD8114700 Si02
#       7
#     8   8   8   8   8   8   8
#     4  11  24  40  59  85 114 150 195 241 291 344
#     4  11  22  36  56  84 118 152 188 235 285 337
#     4  11  24  41  59  79 113 156 196 241 289 341
#     4   9  19  37  62  90 119 150 186 229 287 347
#     4  11  23  37  57  87 118 151 194 236 285 344
#     4   9  19  38  63  90 117 148 188 235 284 342
#     4  12  24  38  59  86 115 153 196 239 288 344
#
# _framework density 19.737535999999999
#
# number of rings (size 3 to 8) (size 9 to 14) (size 15 to 20)
#    0.000    1.429    1.429    5.143    0.000    9.143 
#    0.000    2.143    0.000    0.000    0.000    0.000 
#    0.000    0.000    0.000    0.000    0.000    0.000 
#
# Total GULP energy -347366.410407 kJ/mol
# GULP energy per Si atom -12405.943229 kJ/mol
# Density = 1.969261 g / cm^3
# Si number density = 19.737536 Si / 1000 Ang^3
#
#
#
# Elastic Constant Matrix: (Units=GPa)
#
#
# Indices 1 2 3 4 5 6 
#
# 1 86.4709 31.0760 26.7636 -0.0046 24.2496 0.0019
# 2 31.0760 102.3836 38.9388 0.0068 15.3165 -0.0019
# 3 26.7636 38.9388 75.1014 0.0068 18.9073 -0.0002
# 4 -0.0046 0.0068 0.0068 30.4420 -0.0001 2.4215
# 5 24.2496 15.3165 18.9073 -0.0001 30.1198 -0.0015
# 6 0.0019 -0.0019 -0.0002 2.4215 -0.0015 36.9234
#
#
#
# Elastic Compliance Matrix: (Units=1/GPa)
#
#
# Indices 1 2 3 4 5 6 
#
# 1 0.015968 -0.002640 -0.001690 0.000003 -0.010452 -0.000002
# 2 -0.002640 0.012783 -0.005446 -0.000002 -0.000956 0.000001
# 3 -0.001690 -0.005446 0.018649 -0.000003 -0.007576 0.000000
# 4 0.000003 -0.000002 -0.000003 0.033022 0.000000 -0.002166
# 5 -0.010452 -0.000956 -0.007576 0.000000 0.046858 0.000002
# 6 -0.000002 0.000001 0.000000 -0.002166 0.000002 0.027225
#
#
# Mechanical properties :
#
#
# Convention : Reuss Voigt Hill
#
# Bulk Modulus (GPa) = 35.91119 50.83475 43.37297
# Shear Modulus (GPa) = 27.27191 30.64220 28.95706
#
# Velocity S-wave (km/s) = 3.72119 3.94443 3.83444
# Velocity P-wave (km/s) = 6.05780 6.82320 6.45186
#
# Compressibility (1/GPa) = 0.02784647
#
# Stress axis : x y z
#
# Youngs Moduli (GPa) = 62.62661 78.22977 53.62289
#
# Poissons Ratio (x) = 0.20654 0.09063
# Poissons Ratio (y) = 0.16535 0.29204
# Poissons Ratio (z) = 0.10584 0.42605
#
# Static dielectric constant tensor:
#      x y z
#    x 3.551480 -0.000010 0.111500 
#    y -0.000010 3.602650 0.000010 
#    z 0.111500 0.000010 3.693480 
# 
# 
# High freq. dielectric constant tensor:
#      x y z
#    x 1.770720 0.000000 0.013360 
#    y 0.000000 1.776770 0.000000 
#    z 0.013360 0.000000 1.764670 
# 
# From -- ./inp_files/238962.got.cif
#   From: 2010.06.25/outbox.cif.g09.slc.cpg/sg12_120_cif.got.tgz:238962.got - 2010.06.28 00:19:55.
