data_PCOD8114644
_publ_section_title
;
Structure prediction by ZEFSAII (Michael W. Deem and Ramdas Pophale) SiO2 
 PCOD8114644
Probable space group: C 2/M
;
_chemical_formula_sum "Si O2"
_cell_formula_units_Z 56
_cell_length_a 26.411271
_cell_length_b 8.742283
_cell_length_c 14.414849
_cell_angle_alpha 90.000000
_cell_angle_beta 57.373298
_cell_angle_gamma 90.000000
_cell_volume 2803.109899
_symmetry_space_group_name_H-M "C 2/M"
_symmetry_group_IT_number 12
_symmetry_cell_setting 'monoclinic'
loop_
_space_group_symop_operation_xyz
x,y,z
-x,y,-z
-x,-y,-z
x,-y,z
1/2+x,1/2+y,z
1/2-x,1/2+y,-z
1/2-x,1/2-y,-z
1/2+x,1/2-y,z
loop_
_atom_site_type_symbol
_atom_site_label
_atom_site_fract_x
_atom_site_fract_y
_atom_site_fract_z
Si Si1 0.757613 0.181144 0.593592
Si Si2 0.979895 0.326884 0.380628
Si Si3 0.137865 0.322184 0.395230
Si Si4 0.466156 0.825289 0.187140
Si Si5 0.643591 0.818661 0.818643
Si Si6 0.899879 0.681126 0.942297
Si Si7 0.894692 0.821481 0.755065
O O1 0.750000 0.250000 0.500000
O O2 0.820316 0.231649 0.575294
O O3 0.704317 0.244994 0.712508
O O4 0.755582 0.000000 0.587553
O O5 0.005317 0.500000 0.366059
O O6 0.931326 0.291453 0.507566
O O7 0.947386 0.309040 0.313247
O O8 0.035246 0.211552 0.333310
O O9 0.154320 0.500000 0.383931
O O10 0.146058 0.259721 0.282969
O O11 0.414517 0.745040 0.176166
O O12 0.532563 0.754709 0.105290
O O13 0.469832 0.000000 0.151475
O O14 0.641687 0.000000 0.808553
O O15 0.641721 0.773915 0.929237
O O16 0.902043 0.500000 0.922376
O O17 0.873534 0.759732 0.876206
O O18 0.882291 0.000000 0.762058
#
# Coordination Sequence:
#
# PCOD8114644 Si02
#       7
#     8   8   8   8   8   8   8
#     4  11  23  39  58  83 114 146 182 224 272 323
#     4   9  18  33  55  81 109 143 182 222 268 327
#     4  11  22  38  59  80 105 143 190 232 271 319
#     4   8  13  25  50  82 108 132 170 219 265 310
#     4   9  17  31  54  81 108 142 186 230 267 312
#     4   9  17  32  55  81 108 142 185 227 266 316
#     4  11  22  35  53  81 115 144 174 220 279 337
#
# _framework density 19.977810000000002
#
# number of rings (size 3 to 8) (size 9 to 14) (size 15 to 20)
#    0.000    2.286    0.000    4.714    0.000    6.857 
#    0.000    2.143    0.000    7.714    0.000    0.000 
#    0.000    0.000    0.000    0.000    0.000    0.000 
#
# Total GULP energy -347161.791594 kJ/mol
# GULP energy per Si atom -12398.635414 kJ/mol
# Density = 1.993234 g / cm^3
# Si number density = 19.977810 Si / 1000 Ang^3
#
#
#
# Elastic Constant Matrix: (Units=GPa)
#
#
# Indices 1 2 3 4 5 6 
#
# 1 73.2220 26.5208 34.1216 0.0000 23.1585 0.0000
# 2 26.5208 62.2161 38.3325 0.0001 6.1934 0.0004
# 3 34.1216 38.3325 134.1399 0.0000 17.7441 0.0000
# 4 0.0000 0.0001 0.0000 21.2237 0.0000 3.7905
# 5 23.1585 6.1934 17.7441 0.0000 30.3280 0.0000
# 6 0.0000 0.0004 0.0000 3.7905 0.0000 24.3395
#
#
#
# Elastic Compliance Matrix: (Units=1/GPa)
#
#
# Indices 1 2 3 4 5 6 
#
# 1 0.021229 -0.006641 -0.001666 0.000000 -0.013879 0.000000
# 2 -0.006641 0.021602 -0.004955 0.000000 0.003558 0.000000
# 3 -0.001666 -0.004955 0.009747 0.000000 -0.003418 0.000000
# 4 0.000000 0.000000 0.000000 0.048465 0.000000 -0.007548
# 5 -0.013879 0.003558 -0.003418 0.000000 0.044844 0.000000
# 6 0.000000 0.000000 0.000000 -0.007548 0.000000 0.042261
#
#
# Mechanical properties :
#
#
# Convention : Reuss Voigt Hill
#
# Bulk Modulus (GPa) = 38.38173 51.94754 45.16464
# Shear Modulus (GPa) = 22.38578 26.55177 24.46877
#
# Velocity S-wave (km/s) = 3.35107 3.64959 3.50351
# Velocity P-wave (km/s) = 5.85036 6.61955 6.24680
#
# Compressibility (1/GPa) = 0.02605406
#
# Stress axis : x y z
#
# Youngs Moduli (GPa) = 47.10639 46.29158 102.59762
#
# Poissons Ratio (x) = 0.30741 0.17096
# Poissons Ratio (y) = 0.31282 0.50833
# Poissons Ratio (z) = 0.07849 0.22936
#
# Static dielectric constant tensor:
#      x y z
#    x 3.636710 0.000000 0.146280 
#    y 0.000000 3.242380 0.000000 
#    z 0.146280 0.000000 3.787350 
# 
# 
# High freq. dielectric constant tensor:
#      x y z
#    x 1.771890 0.000000 0.020260 
#    y 0.000000 1.740550 0.000000 
#    z 0.020260 0.000000 1.786370 
# 
# From -- ./inp_files/243688.got.cif
#   From: 2010.06.25/outbox.cif.g09.slc.cpg/sg12_122_cif.got.tgz:243688.got - 2010.06.28 00:19:55.
