data_PCOD8114521
_publ_section_title
;
Structure prediction by ZEFSAII (Michael W. Deem and Ramdas Pophale) SiO2 
 PCOD8114521
Probable space group: C 2/M
;
_chemical_formula_sum "Si O2"
_cell_formula_units_Z 48
_cell_length_a 8.920128
_cell_length_b 29.810219
_cell_length_c 16.428832
_cell_angle_alpha 90.000000
_cell_angle_beta 146.641967
_cell_angle_gamma 90.000000
_cell_volume 2402.161792
_symmetry_space_group_name_H-M "C 2/M"
_symmetry_group_IT_number 12
_symmetry_cell_setting 'monoclinic'
loop_
_space_group_symop_operation_xyz
x,y,z
-x,y,-z
-x,-y,-z
x,-y,z
1/2+x,1/2+y,z
1/2-x,1/2+y,-z
1/2-x,1/2-y,-z
1/2+x,1/2-y,z
loop_
_atom_site_type_symbol
_atom_site_label
_atom_site_fract_x
_atom_site_fract_y
_atom_site_fract_z
Si Si1 0.547608 0.738431 0.110825
Si Si2 0.785242 0.000000 0.674250
Si Si3 0.848707 0.500000 0.846787
Si Si4 0.304900 0.585365 0.795717
Si Si5 0.754872 0.666970 0.332755
Si Si6 0.202693 0.337543 0.165136
Si Si7 0.086120 0.411782 0.872597
O O1 0.682800 0.705420 0.235861
O O2 0.717207 0.784488 0.189622
O O3 0.500000 0.716354 0.000000
O O4 0.250000 0.750000 0.000000
O O5 0.500000 0.000000 0.500000
O O6 0.808143 0.041441 0.744082
O O7 0.023731 0.000000 0.714510
O O8 0.937155 0.455636 0.839071
O O9 0.000000 0.500000 0.000000
O O10 0.152144 0.624181 0.676655
O O11 0.125716 0.579173 0.795229
O O12 0.619045 0.598134 0.954877
O O13 0.507796 0.650296 0.277505
O O14 0.000000 0.684529 0.500000
O O15 0.104868 0.368082 0.196932
O O16 0.000000 0.348891 0.000000
#
# Coordination Sequence:
#
# PCOD8114521 Si02
#       7
#     8   4   4   8   8   8   8
#     4  11  22  41  69  92 121 169 222 258 307 385
#     4  12  25  43  63  89 132 171 201 252 329 387
#     4  12  21  39  65  97 126 162 213 268 311 365
#     4  11  23  40  65  96 126 164 213 263 314 372
#     4  12  26  42  64  97 133 165 210 269 326 376
#     4  11  21  41  64  92 125 170 213 254 313 387
#     4  11  22  38  69  97 123 160 221 269 300 368
#
# _framework density 19.982002000000001
#
# number of rings (size 3 to 8) (size 9 to 14) (size 15 to 20)
#    0.000    0.667    6.667    2.500    4.667    2.000 
#    0.000    4.167    0.000    0.000    0.000    0.000 
#    0.000    0.000    0.000    0.000    0.000    0.000 
#
# Total GULP energy -297572.752483 kJ/mol
# GULP energy per Si atom -12398.864687 kJ/mol
# Density = 1.993652 g / cm^3
# Si number density = 19.982002 Si / 1000 Ang^3
#
#
#
# Elastic Constant Matrix: (Units=GPa)
#
#
# Indices 1 2 3 4 5 6 
#
# 1 156.7307 57.6752 61.1256 0.0000 5.8013 0.0000
# 2 57.6752 121.7657 34.1532 0.0000 -12.4807 0.0000
# 3 61.1256 34.1532 113.9070 0.0000 0.1629 0.0000
# 4 0.0000 0.0000 0.0000 -13.8351 0.0000 15.2854
# 5 5.8013 -12.4807 0.1629 0.0000 27.8380 0.0000
# 6 0.0000 0.0000 0.0000 15.2854 0.0000 33.4271
#
#
#
# Elastic Compliance Matrix: (Units=1/GPa)
#
#
# Indices 1 2 3 4 5 6 
#
# 1 0.009420 -0.003729 -0.003932 0.000000 -0.003612 0.000000
# 2 -0.003729 0.010920 -0.001281 0.000000 0.005681 0.000000
# 3 -0.003932 -0.001281 0.011273 0.000000 0.000179 0.000000
# 4 0.000000 0.000000 0.000000 -0.048020 0.000000 0.021958
# 5 -0.003612 0.005681 0.000179 0.000000 0.039221 0.000000
# 6 0.000000 0.000000 0.000000 0.021958 0.000000 0.019875
#
#
# Mechanical properties :
#
#
# Convention : Reuss Voigt Hill
#
# Bulk Modulus (GPa) = 72.83894 77.59015 75.21455
# Shear Modulus (GPa) = 76.74712 25.44929 51.09821
#
# Velocity S-wave (km/s) = 6.20415 3.57264 5.06237
# Velocity P-wave (km/s) = 9.37302 7.47881 8.47898
#
# Compressibility (1/GPa) = 0.01372892
#
# Stress axis : x y z
#
# Youngs Moduli (GPa) = 106.16073 91.57108 88.70926
#
# Poissons Ratio (x) = 0.34148 0.34877
# Poissons Ratio (y) = 0.39589 0.11366
# Poissons Ratio (z) = 0.41738 0.11733
#
# Static dielectric constant tensor:
#      x y z
#    x 4.011400 0.000000 0.044800 
#    y 0.000000 3.570260 0.000000 
#    z 0.044800 0.000000 3.578380 
# 
# 
# High freq. dielectric constant tensor:
#      x y z
#    x 1.800060 0.000000 0.008500 
#    y 0.000000 1.794220 0.000000 
#    z 0.008500 0.000000 1.751890 
# 
# From -- ./inp_files/260461.got.cif
#   From: 2010.06.25/outbox.cif.g09.slc.cpg/sg12_131_cif.got.tgz:260461.got - 2010.06.28 00:19:55.
