data_PCOD8114210
_publ_section_title
;
Structure prediction by ZEFSAII (Michael W. Deem and Ramdas Pophale) SiO2 
 PCOD8114210
Probable space group: C 2/M
;
_chemical_formula_sum "Si O2"
_cell_formula_units_Z 56
_cell_length_a 9.238640
_cell_length_b 18.937833
_cell_length_c 22.509853
_cell_angle_alpha 90.000000
_cell_angle_beta 129.922317
_cell_angle_gamma 90.000000
_cell_volume 3020.357545
_symmetry_space_group_name_H-M "C 2/M"
_symmetry_group_IT_number 12
_symmetry_cell_setting 'monoclinic'
loop_
_space_group_symop_operation_xyz
x,y,z
-x,y,-z
-x,-y,-z
x,-y,z
1/2+x,1/2+y,z
1/2-x,1/2+y,-z
1/2-x,1/2-y,-z
1/2+x,1/2-y,z
loop_
_atom_site_type_symbol
_atom_site_label
_atom_site_fract_x
_atom_site_fract_y
_atom_site_fract_z
Si Si1 0.331679 0.920809 0.319643
Si Si2 0.976851 0.582564 0.062844
Si Si3 0.911965 0.187448 0.807325
Si Si4 0.284665 0.331069 0.211756
Si Si5 0.862068 0.821379 0.018218
Si Si6 0.867497 0.583654 0.514851
Si Si7 0.043273 0.079256 0.353339
O O1 0.259445 0.866361 0.251071
O O2 0.543822 0.896699 0.397155
O O3 0.193540 0.921071 0.339555
O O4 0.338096 0.000000 0.293910
O O5 0.965603 0.500000 0.071587
O O6 0.155824 0.612150 0.144727
O O7 0.783565 0.616552 0.035965
O O8 0.000000 0.601589 0.000000
O O9 0.836470 0.265132 0.799687
O O10 0.051814 0.194604 0.788943
O O11 0.019084 0.156897 0.892690
O O12 0.372476 0.368029 0.293381
O O13 0.750000 0.750000 0.000000
O O14 0.000000 0.808441 0.000000
O O15 0.877763 0.500000 0.510441
O O16 0.650207 0.605734 0.442444
O O17 0.000000 0.619603 0.500000
O O18 0.962439 0.000000 0.340719
#
# Coordination Sequence:
#
# PCOD8114210 Si02
#       7
#     8   8   8   8   8   8   8
#     4   8  15  28  48  75 102 131 172 218 261 307
#     4  11  23  39  59  82 106 136 178 225 271 317
#     4  11  22  34  55  77 104 141 178 215 265 315
#     4  11  21  35  53  79 107 141 177 217 260 318
#     4  12  23  39  60  79 107 145 183 218 264 317
#     4   7  10  21  43  71 101 130 164 211 263 306
#     4   8  14  26  48  75 102 133 171 217 261 304
#
# _framework density 18.540852000000001
#
# number of rings (size 3 to 8) (size 9 to 14) (size 15 to 20)
#    0.000    2.286    2.857    3.429    0.000    1.429 
#    0.000    0.714    0.000    0.000    0.000    0.000 
#    0.000    3.429    0.000    0.000    0.000    0.000 
#
# Total GULP energy -347009.152528 kJ/mol
# GULP energy per Si atom -12393.184019 kJ/mol
# Density = 1.849865 g / cm^3
# Si number density = 18.540852 Si / 1000 Ang^3
#
#
#
# Elastic Constant Matrix: (Units=GPa)
#
#
# Indices 1 2 3 4 5 6 
#
# 1 63.6153 29.2118 20.5868 0.0000 7.7579 0.0000
# 2 29.2118 87.1556 49.7278 0.0000 9.7078 0.0000
# 3 20.5868 49.7278 151.3317 -0.0001 19.1374 -0.0001
# 4 0.0000 0.0000 -0.0001 30.1960 0.0000 1.4990
# 5 7.7579 9.7078 19.1374 0.0000 17.5380 0.0000
# 6 0.0000 0.0000 -0.0001 1.4990 0.0000 6.9238
#
#
#
# Elastic Compliance Matrix: (Units=1/GPa)
#
#
# Indices 1 2 3 4 5 6 
#
# 1 0.019015 -0.005777 -0.000034 0.000000 -0.005176 0.000000
# 2 -0.005777 0.016033 -0.004273 0.000000 -0.001656 0.000000
# 3 -0.000034 -0.004273 0.008951 0.000000 -0.007387 0.000000
# 4 0.000000 0.000000 0.000000 0.033477 0.000000 -0.007248
# 5 -0.005176 -0.001656 -0.007387 0.000000 0.068286 0.000000
# 6 0.000000 0.000000 0.000000 -0.007248 0.000000 0.145999
#
#
# Mechanical properties :
#
#
# Convention : Reuss Voigt Hill
#
# Bulk Modulus (GPa) = 41.96363 55.68394 48.82379
# Shear Modulus (GPa) = 15.63128 24.43663 20.03396
#
# Velocity S-wave (km/s) = 2.90672 3.63435 3.29071
# Velocity P-wave (km/s) = 5.82645 6.90722 6.38973
#
# Compressibility (1/GPa) = 0.02383016
#
# Stress axis : x y z
#
# Youngs Moduli (GPa) = 52.59129 62.37296 111.72138
#
# Poissons Ratio (x) = 0.36035 0.00376
# Poissons Ratio (y) = 0.30384 0.47738
# Poissons Ratio (z) = 0.00177 0.26652
#
# Static dielectric constant tensor:
#      x y z
#    x 3.013440 0.000000 0.219880 
#    y 0.000000 3.290850 0.000000 
#    z 0.219880 0.000000 4.067340 
# 
# 
# High freq. dielectric constant tensor:
#      x y z
#    x 1.670650 0.000000 0.017570 
#    y 0.000000 1.703610 0.000000 
#    z 0.017570 0.000000 1.745400 
# 
# From -- ./inp_files/300659.got.cif
#   From: 2010.06.25/outbox.cif.g09.slc.cpg/sg12_151_cif.got.tgz:300659.got - 2010.06.28 00:19:55.
