data_PCOD8114901
_publ_section_title
;
Structure prediction by ZEFSAII (Michael W. Deem and Ramdas Pophale) SiO2 
 PCOD8114901
Probable space group: C 2/M
;
_chemical_formula_sum "Si O2"
_cell_formula_units_Z 56
_cell_length_a 15.473949
_cell_length_b 8.545419
_cell_length_c 26.158626
_cell_angle_alpha 90.000000
_cell_angle_beta 54.553482
_cell_angle_gamma 90.000000
_cell_volume 2817.892097
_symmetry_space_group_name_H-M "C 2/M"
_symmetry_group_IT_number 12
_symmetry_cell_setting 'monoclinic'
loop_
_space_group_symop_operation_xyz
x,y,z
-x,y,-z
-x,-y,-z
x,-y,z
1/2+x,1/2+y,z
1/2-x,1/2+y,-z
1/2-x,1/2-y,-z
1/2+x,1/2-y,z
loop_
_atom_site_type_symbol
_atom_site_label
_atom_site_fract_x
_atom_site_fract_y
_atom_site_fract_z
Si Si1 0.291196 0.184155 0.370261
Si Si2 0.909717 0.814647 0.928635
Si Si3 0.771527 0.185366 0.070780
Si Si4 0.791428 0.684097 0.706492
Si Si5 0.979002 0.183834 0.362876
Si Si6 0.405236 0.685284 0.498289
Si Si7 0.852550 0.814015 0.150580
O O1 0.245883 0.222941 0.330340
O O2 0.402456 0.271784 0.342005
O O3 0.206730 0.246070 0.441373
O O4 0.310015 0.000000 0.368179
O O5 0.844755 0.749470 0.902731
O O6 0.028567 0.747709 0.884007
O O7 0.909518 0.000000 0.926433
O O8 0.856908 0.755420 0.999634
O O9 0.803900 0.253637 0.114758
O O10 0.767657 0.000000 0.073012
O O11 0.779598 0.500000 0.700864
O O12 0.718039 0.743304 0.777995
O O13 0.911541 0.724096 0.680122
O O14 0.920486 0.239880 0.434837
O O15 0.003060 0.000000 0.354985
O O16 0.500000 0.757517 0.500000
O O17 0.408729 0.500000 0.501725
O O18 0.854962 0.000000 0.146866
#
# Coordination Sequence:
#
# PCOD8114901 Si02
#       7
#     8   8   8   8   8   8   8
#     4  11  22  39  61  84 112 145 184 229 280 332
#     4   9  17  32  55  81 107 137 175 220 269 318
#     4   9  17  32  55  81 107 137 175 220 269 318
#     4  11  23  39  56  80 113 150 191 230 272 325
#     4  11  22  39  61  84 112 145 184 229 280 332
#     4   9  17  34  60  85 110 140 176 227 282 331
#     4   9  19  35  55  77 106 144 183 220 262 320
#
# _framework density 19.873011000000002
#
# number of rings (size 3 to 8) (size 9 to 14) (size 15 to 20)
#    0.000    2.143    1.429    2.143    0.000    2.857 
#    0.000    9.286    0.000    3.429    0.000    0.000 
#    0.000    0.000    0.000    0.000    0.000    0.000 
#
# Total GULP energy -347249.028746 kJ/mol
# GULP energy per Si atom -12401.751027 kJ/mol
# Density = 1.982778 g / cm^3
# Si number density = 19.873011 Si / 1000 Ang^3
#
#
#
# Elastic Constant Matrix: (Units=GPa)
#
#
# Indices 1 2 3 4 5 6 
#
# 1 153.4732 9.7781 64.9256 0.0000 -13.3647 0.0000
# 2 9.7781 24.6523 16.4379 0.0000 0.2840 0.0002
# 3 64.9256 16.4379 123.7087 0.0000 -15.2329 0.0000
# 4 0.0000 0.0000 0.0000 18.8143 0.0000 1.6060
# 5 -13.3647 0.2840 -15.2329 0.0000 13.6879 0.0000
# 6 0.0000 0.0002 0.0000 1.6060 0.0000 33.0559
#
#
#
# Elastic Compliance Matrix: (Units=1/GPa)
#
#
# Indices 1 2 3 4 5 6 
#
# 1 0.008566 -0.000856 -0.003882 0.000000 0.004062 0.000000
# 2 -0.000856 0.045505 -0.006740 0.000000 -0.009281 0.000000
# 3 -0.003882 -0.006740 0.012245 0.000000 0.009977 0.000000
# 4 0.000000 0.000000 0.000000 0.053372 0.000000 -0.002593
# 5 0.004062 -0.009281 0.009977 0.000000 0.088318 0.000000
# 6 0.000000 0.000000 0.000000 -0.002593 0.000000 0.030378
#
#
# Mechanical properties :
#
#
# Convention : Reuss Voigt Hill
#
# Bulk Modulus (GPa) = 23.06276 53.79082 38.42679
# Shear Modulus (GPa) = 18.12952 27.15781 22.64366
#
# Velocity S-wave (km/s) = 3.02365 3.70072 3.37919
# Velocity P-wave (km/s) = 4.88060 6.73695 5.88246
#
# Compressibility (1/GPa) = 0.04335994
#
# Stress axis : x y z
#
# Youngs Moduli (GPa) = 116.73735 21.97574 81.66682
#
# Poissons Ratio (x) = 0.01881 0.31702
# Poissons Ratio (y) = 0.09994 0.55043
# Poissons Ratio (z) = 0.45316 0.14812
#
# Static dielectric constant tensor:
#      x y z
#    x 3.757340 0.000000 -0.050320 
#    y 0.000000 3.230570 0.000000 
#    z -0.050320 0.000000 3.770690 
# 
# 
# High freq. dielectric constant tensor:
#      x y z
#    x 1.790900 0.000000 -0.001120 
#    y 0.000000 1.746130 0.000000 
#    z -0.001120 0.000000 1.771430 
# 
# From -- ./inp_files/338526.got.cif
#   From: 2010.06.25/outbox.cif.g09.slc.cpg/sg12_170_cif.got.tgz:338526.got - 2010.06.28 00:19:55.
