data_PCOD8114399
_publ_section_title
;
Structure prediction by ZEFSAII (Michael W. Deem and Ramdas Pophale) SiO2 
 PCOD8114399
Probable space group: C 2/M
;
_chemical_formula_sum "Si O2"
_cell_formula_units_Z 40
_cell_length_a 9.142477
_cell_length_b 24.502388
_cell_length_c 9.532899
_cell_angle_alpha 90.000000
_cell_angle_beta 120.045246
_cell_angle_gamma 90.000000
_cell_volume 1848.543712
_symmetry_space_group_name_H-M "C 2/M"
_symmetry_group_IT_number 12
_symmetry_cell_setting 'monoclinic'
loop_
_space_group_symop_operation_xyz
x,y,z
-x,y,-z
-x,-y,-z
x,-y,z
1/2+x,1/2+y,z
1/2-x,1/2+y,-z
1/2-x,1/2-y,-z
1/2+x,1/2-y,z
loop_
_atom_site_type_symbol
_atom_site_label
_atom_site_fract_x
_atom_site_fract_y
_atom_site_fract_z
Si Si1 0.214343 0.400438 0.450591
Si Si2 0.804670 0.500000 0.062650
Si Si3 0.811949 0.602570 0.245969
Si Si4 0.645468 0.780214 0.833156
Si Si5 0.707546 0.000000 0.261747
Si Si6 0.236709 0.285657 0.357758
O O1 0.271298 0.406499 0.640379
O O2 0.280092 0.448768 0.382809
O O3 0.296119 0.346491 0.423272
O O4 0.012743 0.398982 0.353224
O O5 0.740959 0.554621 0.111449
O O6 0.006096 0.500000 0.160141
O O7 0.728150 0.500000 0.868401
O O8 0.764100 0.662045 0.160633
O O9 0.638826 0.740727 0.695353
O O10 0.454454 0.788190 0.794044
O O11 0.750000 0.750000 0.000000
O O12 0.250000 0.250000 0.500000
#
# Coordination Sequence:
#
# PCOD8114399 Si02
#       6
#     8   4   8   8   4   8
#     4   9  17  30  50  73 104 141 184 227 272 326
#     4   9  17  27  45  73 108 137 172 228 291 326
#     4   9  17  31  48  73 106 143 179 225 279 330
#     4  11  23  36  56  85 118 149 185 232 283 330
#     4   9  17  27  45  75 104 137 176 230 285 322
#     4  11  21  38  58  83 114 151 190 229 273 336
#
# _framework density 21.638656000000001
#
# number of rings (size 3 to 8) (size 9 to 14) (size 15 to 20)
#    0.000    2.200    2.000    1.800    2.800    2.400 
#    0.000    0.000    0.000    0.000    0.000    8.400 
#    0.000    0.000    0.000    0.000    0.000    0.000 
#
# Total GULP energy -247969.000703 kJ/mol
# GULP energy per Si atom -12398.450035 kJ/mol
# Density = 2.158941 g / cm^3
# Si number density = 21.638656 Si / 1000 Ang^3
#
#
#
# Elastic Constant Matrix: (Units=GPa)
#
#
# Indices 1 2 3 4 5 6 
#
# 1 28.0339 15.3373 10.1394 0.0000 -13.6371 0.0000
# 2 15.3373 212.7461 77.0107 0.0000 -33.8915 0.0000
# 3 10.1394 77.0107 123.3430 0.0000 -33.5067 0.0000
# 4 0.0000 0.0000 0.0000 46.6734 0.0000 -9.8823
# 5 -13.6371 -33.8915 -33.5067 0.0000 31.9928 0.0000
# 6 0.0000 0.0000 0.0000 -9.8823 0.0000 24.1825
#
#
#
# Elastic Compliance Matrix: (Units=1/GPa)
#
#
# Indices 1 2 3 4 5 6 
#
# 1 0.045506 -0.000821 0.002523 0.000000 0.021169 0.000000
# 2 -0.000821 0.006372 -0.003036 0.000000 0.003220 0.000000
# 3 0.002523 -0.003036 0.012878 0.000000 0.011346 0.000000
# 4 0.000000 0.000000 0.000000 0.023455 0.000000 0.009585
# 5 0.021169 0.003220 0.011346 0.000000 0.055575 0.000000
# 6 0.000000 0.000000 0.000000 0.009585 0.000000 0.045269
#
#
# Mechanical properties :
#
#
# Convention : Reuss Voigt Hill
#
# Bulk Modulus (GPa) = 16.10676 63.23310 39.66993
# Shear Modulus (GPa) = 23.53843 38.01213 30.77528
#
# Velocity S-wave (km/s) = 3.30175 4.19582 3.77535
# Velocity P-wave (km/s) = 4.68989 7.26353 6.11367
#
# Compressibility (1/GPa) = 0.06208573
#
# Stress axis : x y z
#
# Youngs Moduli (GPa) = 21.97530 156.94713 77.65225
#
# Poissons Ratio (x) = 0.12893 -0.19589
# Poissons Ratio (y) = 0.01805 0.23575
# Poissons Ratio (z) = -0.05544 0.47648
#
# Static dielectric constant tensor:
#      x y z
#    x 3.563360 0.000000 -0.229000 
#    y 0.000000 4.218590 0.000000 
#    z -0.229000 0.000000 3.757110 
# 
# 
# High freq. dielectric constant tensor:
#      x y z
#    x 1.805690 0.000000 -0.024790 
#    y 0.000000 1.864870 0.000000 
#    z -0.024790 0.000000 1.847330 
# 
# From -- ./inp_files/50452.got.cif
#   From: 2010.06.25/outbox.cif.g09.slc.cpg/sg12_26_cif.got.tgz:50452.got - 2010.06.28 00:19:55.
