data_PCOD8114072
_publ_section_title
;
Structure prediction by ZEFSAII (Michael W. Deem and Ramdas Pophale) SiO2 
 PCOD8114072
Probable space group: C 2/M
;
_chemical_formula_sum "Si O2"
_cell_formula_units_Z 64
_cell_length_a 22.865283
_cell_length_b 9.180026
_cell_length_c 22.596123
_cell_angle_alpha 90.000000
_cell_angle_beta 55.721533
_cell_angle_gamma 90.000000
_cell_volume 3919.200142
_symmetry_space_group_name_H-M "C 2/M"
_symmetry_group_IT_number 12
_symmetry_cell_setting 'monoclinic'
loop_
_space_group_symop_operation_xyz
x,y,z
-x,y,-z
-x,-y,-z
x,-y,z
1/2+x,1/2+y,z
1/2-x,1/2+y,-z
1/2-x,1/2-y,-z
1/2+x,1/2-y,z
loop_
_atom_site_type_symbol
_atom_site_label
_atom_site_fract_x
_atom_site_fract_y
_atom_site_fract_z
Si Si1 0.339274 0.670986 0.127717
Si Si2 0.841918 0.336106 0.304704
Si Si3 0.564969 0.672738 0.538207
Si Si4 0.052453 0.333523 0.851377
Si Si5 0.680867 0.326921 0.563907
Si Si6 0.552820 0.662900 0.025304
Si Si7 0.734506 0.330675 0.259304
Si Si8 0.910187 0.826769 0.606654
O O1 0.332577 0.500000 0.142544
O O2 0.395355 0.734114 0.141340
O O3 0.263900 0.746585 0.184454
O O4 0.368358 0.702783 0.044336
O O5 0.830099 0.500000 0.336173
O O6 0.921222 0.323035 0.231673
O O7 0.833846 0.218994 0.360689
O O8 0.783582 0.302341 0.288179
O O9 0.566110 0.500000 0.535755
O O10 0.614953 0.729726 0.562089
O O11 0.593102 0.732345 0.458997
O O12 0.483818 0.725315 0.594864
O O13 0.056428 0.500000 0.871332
O O14 0.972714 0.271953 0.907683
O O15 0.690341 0.500000 0.555039
O O16 0.750000 0.250000 0.500000
O O17 0.552657 0.500000 0.051610
O O18 0.500000 0.674221 0.000000
O O19 0.732692 0.500000 0.243943
O O20 0.656521 0.267023 0.318182
O O21 0.905506 0.000000 0.607509
#
# Coordination Sequence:
#
# PCOD8114072 Si02
#       8
#     8   8   8   8   8   8   8   8
#     4   9  16  24  34  52  81 112 137 164 201 246
#     4   9  18  30  41  59  86 111 138 170 203 243
#     4   8  15  27  43  63  82 102 133 170 207 245
#     4   9  16  25  38  54  74 104 141 177 205 234
#     4  11  21  31  45  64  85 110 139 169 202 243
#     4   8  14  23  34  50  75 107 138 166 200 243
#     4   9  16  26  42  62  82 107 140 174 205 239
#     4   8  13  25  45  63  80 102 130 171 213 240
#
# _framework density 16.329863
#
# number of rings (size 3 to 8) (size 9 to 14) (size 15 to 20)
#    0.000    3.125    0.000    4.125    0.000    7.250 
#    0.000    0.000    0.000    1.500    0.000    5.250 
#    0.000    1.000    0.000    2.250    0.000    4.500 
#
# Total GULP energy -396453.144098 kJ/mol
# GULP energy per Si atom -12389.160753 kJ/mol
# Density = 1.629270 g / cm^3
# Si number density = 16.329863 Si / 1000 Ang^3
#
#
#
# Elastic Constant Matrix: (Units=GPa)
#
#
# Indices 1 2 3 4 5 6 
#
# 1 63.7631 27.7127 47.6679 -0.0001 -18.8555 -0.0007
# 2 27.7127 61.9092 51.3323 -0.0003 -12.8352 -0.0007
# 3 47.6679 51.3323 124.5556 0.0000 -38.3861 0.0002
# 4 -0.0001 -0.0003 0.0000 30.8783 -0.0001 -3.4649
# 5 -18.8555 -12.8352 -38.3861 -0.0001 26.6829 -0.0004
# 6 -0.0007 -0.0007 0.0002 -3.4649 -0.0004 10.5908
#
#
#
# Elastic Compliance Matrix: (Units=1/GPa)
#
#
# Indices 1 2 3 4 5 6 
#
# 1 0.023597 -0.005233 -0.004511 0.000000 0.007669 0.000002
# 2 -0.005233 0.026064 -0.010805 0.000000 -0.006705 0.000002
# 3 -0.004511 -0.010805 0.020882 0.000000 0.021655 -0.000001
# 4 0.000000 0.000000 0.000000 0.033619 0.000000 0.010999
# 5 0.007669 -0.006705 0.021655 0.000000 0.070825 0.000002
# 6 0.000002 0.000002 -0.000001 0.010999 0.000002 0.098020
#
#
# Mechanical properties :
#
#
# Convention : Reuss Voigt Hill
#
# Bulk Modulus (GPa) = 33.96133 55.96152 44.96143
# Shear Modulus (GPa) = 15.43587 21.86474 18.65031
#
# Velocity S-wave (km/s) = 3.07783 3.66313 3.38316
# Velocity P-wave (km/s) = 5.78558 7.22739 6.54630
#
# Compressibility (1/GPa) = 0.02944525
#
# Stress axis : x y z
#
# Youngs Moduli (GPa) = 42.37781 38.36650 47.88839
#
# Poissons Ratio (x) = 0.20077 0.21602
# Poissons Ratio (y) = 0.22176 0.51745
# Poissons Ratio (z) = 0.19116 0.41457
#
# Static dielectric constant tensor:
#      x y z
#    x 2.940260 0.000000 -0.474640 
#    y 0.000000 2.977960 0.000000 
#    z -0.474640 0.000000 3.720830 
# 
# 
# High freq. dielectric constant tensor:
#      x y z
#    x 1.573980 0.000000 -0.034360 
#    y 0.000000 1.612380 0.000000 
#    z -0.034360 0.000000 1.637630 
# 
# From -- ./inp_files/323630.got.cif
#   From: 2010.06.25/outbox.cif.g09.slc.cpg/sg12_162_cif.got.tgz:323630.got - 2010.06.28 00:19:55.
