data_PCOD8114081
_publ_section_title
;
Structure prediction by ZEFSAII (Michael W. Deem and Ramdas Pophale) SiO2 
 PCOD8114081
Probable space group: C 2/M
;
_chemical_formula_sum "Si O2"
_cell_formula_units_Z 64
_cell_length_a 19.702152
_cell_length_b 9.155957
_cell_length_c 20.647362
_cell_angle_alpha 90.000000
_cell_angle_beta 114.390812
_cell_angle_gamma 90.000000
_cell_volume 3392.197358
_symmetry_space_group_name_H-M "C 2/M"
_symmetry_group_IT_number 12
_symmetry_cell_setting 'monoclinic'
loop_
_space_group_symop_operation_xyz
x,y,z
-x,y,-z
-x,-y,-z
x,-y,z
1/2+x,1/2+y,z
1/2-x,1/2+y,-z
1/2-x,1/2-y,-z
1/2+x,1/2-y,z
loop_
_atom_site_type_symbol
_atom_site_label
_atom_site_fract_x
_atom_site_fract_y
_atom_site_fract_z
Si Si1 0.042395 0.325395 0.579876
Si Si2 0.808992 0.830366 0.066709
Si Si3 0.298291 0.165802 0.325963
Si Si4 0.588510 0.836350 0.116299
Si Si5 0.914055 0.336361 0.027623
Si Si6 0.513346 0.170323 0.303883
Si Si7 0.847311 0.663547 0.200514
Si Si8 0.133231 0.825232 0.262218
O O1 0.047972 0.500000 0.583556
O O2 0.127510 0.260412 0.612792
O O3 0.000000 0.265917 0.500000
O O4 0.995880 0.276668 0.625103
O O5 0.888491 0.783333 0.069447
O O6 0.804865 0.778797 0.139096
O O7 0.795563 0.000000 0.058303
O O8 0.750000 0.750000 0.000000
O O9 0.307293 0.177455 0.252970
O O10 0.217343 0.232756 0.312676
O O11 0.296979 0.000000 0.348964
O O12 0.501584 0.832433 0.068335
O O13 0.612940 0.725054 0.181580
O O14 0.612938 0.000000 0.146916
O O15 0.619992 0.795679 0.057159
O O16 0.885418 0.500000 0.033425
O O17 0.435093 0.199869 0.237872
O O18 0.577655 0.261875 0.294118
O O19 0.534916 0.000000 0.308852
O O20 0.837401 0.500000 0.169161
O O21 0.129314 0.000000 0.261624
#
# Coordination Sequence:
#
# PCOD8114081 Si02
#       8
#     8   8   8   8   8   8   8   8
#     4   8  14  30  58  84 104 135 181 220 247 295
#     4  12  25  36  49  71  99 131 172 221 269 317
#     4   8  17  32  50  76 107 137 171 215 265 306
#     4   9  19  35  55  73  97 132 170 214 263 316
#     4   9  19  37  54  71  95 128 170 217 269 317
#     4   9  18  33  55  81 106 136 173 215 260 306
#     4   9  18  36  56  71  96 134 177 221 265 313
#     4  11  21  31  48  76 110 140 170 211 262 316
#
# _framework density 18.866827000000001
#
# number of rings (size 3 to 8) (size 9 to 14) (size 15 to 20)
#    0.000    2.625    0.000    4.500    1.750    4.500 
#    0.000    2.500    0.000    1.875    0.000    0.000 
#    0.000    0.000    0.000    0.000    0.000    0.000 
#
# Total GULP energy -396491.024811 kJ/mol
# GULP energy per Si atom -12390.344525 kJ/mol
# Density = 1.882389 g / cm^3
# Si number density = 18.866827 Si / 1000 Ang^3
#
#
#
# Elastic Constant Matrix: (Units=GPa)
#
#
# Indices 1 2 3 4 5 6 
#
# 1 90.0316 27.8412 32.8850 0.0000 14.6974 0.0000
# 2 27.8412 76.7496 39.2695 0.0000 6.3799 0.0000
# 3 32.8850 39.2695 114.9315 0.0000 8.9450 0.0000
# 4 0.0000 0.0000 0.0000 15.0386 0.0000 0.4008
# 5 14.6974 6.3799 8.9450 0.0000 16.3864 0.0000
# 6 0.0000 0.0000 0.0000 0.4008 0.0000 23.0001
#
#
#
# Elastic Compliance Matrix: (Units=1/GPa)
#
#
# Indices 1 2 3 4 5 6 
#
# 1 0.014687 -0.003291 -0.002248 0.000000 -0.010665 0.000000
# 2 -0.003291 0.016705 -0.004689 0.000000 -0.000993 0.000000
# 3 -0.002248 -0.004689 0.011119 0.000000 -0.002228 0.000000
# 4 0.000000 0.000000 0.000000 0.066526 0.000000 -0.001159
# 5 -0.010665 -0.000993 -0.002228 0.000000 0.072195 0.000000
# 6 0.000000 0.000000 0.000000 -0.001159 0.000000 0.043498
#
#
# Mechanical properties :
#
#
# Convention : Reuss Voigt Hill
#
# Bulk Modulus (GPa) = 45.33936 53.52267 49.43102
# Shear Modulus (GPa) = 19.79902 22.99948 21.39925
#
# Velocity S-wave (km/s) = 3.24297 3.49527 3.37148
# Velocity P-wave (km/s) = 6.17300 6.68726 6.43527
#
# Compressibility (1/GPa) = 0.02205589
#
# Stress axis : x y z
#
# Youngs Moduli (GPa) = 68.08751 59.86313 89.93259
#
# Poissons Ratio (x) = 0.19702 0.20215
# Poissons Ratio (y) = 0.22408 0.42167
# Poissons Ratio (z) = 0.15305 0.28068
#
# Static dielectric constant tensor:
#      x y z
#    x 3.148430 0.000000 0.636520 
#    y 0.000000 4.055190 0.000000 
#    z 0.636520 0.000000 2.961480 
# 
# 
# High freq. dielectric constant tensor:
#      x y z
#    x 1.742600 0.000000 0.003030 
#    y 0.000000 1.697880 0.000000 
#    z 0.003030 0.000000 1.724080 
# 
# From -- ./inp_files/320038.got.cif
#   From: 2010.06.25/outbox.cif.g09.slc.cpg/sg12_161_cif.got.tgz:320038.got - 2010.06.28 00:19:55.
