data_PCOD8114877
_publ_section_title
;
Structure prediction by ZEFSAII (Michael W. Deem and Ramdas Pophale) SiO2 
 PCOD8114877
Probable space group: C 2/M
;
_chemical_formula_sum "Si O2"
_cell_formula_units_Z 48
_cell_length_a 20.624238
_cell_length_b 7.953034
_cell_length_c 22.476190
_cell_angle_alpha 90.000000
_cell_angle_beta 41.694381
_cell_angle_gamma 90.000000
_cell_volume 2452.210205
_symmetry_space_group_name_H-M "C 2/M"
_symmetry_group_IT_number 12
_symmetry_cell_setting 'monoclinic'
loop_
_space_group_symop_operation_xyz
x,y,z
-x,y,-z
-x,-y,-z
x,-y,z
1/2+x,1/2+y,z
1/2-x,1/2+y,-z
1/2-x,1/2-y,-z
1/2+x,1/2-y,z
loop_
_atom_site_type_symbol
_atom_site_label
_atom_site_fract_x
_atom_site_fract_y
_atom_site_fract_z
Si Si1 0.890552 0.305978 0.065592
Si Si2 0.650636 0.301246 0.037014
Si Si3 0.047017 0.000000 0.561106
Si Si4 0.210827 0.190459 0.753270
Si Si5 0.045641 0.195883 0.772453
Si Si6 0.146150 0.816955 0.589766
Si Si7 0.150314 0.000000 0.364723
O O1 0.884864 0.500000 0.088509
O O2 0.818780 0.202455 0.157525
O O3 0.853627 0.284673 0.024132
O O4 0.000000 0.236608 0.000000
O O5 0.642613 0.500000 0.034081
O O6 0.560635 0.229666 0.138360
O O7 0.750000 0.250000 0.000000
O O8 0.076748 0.166512 0.578983
O O9 0.105680 0.000000 0.460299
O O10 0.932105 0.000000 0.629545
O O11 0.116434 0.233169 0.778762
O O12 0.291597 0.327356 0.682143
O O13 0.249026 0.000000 0.714471
O O14 0.090470 0.282596 0.681384
O O15 0.030275 0.000000 0.770930
O O16 0.250000 0.750000 0.500000
O O17 0.169899 0.000000 0.600629
#
# Coordination Sequence:
#
# PCOD8114877 Si02
#       7
#     8   8   4   8   8   8   4
#     4  11  22  39  61  90 122 163 215 267 321 385
#     4  11  23  39  58  85 125 169 209 264 323 377
#     4   9  22  38  64  86 138 162 198 260 331 376
#     4  11  22  38  65  92 119 166 214 262 311 377
#     4   9  19  36  59  84 116 156 207 255 317 370
#     4   9  18  36  59  87 113 157 202 250 306 372
#     4  11  22  42  59  98 128 168 205 258 322 388
#
# _framework density 19.574178
#
# number of rings (size 3 to 8) (size 9 to 14) (size 15 to 20)
#    0.500    1.333    2.500    2.000    0.000    2.000 
#    1.500    2.500    0.000    0.000    0.000    0.000 
#    0.000    0.000    0.000    0.000    0.000    0.000 
#
# Total GULP energy -297462.464855 kJ/mol
# GULP energy per Si atom -12394.269369 kJ/mol
# Density = 1.952963 g / cm^3
# Si number density = 19.574178 Si / 1000 Ang^3
#
#
#
# Elastic Constant Matrix: (Units=GPa)
#
#
# Indices 1 2 3 4 5 6 
#
# 1 141.2838 24.5809 68.7107 -0.0005 -6.2432 0.0005
# 2 24.5809 72.8095 30.5512 -0.0015 -13.0853 0.0018
# 3 68.7107 30.5512 148.3580 -0.0002 -1.5892 0.0002
# 4 -0.0005 -0.0015 -0.0002 17.7588 0.0001 -5.8365
# 5 -6.2432 -13.0853 -1.5892 0.0001 37.1461 -0.0002
# 6 0.0005 0.0018 0.0002 -5.8365 -0.0002 26.5415
#
#
#
# Elastic Compliance Matrix: (Units=1/GPa)
#
#
# Indices 1 2 3 4 5 6 
#
# 1 0.009305 -0.001279 -0.004036 0.000000 0.000941 0.000000
# 2 -0.001279 0.016270 -0.002700 0.000001 0.005401 -0.000001
# 3 -0.004036 -0.002700 0.009153 0.000000 -0.001238 0.000000
# 4 0.000000 0.000001 0.000000 0.060697 0.000000 0.013347
# 5 0.000941 0.005401 -0.001238 0.000000 0.028928 0.000000
# 6 0.000000 -0.000001 0.000000 0.013347 0.000000 0.040612
#
#
# Mechanical properties :
#
#
# Convention : Reuss Voigt Hill
#
# Bulk Modulus (GPa) = 53.48456 67.79300 60.63878
# Shear Modulus (GPa) = 26.70552 32.19651 29.45102
#
# Velocity S-wave (km/s) = 3.69768 4.06007 3.88311
# Velocity P-wave (km/s) = 6.75380 7.52914 7.15199
#
# Compressibility (1/GPa) = 0.01869698
#
# Stress axis : x y z
#
# Youngs Moduli (GPa) = 107.47074 61.46313 109.25935
#
# Poissons Ratio (x) = 0.07860 0.44098
# Poissons Ratio (y) = 0.13743 0.29504
# Poissons Ratio (z) = 0.43376 0.16597
#
# Static dielectric constant tensor:
#      x y z
#    x 3.531940 0.000000 0.059640 
#    y 0.000000 3.451640 0.000000 
#    z 0.059640 0.000000 4.094440 
# 
# 
# High freq. dielectric constant tensor:
#      x y z
#    x 1.757750 0.000000 0.009190 
#    y 0.000000 1.741460 0.000000 
#    z 0.009190 0.000000 1.778850 
# 
# From -- ./inp_files/319591.got.cif
#   From: 2010.06.25/outbox.cif.g09.slc.cpg/sg12_160_cif.got.tgz:319591.got - 2010.06.28 00:19:55.
