data_PCOD8114327
_publ_section_title
;
Structure prediction by ZEFSAII (Michael W. Deem and Ramdas Pophale) SiO2 
 PCOD8114327
Probable space group: C 2/M
;
_chemical_formula_sum "Si O2"
_cell_formula_units_Z 64
_cell_length_a 21.802794
_cell_length_b 29.070318
_cell_length_c 15.440917
_cell_angle_alpha 90.000000
_cell_angle_beta 160.234274
_cell_angle_gamma 90.000000
_cell_volume 3309.608019
_symmetry_space_group_name_H-M "C 2/M"
_symmetry_group_IT_number 12
_symmetry_cell_setting 'monoclinic'
loop_
_space_group_symop_operation_xyz
x,y,z
-x,y,-z
-x,-y,-z
x,-y,z
1/2+x,1/2+y,z
1/2-x,1/2+y,-z
1/2-x,1/2-y,-z
1/2+x,1/2-y,z
loop_
_atom_site_type_symbol
_atom_site_label
_atom_site_fract_x
_atom_site_fract_y
_atom_site_fract_z
Si Si1 0.012754 0.289763 0.704453
Si Si2 0.836692 0.356527 0.849026
Si Si3 0.913993 0.379028 0.675798
Si Si4 0.685169 0.707828 0.020403
Si Si5 0.919676 0.875335 0.638096
Si Si6 0.318152 0.246551 0.812154
Si Si7 0.418015 0.946438 0.525807
Si Si8 0.216154 0.053641 0.086745
O O1 0.120495 0.306759 0.761663
O O2 0.931942 0.333406 0.644303
O O3 0.850942 0.254091 0.474664
O O4 0.148294 0.260445 0.943494
O O5 0.665009 0.379843 0.571834
O O6 0.795186 0.304175 0.823161
O O7 0.000000 0.353688 0.000000
O O8 0.903941 0.385374 0.022725
O O9 0.738160 0.373288 0.501175
O O10 0.886146 0.421615 0.574629
O O11 0.693882 0.711525 0.135396
O O12 0.534376 0.671233 0.792812
O O13 0.042749 0.919196 0.822023
O O14 0.500000 0.251754 0.000000
O O15 0.618332 0.935503 0.757422
O O16 0.271441 0.931110 0.257959
O O17 0.394148 0.000000 0.512615
O O18 0.167255 0.000000 0.020352
#
# Coordination Sequence:
#
# PCOD8114327 Si02
#       8
#     8   8   8   8   8   8   8   8
#     4  11  23  37  54  81 116 153 195 240 287 339
#     4   9  20  37  56  80 115 155 193 237 287 336
#     4  11  22  38  60  86 115 152 197 240 287 343
#     4  11  23  37  54  81 116 153 195 240 287 339
#     4  11  22  38  60  86 115 152 197 240 287 343
#     4  11  21  37  57  76 109 156 200 241 284 335
#     4   9  20  41  65  87 115 149 184 232 295 352
#     4   9  20  41  65  87 115 149 184 232 295 352
#
# _framework density 19.337637999999998
#
# number of rings (size 3 to 8) (size 9 to 14) (size 15 to 20)
#    0.000    1.750    2.500    2.625    1.750    2.000 
#    0.000    4.375    0.000    3.750    0.000    0.000 
#    0.000    0.000    0.000    0.000    0.000    0.000 
#
# Total GULP energy -396669.464779 kJ/mol
# GULP energy per Si atom -12395.920774 kJ/mol
# Density = 1.929362 g / cm^3
# Si number density = 19.337638 Si / 1000 Ang^3
#
#
#
# Elastic Constant Matrix: (Units=GPa)
#
#
# Indices 1 2 3 4 5 6 
#
# 1 88.0491 33.4372 45.5994 0.0000 1.5235 0.0000
# 2 33.4372 73.6505 45.6157 0.0000 -2.7255 0.0000
# 3 45.5994 45.6157 123.5783 0.0000 -3.0297 -0.0002
# 4 0.0000 0.0000 0.0000 34.5246 0.0000 -7.1922
# 5 1.5235 -2.7255 -3.0297 0.0000 29.1957 -0.0001
# 6 0.0000 0.0000 -0.0002 -7.1922 -0.0001 13.1399
#
#
#
# Elastic Compliance Matrix: (Units=1/GPa)
#
#
# Indices 1 2 3 4 5 6 
#
# 1 0.015143 -0.004472 -0.003977 0.000000 -0.001620 0.000000
# 2 -0.004472 0.018950 -0.005309 0.000000 0.001451 0.000000
# 3 -0.003977 -0.005309 0.011541 0.000000 0.000910 0.000000
# 4 0.000000 0.000000 0.000000 0.032693 0.000000 0.017894
# 5 -0.001620 0.001451 0.000910 0.000000 0.034566 0.000000
# 6 0.000000 0.000000 0.000000 0.017894 0.000000 0.085899
#
#
# Mechanical properties :
#
#
# Convention : Reuss Voigt Hill
#
# Bulk Modulus (GPa) = 55.19126 59.39805 57.29466
# Shear Modulus (GPa) = 21.51958 26.08043 23.80001
#
# Velocity S-wave (km/s) = 3.33954 3.67643 3.51203
# Velocity P-wave (km/s) = 6.59339 6.98602 6.79254
#
# Compressibility (1/GPa) = 0.01811881
#
# Stress axis : x y z
#
# Youngs Moduli (GPa) = 66.03698 52.77102 86.64435
#
# Poissons Ratio (x) = 0.23599 0.34456
# Poissons Ratio (y) = 0.29531 0.46001
# Poissons Ratio (z) = 0.26261 0.28017
#
# Static dielectric constant tensor:
#      x y z
#    x 3.619200 0.000000 -0.142290 
#    y 0.000000 3.315360 0.000000 
#    z -0.142290 0.000000 3.702860 
# 
# 
# High freq. dielectric constant tensor:
#      x y z
#    x 1.752200 0.000000 -0.004800 
#    y 0.000000 1.735970 0.000000 
#    z -0.004800 0.000000 1.759670 
# 
# From -- ./inp_files/236017.got.cif
#   From: 2010.06.25/outbox.cif.g09.slc.cpg/sg12_119_cif.got.tgz:236017.got - 2010.06.28 00:19:55.
