data_PCOD8114617
_publ_section_title
;
Structure prediction by ZEFSAII (Michael W. Deem and Ramdas Pophale) SiO2 
 PCOD8114617
Probable space group: C 2/M
;
_chemical_formula_sum "Si O2"
_cell_formula_units_Z 48
_cell_length_a 20.394471
_cell_length_b 9.192801
_cell_length_c 16.670495
_cell_angle_alpha 90.000000
_cell_angle_beta 116.266076
_cell_angle_gamma 90.000000
_cell_volume 2802.718700
_symmetry_space_group_name_H-M "C 2/M"
_symmetry_group_IT_number 12
_symmetry_cell_setting 'monoclinic'
loop_
_space_group_symop_operation_xyz
x,y,z
-x,y,-z
-x,-y,-z
x,-y,z
1/2+x,1/2+y,z
1/2-x,1/2+y,-z
1/2-x,1/2-y,-z
1/2+x,1/2-y,z
loop_
_atom_site_type_symbol
_atom_site_label
_atom_site_fract_x
_atom_site_fract_y
_atom_site_fract_z
Si Si1 0.283905 0.329642 0.275564
Si Si2 0.296791 0.161090 0.915805
Si Si3 0.358221 0.339787 0.080708
Si Si4 0.454400 0.169980 0.555695
Si Si5 0.932473 0.172953 0.280034
Si Si6 0.300803 0.327891 0.463904
O O1 0.286469 0.500000 0.257645
O O2 0.221232 0.265774 0.181458
O O3 0.364637 0.270753 0.297765
O O4 0.264946 0.296246 0.357366
O O5 0.221254 0.158954 0.922926
O O6 0.328748 0.000000 0.922254
O O7 0.358513 0.245891 0.999460
O O8 0.380746 0.500000 0.065367
O O9 0.416512 0.284814 0.178585
O O10 0.500000 0.196400 0.500000
O O11 0.497307 0.236036 0.654677
O O12 0.380170 0.258714 0.509031
O O13 0.438245 0.000000 0.561659
O O14 0.945898 0.000000 0.297626
O O15 0.305903 0.500000 0.483496
O O16 0.250000 0.250000 0.500000
#
# Coordination Sequence:
#
# PCOD8114617 Si02
#       6
#     8   8   8   8   8   8
#     4   8  15  28  47  68  92 129 168 200 239 296
#     4   8  13  23  39  60  89 124 160 192 233 289
#     4   8  14  23  37  62  94 123 155 196 238 286
#     4  11  22  34  50  76 104 129 167 214 254 295
#     4   9  16  29  48  69  95 131 169 198 241 300
#     4  11  22  37  55  73 100 135 172 210 252 298
#
# _framework density 17.126228000000001
#
# number of rings (size 3 to 8) (size 9 to 14) (size 15 to 20)
#    0.000    2.833    1.667    3.000    0.000    1.333 
#    0.000    4.167    0.000    0.000    0.000    1.167 
#    0.000    9.333    0.000    0.000    0.000    0.000 
#
# Total GULP energy -297395.487782 kJ/mol
# GULP energy per Si atom -12391.478658 kJ/mol
# Density = 1.708725 g / cm^3
# Si number density = 17.126228 Si / 1000 Ang^3
#
#
#
# Elastic Constant Matrix: (Units=GPa)
#
#
# Indices 1 2 3 4 5 6 
#
# 1 53.5843 36.8202 40.9707 0.0000 -7.1805 0.0000
# 2 36.8202 88.2870 71.9136 0.0000 -1.3443 0.0000
# 3 40.9707 71.9136 164.3877 0.0000 -4.4938 0.0000
# 4 0.0000 0.0000 0.0000 30.8952 0.0000 2.0858
# 5 -7.1805 -1.3443 -4.4938 0.0000 14.5377 0.0000
# 6 0.0000 0.0000 0.0000 2.0858 0.0000 20.8758
#
#
#
# Elastic Compliance Matrix: (Units=1/GPa)
#
#
# Indices 1 2 3 4 5 6 
#
# 1 0.029101 -0.009815 -0.002613 0.000000 0.012658 0.000000
# 2 -0.009815 0.020916 -0.006841 0.000000 -0.005029 0.000000
# 3 -0.002613 -0.006841 0.009757 0.000000 0.001093 0.000000
# 4 0.000000 0.000000 0.000000 0.032587 0.000000 -0.003256
# 5 0.012658 -0.005029 0.001093 0.000000 0.074912 0.000000
# 6 0.000000 0.000000 0.000000 -0.003256 0.000000 0.048228
#
#
# Mechanical properties :
#
#
# Convention : Reuss Voigt Hill
#
# Bulk Modulus (GPa) = 47.09228 67.29645 57.19436
# Shear Modulus (GPa) = 19.14841 23.69870 21.42356
#
# Velocity S-wave (km/s) = 3.34739 3.72394 3.54067
# Velocity P-wave (km/s) = 6.51896 7.60723 7.08403
#
# Compressibility (1/GPa) = 0.02123491
#
# Stress axis : x y z
#
# Youngs Moduli (GPa) = 34.36316 47.81004 102.49009
#
# Poissons Ratio (x) = 0.46928 0.26780
# Poissons Ratio (y) = 0.33729 0.70115
# Poissons Ratio (z) = 0.08979 0.32708
#
# Static dielectric constant tensor:
#      x y z
#    x 2.225100 0.000000 0.173700 
#    y 0.000000 3.202180 0.000000 
#    z 0.173700 0.000000 3.547130 
# 
# 
# High freq. dielectric constant tensor:
#      x y z
#    x 1.596150 0.000000 0.000370 
#    y 0.000000 1.648870 0.000000 
#    z 0.000370 0.000000 1.685700 
# 
# From -- ./inp_files/274088.got.cif
#   From: 2010.06.25/outbox.cif.g09.slc.cpg/sg12_138_cif.got.tgz:274088.got - 2010.06.28 00:19:55.
