data_PCOD8114748
_publ_section_title
;
Structure prediction by ZEFSAII (Michael W. Deem and Ramdas Pophale) SiO2 
 PCOD8114748
Probable space group: C 2/M
;
_chemical_formula_sum "Si O2"
_cell_formula_units_Z 48
_cell_length_a 10.331842
_cell_length_b 28.161739
_cell_length_c 8.525481
_cell_angle_alpha 90.000000
_cell_angle_beta 91.271749
_cell_angle_gamma 90.000000
_cell_volume 2479.985406
_symmetry_space_group_name_H-M "C 2/M"
_symmetry_group_IT_number 12
_symmetry_cell_setting 'monoclinic'
loop_
_space_group_symop_operation_xyz
x,y,z
-x,y,-z
-x,-y,-z
x,-y,z
1/2+x,1/2+y,z
1/2-x,1/2+y,-z
1/2-x,1/2-y,-z
1/2+x,1/2-y,z
loop_
_atom_site_type_symbol
_atom_site_label
_atom_site_fract_x
_atom_site_fract_y
_atom_site_fract_z
Si Si1 0.501493 0.723329 0.315302
Si Si2 0.273254 0.778470 0.157390
Si Si3 0.227342 0.055371 0.842159
Si Si4 0.490735 0.377055 0.188362
Si Si5 0.733772 0.887774 0.840297
Si Si6 0.506772 0.947526 0.812455
O O1 0.500000 0.727423 0.500000
O O2 0.405973 0.763081 0.244061
O O3 0.648902 0.730570 0.263489
O O4 0.444716 0.672733 0.258463
O O5 0.291771 0.833528 0.111991
O O6 0.250000 0.750000 0.000000
O O7 0.108513 0.082509 0.755558
O O8 0.360436 0.062396 0.746511
O O9 0.192916 0.000000 0.860302
O O10 0.244739 0.078397 0.011743
O O11 0.634122 0.390107 0.258733
O O12 0.500000 0.371885 0.000000
O O13 0.608657 0.909160 0.745217
O O14 0.551809 0.000000 0.760944
O O15 0.500000 0.944511 0.000000
#
# Coordination Sequence:
#
# PCOD8114748 Si02
#       6
#     8   8   8   8   8   8
#     4  11  23  39  56  78 111 148 185 228 278 332
#     4  11  22  37  57  82 109 142 186 232 279 330
#     4   9  16  26  44  73 105 134 168 215 270 321
#     4   9  18  32  49  73 102 134 174 220 268 317
#     4   9  17  27  43  69 100 130 166 211 264 315
#     4   8  14  24  38  63  99 130 156 197 256 314
#
# _framework density 19.354952999999998
#
# number of rings (size 3 to 8) (size 9 to 14) (size 15 to 20)
#    0.000    2.500    0.000    5.500    0.000    9.000 
#    0.000    0.000    0.000    0.500    0.000    0.000 
#    0.000   13.333    0.000    0.000    0.000    0.167 
#
# Total GULP energy -297386.742712 kJ/mol
# GULP energy per Si atom -12391.114280 kJ/mol
# Density = 1.931090 g / cm^3
# Si number density = 19.354953 Si / 1000 Ang^3
#
#
#
# Elastic Constant Matrix: (Units=GPa)
#
#
# Indices 1 2 3 4 5 6 
#
# 1 127.4383 73.1002 6.0653 0.0000 0.9739 0.0000
# 2 73.1002 129.5443 6.1541 0.0000 5.0817 0.0000
# 3 6.0653 6.1541 46.8517 0.0000 -1.0877 0.0000
# 4 0.0000 0.0000 0.0000 5.5059 0.0000 1.2539
# 5 0.9739 5.0817 -1.0877 0.0000 15.8615 0.0000
# 6 0.0000 0.0000 0.0000 1.2539 0.0000 45.3265
#
#
#
# Elastic Compliance Matrix: (Units=1/GPa)
#
#
# Indices 1 2 3 4 5 6 
#
# 1 0.011651 -0.006599 -0.000610 0.000000 0.001357 0.000000
# 2 -0.006599 0.011610 -0.000749 0.000000 -0.003366 0.000000
# 3 -0.000610 -0.000749 0.021562 0.000000 0.001756 0.000000
# 4 0.000000 0.000000 0.000000 0.182776 0.000000 -0.005056
# 5 0.001357 -0.003366 0.001756 0.000000 0.064161 0.000000
# 6 0.000000 0.000000 0.000000 -0.005056 0.000000 0.022202
#
#
# Mechanical properties :
#
#
# Convention : Reuss Voigt Hill
#
# Bulk Modulus (GPa) = 34.59243 52.71927 43.65585
# Shear Modulus (GPa) = 14.72697 27.90642 21.31669
#
# Velocity S-wave (km/s) = 2.76141 3.80125 3.32227
# Velocity P-wave (km/s) = 5.29893 6.82373 6.10909
#
# Compressibility (1/GPa) = 0.02890806
#
# Stress axis : x y z
#
# Youngs Moduli (GPa) = 85.83255 86.12934 46.37772
#
# Poissons Ratio (x) = 0.56833 0.02829
# Poissons Ratio (y) = 0.56637 0.03474
# Poissons Ratio (z) = 0.05236 0.06451
#
# Static dielectric constant tensor:
#      x y z
#    x 4.106180 0.000000 -0.068400 
#    y 0.000000 3.781240 0.000000 
#    z -0.068400 0.000000 2.845590 
# 
# 
# High freq. dielectric constant tensor:
#      x y z
#    x 1.782210 0.000000 0.000620 
#    y 0.000000 1.763890 0.000000 
#    z 0.000620 0.000000 1.679800 
# 
# From -- ./inp_files/50690.got.cif
#   From: 2010.06.25/outbox.cif.g09.slc.cpg/sg12_26_cif.got.tgz:50690.got - 2010.06.28 00:19:55.
