data_PCOD8114664
_publ_section_title
;
Structure prediction by ZEFSAII (Michael W. Deem and Ramdas Pophale) SiO2 
 PCOD8114664
Probable space group: C 2/M
;
_chemical_formula_sum "Si O2"
_cell_formula_units_Z 56
_cell_length_a 19.677342
_cell_length_b 8.912569
_cell_length_c 29.143117
_cell_angle_alpha 90.000000
_cell_angle_beta 33.049774
_cell_angle_gamma 90.000000
_cell_volume 2787.369299
_symmetry_space_group_name_H-M "C 2/M"
_symmetry_group_IT_number 12
_symmetry_cell_setting 'monoclinic'
loop_
_space_group_symop_operation_xyz
x,y,z
-x,y,-z
-x,-y,-z
x,-y,z
1/2+x,1/2+y,z
1/2-x,1/2+y,-z
1/2-x,1/2-y,-z
1/2+x,1/2-y,z
loop_
_atom_site_type_symbol
_atom_site_label
_atom_site_fract_x
_atom_site_fract_y
_atom_site_fract_z
Si Si1 0.082954 0.664598 0.011979
Si Si2 0.389201 0.821711 0.252730
Si Si3 0.116467 0.173828 0.079311
Si Si4 0.707744 0.824825 0.281183
Si Si5 0.195340 0.664189 0.858936
Si Si6 0.694223 0.176562 0.599562
Si Si7 0.925890 0.324038 0.426171
O O1 0.118000 0.500000 0.013895
O O2 0.060863 0.797899 0.060555
O O3 0.950467 0.646557 0.064433
O O4 0.196663 0.709329 0.912434
O O5 0.525662 0.753225 0.167141
O O6 0.287326 0.765546 0.273473
O O7 0.353447 0.767408 0.324040
O O8 0.396116 0.000000 0.244365
O O9 0.124674 0.000000 0.086744
O O10 0.250000 0.250000 0.000000
O O11 0.745276 0.787665 0.207596
O O12 0.562797 0.779461 0.366462
O O13 0.729796 0.000000 0.277385
O O14 0.258686 0.500000 0.814730
O O15 0.829928 0.245546 0.514625
O O16 0.599056 0.227030 0.612720
O O17 0.709933 0.000000 0.591186
O O18 0.904712 0.500000 0.441864
#
# Coordination Sequence:
#
# PCOD8114664 Si02
#       7
#     8   8   8   8   8   8   8
#     4   9  18  35  56  80 110 146 189 237 287 338
#     4  11  23  40  61  86 120 156 195 245 296 352
#     4  12  25  40  59  84 115 154 198 242 292 351
#     4  11  22  35  56  89 124 156 196 244 296 353
#     4   9  18  33  56  81 111 148 186 234 288 341
#     4   9  20  40  64  87 114 153 197 239 290 351
#     4   9  20  39  61  87 119 151 190 243 293 347
#
# _framework density 20.090627000000001
#
# number of rings (size 3 to 8) (size 9 to 14) (size 15 to 20)
#    0.000    2.000    1.429    3.000    0.000    4.571 
#    0.000    5.714    0.000    0.000    0.000    0.000 
#    0.000    0.000    0.000    0.000    0.000    0.000 
#
# Total GULP energy -346920.773907 kJ/mol
# GULP energy per Si atom -12390.027640 kJ/mol
# Density = 2.004490 g / cm^3
# Si number density = 20.090627 Si / 1000 Ang^3
#
#
#
# Elastic Constant Matrix: (Units=GPa)
#
#
# Indices 1 2 3 4 5 6 
#
# 1 40.1413 28.0091 58.9190 0.0004 7.9176 -0.0054
# 2 28.0091 79.6652 55.6550 -0.0004 3.0372 -0.0024
# 3 58.9190 55.6550 156.2987 -0.0002 14.3403 -0.0007
# 4 0.0004 -0.0004 -0.0002 35.5834 0.0000 0.2845
# 5 7.9176 3.0372 14.3403 0.0000 36.1103 0.0009
# 6 -0.0054 -0.0024 -0.0007 0.2845 0.0009 24.9325
#
#
#
# Elastic Compliance Matrix: (Units=1/GPa)
#
#
# Indices 1 2 3 4 5 6 
#
# 1 0.059218 -0.007118 -0.019357 -0.000001 -0.004698 0.000012
# 2 -0.007118 0.017599 -0.003727 0.000000 0.001560 0.000000
# 3 -0.019357 -0.003727 0.015156 0.000000 -0.001461 -0.000004
# 4 -0.000001 0.000000 0.000000 0.028106 0.000000 -0.000321
# 5 -0.004698 0.001560 -0.001461 0.000000 0.029172 -0.000002
# 6 0.000012 0.000000 -0.000004 -0.000321 -0.000002 0.040112
#
#
# Mechanical properties :
#
#
# Convention : Reuss Voigt Hill
#
# Bulk Modulus (GPa) = 31.67632 62.36348 47.01990
# Shear Modulus (GPa) = 19.20938 28.22670 23.71804
#
# Velocity S-wave (km/s) = 3.09550 3.75236 3.43964
# Velocity P-wave (km/s) = 5.34576 7.06272 6.26335
#
# Compressibility (1/GPa) = 0.03156933
#
# Stress axis : x y z
#
# Youngs Moduli (GPa) = 16.88681 56.82120 65.97974
#
# Poissons Ratio (x) = 0.40443 1.27720
# Poissons Ratio (y) = 0.12019 0.24589
# Poissons Ratio (z) = 0.32689 0.21176
#
# Static dielectric constant tensor:
#      x y z
#    x 2.818450 -0.000320 -0.133380 
#    y -0.000320 5.424810 -0.000080 
#    z -0.133380 -0.000080 3.697770 
# 
# 
# High freq. dielectric constant tensor:
#      x y z
#    x 1.780260 0.000000 0.006870 
#    y 0.000000 1.778620 0.000000 
#    z 0.006870 0.000000 1.789520 
# 
# From -- ./inp_files/380570.got.cif
#   From: 2010.06.25/outbox.cif.g09.slc.cpg/sg12_191_cif.got.tgz:380570.got - 2010.06.28 00:19:55.
