data_PCOD8114444
_publ_section_title
;
Structure prediction by ZEFSAII (Michael W. Deem and Ramdas Pophale) SiO2 
 PCOD8114444
Probable space group: C 2/M
;
_chemical_formula_sum "Si O2"
_cell_formula_units_Z 56
_cell_length_a 8.708522
_cell_length_b 25.615623
_cell_length_c 11.707713
_cell_angle_alpha 90.000000
_cell_angle_beta 109.850489
_cell_angle_gamma 90.000000
_cell_volume 2456.507332
_symmetry_space_group_name_H-M "C 2/M"
_symmetry_group_IT_number 12
_symmetry_cell_setting 'monoclinic'
loop_
_space_group_symop_operation_xyz
x,y,z
-x,y,-z
-x,-y,-z
x,-y,z
1/2+x,1/2+y,z
1/2-x,1/2+y,-z
1/2-x,1/2-y,-z
1/2+x,1/2-y,z
loop_
_atom_site_type_symbol
_atom_site_label
_atom_site_fract_x
_atom_site_fract_y
_atom_site_fract_z
Si Si1 0.306780 0.162792 0.449143
Si Si2 0.274211 0.716914 0.791177
Si Si3 0.448826 0.941326 0.782781
Si Si4 0.156300 0.555192 0.618646
Si Si5 0.646053 0.379213 0.612795
Si Si6 0.618739 0.150315 0.943099
Si Si7 0.617710 0.679224 0.830539
O O1 0.500000 0.161938 0.500000
O O2 0.255247 0.209550 0.352272
O O3 0.238609 0.106530 0.384133
O O4 0.231321 0.167138 0.557504
O O5 0.152318 0.679736 0.832626
O O6 0.463192 0.702752 0.858193
O O7 0.241149 0.775566 0.820799
O O8 0.597876 0.941463 0.733247
O O9 0.280835 0.921970 0.680898
O O10 0.513917 0.902657 0.897111
O O11 0.417971 0.000000 0.822784
O O12 0.254924 0.500000 0.627174
O O13 0.000000 0.553268 0.500000
O O14 0.500000 0.404370 0.500000
O O15 0.567419 0.353434 0.705904
O O16 0.500000 0.182814 0.000000
O O17 0.789831 0.142405 0.054024
#
# Coordination Sequence:
#
# PCOD8114444 Si02
#       7
#     8   8   8   8   8   8   8
#     4  11  21  38  68  97 140 184 227 283 341 415
#     4  12  26  46  69 102 140 183 239 286 351 408
#     4  11  23  42  73 105 137 183 234 283 349 418
#     4   9  16  31  61  96 126 168 224 272 327 401
#     4  12  24  44  65 103 147 183 225 287 351 405
#     4  12  24  46  74  99 138 177 235 293 340 414
#     4  12  28  45  69 102 138 188 235 288 349 416
#
# _framework density 22.796595
#
# number of rings (size 3 to 8) (size 9 to 14) (size 15 to 20)
#    0.000    0.714    7.143    1.714    2.000    1.714 
#    0.000    0.000    0.000    3.429    0.000    0.000 
#    0.000    0.000    0.000    0.000    0.000    0.000 
#
# Total GULP energy -346911.106790 kJ/mol
# GULP energy per Si atom -12389.682385 kJ/mol
# Density = 2.274471 g / cm^3
# Si number density = 22.796595 Si / 1000 Ang^3
#
#
#
# Elastic Constant Matrix: (Units=GPa)
#
#
# Indices 1 2 3 4 5 6 
#
# 1 88.2066 14.3506 21.5210 0.0000 9.3409 0.0000
# 2 14.3506 90.4695 37.2298 0.0000 20.8634 0.0000
# 3 21.5210 37.2298 104.5383 0.0000 16.4944 0.0000
# 4 0.0000 0.0000 0.0000 29.3951 0.0000 3.9635
# 5 9.3409 20.8634 16.4944 0.0000 42.3086 0.0000
# 6 0.0000 0.0000 0.0000 3.9635 0.0000 22.5967
#
#
#
# Elastic Compliance Matrix: (Units=1/GPa)
#
#
# Indices 1 2 3 4 5 6 
#
# 1 0.012105 -0.000751 -0.001983 0.000000 -0.001529 0.000000
# 2 -0.000751 0.014022 -0.004022 0.000000 -0.005181 0.000000
# 3 -0.001983 -0.004022 0.011747 0.000000 -0.002159 0.000000
# 4 0.000000 0.000000 0.000000 0.034843 0.000000 -0.006112
# 5 -0.001529 -0.005181 -0.002159 0.000000 0.027370 0.000000
# 6 0.000000 0.000000 0.000000 -0.006112 0.000000 0.045326
#
#
# Mechanical properties :
#
#
# Convention : Reuss Voigt Hill
#
# Bulk Modulus (GPa) = 41.04790 47.71303 44.38046
# Shear Modulus (GPa) = 29.93164 32.86761 31.39962
#
# Velocity S-wave (km/s) = 3.62745 3.80119 3.71534
# Velocity P-wave (km/s) = 5.96571 6.34356 6.15754
#
# Compressibility (1/GPa) = 0.02436178
#
# Stress axis : x y z
#
# Youngs Moduli (GPa) = 82.61020 71.31415 85.12803
#
# Poissons Ratio (x) = 0.05359 0.16882
# Poissons Ratio (y) = 0.06208 0.34236
# Poissons Ratio (z) = 0.16383 0.28681
#
# Static dielectric constant tensor:
#      x y z
#    x 2.196970 0.000000 0.444400 
#    y 0.000000 4.346920 0.000000 
#    z 0.444400 0.000000 3.947200 
# 
# 
# High freq. dielectric constant tensor:
#      x y z
#    x 1.898660 0.000000 -0.013210 
#    y 0.000000 1.873350 0.000000 
#    z -0.013210 0.000000 1.906900 
# 
# From -- ./inp_files/124334.got.cif
#   From: 2010.06.25/outbox.cif.g09.slc.cpg/sg12_63_cif.got.tgz:124334.got - 2010.06.28 00:19:55.
