data_PCOD8114627
_publ_section_title
;
Structure prediction by ZEFSAII (Michael W. Deem and Ramdas Pophale) SiO2 
 PCOD8114627
Probable space group: C 2/M
;
_chemical_formula_sum "Si O2"
_cell_formula_units_Z 32
_cell_length_a 13.911226
_cell_length_b 18.382121
_cell_length_c 15.236162
_cell_angle_alpha 90.000000
_cell_angle_beta 152.122076
_cell_angle_gamma 90.000000
_cell_volume 1821.801859
_symmetry_space_group_name_H-M "C 2/M"
_symmetry_group_IT_number 12
_symmetry_cell_setting 'monoclinic'
loop_
_space_group_symop_operation_xyz
x,y,z
-x,y,-z
-x,-y,-z
x,-y,z
1/2+x,1/2+y,z
1/2-x,1/2+y,-z
1/2-x,1/2-y,-z
1/2+x,1/2-y,z
loop_
_atom_site_type_symbol
_atom_site_label
_atom_site_fract_x
_atom_site_fract_y
_atom_site_fract_z
Si Si1 0.707185 0.582727 0.778376
Si Si2 0.234699 0.581378 0.376355
Si Si3 0.138036 0.728699 0.031482
Si Si4 0.456270 0.784577 0.702937
O O1 0.782097 0.500000 0.859623
O O2 0.465132 0.588433 0.599184
O O3 0.763974 0.604700 0.724556
O O4 0.822119 0.640969 0.932954
O O5 0.152953 0.500000 0.320772
O O6 0.084158 0.630249 0.313418
O O7 0.356405 0.771291 0.213410
O O8 0.000000 0.756658 0.000000
O O9 0.020147 0.751050 0.847603
O O10 0.250000 0.750000 0.500000
#
# Coordination Sequence:
#
# PCOD8114627 Si02
#       4
#     8   8   8   8
#     4   9  17  31  54  83 112 140 171 215 278 338
#     4   9  17  32  55  80 109 143 176 217 274 328
#     4  11  22  34  53  81 112 144 183 218 264 323
#     4  11  22  35  53  78 112 147 182 217 267 320
#
# _framework density 17.565027000000001
#
# number of rings (size 3 to 8) (size 9 to 14) (size 15 to 20)
#    0.000    2.000    5.000    1.500    0.000    2.500 
#    0.000    0.000    0.000    0.750    0.000    1.750 
#    0.000    0.000    0.000    0.000    0.000    0.000 
#
# Total GULP energy -198341.935357 kJ/mol
# GULP energy per Si atom -12396.370960 kJ/mol
# Density = 1.752505 g / cm^3
# Si number density = 17.565027 Si / 1000 Ang^3
#
#
#
# Elastic Constant Matrix: (Units=GPa)
#
#
# Indices 1 2 3 4 5 6 
#
# 1 112.4694 51.4515 41.8461 0.0059 25.7455 0.0008
# 2 51.4515 82.9786 29.6297 0.0069 13.8987 0.0056
# 3 41.8461 29.6297 102.3256 0.0193 10.9257 0.0120
# 4 0.0059 0.0069 0.0193 26.2167 0.0104 1.6238
# 5 25.7455 13.8987 10.9257 0.0104 27.1133 0.0055
# 6 0.0008 0.0056 0.0120 1.6238 0.0055 30.8519
#
#
#
# Elastic Compliance Matrix: (Units=1/GPa)
#
#
# Indices 1 2 3 4 5 6 
#
# 1 0.015484 -0.006758 -0.003318 0.000004 -0.009902 0.000004
# 2 -0.006758 0.017244 -0.002060 -0.000001 -0.001593 -0.000002
# 3 -0.003318 -0.002060 0.011784 -0.000007 -0.000542 -0.000004
# 4 0.000004 -0.000001 -0.000007 0.038268 -0.000015 -0.002014
# 5 -0.009902 -0.001593 -0.000542 -0.000015 0.047319 -0.000007
# 6 0.000004 -0.000002 -0.000004 -0.002014 -0.000007 0.032519
#
#
# Mechanical properties :
#
#
# Convention : Reuss Voigt Hill
#
# Bulk Modulus (GPa) = 49.40504 60.40314 54.90409
# Shear Modulus (GPa) = 25.82172 28.49279 27.15725
#
# Velocity S-wave (km/s) = 3.83830 4.03194 3.93631
# Velocity P-wave (km/s) = 6.91603 7.49255 7.21005
#
# Compressibility (1/GPa) = 0.02024085
#
# Stress axis : x y z
#
# Youngs Moduli (GPa) = 64.58333 57.99264 84.86137
#
# Poissons Ratio (x) = 0.39189 0.28158
# Poissons Ratio (y) = 0.43643 0.17477
# Poissons Ratio (z) = 0.21430 0.11944
#
# Static dielectric constant tensor:
#      x y z
#    x 3.189450 0.000000 0.190450 
#    y 0.000000 3.259920 -0.000020 
#    z 0.190450 -0.000020 3.418100 
# 
# 
# High freq. dielectric constant tensor:
#      x y z
#    x 1.648840 0.000000 0.020810 
#    y 0.000000 1.660530 0.000000 
#    z 0.020810 0.000000 1.700700 
# 
# From -- ./inp_files/59439.got.cif
#   From: 2010.06.25/outbox.cif.g09.slc.cpg/sg12_30_cif.got.tgz:59439.got - 2010.06.28 00:19:55.
