data_PCOD8114386
_publ_section_title
;
Structure prediction by ZEFSAII (Michael W. Deem and Ramdas Pophale) SiO2 
 PCOD8114386
Probable space group: C 2/M
;
_chemical_formula_sum "Si O2"
_cell_formula_units_Z 48
_cell_length_a 19.432857
_cell_length_b 13.836686
_cell_length_c 8.536519
_cell_angle_alpha 90.000000
_cell_angle_beta 92.247033
_cell_angle_gamma 90.000000
_cell_volume 2293.588383
_symmetry_space_group_name_H-M "C 2/M"
_symmetry_group_IT_number 12
_symmetry_cell_setting 'monoclinic'
loop_
_space_group_symop_operation_xyz
x,y,z
-x,y,-z
-x,-y,-z
x,-y,z
1/2+x,1/2+y,z
1/2-x,1/2+y,-z
1/2-x,1/2-y,-z
1/2+x,1/2-y,z
loop_
_atom_site_type_symbol
_atom_site_label
_atom_site_fract_x
_atom_site_fract_y
_atom_site_fract_z
Si Si1 0.250154 0.000000 0.214589
Si Si2 0.405101 0.500000 0.754971
Si Si3 0.345227 0.792128 0.657028
Si Si4 0.032891 0.793967 0.171475
Si Si5 0.211135 0.500000 0.421257
Si Si6 0.900842 0.209100 0.336895
Si Si7 0.633414 0.500000 0.609841
Si Si8 0.224137 0.291516 0.837410
O O1 0.281947 0.905820 0.138363
O O2 0.169137 0.000000 0.170192
O O3 0.273524 0.000000 0.395431
O O4 0.447028 0.405991 0.810194
O O5 0.389443 0.500000 0.570947
O O6 0.400467 0.774929 0.800534
O O7 0.376710 0.742027 0.505985
O O8 0.274620 0.736704 0.696672
O O9 0.332398 0.905649 0.631438
O O10 0.978933 0.762174 0.302594
O O11 0.000000 0.774593 0.000000
O O12 0.285078 0.500000 0.345077
O O13 0.851783 0.254089 0.201862
O O14 0.898384 0.093991 0.313777
O O15 0.250000 0.250000 0.000000
#
# Coordination Sequence:
#
# PCOD8114386 Si02
#       8
#     4   4   8   8   4   8   4   8
#     4  11  22  42  72 105 136 174 228 278 337 404
#     4  11  22  39  70  97 139 177 212 278 346 414
#     4  12  23  45  69  97 130 182 232 276 330 400
#     4  12  26  44  63  99 141 175 220 277 348 407
#     4  11  22  42  72 103 126 175 239 286 321 396
#     4  12  24  41  69  98 133 181 224 276 336 401
#     4  11  21  37  69 104 132 162 233 282 326 406
#     4  12  25  43  69 101 142 180 220 282 343 399
#
# _framework density 20.927904999999999
#
# number of rings (size 3 to 8) (size 9 to 14) (size 15 to 20)
#    0.000    0.333    6.667    3.750    0.000    2.000 
#    0.000    2.917    0.000    0.000    0.000    0.000 
#    0.000    0.000    0.000    0.000    0.000    0.000 
#
# Total GULP energy -297653.396451 kJ/mol
# GULP energy per Si atom -12402.224852 kJ/mol
# Density = 2.088027 g / cm^3
# Si number density = 20.927905 Si / 1000 Ang^3
#
#
#
# Elastic Constant Matrix: (Units=GPa)
#
#
# Indices 1 2 3 4 5 6 
#
# 1 80.5887 25.9919 8.6065 0.0000 16.6272 0.0000
# 2 25.9919 144.5198 24.2196 0.0000 10.2961 0.0000
# 3 8.6065 24.2196 62.4203 0.0000 13.4436 0.0000
# 4 0.0000 0.0000 0.0000 36.7418 0.0000 2.6134
# 5 16.6272 10.2961 13.4436 0.0000 36.9906 0.0000
# 6 0.0000 0.0000 0.0000 2.6134 0.0000 48.4463
#
#
#
# Elastic Compliance Matrix: (Units=1/GPa)
#
#
# Indices 1 2 3 4 5 6 
#
# 1 0.014309 -0.002178 0.000138 0.000000 -0.005876 0.000000
# 2 -0.002178 0.007774 -0.002670 0.000000 -0.000215 0.000000
# 3 0.000138 -0.002670 0.018325 0.000000 -0.005979 0.000000
# 4 0.000000 0.000000 0.000000 0.027322 0.000000 -0.001474
# 5 -0.005876 -0.000215 -0.005979 0.000000 0.031908 0.000000
# 6 0.000000 0.000000 0.000000 -0.001474 0.000000 0.020721
#
#
# Mechanical properties :
#
#
# Convention : Reuss Voigt Hill
#
# Bulk Modulus (GPa) = 32.27128 45.01830 38.64479
# Shear Modulus (GPa) = 35.68698 39.68312 37.68505
#
# Velocity S-wave (km/s) = 4.13393 4.35924 4.24808
# Velocity P-wave (km/s) = 6.18381 6.84800 6.52436
#
# Compressibility (1/GPa) = 0.03098731
#
# Stress axis : x y z
#
# Youngs Moduli (GPa) = 69.88769 128.63599 54.57023
#
# Poissons Ratio (x) = 0.28015 -0.00751
# Poissons Ratio (y) = 0.15221 0.14569
# Poissons Ratio (z) = -0.00962 0.34344
#
# Static dielectric constant tensor:
#      x y z
#    x 3.921360 0.000000 0.050870 
#    y 0.000000 3.852690 0.000000 
#    z 0.050870 0.000000 3.632590 
# 
# 
# High freq. dielectric constant tensor:
#      x y z
#    x 1.828510 0.000000 0.010730 
#    y 0.000000 1.817880 0.000000 
#    z 0.010730 0.000000 1.815740 
# 
# From -- ./inp_files/73694.got.cif
#   From: 2010.06.25/outbox.cif.g09.slc.cpg/sg12_37_cif.got.tgz:73694.got - 2010.06.28 00:19:55.
