data_PCOD8114477
_publ_section_title
;
Structure prediction by ZEFSAII (Michael W. Deem and Ramdas Pophale) SiO2 
 PCOD8114477
Probable space group: C 2/M
;
_chemical_formula_sum "Si O2"
_cell_formula_units_Z 56
_cell_length_a 14.207982
_cell_length_b 18.358797
_cell_length_c 12.409278
_cell_angle_alpha 90.000000
_cell_angle_beta 119.311331
_cell_angle_gamma 90.000000
_cell_volume 2822.447726
_symmetry_space_group_name_H-M "C 2/M"
_symmetry_group_IT_number 12
_symmetry_cell_setting 'monoclinic'
loop_
_space_group_symop_operation_xyz
x,y,z
-x,y,-z
-x,-y,-z
x,-y,z
1/2+x,1/2+y,z
1/2-x,1/2+y,-z
1/2-x,1/2-y,-z
1/2+x,1/2-y,z
loop_
_atom_site_type_symbol
_atom_site_label
_atom_site_fract_x
_atom_site_fract_y
_atom_site_fract_z
Si Si1 0.190943 0.376041 0.295009
Si Si2 0.618283 0.721158 0.521129
Si Si3 0.411485 0.000000 0.617803
Si Si4 0.352226 0.213166 0.106106
Si Si5 0.859939 0.500000 0.339404
Si Si6 0.577079 0.269451 0.249122
Si Si7 0.622578 0.079133 0.033371
Si Si8 0.275921 0.158971 0.286105
O O1 0.307359 0.345276 0.395467
O O2 0.141982 0.430291 0.356444
O O3 0.105195 0.312375 0.233323
O O4 0.200322 0.410464 0.181162
O O5 0.500000 0.709891 0.500000
O O6 0.611129 0.715268 0.389807
O O7 0.668065 0.800735 0.579573
O O8 0.394170 0.000000 0.481685
O O9 0.542834 0.000000 0.694788
O O10 0.449779 0.272194 0.151862
O O11 0.335798 0.198042 0.221895
O O12 0.250000 0.250000 0.000000
O O13 0.365498 0.137670 0.052628
O O14 0.789081 0.572581 0.285463
O O15 0.646736 0.325259 0.214575
O O16 0.652201 0.000000 0.000585
O O17 0.500000 0.079448 0.000000
#
# Coordination Sequence:
#
# PCOD8114477 Si02
#       8
#     8   8   4   8   4   8   8   8
#     4  11  21  40  62  90 126 170 208 265 325 374
#     4  11  22  38  64  93 129 169 216 263 323 386
#     4  11  22  36  61  93 132 163 210 263 324 384
#     4  12  25  40  67  93 124 167 218 265 311 380
#     4  11  24  36  61  97 131 162 208 259 328 396
#     4  11  22  41  63  93 131 164 213 264 318 384
#     4  11  24  40  64  93 127 165 211 268 324 370
#     4  11  24  40  64  94 129 167 208 263 329 382
#
# _framework density 19.840935000000002
#
# number of rings (size 3 to 8) (size 9 to 14) (size 15 to 20)
#    0.000    0.857    3.571    6.000    3.000    0.000 
#    0.000    0.357    1.571    0.857    0.000    0.000 
#    0.000    0.000    0.000    0.000    0.000    0.000 
#
# Total GULP energy -347074.726238 kJ/mol
# GULP energy per Si atom -12395.525937 kJ/mol
# Density = 1.979578 g / cm^3
# Si number density = 19.840935 Si / 1000 Ang^3
#
#
#
# Elastic Constant Matrix: (Units=GPa)
#
#
# Indices 1 2 3 4 5 6 
#
# 1 135.1963 66.0538 40.5516 0.0000 17.4308 0.0000
# 2 66.0538 130.6854 28.9660 0.0000 19.8299 0.0000
# 3 40.5516 28.9660 76.4903 0.0000 17.4423 0.0000
# 4 0.0000 0.0000 0.0000-2157.5977 0.0000 1599.8543
# 5 17.4308 19.8299 17.4423 0.0000 36.1389 0.0000
# 6 0.0000 0.0000 0.0000 1599.8543 0.0000-1153.5601
#
#
#
# Elastic Compliance Matrix: (Units=1/GPa)
#
#
# Indices 1 2 3 4 5 6 
#
# 1 0.010868 -0.004501 -0.003849 0.000000 -0.000915 0.000000
# 2 -0.004501 0.010615 -0.000899 0.000000 -0.003219 0.000000
# 3 -0.003849 -0.000899 0.016764 0.000000 -0.005741 0.000000
# 4 0.000000 0.000000 0.000000 0.016336 0.000000 0.022656
# 5 -0.000915 -0.003219 -0.005741 0.000000 0.032650 0.000000
# 6 0.000000 0.000000 0.000000 0.022656 0.000000 0.030554
#
#
# Mechanical properties :
#
#
# Convention : Reuss Voigt Hill
#
# Bulk Modulus (GPa) = 50.63727 68.16834 59.40280
# Shear Modulus (GPa) = 34.99731 -641.21708 -303.10988
#
# Velocity S-wave (km/s) = 4.20443 -17.99668 -12.37342
# Velocity P-wave (km/s) = 7.01047 19.93511 13.19587
#
# Compressibility (1/GPa) = 0.01974830
#
# Stress axis : x y z
#
# Youngs Moduli (GPa) = 92.01109 94.20638 59.65293
#
# Poissons Ratio (x) = 0.42407 0.22958
# Poissons Ratio (y) = 0.41418 0.05364
# Poissons Ratio (z) = 0.35412 0.08471
#
# Static dielectric constant tensor:
#      x y z
#    x 4.026480 0.000000 -0.118730 
#    y 0.000000 3.902290 0.000000 
#    z -0.118730 0.000000 3.718400 
# 
# 
# High freq. dielectric constant tensor:
#      x y z
#    x 1.777170 0.000000 -0.011550 
#    y 0.000000 1.764170 0.000000 
#    z -0.011550 0.000000 1.779750 
# 
# From -- ./inp_files/146274.got.cif
#   From: 2010.06.25/outbox.cif.g09.slc.cpg/sg12_74_cif.got.tgz:146274.got - 2010.06.28 00:19:55.
