data_PCOD8114021
_publ_section_title
;
Structure prediction by ZEFSAII (Michael W. Deem and Ramdas Pophale) SiO2 
 PCOD8114021
Probable space group: C 2/M
;
_chemical_formula_sum "Si O2"
_cell_formula_units_Z 64
_cell_length_a 17.909756
_cell_length_b 30.651063
_cell_length_c 8.692957
_cell_angle_alpha 90.000000
_cell_angle_beta 141.233351
_cell_angle_gamma 90.000000
_cell_volume 2988.003975
_symmetry_space_group_name_H-M "C 2/M"
_symmetry_group_IT_number 12
_symmetry_cell_setting 'monoclinic'
loop_
_space_group_symop_operation_xyz
x,y,z
-x,y,-z
-x,-y,-z
x,-y,z
1/2+x,1/2+y,z
1/2-x,1/2+y,-z
1/2-x,1/2-y,-z
1/2+x,1/2-y,z
loop_
_atom_site_type_symbol
_atom_site_label
_atom_site_fract_x
_atom_site_fract_y
_atom_site_fract_z
Si Si1 0.944521 0.951962 0.579622
Si Si2 0.326949 0.588786 0.962528
Si Si3 0.912568 0.290911 0.502988
Si Si4 0.413715 0.950552 0.500791
Si Si5 0.291276 0.623401 0.239544
Si Si6 0.013353 0.372944 0.842897
Si Si7 0.089951 0.803828 0.367852
Si Si8 0.167557 0.175688 0.159699
O O1 0.835322 0.917941 0.412146
O O2 0.000000 0.953935 0.500000
O O3 0.897465 0.000000 0.552473
O O4 0.049596 0.937064 0.863526
O O5 0.219567 0.554534 0.779508
O O6 0.310058 0.623684 0.798863
O O7 0.331518 0.616307 0.128906
O O8 0.913334 0.246670 0.598231
O O9 0.774277 0.300367 0.237221
O O10 0.000000 0.286633 0.500000
O O11 0.953907 0.331049 0.672100
O O12 0.500000 0.939180 0.500000
O O13 0.444844 0.917184 0.686507
O O14 0.431082 0.000000 0.588276
O O15 0.349596 0.667733 0.399810
O O16 0.150078 0.625409 0.014447
O O17 0.000000 0.366679 0.000000
O O18 0.164537 0.808226 0.330391
O O19 0.954151 0.817759 0.127850
#
# Coordination Sequence:
#
# PCOD8114021 Si02
#       8
#     8   8   8   8   8   8   8   8
#     4   9  19  35  60  94 125 161 209 270 329 384
#     4  11  20  40  69  96 131 166 223 273 333 396
#     4  12  27  45  70  99 136 176 232 283 336 403
#     4  11  23  43  69  98 133 176 224 276 336 405
#     4  11  23  40  65  96 132 169 222 275 333 394
#     4  12  26  44  67  96 135 179 220 273 339 403
#     4  11  27  43  67  99 134 183 224 277 345 400
#     4  11  24  45  69  92 138 178 222 274 336 410
#
# _framework density 21.418979
#
# number of rings (size 3 to 8) (size 9 to 14) (size 15 to 20)
#    0.000    1.000    3.750    2.625    5.250    1.750 
#    0.000    0.000    0.000    0.750    0.000    0.000 
#    0.000    0.000    0.000    0.000    0.000    0.000 
#
# Total GULP energy -396837.714904 kJ/mol
# GULP energy per Si atom -12401.178591 kJ/mol
# Density = 2.137023 g / cm^3
# Si number density = 21.418979 Si / 1000 Ang^3
#
#
#
# Elastic Constant Matrix: (Units=GPa)
#
#
# Indices 1 2 3 4 5 6 
#
# 1 70.2152 33.9236 29.6890 0.0000 5.9688 0.0000
# 2 33.9236 147.2848 36.1531 0.0000 1.1841 0.0000
# 3 29.6890 36.1531 93.9871 0.0000 10.8568 0.0000
# 4 0.0000 0.0000 0.0000 26.0607 0.0000 -3.7219
# 5 5.9688 1.1841 10.8568 0.0000 30.1777 0.0000
# 6 0.0000 0.0000 0.0000 -3.7219 0.0000 25.1765
#
#
#
# Elastic Compliance Matrix: (Units=1/GPa)
#
#
# Indices 1 2 3 4 5 6 
#
# 1 0.017631 -0.003016 -0.004194 0.000000 -0.001860 0.000000
# 2 -0.003016 0.008031 -0.002263 0.000000 0.001096 0.000000
# 3 -0.004194 -0.002263 0.013281 0.000000 -0.003860 0.000000
# 4 0.000000 0.000000 0.000000 0.039199 0.000000 0.005795
# 5 -0.001860 0.001096 -0.003860 0.000000 0.034851 0.000000
# 6 0.000000 0.000000 0.000000 0.005795 0.000000 0.040576
#
#
# Mechanical properties :
#
#
# Convention : Reuss Voigt Hill
#
# Bulk Modulus (GPa) = 50.01059 56.77983 53.39521
# Shear Modulus (GPa) = 27.90474 30.39775 29.15124
#
# Velocity S-wave (km/s) = 3.61335 3.77131 3.69318
# Velocity P-wave (km/s) = 6.38810 6.74762 6.57032
#
# Compressibility (1/GPa) = 0.01999577
#
# Stress axis : x y z
#
# Youngs Moduli (GPa) = 56.71904 124.51786 75.29599
#
# Poissons Ratio (x) = 0.37559 0.31580
# Poissons Ratio (y) = 0.17109 0.17039
# Poissons Ratio (z) = 0.23789 0.28178
#
# Static dielectric constant tensor:
#      x y z
#    x 3.744150 0.000000 0.240210 
#    y 0.000000 4.100770 0.000000 
#    z 0.240210 0.000000 4.051970 
# 
# 
# High freq. dielectric constant tensor:
#      x y z
#    x 1.825950 0.000000 0.017330 
#    y 0.000000 1.854440 0.000000 
#    z 0.017330 0.000000 1.850040 
# 
# From -- ./inp_files/80760.got.cif
#   From: 2010.06.25/outbox.cif.g09.slc.cpg/sg12_41_cif.got.tgz:80760.got - 2010.06.28 00:19:55.
