data_PCOD8114130
_publ_section_title
;
Structure prediction by ZEFSAII (Michael W. Deem and Ramdas Pophale) SiO2 
 PCOD8114130
Probable space group: C 2/M
;
_chemical_formula_sum "Si O2"
_cell_formula_units_Z 64
_cell_length_a 8.976795
_cell_length_b 28.981335
_cell_length_c 13.928164
_cell_angle_alpha 90.000000
_cell_angle_beta 98.968319
_cell_angle_gamma 90.000000
_cell_volume 3579.245267
_symmetry_space_group_name_H-M "C 2/M"
_symmetry_group_IT_number 12
_symmetry_cell_setting 'monoclinic'
loop_
_space_group_symop_operation_xyz
x,y,z
-x,y,-z
-x,-y,-z
x,-y,z
1/2+x,1/2+y,z
1/2-x,1/2+y,-z
1/2-x,1/2-y,-z
1/2+x,1/2-y,z
loop_
_atom_site_type_symbol
_atom_site_label
_atom_site_fract_x
_atom_site_fract_y
_atom_site_fract_z
Si Si1 0.760730 0.633391 0.730715
Si Si2 0.977804 0.291637 0.682345
Si Si3 0.448673 0.372990 0.599493
Si Si4 0.264180 0.281549 0.593352
Si Si5 0.103554 0.446965 0.364326
Si Si6 0.092071 0.721440 0.888101
Si Si7 0.779958 0.692151 0.916688
Si Si8 0.717453 0.946949 0.587761
O O1 0.863136 0.665522 0.672568
O O2 0.587524 0.638519 0.682993
O O3 0.823576 0.582118 0.716208
O O4 0.769752 0.647122 0.845919
O O5 0.871925 0.245986 0.678866
O O6 0.090305 0.291081 0.603886
O O7 0.099649 0.296260 0.780440
O O8 0.500000 0.389381 0.500000
O O9 0.341698 0.329306 0.575224
O O10 0.354019 0.414826 0.637205
O O11 0.250000 0.250000 0.500000
O O12 0.128533 0.500000 0.338679
O O13 0.184063 0.435608 0.473078
O O14 0.926394 0.436335 0.359507
O O15 0.135885 0.775211 0.896348
O O16 0.916784 0.724110 0.896539
O O17 0.184159 0.684632 0.965506
O O18 0.765873 0.000000 0.604064
#
# Coordination Sequence:
#
# PCOD8114130 Si02
#       8
#     8   8   8   8   8   8   8   8
#     4  11  21  33  51  76 104 136 176 222 265 319
#     4  11  21  35  51  68  98 141 183 218 259 305
#     4  12  22  33  47  71 105 142 180 212 256 310
#     4  12  24  35  47  69 105 148 185 218 252 306
#     4   9  18  35  55  75 101 136 176 218 266 316
#     4   9  17  32  51  71  95 130 171 221 263 305
#     4   9  18  31  51  75  98 128 169 219 274 309
#     4   9  19  35  55  75 100 138 183 221 257 310
#
# _framework density 17.880865
#
# number of rings (size 3 to 8) (size 9 to 14) (size 15 to 20)
#    0.000    1.750    1.250    6.375    0.000    0.750 
#    0.000    0.000    0.000    0.000    0.000    7.000 
#    0.000    0.000    0.000   58.750    0.000    0.000 
#
# Total GULP energy -396501.815023 kJ/mol
# GULP energy per Si atom -12390.681719 kJ/mol
# Density = 1.784017 g / cm^3
# Si number density = 17.880865 Si / 1000 Ang^3
#
#
#
# Elastic Constant Matrix: (Units=GPa)
#
#
# Indices 1 2 3 4 5 6 
#
# 1 88.9134 42.7111 30.1650 0.0000 11.3972 0.0000
# 2 42.7111 94.3207 36.1828 0.0000 2.3837 0.0000
# 3 30.1650 36.1828 88.3009 0.0000 11.0226 0.0000
# 4 0.0000 0.0000 0.0000 25.0416 0.0000 -4.2454
# 5 11.3972 2.3837 11.0226 0.0000 20.6397 0.0000
# 6 0.0000 0.0000 0.0000 -4.2454 0.0000 37.1538
#
#
#
# Elastic Compliance Matrix: (Units=1/GPa)
#
#
# Indices 1 2 3 4 5 6 
#
# 1 0.015796 -0.006217 -0.001981 0.000000 -0.006946 0.000000
# 2 -0.006217 0.015064 -0.004565 0.000000 0.004131 0.000000
# 3 -0.001981 -0.004565 0.014646 0.000000 -0.006201 0.000000
# 4 0.000000 0.000000 0.000000 0.040722 0.000000 0.004653
# 5 -0.006946 0.004131 -0.006201 0.000000 0.055121 0.000000
# 6 0.000000 0.000000 0.000000 0.004653 0.000000 0.027447
#
#
# Mechanical properties :
#
#
# Convention : Reuss Voigt Hill
#
# Bulk Modulus (GPa) = 50.05027 54.40588 52.22808
# Shear Modulus (GPa) = 24.87776 27.39874 26.13825
#
# Velocity S-wave (km/s) = 3.73407 3.91870 3.82750
# Velocity P-wave (km/s) = 6.82955 7.13918 6.98608
#
# Compressibility (1/GPa) = 0.01997991
#
# Stress axis : x y z
#
# Youngs Moduli (GPa) = 63.30672 66.38291 68.27702
#
# Poissons Ratio (x) = 0.41272 0.13529
# Poissons Ratio (y) = 0.39360 0.31165
# Poissons Ratio (z) = 0.12544 0.30301
#
# Static dielectric constant tensor:
#      x y z
#    x 3.532010 0.000000 0.060040 
#    y 0.000000 3.206830 0.000000 
#    z 0.060040 0.000000 3.592420 
# 
# 
# High freq. dielectric constant tensor:
#      x y z
#    x 1.709510 0.000000 0.005790 
#    y 0.000000 1.667410 0.000000 
#    z 0.005790 0.000000 1.669170 
# 
# From -- ./inp_files/199873.got.cif
#   From: 2010.06.25/outbox.cif.g09.slc.cpg/sg12_100_cif.got.tgz:199873.got - 2010.06.28 00:19:55.
