data_PCOD8114028
_publ_section_title
;
Structure prediction by ZEFSAII (Michael W. Deem and Ramdas Pophale) SiO2 
 PCOD8114028
Probable space group: C 2/M
;
_chemical_formula_sum "Si O2"
_cell_formula_units_Z 52
_cell_length_a 14.090064
_cell_length_b 21.878371
_cell_length_c 8.912430
_cell_angle_alpha 90.000000
_cell_angle_beta 82.321482
_cell_angle_gamma 90.000000
_cell_volume 2722.778776
_symmetry_space_group_name_H-M "C 2/M"
_symmetry_group_IT_number 12
_symmetry_cell_setting 'monoclinic'
loop_
_space_group_symop_operation_xyz
x,y,z
-x,y,-z
-x,-y,-z
x,-y,z
1/2+x,1/2+y,z
1/2-x,1/2+y,-z
1/2-x,1/2-y,-z
1/2+x,1/2-y,z
loop_
_atom_site_type_symbol
_atom_site_label
_atom_site_fract_x
_atom_site_fract_y
_atom_site_fract_z
Si Si1 0.713777 0.116514 0.669937
Si Si2 0.603747 0.322352 0.447925
Si Si3 0.658565 0.255931 0.743193
Si Si4 0.500000 0.761864 0.000000
Si Si5 0.918688 0.500000 0.811214
Si Si6 0.363736 0.000000 0.161379
Si Si7 0.869793 0.715468 0.767219
Si Si8 0.099038 0.401198 0.411247
O O1 0.827034 0.123760 0.621192
O O2 0.664823 0.181681 0.725957
O O3 0.693549 0.062681 0.792498
O O4 0.678588 0.090935 0.519333
O O5 0.500000 0.351289 0.500000
O O6 0.648199 0.285891 0.580955
O O7 0.592329 0.278899 0.306492
O O8 0.753949 0.283027 0.803213
O O9 0.568145 0.274874 0.867966
O O10 0.422095 0.799317 0.915812
O O11 0.875116 0.441124 0.738573
O O12 0.033986 0.500000 0.778385
O O13 0.877260 0.500000 0.983222
O O14 0.908117 0.668088 0.638459
O O15 0.000000 0.424342 0.500000
#
# Coordination Sequence:
#
# PCOD8114028 Si02
#       8
#     8   8   8   4   4   4   8   8
#     4  11  22  39  63  84 117 152 201 242 290 339
#     4  11  20  41  64  89 112 153 202 252 286 342
#     4  11  22  39  58  91 119 158 195 242 292 352
#     4  12  24  32  54  87 130 165 184 236 292 362
#     4  11  26  35  58  84 124 156 193 226 295 363
#     4  11  25  42  54  87 120 154 193 242 290 350
#     4  11  22  36  58  86 126 155 197 232 301 346
#     4  12  20  36  58  88 115 159 193 236 278 357
#
# _framework density 19.098134999999999
#
# number of rings (size 3 to 8) (size 9 to 14) (size 15 to 20)
#    0.000    0.769    6.154    3.462    2.154    0.000 
#    0.000    0.385    0.000    0.000    0.000    1.077 
#    0.000    0.000    0.000    0.000    0.000    0.000 
#
# Total GULP energy -322213.674352 kJ/mol
# GULP energy per Si atom -12392.833629 kJ/mol
# Density = 1.905467 g / cm^3
# Si number density = 19.098135 Si / 1000 Ang^3
#
#
#
# Elastic Constant Matrix: (Units=GPa)
#
#
# Indices 1 2 3 4 5 6 
#
# 1 130.1240 40.3385 55.3795 0.0000 -2.7371 0.0000
# 2 40.3385 83.9121 34.2769 0.0000 -8.7278 0.0000
# 3 55.3795 34.2769 87.0967 0.0000 -8.4424 0.0000
# 4 0.0000 0.0000 0.0000 21.6343 0.0000 -5.3459
# 5 -2.7371 -8.7278 -8.4424 0.0000 31.2326 0.0000
# 6 0.0000 0.0000 0.0000 -5.3459 0.0000 24.8600
#
#
#
# Elastic Compliance Matrix: (Units=1/GPa)
#
#
# Indices 1 2 3 4 5 6 
#
# 1 0.011176 -0.003059 -0.006049 0.000000 -0.001510 0.000000
# 2 -0.003059 0.015234 -0.003762 0.000000 0.002972 0.000000
# 3 -0.006049 -0.003762 0.017103 0.000000 0.003042 0.000000
# 4 0.000000 0.000000 0.000000 0.048817 0.000000 0.010498
# 5 -0.001510 0.002972 0.003042 0.000000 0.033538 0.000000
# 6 0.000000 0.000000 0.000000 0.010498 0.000000 0.042483
#
#
# Mechanical properties :
#
#
# Convention : Reuss Voigt Hill
#
# Bulk Modulus (GPa) = 56.26502 62.34696 59.30599
# Shear Modulus (GPa) = 24.99838 26.95458 25.97648
#
# Velocity S-wave (km/s) = 3.62186 3.76090 3.69203
# Velocity P-wave (km/s) = 6.85678 7.18162 7.02108
#
# Compressibility (1/GPa) = 0.01777303
#
# Stress axis : x y z
#
# Youngs Moduli (GPa) = 89.48055 65.64455 58.46980
#
# Poissons Ratio (x) = 0.20079 0.35366
# Poissons Ratio (y) = 0.27370 0.21998
# Poissons Ratio (z) = 0.54123 0.24697
#
# Static dielectric constant tensor:
#      x y z
#    x 3.815690 0.000000 -0.035980 
#    y 0.000000 3.257710 0.000000 
#    z -0.035980 0.000000 3.630970 
# 
# 
# High freq. dielectric constant tensor:
#      x y z
#    x 1.744210 0.000000 0.003190 
#    y 0.000000 1.702920 0.000000 
#    z 0.003190 0.000000 1.757970 
# 
# From -- ./inp_files/63484.got.cif
#   From: 2010.06.25/outbox.cif.g09.slc.cpg/sg12_32_cif.got.tgz:63484.got - 2010.06.28 00:19:55.
