data_PCOD8114735
_publ_section_title
;
Structure prediction by ZEFSAII (Michael W. Deem and Ramdas Pophale) SiO2 
 PCOD8114735
Probable space group: C 2/M
;
_chemical_formula_sum "Si O2"
_cell_formula_units_Z 40
_cell_length_a 30.405153
_cell_length_b 8.732773
_cell_length_c 28.848733
_cell_angle_alpha 90.000000
_cell_angle_beta 162.187598
_cell_angle_gamma 90.000000
_cell_volume 2343.190303
_symmetry_space_group_name_H-M "C 2/M"
_symmetry_group_IT_number 12
_symmetry_cell_setting 'monoclinic'
loop_
_space_group_symop_operation_xyz
x,y,z
-x,y,-z
-x,-y,-z
x,-y,z
1/2+x,1/2+y,z
1/2-x,1/2+y,-z
1/2-x,1/2-y,-z
1/2+x,1/2-y,z
loop_
_atom_site_type_symbol
_atom_site_label
_atom_site_fract_x
_atom_site_fract_y
_atom_site_fract_z
Si Si1 0.157626 0.680439 0.948471
Si Si2 0.656605 0.317828 0.365430
Si Si3 0.664048 0.172395 0.794903
Si Si4 0.347879 0.827703 0.473947
Si Si5 0.510786 0.320385 0.563165
O O1 0.146626 0.500000 0.930940
O O2 0.001849 0.753506 0.790870
O O3 0.250000 0.750000 0.000000
O O4 0.230748 0.719185 0.070802
O O5 0.655949 0.500000 0.368659
O O6 0.750000 0.250000 0.500000
O O7 0.727191 0.263847 0.387549
O O8 0.503562 0.173164 0.656653
O O9 0.646554 0.238112 0.724804
O O10 0.727113 0.000000 0.856762
O O11 0.363231 0.722927 0.443015
O O12 0.309848 0.000000 0.419938
O O13 0.500000 0.258919 0.500000
O O14 0.536450 0.500000 0.590036
#
# Coordination Sequence:
#
# PCOD8114735 Si02
#       5
#     8   8   8   8   8
#     4  12  24  37  54  77 107 144 183 223 271 323
#     4  11  22  37  55  77 108 144 182 224 269 321
#     4   9  18  34  54  78 106 138 178 220 266 317
#     4   8  18  33  52  76 105 138 177 217 263 318
#     4   9  17  30  53  83 111 140 177 221 269 318
#
# _framework density 17.070743
#
# number of rings (size 3 to 8) (size 9 to 14) (size 15 to 20)
#    1.200    1.000    0.000    4.200    0.000    4.800 
#    0.000    0.000    0.000    1.200    0.000    8.400 
#    0.000    0.000    0.000    0.000    0.000    0.000 
#
# Total GULP energy -247828.378879 kJ/mol
# GULP energy per Si atom -12391.418944 kJ/mol
# Density = 1.703189 g / cm^3
# Si number density = 17.070743 Si / 1000 Ang^3
#
#
#
# Elastic Constant Matrix: (Units=GPa)
#
#
# Indices 1 2 3 4 5 6 
#
# 1 133.1163 50.2822 64.0925 0.0052 -6.0748 0.0016
# 2 50.2822 84.8449 30.5390 0.0050 -1.9377 0.0030
# 3 64.0925 30.5390 95.7208 0.0201 -3.1548 0.0106
# 4 0.0052 0.0050 0.0201 29.9887 0.0097 -1.8286
# 5 -6.0748 -1.9377 -3.1548 0.0097 28.5976 0.0036
# 6 0.0016 0.0030 0.0106 -1.8286 0.0036 28.2111
#
#
#
# Elastic Compliance Matrix: (Units=1/GPa)
#
#
# Indices 1 2 3 4 5 6 
#
# 1 0.012838 -0.005080 -0.006922 0.000003 0.001619 0.000002
# 2 -0.005080 0.015331 -0.001497 -0.000001 -0.000205 -0.000001
# 3 -0.006922 -0.001497 0.015564 -0.000009 0.000145 -0.000006
# 4 0.000003 -0.000001 -0.000009 0.033478 -0.000012 0.002170
# 5 0.001619 -0.000205 0.000145 -0.000012 0.035314 -0.000005
# 6 0.000002 -0.000001 -0.000006 0.002170 -0.000005 0.035588
#
#
# Mechanical properties :
#
#
# Convention : Reuss Voigt Hill
#
# Bulk Modulus (GPa) = 59.75128 67.05659 63.40394
# Shear Modulus (GPa) = 27.67219 28.61070 28.14144
#
# Velocity S-wave (km/s) = 4.03057 4.09835 4.06460
# Velocity P-wave (km/s) = 7.53252 7.85889 7.69743
#
# Compressibility (1/GPa) = 0.01673604
#
# Stress axis : x y z
#
# Youngs Moduli (GPa) = 77.89676 65.22913 64.25084
#
# Poissons Ratio (x) = 0.33134 0.44473
# Poissons Ratio (y) = 0.39568 0.09616
# Poissons Ratio (z) = 0.53918 0.09763
#
# Static dielectric constant tensor:
#      x y z
#    x 3.205070 0.000000 0.011310 
#    y 0.000000 3.245560 -0.000010 
#    z 0.011310 -0.000010 3.082780 
# 
# 
# High freq. dielectric constant tensor:
#      x y z
#    x 1.647660 0.000000 -0.004970 
#    y 0.000000 1.672120 0.000000 
#    z -0.004970 0.000000 1.637850 
# 
# From -- ./inp_files/370472.got.cif
#   From: 2010.06.25/outbox.cif.g09.slc.cpg/sg12_186_cif.got.tgz:370472.got - 2010.06.28 00:19:55.
