data_PCOD8114588
_publ_section_title
;
Structure prediction by ZEFSAII (Michael W. Deem and Ramdas Pophale) SiO2 
 PCOD8114588
Probable space group: C 2/M
;
_chemical_formula_sum "Si O2"
_cell_formula_units_Z 56
_cell_length_a 18.543281
_cell_length_b 9.162445
_cell_length_c 20.652310
_cell_angle_alpha 90.000000
_cell_angle_beta 59.735976
_cell_angle_gamma 90.000000
_cell_volume 3030.648968
_symmetry_space_group_name_H-M "C 2/M"
_symmetry_group_IT_number 12
_symmetry_cell_setting 'monoclinic'
loop_
_space_group_symop_operation_xyz
x,y,z
-x,y,-z
-x,-y,-z
x,-y,z
1/2+x,1/2+y,z
1/2-x,1/2+y,-z
1/2-x,1/2-y,-z
1/2+x,1/2-y,z
loop_
_atom_site_type_symbol
_atom_site_label
_atom_site_fract_x
_atom_site_fract_y
_atom_site_fract_z
Si Si1 0.943758 0.827274 0.795819
Si Si2 0.172354 0.668250 0.505124
Si Si3 0.047158 0.672667 0.076656
Si Si4 0.597802 0.834638 0.669699
Si Si5 0.793483 0.826620 0.773873
Si Si6 0.376917 0.172835 0.090688
Si Si7 0.715641 0.669875 0.367624
O O1 0.921569 0.757091 0.874575
O O2 0.873476 0.772819 0.777484
O O3 0.033225 0.776713 0.729758
O O4 0.943892 0.000000 0.802985
O O5 0.195496 0.500000 0.483776
O O6 0.250000 0.750000 0.500000
O O7 0.097518 0.683446 0.591348
O O8 0.153244 0.742910 0.444402
O O9 0.052978 0.500000 0.085884
O O10 0.952183 0.721098 0.103806
O O11 0.106123 0.723682 0.990610
O O12 0.688299 0.798638 0.658178
O O13 0.572491 0.000000 0.700043
O O14 0.709734 0.759492 0.844217
O O15 0.801784 0.770890 0.696530
O O16 0.786230 0.000000 0.777172
O O17 0.373380 0.000000 0.092497
O O18 0.694479 0.500000 0.384258
#
# Coordination Sequence:
#
# PCOD8114588 Si02
#       7
#     8   8   8   8   8   8   8
#     4  11  22  32  46  71 103 135 161 194 244 294
#     4   9  17  30  50  76 101 125 158 202 249 291
#     4   9  17  32  56  78  93 120 164 207 243 283
#     4   9  18  33  53  73  94 126 166 204 240 282
#     4   9  18  32  48  70 101 133 164 197 238 290
#     4   8  15  31  55  76  93 122 166 205 236 283
#     4   9  17  32  55  76  95 125 165 207 244 281
#
# _framework density 18.477889999999999
#
# number of rings (size 3 to 8) (size 9 to 14) (size 15 to 20)
#    0.000    2.857    0.000    3.429    0.000    5.714 
#    0.000    3.571    0.000    7.714    0.000    0.000 
#    0.000    0.000    0.000    0.000    0.000    0.000 
#
# Total GULP energy -347085.113160 kJ/mol
# GULP energy per Si atom -12395.896899 kJ/mol
# Density = 1.843583 g / cm^3
# Si number density = 18.477890 Si / 1000 Ang^3
#
#
#
# Elastic Constant Matrix: (Units=GPa)
#
#
# Indices 1 2 3 4 5 6 
#
# 1 76.9402 26.8899 48.4052 0.0000 29.9324 -0.0001
# 2 26.8899 57.8409 39.5045 -0.0001 13.1645 -0.0001
# 3 48.4052 39.5045 115.0341 0.0000 38.1047 -0.0001
# 4 0.0000 -0.0001 0.0000 30.4632 0.0000 5.9122
# 5 29.9324 13.1645 38.1047 0.0000 26.3788 0.0000
# 6 -0.0001 -0.0001 -0.0001 5.9122 0.0000 18.9119
#
#
#
# Elastic Compliance Matrix: (Units=1/GPa)
#
#
# Indices 1 2 3 4 5 6 
#
# 1 0.024884 -0.005726 -0.000188 0.000000 -0.025107 0.000000
# 2 -0.005726 0.023904 -0.007671 0.000000 0.005648 0.000000
# 3 -0.000188 -0.007671 0.019305 0.000000 -0.023845 0.000000
# 4 0.000000 0.000000 0.000000 0.034947 0.000000 -0.010925
# 5 -0.025107 0.005648 -0.023845 0.000000 0.098025 0.000000
# 6 0.000000 0.000000 0.000000 -0.010925 0.000000 0.056292
#
#
# Mechanical properties :
#
#
# Convention : Reuss Voigt Hill
#
# Bulk Modulus (GPa) = 24.43508 53.26826 38.85167
# Shear Modulus (GPa) = 16.76913 24.15182 20.46047
#
# Velocity S-wave (km/s) = 3.01578 3.61926 3.33121
# Velocity P-wave (km/s) = 5.03778 6.80853 5.98896
#
# Compressibility (1/GPa) = 0.04092476
#
# Stress axis : x y z
#
# Youngs Moduli (GPa) = 40.18634 41.83386 51.80018
#
# Poissons Ratio (x) = 0.23953 0.00973
# Poissons Ratio (y) = 0.23010 0.39733
# Poissons Ratio (z) = 0.00755 0.32089
#
# Static dielectric constant tensor:
#      x y z
#    x 3.300170 0.000000 0.165560 
#    y 0.000000 3.143240 0.000000 
#    z 0.165560 0.000000 4.001600 
# 
# 
# High freq. dielectric constant tensor:
#      x y z
#    x 1.692310 0.000000 0.013290 
#    y 0.000000 1.686010 0.000000 
#    z 0.013290 0.000000 1.735770 
# 
# From -- ./inp_files/313762.got.cif
#   From: 2010.06.25/outbox.cif.g09.slc.cpg/sg12_157_cif.got.tgz:313762.got - 2010.06.28 00:19:55.
