data_PCOD8114022
_publ_section_title
;
Structure prediction by ZEFSAII (Michael W. Deem and Ramdas Pophale) SiO2 
 PCOD8114022
Probable space group: C 2/M
;
_chemical_formula_sum "Si O2"
_cell_formula_units_Z 48
_cell_length_a 12.298575
_cell_length_b 21.391847
_cell_length_c 8.656491
_cell_angle_alpha 90.000000
_cell_angle_beta 60.960633
_cell_angle_gamma 90.000000
_cell_volume 1991.125710
_symmetry_space_group_name_H-M "C 2/M"
_symmetry_group_IT_number 12
_symmetry_cell_setting 'monoclinic'
loop_
_space_group_symop_operation_xyz
x,y,z
-x,y,-z
-x,-y,-z
x,-y,z
1/2+x,1/2+y,z
1/2-x,1/2+y,-z
1/2-x,1/2-y,-z
1/2+x,1/2-y,z
loop_
_atom_site_type_symbol
_atom_site_label
_atom_site_fract_x
_atom_site_fract_y
_atom_site_fract_z
Si Si1 0.120031 0.148205 0.273850
Si Si2 0.101539 0.926473 0.698318
Si Si3 0.705577 0.353071 0.883986
Si Si4 0.049362 0.571076 0.292727
Si Si5 0.135785 0.273113 0.434934
Si Si6 0.687020 0.128941 0.636329
O O1 0.108355 0.199958 0.420867
O O2 0.246726 0.115735 0.245066
O O3 0.000798 0.102034 0.350587
O O4 0.144596 0.172960 0.084208
O O5 0.097101 0.889637 0.864386
O O6 0.240396 0.913815 0.539305
O O7 0.076737 0.000000 0.738107
O O8 0.815467 0.401918 0.834858
O O9 0.759901 0.292928 0.759975
O O10 0.057120 0.500000 0.238158
O O11 0.000000 0.579943 0.500000
O O12 0.952193 0.605312 0.246546
O O13 0.182292 0.297490 0.573943
O O14 0.000000 0.306562 0.500000
#
# Coordination Sequence:
#
# PCOD8114022 Si02
#       6
#     8   8   8   8   8   8
#     4  12  27  39  63 100 138 171 211 274 343 389
#     4  11  24  45  69  94 133 184 228 267 328 411
#     4  11  23  44  65  98 131 171 220 274 332 396
#     4  11  20  40  71  96 122 171 226 272 327 395
#     4  11  21  45  69  92 126 174 227 266 321 400
#     4  11  22  42  68  98 128 171 223 277 323 394
#
# _framework density 24.106967999999998
#
# number of rings (size 3 to 8) (size 9 to 14) (size 15 to 20)
#    0.000    0.833    5.000    4.000    0.000    6.000 
#    0.000    2.500    0.000    0.000    0.000    0.000 
#    0.000    0.000    0.000    0.000    0.000    0.000 
#
# Total GULP energy -297339.600709 kJ/mol
# GULP energy per Si atom -12389.150030 kJ/mol
# Density = 2.405210 g / cm^3
# Si number density = 24.106968 Si / 1000 Ang^3
#
#
#
# Elastic Constant Matrix: (Units=GPa)
#
#
# Indices 1 2 3 4 5 6 
#
# 1 151.3711 35.2444 11.8421 0.0000 27.3959 0.0000
# 2 35.2444 99.0131 -13.9527 0.0000 4.6023 0.0000
# 3 11.8421 -13.9527 42.1860 0.0000 9.0292 0.0000
# 4 0.0000 0.0000 0.0000 15.5524 0.0000 -1.9933
# 5 27.3959 4.6023 9.0292 0.0000 31.9178 0.0000
# 6 0.0000 0.0000 0.0000 -1.9933 0.0000 7.5704
#
#
#
# Elastic Compliance Matrix: (Units=1/GPa)
#
#
# Indices 1 2 3 4 5 6 
#
# 1 0.008639 -0.003071 -0.002074 0.000000 -0.006386 0.000000
# 2 -0.003071 0.011905 0.004899 0.000000 -0.000467 0.000000
# 3 -0.002074 0.004899 0.027332 0.000000 -0.006658 0.000000
# 4 0.000000 0.000000 0.000000 0.066545 0.000000 0.017521
# 5 -0.006386 -0.000467 -0.006658 0.000000 0.038762 0.000000
# 6 0.000000 0.000000 0.000000 0.017521 0.000000 0.136707
#
#
# Mechanical properties :
#
#
# Convention : Reuss Voigt Hill
#
# Bulk Modulus (GPa) = 21.10339 39.87085 30.48712
# Shear Modulus (GPa) = 16.33051 28.30389 22.31720
#
# Velocity S-wave (km/s) = 2.60555 3.43023 3.04593
# Velocity P-wave (km/s) = 4.22196 5.68011 5.00443
#
# Compressibility (1/GPa) = 0.04738575
#
# Stress axis : x y z
#
# Youngs Moduli (GPa) = 115.75134 83.99978 36.58686
#
# Poissons Ratio (x) = 0.25793 0.07588
# Poissons Ratio (y) = 0.35543 -0.17925
# Poissons Ratio (z) = 0.24006 -0.41154
#
# Static dielectric constant tensor:
#      x y z
#    x 4.990360 0.000000 0.140580 
#    y 0.000000 4.111010 0.000000 
#    z 0.140580 0.000000 3.889420 
# 
# 
# High freq. dielectric constant tensor:
#      x y z
#    x 1.994040 0.000000 -0.002630 
#    y 0.000000 1.942900 0.000000 
#    z -0.002630 0.000000 1.925560 
# 
# From -- ./inp_files/51301.got.cif
#   From: 2010.06.25/outbox.cif.g09.slc.cpg/sg12_26_cif.got.tgz:51301.got - 2010.06.28 00:19:55.
