data_PCOD8114838
_publ_section_title
;
Structure prediction by ZEFSAII (Michael W. Deem and Ramdas Pophale) SiO2 
 PCOD8114838
Probable space group: C 2/M
;
_chemical_formula_sum "Si O2"
_cell_formula_units_Z 52
_cell_length_a 20.622831
_cell_length_b 20.621585
_cell_length_c 11.331481
_cell_angle_alpha 90.000000
_cell_angle_beta 148.899661
_cell_angle_gamma 90.000000
_cell_volume 2489.198951
_symmetry_space_group_name_H-M "C 2/M"
_symmetry_group_IT_number 12
_symmetry_cell_setting 'monoclinic'
loop_
_space_group_symop_operation_xyz
x,y,z
-x,y,-z
-x,-y,-z
x,-y,z
1/2+x,1/2+y,z
1/2-x,1/2+y,-z
1/2-x,1/2-y,-z
1/2+x,1/2-y,z
loop_
_atom_site_type_symbol
_atom_site_label
_atom_site_fract_x
_atom_site_fract_y
_atom_site_fract_z
Si Si1 0.090178 0.173432 0.745470
Si Si2 0.792773 0.429153 0.338055
Si Si3 0.810454 0.154935 0.639270
Si Si4 0.351994 0.189632 0.071899
Si Si5 0.010359 0.074354 0.809969
Si Si6 0.133464 0.710939 0.172062
Si Si7 0.500000 0.877743 0.500000
O O1 0.136838 0.232894 0.898788
O O2 0.014825 0.117712 0.698080
O O3 0.000000 0.197893 0.500000
O O4 0.224505 0.150890 0.905239
O O5 0.826803 0.500000 0.439583
O O6 0.802166 0.379789 0.462586
O O7 0.880539 0.417544 0.360671
O O8 0.648826 0.424798 0.076721
O O9 0.866378 0.210762 0.812481
O O10 0.750059 0.184544 0.428132
O O11 0.917782 0.104950 0.763545
O O12 0.463550 0.162281 0.326454
O O13 0.358087 0.180283 0.943113
O O14 0.968637 0.000000 0.716219
O O15 0.000000 0.682830 0.000000
#
# Coordination Sequence:
#
# PCOD8114838 Si02
#       7
#     8   8   8   8   8   8   4
#     4  11  22  38  61  91 128 165 207 260 322 379
#     4  11  23  40  64  91 126 170 218 264 312 382
#     4  11  23  40  67  95 128 166 212 268 329 384
#     4  11  23  38  63  93 126 164 207 264 324 384
#     4  11  23  41  64  93 128 170 219 265 315 382
#     4  11  23  39  64  97 131 163 208 268 331 389
#     4  12  23  42  64  94 129 168 216 268 318 386
#
# _framework density 20.890253999999999
#
# number of rings (size 3 to 8) (size 9 to 14) (size 15 to 20)
#    0.000    0.923    2.308    5.769    2.154    4.000 
#    0.000    0.000    0.000   11.077    0.000    0.000 
#    0.000    0.000    0.000    0.000    0.000    0.000 
#
# Total GULP energy -322139.189150 kJ/mol
# GULP energy per Si atom -12389.968813 kJ/mol
# Density = 2.084271 g / cm^3
# Si number density = 20.890254 Si / 1000 Ang^3
#
#
#
# Elastic Constant Matrix: (Units=GPa)
#
#
# Indices 1 2 3 4 5 6 
#
# 1 140.1569 50.2250 26.4030 0.0000 6.0776 0.0000
# 2 50.2250 94.9999 17.7822 0.0000 5.9135 0.0000
# 3 26.4030 17.7822 74.3633 0.0000 -2.3315 0.0000
# 4 0.0000 0.0000 0.0000 36.2234 0.0000 -8.2188
# 5 6.0776 5.9135 -2.3315 0.0000 42.5666 0.0000
# 6 0.0000 0.0000 0.0000 -8.2188 0.0000 30.8217
#
#
#
# Elastic Compliance Matrix: (Units=1/GPa)
#
#
# Indices 1 2 3 4 5 6 
#
# 1 0.009158 -0.004373 -0.002232 0.000000 -0.000822 0.000000
# 2 -0.004373 0.013228 -0.001652 0.000000 -0.001304 0.000000
# 3 -0.002232 -0.001652 0.014677 0.000000 0.001352 0.000000
# 4 0.000000 0.000000 0.000000 0.029384 0.000000 0.007835
# 5 -0.000822 -0.001304 0.001352 0.000000 0.023865 0.000000
# 6 0.000000 0.000000 0.000000 0.007835 0.000000 0.034534
#
#
# Mechanical properties :
#
#
# Convention : Reuss Voigt Hill
#
# Bulk Modulus (GPa) = 48.65825 55.37117 52.01471
# Shear Modulus (GPa) = 33.73603 36.26301 34.99952
#
# Velocity S-wave (km/s) = 4.02296 4.17091 4.09761
# Velocity P-wave (km/s) = 6.70238 7.05398 6.88042
#
# Compressibility (1/GPa) = 0.02055150
#
# Stress axis : x y z
#
# Youngs Moduli (GPa) = 109.19552 75.59478 68.13296
#
# Poissons Ratio (x) = 0.33055 0.15205
# Poissons Ratio (y) = 0.47748 0.11253
# Poissons Ratio (z) = 0.24369 0.12485
#
# Static dielectric constant tensor:
#      x y z
#    x 4.058500 0.000000 0.117540 
#    y 0.000000 3.833330 0.000000 
#    z 0.117540 0.000000 3.655740 
# 
# 
# High freq. dielectric constant tensor:
#      x y z
#    x 1.834120 0.000000 0.006730 
#    y 0.000000 1.800100 0.000000 
#    z 0.006730 0.000000 1.815990 
# 
# From -- ./inp_files/169866.got.cif
#   From: 2010.06.25/outbox.cif.g09.slc.cpg/sg12_85_cif.got.tgz:169866.got - 2010.06.28 00:19:55.
