data_PCOD8114859
_publ_section_title
;
Structure prediction by ZEFSAII (Michael W. Deem and Ramdas Pophale) SiO2 
 PCOD8114859
Probable space group: C 2/M
;
_chemical_formula_sum "Si O2"
_cell_formula_units_Z 48
_cell_length_a 14.589620
_cell_length_b 8.452035
_cell_length_c 27.524839
_cell_angle_alpha 90.000000
_cell_angle_beta 41.883812
_cell_angle_gamma 90.000000
_cell_volume 2266.004914
_symmetry_space_group_name_H-M "C 2/M"
_symmetry_group_IT_number 12
_symmetry_cell_setting 'monoclinic'
loop_
_space_group_symop_operation_xyz
x,y,z
-x,y,-z
-x,-y,-z
x,-y,z
1/2+x,1/2+y,z
1/2-x,1/2+y,-z
1/2-x,1/2-y,-z
1/2+x,1/2-y,z
loop_
_atom_site_type_symbol
_atom_site_label
_atom_site_fract_x
_atom_site_fract_y
_atom_site_fract_z
Si Si1 0.847649 0.184683 0.605401
Si Si2 0.596933 0.684431 0.759458
Si Si3 0.837968 0.812909 0.009346
Si Si4 0.171601 0.685298 0.169372
Si Si5 0.401746 0.813494 0.137396
Si Si6 0.642340 0.186163 0.503191
O O1 0.732351 0.222043 0.690375
O O2 0.809562 0.274717 0.570543
O O3 0.993003 0.237351 0.570593
O O4 0.853078 0.000000 0.591671
O O5 0.629755 0.500000 0.747533
O O6 0.471888 0.721426 0.772402
O O7 0.547409 0.747381 0.831176
O O8 0.764114 0.758700 0.087608
O O9 0.853327 0.000000 0.000825
O O10 0.750000 0.750000 0.000000
O O11 0.989201 0.737052 0.946884
O O12 0.140147 0.500000 0.180809
O O13 0.254494 0.734563 0.184682
O O14 0.387836 0.000000 0.145035
O O15 0.750000 0.250000 0.500000
O O16 0.629807 0.000000 0.514611
#
# Coordination Sequence:
#
# PCOD8114859 Si02
#       6
#     8   8   8   8   8   8
#     4  11  23  42  66  96 131 167 207 254 308 365
#     4  12  25  43  65  91 126 166 208 257 313 372
#     4  11  22  38  63  89 120 159 208 262 317 373
#     4  11  24  42  63  90 122 161 209 261 316 375
#     4  12  25  41  62  90 123 163 210 260 315 375
#     4  11  22  41  68 100 132 167 210 252 301 359
#
# _framework density 21.182653999999999
#
# number of rings (size 3 to 8) (size 9 to 14) (size 15 to 20)
#    0.000    0.667    1.667    8.500    0.000    5.333 
#    0.000    6.667    0.000    0.000    0.000    0.000 
#    0.000    0.000    0.000    0.000    0.000    0.000 
#
# Total GULP energy -297762.149126 kJ/mol
# GULP energy per Si atom -12406.756214 kJ/mol
# Density = 2.113444 g / cm^3
# Si number density = 21.182654 Si / 1000 Ang^3
#
#
#
# Elastic Constant Matrix: (Units=GPa)
#
#
# Indices 1 2 3 4 5 6 
#
# 1 109.0587 21.6595 25.1107 -0.0006 -18.0884 -0.0023
# 2 21.6595 102.2147 29.2442 -0.0016 -7.2986 -0.0028
# 3 25.1107 29.2442 85.1236 0.0000 -21.9301 -0.0005
# 4 -0.0006 -0.0016 0.0000 35.5857 0.0000 -4.6585
# 5 -18.0884 -7.2986 -21.9301 0.0000 25.1187 -0.0004
# 6 -0.0023 -0.0028 -0.0005 -4.6585 -0.0004 39.0471
#
#
#
# Elastic Compliance Matrix: (Units=1/GPa)
#
#
# Indices 1 2 3 4 5 6 
#
# 1 0.010772 -0.001540 -0.000988 0.000000 0.006447 0.000001
# 2 -0.001540 0.011070 -0.003620 0.000001 -0.001053 0.000001
# 3 -0.000988 -0.003620 0.016551 0.000000 0.012687 0.000000
# 4 0.000000 0.000001 0.000000 0.028547 0.000000 0.003406
# 5 0.006447 -0.001053 0.012687 0.000000 0.055225 0.000001
# 6 0.000001 0.000001 0.000000 0.003406 0.000001 0.026016
#
#
# Mechanical properties :
#
#
# Convention : Reuss Voigt Hill
#
# Bulk Modulus (GPa) = 38.31663 49.82509 44.07086
# Shear Modulus (GPa) = 29.55505 34.64246 32.09875
#
# Velocity S-wave (km/s) = 3.73935 4.04842 3.89695
# Velocity P-wave (km/s) = 6.06396 6.73985 6.41082
#
# Compressibility (1/GPa) = 0.02609833
#
# Stress axis : x y z
#
# Youngs Moduli (GPa) = 92.83399 90.33289 60.41853
#
# Poissons Ratio (x) = 0.13908 0.05967
# Poissons Ratio (y) = 0.14293 0.21873
# Poissons Ratio (z) = 0.09169 0.32702
#
# Static dielectric constant tensor:
#      x y z
#    x 4.067190 0.000000 -0.069430 
#    y 0.000000 3.885080 0.000000 
#    z -0.069430 0.000000 3.864580 
# 
# 
# High freq. dielectric constant tensor:
#      x y z
#    x 1.841530 0.000000 -0.011230 
#    y 0.000000 1.845840 0.000000 
#    z -0.011230 0.000000 1.823660 
# 
# From -- ./inp_files/360224.got.cif
#   From: 2010.06.25/outbox.cif.g09.slc.cpg/sg12_181_cif.got.tgz:360224.got - 2010.06.28 00:19:55.
