data_PCOD8114602
_publ_section_title
;
Structure prediction by ZEFSAII (Michael W. Deem and Ramdas Pophale) SiO2 
 PCOD8114602
Probable space group: C 2/M
;
_chemical_formula_sum "Si O2"
_cell_formula_units_Z 48
_cell_length_a 5.189139
_cell_length_b 26.286872
_cell_length_c 23.687940
_cell_angle_alpha 90.000000
_cell_angle_beta 109.463869
_cell_angle_gamma 90.000000
_cell_volume 3046.526395
_symmetry_space_group_name_H-M "C 2/M"
_symmetry_group_IT_number 12
_symmetry_cell_setting 'monoclinic'
loop_
_space_group_symop_operation_xyz
x,y,z
-x,y,-z
-x,-y,-z
x,-y,z
1/2+x,1/2+y,z
1/2-x,1/2+y,-z
1/2-x,1/2-y,-z
1/2+x,1/2-y,z
loop_
_atom_site_type_symbol
_atom_site_label
_atom_site_fract_x
_atom_site_fract_y
_atom_site_fract_z
Si Si1 0.889335 0.278652 0.428760
Si Si2 0.197636 0.060650 0.965585
Si Si3 0.110059 0.439490 0.238010
Si Si4 0.923187 0.605624 0.429420
Si Si5 0.494423 0.439294 0.830298
Si Si6 0.160441 0.940274 0.626001
O O1 0.599584 0.250177 0.402875
O O2 0.853297 0.336726 0.406937
O O3 0.000000 0.276518 0.500000
O O4 0.094711 0.081711 0.897961
O O5 0.196828 0.000000 0.965079
O O6 0.500000 0.081578 0.000000
O O7 0.000000 0.081599 0.000000
O O8 0.112678 0.500000 0.236484
O O9 0.306435 0.417849 0.203536
O O10 0.213879 0.420248 0.306138
O O11 0.807397 0.418230 0.204605
O O12 0.661655 0.570970 0.397534
O O13 0.000000 0.600705 0.500000
O O14 0.186585 0.587766 0.413686
O O15 0.494654 0.500000 0.830581
O O16 0.205553 0.000000 0.621937
#
# Coordination Sequence:
#
# PCOD8114602 Si02
#       6
#     8   8   8   8   8   8
#     4   9  17  31  50  69  87 105 128 163 209 262
#     4   9  15  21  30  47  69  89 112 152 209 258
#     4   9  17  28  40  52  68  98 138 173 203 233
#     4  11  22  34  49  68  87 110 139 172 221 274
#     4   9  15  24  37  50  66  92 128 166 205 247
#     4  11  22  34  46  62  87 116 147 182 215 252
#
# _framework density 15.755648000000001
#
# number of rings (size 3 to 8) (size 9 to 14) (size 15 to 20)
#    0.000    2.333    0.000    4.000    0.000   11.333 
#    0.000    0.000    0.000    0.000    0.000    0.000 
#    0.000    0.000    0.000    0.000    0.000    0.000 
#
# Total GULP energy -297612.742945 kJ/mol
# GULP energy per Si atom -12400.530956 kJ/mol
# Density = 1.571979 g / cm^3
# Si number density = 15.755648 Si / 1000 Ang^3
#
#
#
# Elastic Constant Matrix: (Units=GPa)
#
#
# Indices 1 2 3 4 5 6 
#
# 1 126.5989 15.8297 41.3201 0.0000 -2.8966 0.0000
# 2 15.8297 39.3883 18.6960 0.0000 -4.4729 0.0000
# 3 41.3201 18.6960 99.0003 0.0000 0.6724 0.0000
# 4 0.0000 0.0000 0.0000 -0.0956 0.0000 0.1279
# 5 -2.8966 -4.4729 0.6724 0.0000 31.8515 0.0000
# 6 0.0000 0.0000 0.0000 0.1279 0.0000 16.2969
#
#
#
# Elastic Compliance Matrix: (Units=1/GPa)
#
#
# Indices 1 2 3 4 5 6 
#
# 1 0.009310 -0.002002 -0.003512 0.000000 0.000640 0.000000
# 2 -0.002002 0.028845 -0.004639 0.000000 0.003967 0.000000
# 3 -0.003512 -0.004639 0.012451 0.000000 -0.001234 0.000000
# 4 0.000000 0.000000 0.000000-10.351749 0.000000 0.081256
# 5 0.000640 0.003967 -0.001234 0.000000 0.032037 0.000000
# 6 0.000000 0.000000 0.000000 0.081256 0.000000 0.060724
#
#
# Mechanical properties :
#
#
# Convention : Reuss Voigt Hill
#
# Bulk Modulus (GPa) = 33.00230 46.29769 39.65000
# Shear Modulus (GPa) = -0.49126 22.22001 10.86438
#
# Velocity S-wave (km/s) = -0.55899 3.75946 2.62879
# Velocity P-wave (km/s) = 4.53599 6.94934 5.86807
#
# Compressibility (1/GPa) = 0.03030092
#
# Stress axis : x y z
#
# Youngs Moduli (GPa) = 107.40878 34.66802 80.31333
#
# Poissons Ratio (x) = 0.06940 0.28207
# Poissons Ratio (y) = 0.21503 0.37255
# Poissons Ratio (z) = 0.37723 0.16081
#
# Static dielectric constant tensor:
#      x y z
#    x 3.252270 0.000000 -0.020190 
#    y 0.000000 2.517810 0.000000 
#    z -0.020190 0.000000 3.041360 
# 
# 
# High freq. dielectric constant tensor:
#      x y z
#    x 1.631170 0.000000 -0.002290 
#    y 0.000000 1.532810 0.000000 
#    z -0.002290 0.000000 1.599550 
# 
# From -- ./inp_files/297950.got.cif
#   From: 2010.06.25/outbox.cif.g09.slc.cpg/sg12_149_cif.got.tgz:297950.got - 2010.06.28 00:19:55.
