data_PCOD8114012
_publ_section_title
;
Structure prediction by ZEFSAII (Michael W. Deem and Ramdas Pophale) SiO2 
 PCOD8114012
Probable space group: C 2/M
;
_chemical_formula_sum "Si O2"
_cell_formula_units_Z 48
_cell_length_a 12.991338
_cell_length_b 19.496511
_cell_length_c 12.429740
_cell_angle_alpha 90.000000
_cell_angle_beta 133.738317
_cell_angle_gamma 90.000000
_cell_volume 2274.645139
_symmetry_space_group_name_H-M "C 2/M"
_symmetry_group_IT_number 12
_symmetry_cell_setting 'monoclinic'
loop_
_space_group_symop_operation_xyz
x,y,z
-x,y,-z
-x,-y,-z
x,-y,z
1/2+x,1/2+y,z
1/2-x,1/2+y,-z
1/2-x,1/2-y,-z
1/2+x,1/2-y,z
loop_
_atom_site_type_symbol
_atom_site_label
_atom_site_fract_x
_atom_site_fract_y
_atom_site_fract_z
Si Si1 0.281102 0.575803 0.868038
Si Si2 0.922876 0.078385 0.337621
Si Si3 0.387664 0.753124 0.671804
Si Si4 0.553078 0.390770 0.207063
Si Si5 0.692345 0.778633 0.845260
Si Si6 0.850008 0.331031 0.841683
O O1 0.218296 0.500000 0.852542
O O2 0.320297 0.572602 0.768742
O O3 0.177492 0.638899 0.821536
O O4 0.413757 0.592806 0.039155
O O5 0.772906 0.116606 0.211126
O O6 0.000000 0.108347 0.500000
O O7 0.029960 0.084278 0.313217
O O8 0.882113 0.000000 0.327901
O O9 0.250000 0.750000 0.500000
O O10 0.403977 0.688542 0.762510
O O11 0.531689 0.753410 0.705067
O O12 0.375725 0.823378 0.732563
O O13 0.801098 0.745619 0.839624
O O14 0.750000 0.750000 0.000000
O O15 0.000000 0.354636 0.000000
#
# Coordination Sequence:
#
# PCOD8114012 Si02
#       6
#     8   8   8   8   8   8
#     4  11  22  38  68 103 133 168 216 279 338 389
#     4  11  24  42  65  94 134 181 224 271 332 402
#     4  12  25  40  66  98 130 171 217 275 334 391
#     4  11  20  40  65  97 131 166 226 270 322 396
#     4  12  22  41  66  97 131 169 219 274 320 394
#     4  12  23  40  64  95 128 166 220 274 326 385
#
# _framework density 21.102191000000001
#
# number of rings (size 3 to 8) (size 9 to 14) (size 15 to 20)
#    0.000    0.500    6.667    3.000    0.000    0.333 
#    0.000    0.833    0.000    4.000    0.000    0.000 
#    0.000    0.000    0.000    0.000    0.000    0.000 
#
# Total GULP energy -297346.526130 kJ/mol
# GULP energy per Si atom -12389.438589 kJ/mol
# Density = 2.105416 g / cm^3
# Si number density = 21.102191 Si / 1000 Ang^3
#
#
#
# Elastic Constant Matrix: (Units=GPa)
#
#
# Indices 1 2 3 4 5 6 
#
# 1 87.6402 21.2584 60.7734 0.0000 -3.3925 0.0000
# 2 21.2584 122.6017 36.0771 0.0000 8.6947 0.0000
# 3 60.7734 36.0771 116.5189 0.0000 4.1111 0.0000
# 4 0.0000 0.0000 0.0000 22.3544 0.0000 -2.2785
# 5 -3.3925 8.6947 4.1111 0.0000 40.1913 0.0000
# 6 0.0000 0.0000 0.0000 -2.2785 0.0000 31.9057
#
#
#
# Elastic Compliance Matrix: (Units=1/GPa)
#
#
# Indices 1 2 3 4 5 6 
#
# 1 0.018160 -0.000572 -0.009387 0.000000 0.002617 0.000000
# 2 -0.000572 0.009104 -0.002458 0.000000 -0.001766 0.000000
# 3 -0.009387 -0.002458 0.014300 0.000000 -0.001723 0.000000
# 4 0.000000 0.000000 0.000000 0.045062 0.000000 0.003218
# 5 0.002617 -0.001766 -0.001723 0.000000 0.025660 0.000000
# 6 0.000000 0.000000 0.000000 0.003218 0.000000 0.031572
#
#
# Mechanical properties :
#
#
# Convention : Reuss Voigt Hill
#
# Bulk Modulus (GPa) = 59.77352 62.55317 61.16334
# Shear Modulus (GPa) = 28.69124 32.80040 30.74582
#
# Velocity S-wave (km/s) = 3.69132 3.94681 3.82120
# Velocity P-wave (km/s) = 6.82312 7.10472 6.96535
#
# Compressibility (1/GPa) = 0.01672982
#
# Stress axis : x y z
#
# Youngs Moduli (GPa) = 55.06748 109.83791 69.92958
#
# Poissons Ratio (x) = 0.06285 0.65641
# Poissons Ratio (y) = 0.03151 0.17190
# Poissons Ratio (z) = 0.51690 0.27000
#
# Static dielectric constant tensor:
#      x y z
#    x 4.166760 0.000000 -0.215600 
#    y 0.000000 3.869340 0.000000 
#    z -0.215600 0.000000 3.630480 
# 
# 
# High freq. dielectric constant tensor:
#      x y z
#    x 1.831870 0.000000 -0.016900 
#    y 0.000000 1.826250 0.000000 
#    z -0.016900 0.000000 1.804510 
# 
# From -- ./inp_files/134085.got.cif
#   From: 2010.06.25/outbox.cif.g09.slc.cpg/sg12_68_cif.got.tgz:134085.got - 2010.06.28 00:19:55.
