data_PCOD8114061
_publ_section_title
;
Structure prediction by ZEFSAII (Michael W. Deem and Ramdas Pophale) SiO2 
 PCOD8114061
Probable space group: C 2/M
;
_chemical_formula_sum "Si O2"
_cell_formula_units_Z 40
_cell_length_a 23.162300
_cell_length_b 11.123755
_cell_length_c 9.812739
_cell_angle_alpha 90.000000
_cell_angle_beta 126.586252
_cell_angle_gamma 90.000000
_cell_volume 2030.100483
_symmetry_space_group_name_H-M "C 2/M"
_symmetry_group_IT_number 12
_symmetry_cell_setting 'monoclinic'
loop_
_space_group_symop_operation_xyz
x,y,z
-x,y,-z
-x,-y,-z
x,-y,z
1/2+x,1/2+y,z
1/2-x,1/2+y,-z
1/2-x,1/2-y,-z
1/2+x,1/2-y,z
loop_
_atom_site_type_symbol
_atom_site_label
_atom_site_fract_x
_atom_site_fract_y
_atom_site_fract_z
Si Si1 0.693174 0.640244 0.268462
Si Si2 0.435036 0.000000 0.593892
Si Si3 0.852555 0.721434 0.543529
Si Si4 0.899022 0.500000 0.231275
Si Si5 0.328820 0.246530 0.049539
Si Si6 0.080742 0.138460 0.606982
O O1 0.676667 0.500000 0.220355
O O2 0.776230 0.656841 0.421446
O O3 0.644729 0.688908 0.324602
O O4 0.672023 0.719653 0.109345
O O5 0.411686 0.882574 0.645735
O O6 0.395384 0.000000 0.390437
O O7 0.519744 0.000000 0.702895
O O8 0.870324 0.795587 0.433814
O O9 0.859066 0.613826 0.112996
O O10 0.380874 0.343284 0.194464
O O11 0.250000 0.250000 0.000000
O O12 0.000000 0.193944 0.500000
O O13 0.076194 0.000000 0.560744
#
# Coordination Sequence:
#
# PCOD8114061 Si02
#       6
#     8   4   8   4   8   8
#     4  11  24  42  63  97 133 168 214 264 327 378
#     4  11  20  43  69  91 133 168 217 264 318 386
#     4  11  22  40  67  93 128 173 213 264 319 384
#     4  11  24  39  67 101 126 170 214 267 323 379
#     4  12  24  39  66  96 130 166 214 270 322 376
#     4  11  23  40  63  93 128 171 217 259 315 387
#
# _framework density 19.703458999999999
#
# number of rings (size 3 to 8) (size 9 to 14) (size 15 to 20)
#    0.000    0.800    5.000    2.400    2.800    0.800 
#    1.800    5.000    0.000    7.200    0.000    0.000 
#    0.000    0.000    0.000    0.000    0.000    0.000 
#
# Total GULP energy -248095.843428 kJ/mol
# GULP energy per Si atom -12404.792171 kJ/mol
# Density = 1.965861 g / cm^3
# Si number density = 19.703459 Si / 1000 Ang^3
#
#
#
# Elastic Constant Matrix: (Units=GPa)
#
#
# Indices 1 2 3 4 5 6 
#
# 1 92.5423 45.9571 33.5328 0.0000 -2.3773 0.0000
# 2 45.9571 134.1827 33.0779 0.0000 -1.4144 0.0000
# 3 33.5328 33.0779 88.2040 0.0000 -0.9671 0.0000
# 4 0.0000 0.0000 0.0000 36.6313 0.0000 -1.1944
# 5 -2.3773 -1.4144 -0.9671 0.0000 32.6370 0.0000
# 6 0.0000 0.0000 0.0000 -1.1944 0.0000 28.8163
#
#
#
# Elastic Compliance Matrix: (Units=1/GPa)
#
#
# Indices 1 2 3 4 5 6 
#
# 1 0.014174 -0.003879 -0.003926 0.000000 0.000748 0.000000
# 2 -0.003879 0.009275 -0.002003 0.000000 0.000060 0.000000
# 3 -0.003926 -0.002003 0.013581 0.000000 0.000030 0.000000
# 4 0.000000 0.000000 0.000000 0.027336 0.000000 0.001133
# 5 0.000748 0.000060 0.000030 0.000000 0.030698 0.000000
# 6 0.000000 0.000000 0.000000 0.001133 0.000000 0.034750
#
#
# Mechanical properties :
#
#
# Convention : Reuss Voigt Hill
#
# Bulk Modulus (GPa) = 57.42096 60.00718 58.71407
# Shear Modulus (GPa) = 32.20932 33.10768 32.65850
#
# Velocity S-wave (km/s) = 4.04753 4.10359 4.07566
# Velocity P-wave (km/s) = 7.14487 7.27832 7.21190
#
# Compressibility (1/GPa) = 0.01741524
#
# Stress axis : x y z
#
# Youngs Moduli (GPa) = 70.55253 107.81137 73.63055
#
# Poissons Ratio (x) = 0.41819 0.28905
# Poissons Ratio (y) = 0.27366 0.14749
# Poissons Ratio (z) = 0.27697 0.21596
#
# Static dielectric constant tensor:
#      x y z
#    x 3.763470 0.000000 0.006530 
#    y 0.000000 3.713650 0.000000 
#    z 0.006530 0.000000 3.592910 
# 
# 
# High freq. dielectric constant tensor:
#      x y z
#    x 1.777590 0.000000 0.001100 
#    y 0.000000 1.785470 0.000000 
#    z 0.001100 0.000000 1.755380 
# 
# From -- ./inp_files/94680.got.cif
#   From: 2010.06.25/outbox.cif.g09.slc.cpg/sg12_48_cif.got.tgz:94680.got - 2010.06.28 00:19:55.
