data_PCOD8114906
_publ_section_title
;
Structure prediction by ZEFSAII (Michael W. Deem and Ramdas Pophale) SiO2 
 PCOD8114906
Probable space group: C 2/M
;
_chemical_formula_sum "Si O2"
_cell_formula_units_Z 40
_cell_length_a 25.279998
_cell_length_b 8.329531
_cell_length_c 9.120351
_cell_angle_alpha 90.000000
_cell_angle_beta 90.476216
_cell_angle_gamma 90.000000
_cell_volume 1920.410782
_symmetry_space_group_name_H-M "C 2/M"
_symmetry_group_IT_number 12
_symmetry_cell_setting 'monoclinic'
loop_
_space_group_symop_operation_xyz
x,y,z
-x,y,-z
-x,-y,-z
x,-y,z
1/2+x,1/2+y,z
1/2-x,1/2+y,-z
1/2-x,1/2-y,-z
1/2+x,1/2-y,z
loop_
_atom_site_type_symbol
_atom_site_label
_atom_site_fract_x
_atom_site_fract_y
_atom_site_fract_z
Si Si1 0.750861 0.314371 0.663331
Si Si2 0.846724 0.816179 0.830707
Si Si3 0.944185 0.309838 0.676369
Si Si4 0.842126 0.312839 0.149523
Si Si5 0.937726 0.309969 0.346920
O O1 0.734408 0.500000 0.666356
O O2 0.750000 0.250000 0.500000
O O3 0.809386 0.295021 0.730515
O O4 0.710577 0.210143 0.757944
O O5 0.907408 0.776788 0.793915
O O6 0.833680 0.000000 0.795751
O O7 0.836488 0.785127 0.000699
O O8 0.937685 0.500000 0.691305
O O9 0.928618 0.249124 0.512878
O O10 0.004657 0.257160 0.710850
O O11 0.849765 0.500000 0.113653
O O12 0.892164 0.241444 0.240405
O O13 0.934605 0.500000 0.351143
#
# Coordination Sequence:
#
# PCOD8114906 Si02
#       5
#     8   8   8   8   8
#     4  12  25  43  65  90 117 151 192 240 292 352
#     4  12  25  40  57  85 121 159 198 244 296 348
#     4   9  17  36  62  88 115 151 197 246 293 350
#     4  11  22  39  61  88 120 158 198 243 294 350
#     4   8  17  34  61  89 115 149 195 243 294 352
#
# _framework density 20.828876999999999
#
# number of rings (size 3 to 8) (size 9 to 14) (size 15 to 20)
#    0.000    1.600    0.000    7.200    0.000    2.400 
#    0.000    9.000    0.000    0.000    0.000    0.000 
#    0.000    0.000    0.000    0.000    0.000    0.000 
#
# Total GULP energy -248086.802745 kJ/mol
# GULP energy per Si atom -12404.340137 kJ/mol
# Density = 2.078147 g / cm^3
# Si number density = 20.828877 Si / 1000 Ang^3
#
#
#
# Elastic Constant Matrix: (Units=GPa)
#
#
# Indices 1 2 3 4 5 6 
#
# 1 110.2807 15.0540 44.5120 0.0000 -11.1740 0.0000
# 2 15.0540 62.0889 17.3957 0.0000 4.6788 0.0000
# 3 44.5120 17.3957 113.8509 0.0000 -13.5126 0.0000
# 4 0.0000 0.0000 0.0000 31.2278 0.0000 -3.7030
# 5 -11.1740 4.6788 -13.5126 0.0000 36.5447 0.0000
# 6 0.0000 0.0000 0.0000 -3.7030 0.0000 26.9129
#
#
#
# Elastic Compliance Matrix: (Units=1/GPa)
#
#
# Indices 1 2 3 4 5 6 
#
# 1 0.011066 -0.001787 -0.003791 0.000000 0.002211 0.000000
# 2 -0.001787 0.017492 -0.002410 0.000000 -0.003677 0.000000
# 3 -0.003791 -0.002410 0.011016 0.000000 0.003223 0.000000
# 4 0.000000 0.000000 0.000000 0.032554 0.000000 0.004479
# 5 0.002211 -0.003677 0.003223 0.000000 0.029702 0.000000
# 6 0.000000 0.000000 0.000000 0.004479 0.000000 0.037773
#
#
# Mechanical properties :
#
#
# Convention : Reuss Voigt Hill
#
# Bulk Modulus (GPa) = 42.37883 48.90487 45.64185
# Shear Modulus (GPa) = 30.59117 32.88766 31.73942
#
# Velocity S-wave (km/s) = 3.83651 3.97791 3.90785
# Velocity P-wave (km/s) = 6.32577 6.68047 6.50554
#
# Compressibility (1/GPa) = 0.02359669
#
# Stress axis : x y z
#
# Youngs Moduli (GPa) = 90.36796 57.16996 90.77448
#
# Poissons Ratio (x) = 0.10219 0.34412
# Poissons Ratio (y) = 0.16153 0.21879
# Poissons Ratio (z) = 0.34258 0.13779
#
# Static dielectric constant tensor:
#      x y z
#    x 4.036690 0.000000 0.162340 
#    y 0.000000 3.469950 0.000000 
#    z 0.162340 0.000000 3.844040 
# 
# 
# High freq. dielectric constant tensor:
#      x y z
#    x 1.829000 0.000000 -0.001600 
#    y 0.000000 1.796120 0.000000 
#    z -0.001600 0.000000 1.817740 
# 
# From -- ./inp_files/92771.got.cif
#   From: 2010.06.25/outbox.cif.g09.slc.cpg/sg12_47_cif.got.tgz:92771.got - 2010.06.28 00:19:55.
