data_PCOD8114164
_publ_section_title
;
Structure prediction by ZEFSAII (Michael W. Deem and Ramdas Pophale) SiO2 
 PCOD8114164
Probable space group: C 2/M
;
_chemical_formula_sum "Si O2"
_cell_formula_units_Z 56
_cell_length_a 18.927256
_cell_length_b 9.063635
_cell_length_c 28.230252
_cell_angle_alpha 90.000000
_cell_angle_beta 39.420594
_cell_angle_gamma 90.000000
_cell_volume 3075.276467
_symmetry_space_group_name_H-M "C 2/M"
_symmetry_group_IT_number 12
_symmetry_cell_setting 'monoclinic'
loop_
_space_group_symop_operation_xyz
x,y,z
-x,y,-z
-x,-y,-z
x,-y,z
1/2+x,1/2+y,z
1/2-x,1/2+y,-z
1/2-x,1/2-y,-z
1/2+x,1/2-y,z
loop_
_atom_site_type_symbol
_atom_site_label
_atom_site_fract_x
_atom_site_fract_y
_atom_site_fract_z
Si Si1 0.350894 0.331184 0.691447
Si Si2 0.902109 0.671049 0.085424
Si Si3 0.184128 0.327986 0.600973
Si Si4 0.592590 0.328457 0.558036
Si Si5 0.155012 0.166766 0.194988
Si Si6 0.871725 0.825397 0.199207
Si Si7 0.030222 0.326340 0.764555
O O1 0.315240 0.500000 0.699537
O O2 0.467516 0.290081 0.604918
O O3 0.371540 0.306907 0.736302
O O4 0.253233 0.227061 0.723064
O O5 0.913272 0.500000 0.094719
O O6 0.785751 0.697051 0.118529
O O7 0.909271 0.768995 0.128562
O O8 0.000000 0.721493 0.000000
O O9 0.165611 0.500000 0.603488
O O10 0.315776 0.286035 0.529451
O O11 0.116195 0.253025 0.594505
O O12 0.133939 0.278760 0.677273
O O13 0.599153 0.500000 0.567022
O O14 0.085885 0.280725 0.199270
O O15 0.123296 0.000000 0.196709
O O16 0.957398 0.759729 0.192789
O O17 0.876728 0.000000 0.197786
O O18 0.028334 0.500000 0.775280
#
# Coordination Sequence:
#
# PCOD8114164 Si02
#       7
#     8   8   8   8   8   8   8
#     4   9  17  32  53  75 102 138 179 221 266 317
#     4   9  19  39  64  86 109 137 167 204 255 314
#     4   9  18  29  46  74 104 136 176 222 266 309
#     4   9  16  29  49  73 101 135 176 222 269 312
#     4   9  17  31  54  82 106 134 172 211 253 307
#     4  11  23  36  54  78 107 140 176 218 262 308
#     4  11  21  34  51  75 109 144 179 217 261 313
#
# _framework density 18.209744000000001
#
# number of rings (size 3 to 8) (size 9 to 14) (size 15 to 20)
#    0.000    2.429    1.429    2.571    0.000    3.714 
#    0.000    1.429    0.000    4.286    0.000    0.000 
#    0.000    0.000    0.000    0.000    0.000    0.000 
#
# Total GULP energy -347140.195464 kJ/mol
# GULP energy per Si atom -12397.864124 kJ/mol
# Density = 1.816830 g / cm^3
# Si number density = 18.209744 Si / 1000 Ang^3
#
#
#
# Elastic Constant Matrix: (Units=GPa)
#
#
# Indices 1 2 3 4 5 6 
#
# 1 81.8835 48.1245 34.9171 0.0000 -3.6023 -0.0002
# 2 48.1245 84.4547 38.2258 -0.0004 1.6770 -0.0002
# 3 34.9171 38.2258 100.5238 0.0000 -16.5766 0.0000
# 4 0.0000 -0.0004 0.0000 21.3733 0.0000 -3.2811
# 5 -3.6023 1.6770 -16.5766 0.0000 19.7150 0.0000
# 6 -0.0002 -0.0002 0.0000 -3.2811 0.0000 31.4379
#
#
#
# Elastic Compliance Matrix: (Units=1/GPa)
#
#
# Indices 1 2 3 4 5 6 
#
# 1 0.019164 -0.009799 -0.002572 0.000000 0.002172 0.000000
# 2 -0.009799 0.020124 -0.005603 0.000000 -0.008213 0.000000
# 3 -0.002572 -0.005603 0.015061 0.000000 0.012670 0.000000
# 4 0.000000 0.000000 0.000000 0.047549 0.000000 0.004963
# 5 0.002172 -0.008213 0.012670 0.000000 0.062472 0.000000
# 6 0.000000 0.000000 0.000000 0.004963 0.000000 0.032327
#
#
# Mechanical properties :
#
#
# Convention : Reuss Voigt Hill
#
# Bulk Modulus (GPa) = 54.34644 56.59966 55.47305
# Shear Modulus (GPa) = 20.93994 24.21154 22.57574
#
# Velocity S-wave (km/s) = 3.39474 3.65031 3.52484
# Velocity P-wave (km/s) = 6.72868 6.99399 6.86262
#
# Compressibility (1/GPa) = 0.01840047
#
# Stress axis : x y z
#
# Youngs Moduli (GPa) = 52.18119 49.69305 66.39538
#
# Poissons Ratio (x) = 0.48695 0.17078
# Poissons Ratio (y) = 0.51133 0.37201
# Poissons Ratio (z) = 0.13422 0.27843
#
# Static dielectric constant tensor:
#      x y z
#    x 3.166020 0.000000 -0.210010 
#    y 0.000000 3.285330 0.000000 
#    z -0.210010 0.000000 3.557130 
# 
# 
# High freq. dielectric constant tensor:
#      x y z
#    x 1.686050 0.000000 -0.017030 
#    y 0.000000 1.700680 0.000000 
#    z -0.017030 0.000000 1.703220 
# 
# From -- ./inp_files/362898.got.cif
#   From: 2010.06.25/outbox.cif.g09.slc.cpg/sg12_182_cif.got.tgz:362898.got - 2010.06.28 00:19:55.
