data_PCOD8114874
_publ_section_title
;
Structure prediction by ZEFSAII (Michael W. Deem and Ramdas Pophale) SiO2 
 PCOD8114874
Probable space group: C 2/M
;
_chemical_formula_sum "Si O2"
_cell_formula_units_Z 64
_cell_length_a 15.207564
_cell_length_b 8.697353
_cell_length_c 32.919800
_cell_angle_alpha 90.000000
_cell_angle_beta 47.136239
_cell_angle_gamma 90.000000
_cell_volume 3191.479754
_symmetry_space_group_name_H-M "C 2/M"
_symmetry_group_IT_number 12
_symmetry_cell_setting 'monoclinic'
loop_
_space_group_symop_operation_xyz
x,y,z
-x,y,-z
-x,-y,-z
x,-y,z
1/2+x,1/2+y,z
1/2-x,1/2+y,-z
1/2-x,1/2-y,-z
1/2+x,1/2-y,z
loop_
_atom_site_type_symbol
_atom_site_label
_atom_site_fract_x
_atom_site_fract_y
_atom_site_fract_z
Si Si1 0.237749 0.319443 0.619034
Si Si2 0.071337 0.323926 0.387582
Si Si3 0.817372 0.182218 0.882528
Si Si4 0.717394 0.682937 0.196460
Si Si5 0.669280 0.823159 0.490793
Si Si6 0.347269 0.179766 0.998001
Si Si7 0.010990 0.181916 0.321314
Si Si8 0.483565 0.181726 0.121990
O O1 0.213585 0.500000 0.625627
O O2 0.313860 0.275179 0.634994
O O3 0.312194 0.269590 0.556246
O O4 0.112001 0.231315 0.661369
O O5 0.110851 0.500000 0.369420
O O6 0.018175 0.260500 0.362643
O O7 0.969673 0.310744 0.453861
O O8 0.814922 0.250422 0.837848
O O9 0.689923 0.231674 0.944534
O O10 0.933336 0.243960 0.869796
O O11 0.829201 0.000000 0.877456
O O12 0.718477 0.500000 0.193829
O O13 0.620084 0.742211 0.259256
O O14 0.848048 0.743146 0.169500
O O15 0.750000 0.750000 0.500000
O O16 0.708115 0.000000 0.472151
O O17 0.333317 0.000000 0.000493
O O18 0.250000 0.250000 0.000000
O O19 0.475210 0.225899 0.937674
O O20 0.014601 0.000000 0.325633
O O21 0.490191 0.000000 0.126163
#
# Coordination Sequence:
#
# PCOD8114874 Si02
#       8
#     8   8   8   8   8   8   8   8
#     4  12  25  41  63  91 121 156 196 238 287 344
#     4  11  24  42  64  91 120 153 193 237 287 345
#     4   9  17  32  52  77 108 141 180 223 276 335
#     4   9  20  36  55  79 107 142 186 234 280 332
#     4  11  22  38  64  94 127 158 190 233 286 342
#     4   8  14  25  47  75 104 138 173 218 272 332
#     4  11  23  41  61  82 114 154 197 246 294 339
#     4   9  17  32  52  77 108 140 179 225 278 334
#
# _framework density 20.053394999999998
#
# number of rings (size 3 to 8) (size 9 to 14) (size 15 to 20)
#    0.000    2.000    1.250    2.625    0.000    4.500 
#    0.000    8.125    0.000    0.000    0.000    8.750 
#    0.000    0.000    0.000    0.000    0.000    0.000 
#
# Total GULP energy -396614.950064 kJ/mol
# GULP energy per Si atom -12394.217189 kJ/mol
# Density = 2.000775 g / cm^3
# Si number density = 20.053395 Si / 1000 Ang^3
#
#
#
# Elastic Constant Matrix: (Units=GPa)
#
#
# Indices 1 2 3 4 5 6 
#
# 1 68.1221 4.2939 5.3683 0.0020 -6.9405 0.0020
# 2 4.2939 39.9802 20.8803 0.0029 1.7748 0.0013
# 3 5.3683 20.8803 86.7015 0.0018 -14.8639 0.0016
# 4 0.0020 0.0029 0.0018 19.7384 0.0004 -0.8772
# 5 -6.9405 1.7748 -14.8639 0.0004 25.7031 0.0003
# 6 0.0020 0.0013 0.0016 -0.8772 0.0003 27.6941
#
#
#
# Elastic Compliance Matrix: (Units=1/GPa)
#
#
# Indices 1 2 3 4 5 6 
#
# 1 0.015232 -0.001985 0.000293 -0.000001 0.004419 -0.000001
# 2 -0.001985 0.029920 -0.008357 -0.000003 -0.007435 -0.000001
# 3 0.000293 -0.008357 0.015142 0.000000 0.009413 -0.000001
# 4 -0.000001 -0.000003 0.000000 0.050734 -0.000001 0.001607
# 5 0.004419 -0.007435 0.009413 -0.000001 0.046056 -0.000001
# 6 -0.000001 -0.000001 -0.000001 0.001607 -0.000001 0.036160
#
#
# Mechanical properties :
#
#
# Convention : Reuss Voigt Hill
#
# Bulk Modulus (GPa) = 24.87887 28.43209 26.65548
# Shear Modulus (GPa) = 22.05152 25.57789 23.81470
#
# Velocity S-wave (km/s) = 3.31968 3.57527 3.44984
# Velocity P-wave (km/s) = 5.20835 5.59039 5.40275
#
# Compressibility (1/GPa) = 0.04019476
#
# Stress axis : x y z
#
# Youngs Moduli (GPa) = 65.65205 33.42193 66.04095
#
# Poissons Ratio (x) = 0.06634 -0.01932
# Poissons Ratio (y) = 0.13031 0.55194
# Poissons Ratio (z) = -0.01921 0.27932
#
# Static dielectric constant tensor:
#      x y z
#    x 3.553530 0.000000 -0.068110 
#    y 0.000000 3.536990 0.000000 
#    z -0.068110 0.000000 4.175060 
# 
# 
# High freq. dielectric constant tensor:
#      x y z
#    x 1.780970 0.000000 -0.003120 
#    y 0.000000 1.768120 0.000000 
#    z -0.003120 0.000000 1.790530 
# 
# From -- ./inp_files/375391.got.cif
#   From: 2010.06.25/outbox.cif.g09.slc.cpg/sg12_188_cif.got.tgz:375391.got - 2010.06.28 00:19:55.
