data_PCOD8114941
_publ_section_title
;
Structure prediction by ZEFSAII (Michael W. Deem and Ramdas Pophale) SiO2 
 PCOD8114941
Probable space group: C 2/M
;
_chemical_formula_sum "Si O2"
_cell_formula_units_Z 40
_cell_length_a 20.437224
_cell_length_b 14.619893
_cell_length_c 17.609821
_cell_angle_alpha 90.000000
_cell_angle_beta 21.758908
_cell_angle_gamma 90.000000
_cell_volume 1950.499219
_symmetry_space_group_name_H-M "C 2/M"
_symmetry_group_IT_number 12
_symmetry_cell_setting 'monoclinic'
loop_
_space_group_symop_operation_xyz
x,y,z
-x,y,-z
-x,-y,-z
x,-y,z
1/2+x,1/2+y,z
1/2-x,1/2+y,-z
1/2-x,1/2-y,-z
1/2+x,1/2-y,z
loop_
_atom_site_type_symbol
_atom_site_label
_atom_site_fract_x
_atom_site_fract_y
_atom_site_fract_z
Si Si1 0.399787 0.895635 0.765518
Si Si2 0.050912 0.605398 0.031162
Si Si3 0.944816 0.099989 0.772314
Si Si4 0.301974 0.854178 0.436189
Si Si5 0.396521 0.716782 0.686533
O O1 0.572205 0.887222 0.631925
O O2 0.404295 0.826697 0.689123
O O3 0.383513 0.000000 0.753213
O O4 0.227281 0.864931 0.998079
O O5 0.114480 0.500000 0.970212
O O6 0.200934 0.676063 0.894554
O O7 0.000000 0.628054 0.000000
O O8 0.886518 0.623369 0.263352
O O9 0.993972 0.170878 0.653023
O O10 0.115580 0.092509 0.642836
O O11 0.901847 0.000000 0.784501
O O12 0.250000 0.750000 0.500000
O O13 0.500000 0.688824 0.500000
#
# Coordination Sequence:
#
# PCOD8114941 Si02
#       5
#     8   8   8   8   8
#     4  11  24  44  65  91 127 165 213 264 306 365
#     4  11  24  41  63  96 134 164 201 259 322 380
#     4  11  22  39  66  95 123 158 204 257 317 379
#     4  12  22  39  66  94 128 164 206 255 310 372
#     4  12  24  40  62  91 126 169 210 256 311 372
#
# _framework density 20.507570000000001
#
# number of rings (size 3 to 8) (size 9 to 14) (size 15 to 20)
#    0.000    0.600    4.000    5.400    0.000    3.600 
#    0.000    0.000    0.000    0.600    0.000    0.000 
#    0.000    0.000    0.000    0.000    0.000    0.000 
#
# Total GULP energy -248010.367980 kJ/mol
# GULP energy per Si atom -12400.518399 kJ/mol
# Density = 2.046089 g / cm^3
# Si number density = 20.507570 Si / 1000 Ang^3
#
#
#
# Elastic Constant Matrix: (Units=GPa)
#
#
# Indices 1 2 3 4 5 6 
#
# 1 73.9537 25.5118 30.5074 -0.0052 -18.8307 0.0057
# 2 25.5118 108.8751 12.2086 -0.0147 -1.3078 0.0110
# 3 30.5074 12.2086 85.3651 -0.0293 -25.3730 0.0199
# 4 -0.0052 -0.0147 -0.0293 39.7322 0.0039 -8.3484
# 5 -18.8307 -1.3078 -25.3730 0.0039 35.3166 -0.0009
# 6 0.0057 0.0110 0.0199 -8.3484 -0.0009 32.0479
#
#
#
# Elastic Compliance Matrix: (Units=1/GPa)
#
#
# Indices 1 2 3 4 5 6 
#
# 1 0.018146 -0.003727 -0.003964 -0.000003 0.006690 0.000000
# 2 -0.003727 0.010117 -0.000756 0.000003 -0.002156 -0.000002
# 3 -0.003964 -0.000756 0.016024 0.000009 0.009371 -0.000006
# 4 -0.000003 0.000003 0.000009 0.026626 0.000002 0.006936
# 5 0.006690 -0.002156 0.009371 0.000002 0.038535 -0.000005
# 6 0.000000 -0.000002 -0.000006 0.006936 -0.000005 0.033010
#
#
# Mechanical properties :
#
#
# Convention : Reuss Voigt Hill
#
# Bulk Modulus (GPa) = 36.50308 44.96104 40.73206
# Shear Modulus (GPa) = 29.67656 34.75041 32.21349
#
# Velocity S-wave (km/s) = 3.80821 4.12092 3.96764
# Velocity P-wave (km/s) = 6.09713 6.67939 6.39489
#
# Compressibility (1/GPa) = 0.02739495
#
# Stress axis : x y z
#
# Youngs Moduli (GPa) = 55.10784 98.84309 62.40514
#
# Poissons Ratio (x) = 0.36841 0.24734
# Poissons Ratio (y) = 0.20540 0.04715
# Poissons Ratio (z) = 0.21842 0.07468
#
# Static dielectric constant tensor:
#      x y z
#    x 3.718860 -0.000010 -0.223220 
#    y -0.000010 3.847910 -0.000010 
#    z -0.223220 -0.000010 3.800310 
# 
# 
# High freq. dielectric constant tensor:
#      x y z
#    x 1.787990 0.000000 -0.019530 
#    y 0.000000 1.817830 0.000000 
#    z -0.019530 0.000000 1.805460 
# 
# From -- ./inp_files/225553.got.cif
#   From: 2010.06.25/outbox.cif.g09.slc.cpg/sg12_113_cif.got.tgz:225553.got - 2010.06.28 00:19:55.
