data_PCOD8114711
_publ_section_title
;
Structure prediction by ZEFSAII (Michael W. Deem and Ramdas Pophale) SiO2 
 PCOD8114711
Probable space group: C 2/M
;
_chemical_formula_sum "Si O2"
_cell_formula_units_Z 40
_cell_length_a 8.975691
_cell_length_b 24.516072
_cell_length_c 15.651579
_cell_angle_alpha 90.000000
_cell_angle_beta 28.963390
_cell_angle_gamma 90.000000
_cell_volume 1667.812287
_symmetry_space_group_name_H-M "C 2/M"
_symmetry_group_IT_number 12
_symmetry_cell_setting 'monoclinic'
loop_
_space_group_symop_operation_xyz
x,y,z
-x,y,-z
-x,-y,-z
x,-y,z
1/2+x,1/2+y,z
1/2-x,1/2+y,-z
1/2-x,1/2-y,-z
1/2+x,1/2-y,z
loop_
_atom_site_type_symbol
_atom_site_label
_atom_site_fract_x
_atom_site_fract_y
_atom_site_fract_z
Si Si1 0.287514 0.938837 0.683511
Si Si2 0.117662 0.717626 0.646153
Si Si3 0.871130 0.395166 0.978702
Si Si4 0.075828 0.274178 0.851906
Si Si5 0.851426 0.592236 0.339368
O O1 0.500000 0.916892 0.500000
O O2 0.485759 0.943964 0.670603
O O3 0.165673 0.000000 0.724125
O O4 0.000050 0.897207 0.835052
O O5 0.250000 0.750000 0.500000
O O6 0.119667 0.652796 0.634684
O O7 0.267239 0.728748 0.664833
O O8 0.763818 0.740183 0.828359
O O9 0.028295 0.335935 0.904533
O O10 0.977348 0.420610 0.835627
O O11 0.000000 0.425498 0.000000
O O12 0.750000 0.250000 0.000000
O O13 0.500000 0.575436 0.500000
#
# Coordination Sequence:
#
# PCOD8114711 Si02
#       5
#     8   8   8   8   8
#     4  11  26  47  71  99 130 170 224 285 347 410
#     4  11  22  38  59  90 129 170 214 259 312 379
#     4  11  23  42  67  97 134 177 220 274 340 401
#     4  11  22  36  57  88 126 168 213 258 311 377
#     4  11  24  42  67 101 137 178 227 276 334 401
#
# _framework density 23.983514
#
# number of rings (size 3 to 8) (size 9 to 14) (size 15 to 20)
#    0.000    1.000    0.000    7.800    0.000    8.800 
#    0.000    0.000    0.000    0.000    0.000    0.000 
#    0.000    0.000    0.000    0.000    0.000    0.000 
#
# Total GULP energy -247863.863320 kJ/mol
# GULP energy per Si atom -12393.193166 kJ/mol
# Density = 2.392893 g / cm^3
# Si number density = 23.983514 Si / 1000 Ang^3
#
#
#
# Elastic Constant Matrix: (Units=GPa)
#
#
# Indices 1 2 3 4 5 6 
#
# 1 181.3540 13.9580 75.8565 -0.0018 18.6348 0.0015
# 2 13.9580 49.4887 13.5580 -0.0018 4.4401 0.0008
# 3 75.8565 13.5580 157.3469 0.0160 24.9883 0.0082
# 4 -0.0018 -0.0018 0.0160 21.3184 -0.0055 -0.7216
# 5 18.6348 4.4401 24.9883 -0.0055 61.9872 -0.0038
# 6 0.0015 0.0008 0.0082 -0.7216 -0.0038 25.2891
#
#
#
# Elastic Compliance Matrix: (Units=1/GPa)
#
#
# Indices 1 2 3 4 5 6 
#
# 1 0.006994 -0.001039 -0.003163 0.000003 -0.000753 0.000001
# 2 -0.001039 0.020888 -0.001187 0.000002 -0.000705 0.000000
# 3 -0.003163 -0.001187 0.008353 -0.000007 -0.002331 -0.000003
# 4 0.000003 0.000002 -0.000007 0.046953 0.000006 0.001340
# 5 -0.000753 -0.000705 -0.002331 0.000006 0.017349 0.000004
# 6 0.000001 0.000000 -0.000003 0.001340 0.000004 0.039581
#
#
# Mechanical properties :
#
#
# Convention : Reuss Voigt Hill
#
# Bulk Modulus (GPa) = 39.28037 66.10385 52.69211
# Shear Modulus (GPa) = 31.37124 40.70674 36.03899
#
# Velocity S-wave (km/s) = 3.62060 4.12428 3.88062
# Velocity P-wave (km/s) = 5.82168 7.09236 6.48820
#
# Compressibility (1/GPa) = 0.02545801
#
# Stress axis : x y z
#
# Youngs Moduli (GPa) = 142.97224 47.87414 119.72178
#
# Poissons Ratio (x) = 0.04972 0.37866
# Poissons Ratio (y) = 0.14850 0.14212
# Poissons Ratio (z) = 0.45220 0.05683
#
# Static dielectric constant tensor:
#      x y z
#    x 5.073160 -0.000100 0.593930 
#    y -0.000100 3.634280 0.000200 
#    z 0.593930 0.000200 4.776370 
# 
# 
# High freq. dielectric constant tensor:
#      x y z
#    x 1.983670 0.000000 0.009860 
#    y 0.000000 1.917780 0.000000 
#    z 0.009860 0.000000 1.976830 
# 
# From -- ./inp_files/201121.got.cif
#   From: 2010.06.25/outbox.cif.g09.slc.cpg/sg12_101_cif.got.tgz:201121.got - 2010.06.28 00:19:55.
