data_PCOD8114013
_publ_section_title
;
Structure prediction by ZEFSAII (Michael W. Deem and Ramdas Pophale) SiO2 
 PCOD8114013
Probable space group: C 2/M
;
_chemical_formula_sum "Si O2"
_cell_formula_units_Z 56
_cell_length_a 14.149071
_cell_length_b 18.305011
_cell_length_c 11.714746
_cell_angle_alpha 90.000000
_cell_angle_beta 111.980338
_cell_angle_gamma 90.000000
_cell_volume 2813.564280
_symmetry_space_group_name_H-M "C 2/M"
_symmetry_group_IT_number 12
_symmetry_cell_setting 'monoclinic'
loop_
_space_group_symop_operation_xyz
x,y,z
-x,y,-z
-x,-y,-z
x,-y,z
1/2+x,1/2+y,z
1/2-x,1/2+y,-z
1/2-x,1/2-y,-z
1/2+x,1/2-y,z
loop_
_atom_site_type_symbol
_atom_site_label
_atom_site_fract_x
_atom_site_fract_y
_atom_site_fract_z
Si Si1 0.405785 0.914483 0.633702
Si Si2 0.739920 0.820095 0.573167
Si Si3 0.545102 0.299540 0.245804
Si Si4 0.084100 0.317848 0.702498
Si Si5 0.089988 0.339322 0.123586
Si Si6 0.778239 0.666633 0.021995
Si Si7 0.421967 0.582559 0.067844
O O1 0.307744 0.886086 0.519953
O O2 0.511230 0.883799 0.627678
O O3 0.398520 0.890153 0.761572
O O4 0.406784 0.000000 0.623850
O O5 0.750000 0.750000 0.500000
O O6 0.853319 0.840379 0.665031
O O7 0.671688 0.800880 0.652184
O O8 0.490616 0.252016 0.319756
O O9 0.573969 0.245803 0.153039
O O10 0.465704 0.363343 0.182447
O O11 0.129534 0.340525 0.846208
O O12 0.190427 0.353046 0.093236
O O13 0.000000 0.364791 0.000000
O O14 0.750000 0.750000 0.000000
O O15 0.687175 0.613897 0.021852
O O16 0.408580 0.500000 0.109030
O O17 0.500000 0.582616 0.000000
#
# Coordination Sequence:
#
# PCOD8114013 Si02
#       7
#     8   8   8   8   8   8   8
#     4  11  26  44  65  96 138 176 214 272 331 390
#     4  12  24  41  67  95 126 170 226 271 317 379
#     4  11  22  40  66  94 128 168 218 268 321 382
#     4  11  23  40  66  98 126 169 215 271 327 387
#     4  11  20  40  66 100 129 166 211 266 328 391
#     4  12  21  37  68  98 129 169 215 266 328 391
#     4  11  24  39  57  90 134 172 209 257 318 388
#
# _framework density 19.903580000000002
#
# number of rings (size 3 to 8) (size 9 to 14) (size 15 to 20)
#    0.000    0.714    7.143    3.429    0.000    3.143 
#    0.000    0.000    0.000    0.000    0.000    4.000 
#    0.000    0.000    0.000    0.000    0.000    0.000 
#
# Total GULP energy -347171.521293 kJ/mol
# GULP energy per Si atom -12398.982903 kJ/mol
# Density = 1.985828 g / cm^3
# Si number density = 19.903580 Si / 1000 Ang^3
#
#
#
# Elastic Constant Matrix: (Units=GPa)
#
#
# Indices 1 2 3 4 5 6 
#
# 1 114.6593 44.3491 38.6569 0.0000 7.1305 0.0000
# 2 44.3491 147.0939 36.2947 0.0000 14.0976 0.0000
# 3 38.6569 36.2947 94.3281 0.0000 15.4628 0.0000
# 4 0.0000 0.0000 0.0000 24.5010 0.0000 8.6749
# 5 7.1305 14.0976 15.4628 0.0000 44.2347 0.0000
# 6 0.0000 0.0000 0.0000 8.6749 0.0000 10.0006
#
#
#
# Elastic Compliance Matrix: (Units=1/GPa)
#
#
# Indices 1 2 3 4 5 6 
#
# 1 0.010838 -0.002416 -0.003556 0.000000 0.000266 0.000000
# 2 -0.002416 0.008141 -0.001889 0.000000 -0.001545 0.000000
# 3 -0.003556 -0.001889 0.013358 0.000000 -0.003494 0.000000
# 4 0.000000 0.000000 0.000000 0.058907 0.000000 -0.051098
# 5 0.000266 -0.001545 -0.003494 0.000000 0.024278 0.000000
# 6 0.000000 0.000000 0.000000 -0.051098 0.000000 0.144318
#
#
# Mechanical properties :
#
#
# Convention : Reuss Voigt Hill
#
# Bulk Modulus (GPa) = 60.18300 66.07585 63.12943
# Shear Modulus (GPa) = 17.78730 31.53262 24.65996
#
# Velocity S-wave (km/s) = 2.99268 3.98461 3.52372
# Velocity P-wave (km/s) = 6.49957 7.37831 6.95284
#
# Compressibility (1/GPa) = 0.01661599
#
# Stress axis : x y z
#
# Youngs Moduli (GPa) = 92.26658 122.83577 74.86081
#
# Poissons Ratio (x) = 0.29675 0.26618
# Poissons Ratio (y) = 0.22290 0.14142
# Poissons Ratio (z) = 0.32807 0.23205
#
# Static dielectric constant tensor:
#      x y z
#    x 6.041280 0.000000 1.423240 
#    y 0.000000 3.811420 0.000000 
#    z 1.423240 0.000000 4.204440 
# 
# 
# High freq. dielectric constant tensor:
#      x y z
#    x 1.792750 0.000000 0.006900 
#    y 0.000000 1.752200 0.000000 
#    z 0.006900 0.000000 1.780970 
# 
# From -- ./inp_files/146209.got.cif
#   From: 2010.06.25/outbox.cif.g09.slc.cpg/sg12_74_cif.got.tgz:146209.got - 2010.06.28 00:19:55.
