data_PCOD8114217
_publ_section_title
;
Structure prediction by ZEFSAII (Michael W. Deem and Ramdas Pophale) SiO2 
 PCOD8114217
Probable space group: C 2/M
;
_chemical_formula_sum "Si O2"
_cell_formula_units_Z 56
_cell_length_a 19.790350
_cell_length_b 8.778767
_cell_length_c 20.152125
_cell_angle_alpha 90.000000
_cell_angle_beta 128.450835
_cell_angle_gamma 90.000000
_cell_volume 2741.879632
_symmetry_space_group_name_H-M "C 2/M"
_symmetry_group_IT_number 12
_symmetry_cell_setting 'monoclinic'
loop_
_space_group_symop_operation_xyz
x,y,z
-x,y,-z
-x,-y,-z
x,-y,z
1/2+x,1/2+y,z
1/2-x,1/2+y,-z
1/2-x,1/2-y,-z
1/2+x,1/2-y,z
loop_
_atom_site_type_symbol
_atom_site_label
_atom_site_fract_x
_atom_site_fract_y
_atom_site_fract_z
Si Si1 0.438724 0.825201 0.600119
Si Si2 0.301261 0.676423 0.437367
Si Si3 0.657404 0.677384 0.270255
Si Si4 0.745564 0.828890 0.795500
Si Si5 0.980418 0.175914 0.223804
Si Si6 0.300276 0.818984 0.091797
Si Si7 0.595318 0.831032 0.608319
O O1 0.342197 0.763871 0.526010
O O2 0.483953 0.724949 0.683340
O O3 0.494642 0.806989 0.565686
O O4 0.434638 0.000000 0.620998
O O5 0.294308 0.500000 0.450390
O O6 0.206648 0.739713 0.361155
O O7 0.366340 0.701788 0.415554
O O8 0.683878 0.500000 0.289990
O O9 0.689377 0.747574 0.218849
O O10 0.555670 0.702147 0.215340
O O11 0.743713 0.751899 0.867366
O O12 0.647402 0.823975 0.709471
O O13 0.778444 0.000000 0.825804
O O14 0.900179 0.273148 0.149724
O O15 0.953402 0.000000 0.211442
O O16 0.294840 0.000000 0.086585
O O17 0.250000 0.750000 0.000000
O O18 0.608799 0.000000 0.584419
#
# Coordination Sequence:
#
# PCOD8114217 Si02
#       7
#     8   8   8   8   8   8   8
#     4  11  21  35  55  78 113 160 201 238 286 349
#     4  11  22  33  50  82 117 152 197 251 294 329
#     4   9  20  40  61  81 113 159 202 235 281 351
#     4   8  15  34  61  84 108 148 197 231 272 342
#     4  11  23  39  61  89 118 148 190 247 298 342
#     4  11  22  40  65  93 120 149 187 234 289 353
#     4   9  17  33  54  77 108 153 200 236 283 348
#
# _framework density 20.423946999999998
#
# number of rings (size 3 to 8) (size 9 to 14) (size 15 to 20)
#    0.000    2.000    1.429    3.857    0.000    4.571 
#    0.000    1.429    0.000    4.286    0.000    0.000 
#    0.000    0.000    0.000    0.000    0.000    0.000 
#
# Total GULP energy -347123.200218 kJ/mol
# GULP energy per Si atom -12397.257151 kJ/mol
# Density = 2.037746 g / cm^3
# Si number density = 20.423947 Si / 1000 Ang^3
#
#
#
# Elastic Constant Matrix: (Units=GPa)
#
#
# Indices 1 2 3 4 5 6 
#
# 1 69.8333 22.1218 28.5536 0.0000 9.4153 0.0000
# 2 22.1218 75.1841 27.0036 0.0000 -0.4839 0.0000
# 3 28.5536 27.0036 109.7357 0.0000 5.1408 0.0000
# 4 0.0000 0.0000 0.0000 34.6478 0.0000 1.6961
# 5 9.4153 -0.4839 5.1408 0.0000 17.6626 0.0000
# 6 0.0000 0.0000 0.0000 1.6961 0.0000 24.2602
#
#
#
# Elastic Compliance Matrix: (Units=1/GPa)
#
#
# Indices 1 2 3 4 5 6 
#
# 1 0.018196 -0.004234 -0.003278 0.000000 -0.008862 0.000000
# 2 -0.004234 0.015613 -0.002906 0.000000 0.003530 0.000000
# 3 -0.003278 -0.002906 0.010749 0.000000 -0.001461 0.000000
# 4 0.000000 0.000000 0.000000 0.028961 0.000000 -0.002025
# 5 -0.008862 0.003530 -0.001461 0.000000 0.061863 0.000000
# 6 0.000000 0.000000 0.000000 -0.002025 0.000000 0.041361
#
#
# Mechanical properties :
#
#
# Convention : Reuss Voigt Hill
#
# Bulk Modulus (GPa) = 42.15207 45.56790 43.85998
# Shear Modulus (GPa) = 24.33269 27.11905 25.72587
#
# Velocity S-wave (km/s) = 3.45538 3.64786 3.55293
# Velocity P-wave (km/s) = 6.05003 6.33261 6.19293
#
# Compressibility (1/GPa) = 0.02372363
#
# Stress axis : x y z
#
# Youngs Moduli (GPa) = 54.95736 64.05016 93.03062
#
# Poissons Ratio (x) = 0.27117 0.30492
# Poissons Ratio (y) = 0.23267 0.27032
# Poissons Ratio (z) = 0.18013 0.18611
#
# Static dielectric constant tensor:
#      x y z
#    x 3.891510 0.000000 -0.077950 
#    y 0.000000 3.494660 0.000000 
#    z -0.077950 0.000000 3.616080 
# 
# 
# High freq. dielectric constant tensor:
#      x y z
#    x 1.805290 0.000000 -0.002190 
#    y 0.000000 1.777250 0.000000 
#    z -0.002190 0.000000 1.783110 
# 
# From -- ./inp_files/320223.got.cif
#   From: 2010.06.25/outbox.cif.g09.slc.cpg/sg12_161_cif.got.tgz:320223.got - 2010.06.28 00:19:55.
