data_PCOD8114663
_publ_section_title
;
Structure prediction by ZEFSAII (Michael W. Deem and Ramdas Pophale) SiO2 
 PCOD8114663
Probable space group: C 2/M
;
_chemical_formula_sum "Si O2"
_cell_formula_units_Z 56
_cell_length_a 28.221648
_cell_length_b 8.872449
_cell_length_c 19.646024
_cell_angle_alpha 90.000000
_cell_angle_beta 36.898936
_cell_angle_gamma 90.000000
_cell_volume 2953.555418
_symmetry_space_group_name_H-M "C 2/M"
_symmetry_group_IT_number 12
_symmetry_cell_setting 'monoclinic'
loop_
_space_group_symop_operation_xyz
x,y,z
-x,y,-z
-x,-y,-z
x,-y,z
1/2+x,1/2+y,z
1/2-x,1/2+y,-z
1/2-x,1/2-y,-z
1/2+x,1/2-y,z
loop_
_atom_site_type_symbol
_atom_site_label
_atom_site_fract_x
_atom_site_fract_y
_atom_site_fract_z
Si Si1 0.008440 0.322099 0.326725
Si Si2 0.643911 0.677385 0.254046
Si Si3 0.806676 0.172884 0.229558
Si Si4 0.524760 0.324021 0.168682
Si Si5 0.305179 0.673236 0.075256
Si Si6 0.049565 0.675770 0.876546
Si Si7 0.870486 0.324494 0.585887
O O1 0.018458 0.500000 0.315090
O O2 0.088502 0.246909 0.260269
O O3 0.989123 0.265161 0.273329
O O4 0.936117 0.270995 0.457448
O O5 0.635941 0.500000 0.260591
O O6 0.733345 0.723284 0.132956
O O7 0.617330 0.734342 0.358540
O O8 0.826672 0.209933 0.128422
O O9 0.859090 0.280762 0.216568
O O10 0.714800 0.208724 0.349270
O O11 0.826858 0.000000 0.223673
O O12 0.508320 0.500000 0.196543
O O13 0.482010 0.269586 0.150205
O O14 0.618411 0.290831 0.057573
O O15 0.278042 0.500000 0.100244
O O16 0.042394 0.500000 0.868387
O O17 0.000000 0.721712 0.000000
O O18 0.878370 0.500000 0.595581
#
# Coordination Sequence:
#
# PCOD8114663 Si02
#       7
#     8   8   8   8   8   8   8
#     4  11  23  40  59  80 114 154 190 232 284 336
#     4  11  22  35  58  88 115 146 190 237 279 330
#     4   9  17  34  59  85 110 142 188 233 278 329
#     4  11  23  39  59  83 114 150 191 234 281 336
#     4   9  19  36  57  82 113 149 187 231 284 336
#     4  11  22  35  56  87 119 147 182 226 279 340
#     4   9  20  39  61  84 112 150 191 233 281 332
#
# _framework density 18.960198999999999
#
# number of rings (size 3 to 8) (size 9 to 14) (size 15 to 20)
#    0.000    1.857    1.429    3.857    0.000    7.429 
#    0.000    0.714    0.000    0.000    0.000    0.000 
#    0.000    0.000    0.000    0.000    0.000    0.000 
#
# Total GULP energy -347324.200203 kJ/mol
# GULP energy per Si atom -12404.435722 kJ/mol
# Density = 1.891704 g / cm^3
# Si number density = 18.960199 Si / 1000 Ang^3
#
#
#
# Elastic Constant Matrix: (Units=GPa)
#
#
# Indices 1 2 3 4 5 6 
#
# 1 91.8986 38.0075 30.9283 0.0049 -3.7510 0.0025
# 2 38.0075 79.3791 26.7076 0.0269 -0.3790 -0.0174
# 3 30.9283 26.7076 54.3248 -0.0024 3.5552 -0.0009
# 4 0.0049 0.0269 -0.0024 24.3900 -0.0045 2.7574
# 5 -3.7510 -0.3790 3.5552 -0.0045 21.4045 0.0051
# 6 0.0025 -0.0174 -0.0009 2.7574 0.0051 32.2582
#
#
#
# Elastic Compliance Matrix: (Units=1/GPa)
#
#
# Indices 1 2 3 4 5 6 
#
# 1 0.015329 -0.005158 -0.006431 0.000003 0.003663 -0.000005
# 2 -0.005158 0.016879 -0.005380 -0.000019 0.000289 0.000011
# 3 -0.006431 -0.005380 0.025067 0.000009 -0.005386 -0.000002
# 4 0.000003 -0.000019 0.000009 0.041400 0.000008 -0.003539
# 5 0.003663 0.000289 -0.005386 0.000008 0.048261 -0.000009
# 6 -0.000005 0.000011 -0.000002 -0.003539 -0.000009 0.031302
#
#
# Mechanical properties :
#
#
# Convention : Reuss Voigt Hill
#
# Bulk Modulus (GPa) = 42.85307 46.32102 44.58705
# Shear Modulus (GPa) = 22.73185 24.27449 23.50317
#
# Velocity S-wave (km/s) = 3.46631 3.58199 3.52462
# Velocity P-wave (km/s) = 6.21860 6.44913 6.33491
#
# Compressibility (1/GPa) = 0.02333555
#
# Stress axis : x y z
#
# Youngs Moduli (GPa) = 65.23699 59.24402 39.89383
#
# Poissons Ratio (x) = 0.30561 0.25654
# Poissons Ratio (y) = 0.33652 0.21465
# Poissons Ratio (z) = 0.41952 0.31876
#
# Static dielectric constant tensor:
#      x y z
#    x 3.379420 -0.000020 -0.119010 
#    y -0.000020 3.409550 0.000020 
#    z -0.119010 0.000020 3.541480 
# 
# 
# High freq. dielectric constant tensor:
#      x y z
#    x 1.735380 0.000000 -0.009810 
#    y 0.000000 1.738870 0.000000 
#    z -0.009810 0.000000 1.730890 
# 
# From -- ./inp_files/288465.got.cif
#   From: 2010.06.25/outbox.cif.g09.slc.cpg/sg12_145_cif.got.tgz:288465.got - 2010.06.28 00:19:55.
