data_PCOD8114915
_publ_section_title
;
Structure prediction by ZEFSAII (Michael W. Deem and Ramdas Pophale) SiO2 
 PCOD8114915
Probable space group: C 2/M
;
_chemical_formula_sum "Si O2"
_cell_formula_units_Z 44
_cell_length_a 23.773461
_cell_length_b 18.699739
_cell_length_c 8.305141
_cell_angle_alpha 90.000000
_cell_angle_beta 39.207764
_cell_angle_gamma 90.000000
_cell_volume 2333.911201
_symmetry_space_group_name_H-M "C 2/M"
_symmetry_group_IT_number 12
_symmetry_cell_setting 'monoclinic'
loop_
_space_group_symop_operation_xyz
x,y,z
-x,y,-z
-x,-y,-z
x,-y,z
1/2+x,1/2+y,z
1/2-x,1/2+y,-z
1/2-x,1/2-y,-z
1/2+x,1/2-y,z
loop_
_atom_site_type_symbol
_atom_site_label
_atom_site_fract_x
_atom_site_fract_y
_atom_site_fract_z
Si Si1 0.000000 0.259036 0.500000
Si Si2 0.372523 0.418953 0.495457
Si Si3 0.692126 0.418633 0.005029
Si Si4 0.324238 0.201064 0.750813
Si Si5 0.828793 0.214320 0.424107
Si Si6 0.949081 0.157046 0.895297
O O1 0.911101 0.306325 0.671988
O O2 0.990274 0.210514 0.676781
O O3 0.352225 0.500000 0.484679
O O4 0.362967 0.410914 0.708201
O O5 0.305358 0.364586 0.551186
O O6 0.473842 0.398426 0.224346
O O7 0.715096 0.500000 0.913983
O O8 0.634520 0.386394 0.988475
O O9 0.785728 0.377810 0.809870
O O10 0.354026 0.233806 0.514373
O O11 0.250000 0.250000 0.000000
O O12 0.750000 0.250000 0.500000
O O13 0.915202 0.204151 0.120786
#
# Coordination Sequence:
#
# PCOD8114915 Si02
#       6
#     4   8   8   8   8   8
#     4  12  22  36  66  88 116 162 198 262 296 360
#     4  11  23  38  58  91 127 159 199 248 310 378
#     4  11  22  39  63  86 121 166 203 246 307 368
#     4  12  21  42  60  87 123 159 209 253 300 358
#     4  12  23  36  58  86 123 163 201 243 295 369
#     4  12  20  36  60  90 124 153 197 243 317 366
#
# _framework density 18.852474000000001
#
# number of rings (size 3 to 8) (size 9 to 14) (size 15 to 20)
#    0.000    0.364    9.091    1.091    0.000    3.636 
#    0.000    0.455    0.000    0.000    0.000    1.273 
#    0.000    0.000    0.000    0.000    0.000    0.000 
#
# Total GULP energy -272773.943166 kJ/mol
# GULP energy per Si atom -12398.815598 kJ/mol
# Density = 1.880957 g / cm^3
# Si number density = 18.852474 Si / 1000 Ang^3
#
#
#
# Elastic Constant Matrix: (Units=GPa)
#
#
# Indices 1 2 3 4 5 6 
#
# 1 93.8315 37.3404 26.0313 0.0000 -29.2553 0.0000
# 2 37.3404 95.5737 38.0028 0.0000 -26.1456 0.0000
# 3 26.0313 38.0028 93.8659 0.0000 3.6141 0.0000
# 4 0.0000 0.0000 0.0000 31.8353 0.0000 -3.1842
# 5 -29.2553 -26.1456 3.6141 0.0000 41.7661 0.0000
# 6 0.0000 0.0000 0.0000 -3.1842 0.0000 34.2714
#
#
#
# Elastic Compliance Matrix: (Units=1/GPa)
#
#
# Indices 1 2 3 4 5 6 
#
# 1 0.015653 -0.001703 -0.004046 0.000000 0.010248 0.000000
# 2 -0.001703 0.016347 -0.006516 0.000000 0.009604 0.000000
# 3 -0.004046 -0.006516 0.014729 0.000000 -0.008187 0.000000
# 4 0.000000 0.000000 0.000000 0.031706 0.000000 0.002946
# 5 0.010248 0.009604 -0.008187 0.000000 0.037841 0.000000
# 6 0.000000 0.000000 0.000000 0.002946 0.000000 0.029453
#
#
# Mechanical properties :
#
#
# Convention : Reuss Voigt Hill
#
# Bulk Modulus (GPa) = 45.04780 54.00225 49.52502
# Shear Modulus (GPa) = 28.14407 33.70101 30.92254
#
# Velocity S-wave (km/s) = 3.86794 4.23261 4.05438
# Velocity P-wave (km/s) = 6.62531 7.25214 6.94580
#
# Compressibility (1/GPa) = 0.02219864
#
# Stress axis : x y z
#
# Youngs Moduli (GPa) = 63.88632 61.17487 67.89495
#
# Poissons Ratio (x) = 0.10420 0.27470
# Poissons Ratio (y) = 0.10882 0.44237
# Poissons Ratio (z) = 0.25848 0.39859
#
# Static dielectric constant tensor:
#      x y z
#    x 3.827320 0.000000 0.106440 
#    y 0.000000 3.540680 0.000000 
#    z 0.106440 0.000000 3.577560 
# 
# 
# High freq. dielectric constant tensor:
#      x y z
#    x 1.741680 0.000000 0.016990 
#    y 0.000000 1.714790 0.000000 
#    z 0.016990 0.000000 1.729300 
# 
# From -- ./inp_files/61287.got.cif
#   From: 2010.06.25/outbox.cif.g09.slc.cpg/sg12_31_cif.got.tgz:61287.got - 2010.06.28 00:19:55.
