data_PCOD8114395
_publ_section_title
;
Structure prediction by ZEFSAII (Michael W. Deem and Ramdas Pophale) SiO2 
 PCOD8114395
Probable space group: C 2/M
;
_chemical_formula_sum "Si O2"
_cell_formula_units_Z 48
_cell_length_a 16.924397
_cell_length_b 29.527410
_cell_length_c 9.864816
_cell_angle_alpha 90.000000
_cell_angle_beta 28.083760
_cell_angle_gamma 90.000000
_cell_volume 2320.752308
_symmetry_space_group_name_H-M "C 2/M"
_symmetry_group_IT_number 12
_symmetry_cell_setting 'monoclinic'
loop_
_space_group_symop_operation_xyz
x,y,z
-x,y,-z
-x,-y,-z
x,-y,z
1/2+x,1/2+y,z
1/2-x,1/2+y,-z
1/2-x,1/2-y,-z
1/2+x,1/2-y,z
loop_
_atom_site_type_symbol
_atom_site_label
_atom_site_fract_x
_atom_site_fract_y
_atom_site_fract_z
Si Si1 0.847226 0.726492 0.472987
Si Si2 0.690815 0.129696 0.368537
Si Si3 0.729265 0.779084 0.898661
Si Si4 0.201030 0.550180 0.849321
Si Si5 0.709552 0.126285 0.034884
Si Si6 0.301720 0.050831 0.449955
O O1 0.750000 0.750000 0.500000
O O2 0.760323 0.678311 0.641030
O O3 0.037726 0.720316 0.136744
O O4 0.847425 0.758882 0.603789
O O5 0.770815 0.124214 0.097866
O O6 0.490972 0.127659 0.663101
O O7 0.768503 0.088896 0.341049
O O8 0.786936 0.829937 0.844515
O O9 0.750000 0.750000 0.000000
O O10 0.263624 0.500000 0.792691
O O11 0.261702 0.563014 0.605657
O O12 0.277797 0.583561 0.846062
O O13 0.001270 0.552078 0.153365
O O14 0.240344 0.000000 0.583931
#
# Coordination Sequence:
#
# PCOD8114395 Si02
#       6
#     8   8   8   8   8   8
#     4  11  23  36  54  80 108 141 181 223 264 313
#     4   9  17  29  43  66  97 131 169 209 259 312
#     4  11  21  38  56  76 108 145 179 218 267 315
#     4   8  14  24  39  62  92 127 165 204 254 315
#     4   9  17  28  45  66  94 133 170 208 258 312
#     4   8  14  24  39  61  93 129 162 203 258 314
#
# _framework density 20.682949000000001
#
# number of rings (size 3 to 8) (size 9 to 14) (size 15 to 20)
#    0.000    2.667    1.667    2.000    2.333    0.667 
#    0.000    3.333    0.000    0.000    0.000    0.000 
#    0.000    8.000    0.000    0.000    0.000    0.000 
#
# Total GULP energy -297526.298430 kJ/mol
# GULP energy per Si atom -12396.929101 kJ/mol
# Density = 2.063587 g / cm^3
# Si number density = 20.682949 Si / 1000 Ang^3
#
#
#
# Elastic Constant Matrix: (Units=GPa)
#
#
# Indices 1 2 3 4 5 6 
#
# 1 84.1472 66.8455 17.7402 -0.0002 36.9751 0.0001
# 2 66.8455 192.2988 36.4970 0.0001 46.8249 -0.0001
# 3 17.7402 36.4970 37.7975 -0.0007 23.8800 0.0004
# 4 -0.0002 0.0001 -0.0007 28.0068 0.0003 16.2143
# 5 36.9751 46.8249 23.8800 0.0003 35.8071 -0.0002
# 6 0.0001 -0.0001 0.0004 16.2143 -0.0002 40.1758
#
#
#
# Elastic Compliance Matrix: (Units=1/GPa)
#
#
# Indices 1 2 3 4 5 6 
#
# 1 0.024603 -0.003821 0.008703 0.000001 -0.026212 -0.000001
# 2 -0.003821 0.008298 -0.003208 0.000000 -0.004766 0.000000
# 3 0.008703 -0.003208 0.049247 0.000003 -0.037635 -0.000002
# 4 0.000001 0.000000 0.000003 0.046592 -0.000003 -0.018804
# 5 -0.026212 -0.004766 -0.037635 -0.000003 0.086326 0.000002
# 6 -0.000001 0.000000 -0.000002 -0.018804 0.000002 0.032480
#
#
# Mechanical properties :
#
#
# Convention : Reuss Voigt Hill
#
# Bulk Modulus (GPa) = 11.69653 61.82323 36.75988
# Shear Modulus (GPa) = 18.33548 33.67533 26.00540
#
# Velocity S-wave (km/s) = 2.98065 4.03943 3.54974
# Velocity P-wave (km/s) = 4.18487 7.19110 5.88324
#
# Compressibility (1/GPa) = 0.08549547
#
# Stress axis : x y z
#
# Youngs Moduli (GPa) = 40.64614 120.51263 20.30584
#
# Poissons Ratio (x) = 0.46051 -0.17673
# Poissons Ratio (y) = 0.15532 0.06514
# Poissons Ratio (z) = -0.35375 0.38659
#
# Static dielectric constant tensor:
#      x y z
#    x 3.535580 0.000000 0.313500 
#    y 0.000000 4.112200 0.000000 
#    z 0.313500 0.000000 3.421550 
# 
# 
# High freq. dielectric constant tensor:
#      x y z
#    x 1.791130 0.000000 0.032800 
#    y 0.000000 1.821720 0.000000 
#    z 0.032800 0.000000 1.771020 
# 
# From -- ./inp_files/53835.got.cif
#   From: 2010.06.25/outbox.cif.g09.slc.cpg/sg12_27_cif.got.tgz:53835.got - 2010.06.28 00:19:55.
