data_PCOD8114733
_publ_section_title
;
Structure prediction by ZEFSAII (Michael W. Deem and Ramdas Pophale) SiO2 
 PCOD8114733
Probable space group: C 2/M
;
_chemical_formula_sum "Si O2"
_cell_formula_units_Z 40
_cell_length_a 23.519158
_cell_length_b 13.077822
_cell_length_c 22.273486
_cell_angle_alpha 90.000000
_cell_angle_beta 161.294910
_cell_angle_gamma 90.000000
_cell_volume 2197.052666
_symmetry_space_group_name_H-M "C 2/M"
_symmetry_group_IT_number 12
_symmetry_cell_setting 'monoclinic'
loop_
_space_group_symop_operation_xyz
x,y,z
-x,y,-z
-x,-y,-z
x,-y,z
1/2+x,1/2+y,z
1/2-x,1/2+y,-z
1/2-x,1/2-y,-z
1/2+x,1/2-y,z
loop_
_atom_site_type_symbol
_atom_site_label
_atom_site_fract_x
_atom_site_fract_y
_atom_site_fract_z
Si Si1 0.000092 0.880294 0.296516
Si Si2 0.303825 0.740833 0.190638
Si Si3 0.710685 0.614263 0.710748
Si Si4 0.500059 0.380214 0.156887
Si Si5 0.196336 0.240782 0.583254
O O1 0.175491 0.832356 0.503647
O O2 0.824669 0.832210 0.152685
O O3 0.000336 0.853122 0.227140
O O4 0.999872 0.000000 0.308342
O O5 0.222530 0.674348 0.163604
O O6 0.500078 0.784347 0.404407
O O7 0.175495 0.834698 0.048741
O O8 0.500000 0.606288 0.500000
O O9 0.792451 0.500000 0.792528
O O10 0.777589 0.674384 0.718838
O O11 0.500107 0.500000 0.144756
O O12 0.675296 0.334612 0.301942
#
# Coordination Sequence:
#
# PCOD8114733 Si02
#       5
#     8   8   8   8   8
#     4   9  18  35  58  81 110 139 173 225 277 322
#     4   9  20  34  58  79 112 137 177 220 275 319
#     4   9  16  33  59  84 109 135 170 224 282 327
#     4  11  22  37  53  77 111 149 188 219 252 312
#     4   9  20  34  58  79 112 137 177 220 275 319
#
# _framework density 18.206209000000001
#
# number of rings (size 3 to 8) (size 9 to 14) (size 15 to 20)
#    1.200    1.400    0.000    2.400    0.000    1.600 
#    0.000    7.000    0.000    3.600    0.000    0.000 
#    0.000    0.000    0.000    0.000    0.000    0.000 
#
# Total GULP energy -247861.030282 kJ/mol
# GULP energy per Si atom -12393.051514 kJ/mol
# Density = 1.816477 g / cm^3
# Si number density = 18.206209 Si / 1000 Ang^3
#
#
#
# Elastic Constant Matrix: (Units=GPa)
#
#
# Indices 1 2 3 4 5 6 
#
# 1 113.8956 84.4324 52.1020 -0.0053 -29.9972 -0.0036
# 2 84.4324 133.2484 59.0755 -0.0008 -6.9684 -0.0015
# 3 52.1020 59.0755 68.1788 -0.0138 17.9314 -0.0096
# 4 -0.0053 -0.0008 -0.0138 32.6412 -0.0079 -0.5780
# 5 -29.9972 -6.9684 17.9314 -0.0079 -8.6468 -0.0035
# 6 -0.0036 -0.0015 -0.0096 -0.5780 -0.0035 34.7963
#
#
#
# Elastic Compliance Matrix: (Units=1/GPa)
#
#
# Indices 1 2 3 4 5 6 
#
# 1 0.009028 -0.008495 0.004464 -0.000001 -0.015216 0.000000
# 2 -0.008495 0.016330 -0.007731 -0.000004 0.000280 -0.000002
# 3 0.004464 -0.007731 0.013193 0.000011 0.018104 0.000006
# 4 -0.000001 -0.000004 0.000011 0.030645 -0.000001 0.000509
# 5 -0.015216 0.000280 0.018104 -0.000001 -0.025543 0.000001
# 6 0.000000 -0.000002 0.000006 0.000509 0.000001 0.028747
#
#
# Mechanical properties :
#
#
# Convention : Reuss Voigt Hill
#
# Bulk Modulus (GPa) = 66.54968 78.50471 72.52719
# Shear Modulus (GPa) = 49.53703 19.73900 34.63801
#
# Velocity S-wave (km/s) = 5.22187 3.29628 4.36654
# Velocity P-wave (km/s) = 8.54341 7.59609 8.08364
#
# Compressibility (1/GPa) = 0.01502637
#
# Stress axis : x y z
#
# Youngs Moduli (GPa) = 110.76498 61.23672 75.79598
#
# Poissons Ratio (x) = 0.52024 -0.33835
# Poissons Ratio (y) = 0.94100 0.58598
# Poissons Ratio (z) = -0.49445 0.47342
#
# Static dielectric constant tensor:
#      x y z
#    x 3.474880 0.000000 -0.123170 
#    y 0.000000 3.151500 -0.000010 
#    z -0.123170 -0.000010 3.044960 
# 
# 
# High freq. dielectric constant tensor:
#      x y z
#    x 1.712000 0.000000 -0.007970 
#    y 0.000000 1.693310 0.000000 
#    z -0.007970 0.000000 1.684030 
# 
# From -- ./inp_files/109287.got.cif
#   From: 2010.06.25/outbox.cif.g09.slc.cpg/sg12_55_cif.got.tgz:109287.got - 2010.06.28 00:19:55.
