data_PCOD8114181
_publ_section_title
;
Structure prediction by ZEFSAII (Michael W. Deem and Ramdas Pophale) SiO2 
 PCOD8114181
Probable space group: C 2/M
;
_chemical_formula_sum "Si O2"
_cell_formula_units_Z 56
_cell_length_a 28.854507
_cell_length_b 8.862039
_cell_length_c 20.262010
_cell_angle_alpha 90.000000
_cell_angle_beta 32.415679
_cell_angle_gamma 90.000000
_cell_volume 2777.419504
_symmetry_space_group_name_H-M "C 2/M"
_symmetry_group_IT_number 12
_symmetry_cell_setting 'monoclinic'
loop_
_space_group_symop_operation_xyz
x,y,z
-x,y,-z
-x,-y,-z
x,-y,z
1/2+x,1/2+y,z
1/2-x,1/2+y,-z
1/2-x,1/2-y,-z
1/2+x,1/2-y,z
loop_
_atom_site_type_symbol
_atom_site_label
_atom_site_fract_x
_atom_site_fract_y
_atom_site_fract_z
Si Si1 0.361907 0.826031 0.459140
Si Si2 0.236941 0.822154 0.809805
Si Si3 0.702800 0.178031 0.717557
Si Si4 0.409819 0.323499 0.640478
Si Si5 0.555788 0.171299 0.268375
Si Si6 0.078905 0.321070 0.751960
Si Si7 0.391990 0.823268 0.940604
O O1 0.295432 0.720300 0.576866
O O2 0.453594 0.806934 0.384263
O O3 0.368943 0.765644 0.375458
O O4 0.330990 0.000000 0.499379
O O5 0.186752 0.757041 0.806730
O O6 0.334790 0.762947 0.691773
O O7 0.238129 0.000000 0.804347
O O8 0.188349 0.768740 0.934109
O O9 0.627214 0.235927 0.759367
O O10 0.697644 0.000000 0.733539
O O11 0.500000 0.271684 0.500000
O O12 0.393816 0.500000 0.651073
O O13 0.407737 0.282766 0.720190
O O14 0.603490 0.210132 0.142663
O O15 0.576738 0.000000 0.264311
O O16 0.075769 0.500000 0.750670
O O17 0.980072 0.263180 0.869611
O O18 0.378160 0.000000 0.970943
#
# Coordination Sequence:
#
# PCOD8114181 Si02
#       7
#     8   8   8   8   8   8   8
#     4   9  17  33  56  85 118 149 185 227 276 334
#     4  12  26  41  57  80 112 149 188 232 282 332
#     4  11  21  34  54  82 115 152 192 232 279 329
#     4  11  24  41  62  88 115 144 182 226 273 330
#     4   9  19  36  61  87 113 148 184 226 280 332
#     4   8  17  34  58  84 112 150 190 229 276 331
#     4   9  19  40  63  83 110 146 191 233 272 326
#
# _framework density 20.162602
#
# number of rings (size 3 to 8) (size 9 to 14) (size 15 to 20)
#    0.000    2.143    0.000    5.143    0.000    5.714 
#    0.000    7.143    0.000    0.000    0.000    0.000 
#    0.000    0.000    0.000    0.000    0.000    0.000 
#
# Total GULP energy -347278.987259 kJ/mol
# GULP energy per Si atom -12402.820974 kJ/mol
# Density = 2.011671 g / cm^3
# Si number density = 20.162602 Si / 1000 Ang^3
#
#
#
# Elastic Constant Matrix: (Units=GPa)
#
#
# Indices 1 2 3 4 5 6 
#
# 1 99.3412 31.2589 19.0654 0.0038 12.8324 0.0014
# 2 31.2589 76.2533 27.1114 0.0170 5.8421 -0.0023
# 3 19.0654 27.1114 85.4825 0.0137 8.8022 -0.0030
# 4 0.0038 0.0170 0.0137 30.0446 -0.0031 4.7202
# 5 12.8324 5.8421 8.8022 -0.0031 20.8537 -0.0019
# 6 0.0014 -0.0023 -0.0030 4.7202 -0.0019 31.2403
#
#
#
# Elastic Compliance Matrix: (Units=1/GPa)
#
#
# Indices 1 2 3 4 5 6 
#
# 1 0.012359 -0.004332 -0.000757 0.000001 -0.006072 -0.000001
# 2 -0.004332 0.016402 -0.004221 -0.000007 -0.000148 0.000002
# 3 -0.000757 -0.004221 0.013628 -0.000004 -0.004104 0.000001
# 4 0.000001 -0.000007 -0.000004 0.034093 0.000008 -0.005151
# 5 -0.006072 -0.000148 -0.004104 0.000008 0.053463 0.000002
# 6 -0.000001 0.000002 0.000001 -0.005151 0.000002 0.032788
#
#
# Mechanical properties :
#
#
# Convention : Reuss Voigt Hill
#
# Bulk Modulus (GPa) = 42.07044 46.21647 44.14346
# Shear Modulus (GPa) = 26.41627 28.67047 27.54337
#
# Velocity S-wave (km/s) = 3.62354 3.77498 3.70004
# Velocity P-wave (km/s) = 6.19820 6.47860 6.33995
#
# Compressibility (1/GPa) = 0.02376966
#
# Stress axis : x y z
#
# Youngs Moduli (GPa) = 80.91188 60.96841 73.37618
#
# Poissons Ratio (x) = 0.26411 0.05557
# Poissons Ratio (y) = 0.35051 0.30969
# Poissons Ratio (z) = 0.06128 0.25732
#
# Static dielectric constant tensor:
#      x y z
#    x 3.829420 -0.000010 0.015910 
#    y -0.000010 3.397840 0.000010 
#    z 0.015910 0.000010 3.615640 
# 
# 
# High freq. dielectric constant tensor:
#      x y z
#    x 1.796240 0.000000 0.004190 
#    y 0.000000 1.767600 0.000000 
#    z 0.004190 0.000000 1.787120 
# 
# From -- ./inp_files/329507.got.cif
#   From: 2010.06.25/outbox.cif.g09.slc.cpg/sg12_165_cif.got.tgz:329507.got - 2010.06.28 00:19:55.
