data_PCOD8114152
_publ_section_title
;
Structure prediction by ZEFSAII (Michael W. Deem and Ramdas Pophale) SiO2 
 PCOD8114152
Probable space group: C 2/M
;
_chemical_formula_sum "Si O2"
_cell_formula_units_Z 64
_cell_length_a 15.255080
_cell_length_b 28.117569
_cell_length_c 12.508948
_cell_angle_alpha 90.000000
_cell_angle_beta 138.955008
_cell_angle_gamma 90.000000
_cell_volume 3523.286553
_symmetry_space_group_name_H-M "C 2/M"
_symmetry_group_IT_number 12
_symmetry_cell_setting 'monoclinic'
loop_
_space_group_symop_operation_xyz
x,y,z
-x,y,-z
-x,-y,-z
x,-y,z
1/2+x,1/2+y,z
1/2-x,1/2+y,-z
1/2-x,1/2-y,-z
1/2+x,1/2-y,z
loop_
_atom_site_type_symbol
_atom_site_label
_atom_site_fract_x
_atom_site_fract_y
_atom_site_fract_z
Si Si1 0.481346 0.700167 0.271590
Si Si2 0.864404 0.670236 0.893017
Si Si3 0.172032 0.552971 0.264277
Si Si4 0.129324 0.445960 0.974503
Si Si5 0.779238 0.650878 0.032138
Si Si6 0.111121 0.230098 0.178772
Si Si7 0.880258 0.290211 0.313507
Si Si8 0.126306 0.127207 0.555056
O O1 0.580152 0.721830 0.274342
O O2 0.408535 0.741031 0.275304
O O3 0.578121 0.668900 0.434006
O O4 0.375518 0.666637 0.112910
O O5 0.894372 0.713780 0.843440
O O6 0.722853 0.647936 0.734693
O O7 0.854332 0.681456 0.009422
O O8 0.000000 0.637465 0.000000
O O9 0.221127 0.500000 0.332112
O O10 0.284779 0.586920 0.422186
O O11 0.029100 0.561157 0.187578
O O12 0.167549 0.562328 0.132883
O O13 0.169446 0.500000 0.976554
O O14 0.205500 0.406171 0.973381
O O15 0.849555 0.666086 0.206402
O O16 0.257253 0.213379 0.281252
O O17 0.000000 0.205378 0.000000
O O18 0.000000 0.305083 0.500000
O O19 0.000000 0.104089 0.500000
#
# Coordination Sequence:
#
# PCOD8114152 Si02
#       8
#     8   8   8   8   8   8   8   8
#     4  12  24  39  58  83 122 162 199 240 294 350
#     4  11  21  33  56  80 110 153 197 234 277 348
#     4   9  18  33  53  83 120 150 184 238 296 358
#     4   9  18  34  59  87 115 149 194 243 293 354
#     4  12  21  38  61  82 115 160 195 240 297 351
#     4  11  22  38  57  78 113 160 196 237 294 336
#     4  12  25  40  57  86 119 152 206 256 282 340
#     4  12  21  34  53  84 118 154 192 238 288 350
#
# _framework density 18.164857000000001
#
# number of rings (size 3 to 8) (size 9 to 14) (size 15 to 20)
#    0.000    1.000    5.000    4.500    0.000    4.250 
#    0.000    0.625    0.000    0.375    0.000    2.625 
#    0.000    0.000    0.000    0.000    0.000    0.000 
#
# Total GULP energy -396481.347856 kJ/mol
# GULP energy per Si atom -12390.042120 kJ/mol
# Density = 1.812351 g / cm^3
# Si number density = 18.164857 Si / 1000 Ang^3
#
#
#
# Elastic Constant Matrix: (Units=GPa)
#
#
# Indices 1 2 3 4 5 6 
#
# 1 102.8033 36.1317 34.3319 0.0000 11.4149 0.0000
# 2 36.1317 111.3547 28.8635 0.0000 0.2778 0.0000
# 3 34.3319 28.8635 97.3260 0.0000 16.2357 0.0000
# 4 0.0000 0.0000 0.0000 26.0057 0.0000 2.0444
# 5 11.4149 0.2778 16.2357 0.0000 29.3771 0.0000
# 6 0.0000 0.0000 0.0000 2.0444 0.0000 24.4579
#
#
#
# Elastic Compliance Matrix: (Units=1/GPa)
#
#
# Indices 1 2 3 4 5 6 
#
# 1 0.012139 -0.003203 -0.002809 0.000000 -0.003134 0.000000
# 2 -0.003203 0.010647 -0.002444 0.000000 0.002494 0.000000
# 3 -0.002809 -0.002444 0.013003 0.000000 -0.006072 0.000000
# 4 0.000000 0.000000 0.000000 0.038707 0.000000 -0.003236
# 5 -0.003134 0.002494 -0.006072 0.000000 0.038590 0.000000
# 6 0.000000 0.000000 0.000000 -0.003236 0.000000 0.041157
#
#
# Mechanical properties :
#
#
# Convention : Reuss Voigt Hill
#
# Bulk Modulus (GPa) = 52.97391 56.68201 54.82796
# Shear Modulus (GPa) = 28.17722 30.11194 29.14458
#
# Velocity S-wave (km/s) = 3.94279 4.07591 4.00990
# Velocity P-wave (km/s) = 7.06779 7.30908 7.18945
#
# Compressibility (1/GPa) = 0.01887722
#
# Stress axis : x y z
#
# Youngs Moduli (GPa) = 82.37771 93.92538 76.90286
#
# Poissons Ratio (x) = 0.30082 0.21606
# Poissons Ratio (y) = 0.26384 0.18793
# Poissons Ratio (z) = 0.23144 0.22953
#
# Static dielectric constant tensor:
#      x y z
#    x 3.385200 0.000000 0.367180 
#    y 0.000000 3.475370 0.000000 
#    z 0.367180 0.000000 3.496680 
# 
# 
# High freq. dielectric constant tensor:
#      x y z
#    x 1.690870 0.000000 0.028640 
#    y 0.000000 1.691560 0.000000 
#    z 0.028640 0.000000 1.700730 
# 
# From -- ./inp_files/150299.got.cif
#   From: 2010.06.25/outbox.cif.g09.slc.cpg/sg12_76_cif.got.tgz:150299.got - 2010.06.28 00:19:55.
