data_PCOD8114263
_publ_section_title
;
Structure prediction by ZEFSAII (Michael W. Deem and Ramdas Pophale) SiO2 
 PCOD8114263
Probable space group: C 2/M
;
_chemical_formula_sum "Si O2"
_cell_formula_units_Z 48
_cell_length_a 29.557207
_cell_length_b 8.611983
_cell_length_c 10.024756
_cell_angle_alpha 90.000000
_cell_angle_beta 80.151120
_cell_angle_gamma 90.000000
_cell_volume 2514.156147
_symmetry_space_group_name_H-M "C 2/M"
_symmetry_group_IT_number 12
_symmetry_cell_setting 'monoclinic'
loop_
_space_group_symop_operation_xyz
x,y,z
-x,y,-z
-x,-y,-z
x,-y,z
1/2+x,1/2+y,z
1/2-x,1/2+y,-z
1/2-x,1/2-y,-z
1/2+x,1/2-y,z
loop_
_atom_site_type_symbol
_atom_site_label
_atom_site_fract_x
_atom_site_fract_y
_atom_site_fract_z
Si Si1 0.717165 0.183779 0.628299
Si Si2 0.234365 0.315990 0.147340
Si Si3 0.119292 0.684370 0.571783
Si Si4 0.954931 0.684857 0.187113
Si Si5 0.056935 0.684686 0.103233
Si Si6 0.367478 0.814738 0.731733
O O1 0.750000 0.250000 0.500000
O O2 0.729488 0.254532 0.764041
O O3 0.665735 0.237285 0.620806
O O4 0.721902 0.000000 0.629764
O O5 0.235174 0.500000 0.144458
O O6 0.183379 0.254245 0.207649
O O7 0.250000 0.250000 0.000000
O O8 0.116559 0.500000 0.568552
O O9 0.076660 0.753259 0.678364
O O10 0.118068 0.749325 0.421348
O O11 0.953245 0.500000 0.189788
O O12 0.007249 0.742058 0.181820
O O13 0.936045 0.742586 0.052544
O O14 0.058603 0.500000 0.106532
O O15 0.096817 0.753632 0.177574
O O16 0.368113 0.000000 0.732018
#
# Coordination Sequence:
#
# PCOD8114263 Si02
#       6
#     8   8   8   8   8   8
#     4  11  21  36  56  78 108 145 179 219 265 313
#     4  11  23  38  54  78 108 141 181 222 266 318
#     4   9  17  28  44  68  97 132 170 208 257 310
#     4   8  14  24  39  62  92 128 168 205 253 314
#     4   8  14  24  39  61  93 130 165 206 255 309
#     4   9  17  29  44  66  98 132 167 211 260 308
#
# _framework density 19.091894
#
# number of rings (size 3 to 8) (size 9 to 14) (size 15 to 20)
#    0.000    2.667    1.667    2.000    2.333    0.667 
#    0.000    3.333    0.000    0.000    0.000    0.000 
#    0.000    8.000    0.000    0.000    0.000    0.000 
#
# Total GULP energy -297514.136959 kJ/mol
# GULP energy per Si atom -12396.422373 kJ/mol
# Density = 1.904844 g / cm^3
# Si number density = 19.091894 Si / 1000 Ang^3
#
#
#
# Elastic Constant Matrix: (Units=GPa)
#
#
# Indices 1 2 3 4 5 6 
#
# 1 122.7362 9.2869 78.8059 0.0000 2.7059 0.0000
# 2 9.2869 23.1852 11.2415 0.0000 1.3128 0.0000
# 3 78.8059 11.2415 168.2111 0.0000 -2.5649 0.0000
# 4 0.0000 0.0000 0.0000 21.0684 0.0000 1.0713
# 5 2.7059 1.3128 -2.5649 0.0000 46.6681 0.0000
# 6 0.0000 0.0000 0.0000 1.0713 0.0000 16.3726
#
#
#
# Elastic Compliance Matrix: (Units=1/GPa)
#
#
# Indices 1 2 3 4 5 6 
#
# 1 0.011791 -0.002052 -0.005401 0.000000 -0.000923 0.000000
# 2 -0.002052 0.045027 -0.002067 0.000000 -0.001261 0.000000
# 3 -0.005401 -0.002067 0.008626 0.000000 0.000845 0.000000
# 4 0.000000 0.000000 0.000000 0.047623 0.000000 -0.003116
# 5 -0.000923 -0.001261 0.000845 0.000000 0.021563 0.000000
# 6 0.000000 0.000000 0.000000 -0.003116 0.000000 0.061282
#
#
# Mechanical properties :
#
#
# Convention : Reuss Voigt Hill
#
# Bulk Modulus (GPa) = 21.54991 56.97791 39.26391
# Shear Modulus (GPa) = 21.69954 31.14170 26.42062
#
# Velocity S-wave (km/s) = 3.37498 4.04313 3.72407
# Velocity P-wave (km/s) = 5.14775 7.19060 6.25316
#
# Compressibility (1/GPa) = 0.04640391
#
# Stress axis : x y z
#
# Youngs Moduli (GPa) = 84.81068 22.20912 115.92534
#
# Poissons Ratio (x) = 0.04557 0.62610
# Poissons Ratio (y) = 0.17403 0.23962
# Poissons Ratio (z) = 0.45806 0.04591
#
# Static dielectric constant tensor:
#      x y z
#    x 3.656350 0.000000 -0.096370 
#    y 0.000000 2.881560 0.000000 
#    z -0.096370 0.000000 3.806670 
# 
# 
# High freq. dielectric constant tensor:
#      x y z
#    x 1.752890 0.000000 0.000180 
#    y 0.000000 1.676250 0.000000 
#    z 0.000180 0.000000 1.757460 
# 
# From -- ./inp_files/108586.got.cif
#   From: 2010.06.25/outbox.cif.g09.slc.cpg/sg12_55_cif.got.tgz:108586.got - 2010.06.28 00:19:55.
