data_PCOD8114054
_publ_section_title
;
Structure prediction by ZEFSAII (Michael W. Deem and Ramdas Pophale) SiO2 
 PCOD8114054
Probable space group: C 2/M
;
_chemical_formula_sum "Si O2"
_cell_formula_units_Z 48
_cell_length_a 22.017788
_cell_length_b 10.719062
_cell_length_c 14.654097
_cell_angle_alpha 90.000000
_cell_angle_beta 41.062747
_cell_angle_gamma 90.000000
_cell_volume 2271.846447
_symmetry_space_group_name_H-M "C 2/M"
_symmetry_group_IT_number 12
_symmetry_cell_setting 'monoclinic'
loop_
_space_group_symop_operation_xyz
x,y,z
-x,y,-z
-x,-y,-z
x,-y,z
1/2+x,1/2+y,z
1/2-x,1/2+y,-z
1/2-x,1/2-y,-z
1/2+x,1/2-y,z
loop_
_atom_site_type_symbol
_atom_site_label
_atom_site_fract_x
_atom_site_fract_y
_atom_site_fract_z
Si Si1 0.495003 0.216651 0.759856
Si Si2 0.664028 0.000000 0.297622
Si Si3 0.210520 0.642369 0.981007
Si Si4 0.504518 0.000000 0.621408
Si Si5 0.585752 0.145788 0.835574
Si Si6 0.950000 0.855864 0.466302
Si Si7 0.262474 0.739157 0.735785
O O1 0.563500 0.221579 0.768053
O O2 0.495528 0.338636 0.692797
O O3 0.534943 0.118696 0.643381
O O4 0.396864 0.174314 0.910883
O O5 0.570537 0.000000 0.460830
O O6 0.609229 0.000000 0.262247
O O7 0.729858 0.881521 0.237637
O O8 0.226197 0.500000 0.999446
O O9 0.259660 0.649640 0.827173
O O10 0.250000 0.750000 0.000000
O O11 0.671134 0.220846 0.780099
O O12 0.609374 0.000000 0.789622
O O13 0.500000 0.155134 0.000000
O O14 0.848681 0.795598 0.574625
O O15 0.000000 0.795789 0.500000
O O16 0.938734 0.000000 0.497066
#
# Coordination Sequence:
#
# PCOD8114054 Si02
#       7
#     8   4   8   4   8   8   8
#     4  12  23  42  70 100 128 181 232 283 337 411
#     4  11  24  42  69 104 142 177 218 293 356 410
#     4  12  25  41  68 101 136 177 234 292 350 414
#     4  11  20  42  71  98 132 171 228 281 342 408
#     4  11  23  45  68  93 133 182 239 284 331 411
#     4  11  24  44  68 102 141 175 217 283 357 420
#     4  12  25  43  69  99 136 182 231 277 348 412
#
# _framework density 21.12819
#
# number of rings (size 3 to 8) (size 9 to 14) (size 15 to 20)
#    0.000    0.500    5.000    4.500    1.167    2.667 
#    1.500    0.417    0.000    0.000    0.000    0.000 
#    0.000    0.000    0.000    0.000    0.000    0.000 
#
# Total GULP energy -297478.827332 kJ/mol
# GULP energy per Si atom -12394.951139 kJ/mol
# Density = 2.108010 g / cm^3
# Si number density = 21.128190 Si / 1000 Ang^3
#
#
#
# Elastic Constant Matrix: (Units=GPa)
#
#
# Indices 1 2 3 4 5 6 
#
# 1 162.2241 54.4472 26.3345 0.0000 2.0271 0.0000
# 2 54.4472 106.6344 31.9093 0.0000 -5.8937 0.0000
# 3 26.3345 31.9093 74.7978 0.0000 -0.8658 0.0000
# 4 0.0000 0.0000 0.0000 27.9042 0.0000 -5.9818
# 5 2.0271 -5.8937 -0.8658 0.0000 35.9916 0.0000
# 6 0.0000 0.0000 0.0000 -5.9818 0.0000 28.5858
#
#
#
# Elastic Compliance Matrix: (Units=1/GPa)
#
#
# Indices 1 2 3 4 5 6 
#
# 1 0.007564 -0.003576 -0.001150 0.000000 -0.001039 0.000000
# 2 -0.003576 0.012539 -0.004066 0.000000 0.002157 0.000000
# 3 -0.001150 -0.004066 0.015506 0.000000 -0.000228 0.000000
# 4 0.000000 0.000000 0.000000 0.037520 0.000000 0.007851
# 5 -0.001039 0.002157 -0.000228 0.000000 0.028191 0.000000
# 6 0.000000 0.000000 0.000000 0.007851 0.000000 0.036625
#
#
# Mechanical properties :
#
#
# Convention : Reuss Voigt Hill
#
# Bulk Modulus (GPa) = 55.47073 63.22650 59.34862
# Shear Modulus (GPa) = 30.95289 33.89402 32.42346
#
# Velocity S-wave (km/s) = 3.83169 4.00960 3.92166
# Velocity P-wave (km/s) = 6.77401 7.17119 6.97543
#
# Compressibility (1/GPa) = 0.01802753
#
# Stress axis : x y z
#
# Youngs Moduli (GPa) = 132.20521 79.74944 64.49146
#
# Poissons Ratio (x) = 0.28515 0.07415
# Poissons Ratio (y) = 0.47270 0.26219
# Poissons Ratio (z) = 0.15201 0.32422
#
# Static dielectric constant tensor:
#      x y z
#    x 3.836070 0.000000 0.060790 
#    y 0.000000 3.666260 0.000000 
#    z 0.060790 0.000000 3.924790 
# 
# 
# High freq. dielectric constant tensor:
#      x y z
#    x 1.823160 0.000000 0.006700 
#    y 0.000000 1.824220 0.000000 
#    z 0.006700 0.000000 1.837590 
# 
# From -- ./inp_files/232835.got.cif
#   From: 2010.06.25/outbox.cif.g09.slc.cpg/sg12_117_cif.got.tgz:232835.got - 2010.06.28 00:19:55.
