data_PCOD8114350
_publ_section_title
;
Structure prediction by ZEFSAII (Michael W. Deem and Ramdas Pophale) SiO2 
 PCOD8114350
Probable space group: C 2/M
;
_chemical_formula_sum "Si O2"
_cell_formula_units_Z 52
_cell_length_a 13.706885
_cell_length_b 20.559438
_cell_length_c 12.076359
_cell_angle_alpha 90.000000
_cell_angle_beta 129.194271
_cell_angle_gamma 90.000000
_cell_volume 2637.497338
_symmetry_space_group_name_H-M "C 2/M"
_symmetry_group_IT_number 12
_symmetry_cell_setting 'monoclinic'
loop_
_space_group_symop_operation_xyz
x,y,z
-x,y,-z
-x,-y,-z
x,-y,z
1/2+x,1/2+y,z
1/2-x,1/2+y,-z
1/2-x,1/2-y,-z
1/2+x,1/2-y,z
loop_
_atom_site_type_symbol
_atom_site_label
_atom_site_fract_x
_atom_site_fract_y
_atom_site_fract_z
Si Si1 0.794085 0.317574 0.478334
Si Si2 0.836683 0.886922 0.286435
Si Si3 0.000000 0.743709 0.000000
Si Si4 0.275194 0.762920 0.230732
Si Si5 0.103319 0.572470 0.989292
Si Si6 0.034623 0.677534 0.792931
Si Si7 0.613286 0.575678 0.435329
O O1 0.750000 0.250000 0.500000
O O2 0.818159 0.306003 0.365707
O O3 0.695901 0.377056 0.417369
O O4 0.921959 0.338388 0.629108
O O5 0.791049 0.813072 0.270070
O O6 0.833679 0.922039 0.402512
O O7 0.973876 0.893673 0.330509
O O8 0.741435 0.924774 0.139734
O O9 0.132311 0.782671 0.092574
O O10 0.012879 0.705716 0.124828
O O11 0.364872 0.775428 0.191283
O O12 0.064018 0.500000 0.931880
O O13 0.102562 0.610028 0.872120
O O14 0.000000 0.602449 0.000000
O O15 0.615708 0.500000 0.396859
#
# Coordination Sequence:
#
# PCOD8114350 Si02
#       7
#     8   8   4   8   8   8   8
#     4  12  23  42  62  91 131 173 217 262 326 390
#     4  11  21  37  61  94 127 163 219 274 328 380
#     4  12  22  40  61  94 127 162 208 264 334 382
#     4  12  25  39  65  95 133 171 213 276 322 388
#     4  11  22  38  60  88 124 166 210 267 326 384
#     4  12  24  40  61  97 127 166 217 265 327 386
#     4  11  23  38  62  94 129 171 218 272 328 387
#
# _framework density 19.715658999999999
#
# number of rings (size 3 to 8) (size 9 to 14) (size 15 to 20)
#    0.000    0.462    5.385    4.615    2.154    1.846 
#    0.000    0.769    0.000    1.846    0.000    3.231 
#    0.000    0.000    0.000    0.000    0.000    0.000 
#
# Total GULP energy -322336.873313 kJ/mol
# GULP energy per Si atom -12397.572050 kJ/mol
# Density = 1.967079 g / cm^3
# Si number density = 19.715659 Si / 1000 Ang^3
#
#
#
# Elastic Constant Matrix: (Units=GPa)
#
#
# Indices 1 2 3 4 5 6 
#
# 1 89.1911 33.2423 28.8476 0.0000 8.2084 0.0000
# 2 33.2423 82.6922 23.1929 0.0000 -1.1965 0.0000
# 3 28.8476 23.1929 113.2886 0.0000 19.7138 0.0000
# 4 0.0000 0.0000 0.0000 22.9209 0.0000 -3.7200
# 5 8.2084 -1.1965 19.7138 0.0000 33.7713 0.0000
# 6 0.0000 0.0000 0.0000 -3.7200 0.0000 28.0267
#
#
#
# Elastic Compliance Matrix: (Units=1/GPa)
#
#
# Indices 1 2 3 4 5 6 
#
# 1 0.014002 -0.005068 -0.002120 0.000000 -0.002346 0.000000
# 2 -0.005068 0.014815 -0.002280 0.000000 0.003087 0.000000
# 3 -0.002120 -0.002280 0.010861 0.000000 -0.005906 0.000000
# 4 0.000000 0.000000 0.000000 0.044589 0.000000 0.005918
# 5 -0.002346 0.003087 -0.005906 0.000000 0.033738 0.000000
# 6 0.000000 0.000000 0.000000 0.005918 0.000000 0.036466
#
#
# Mechanical properties :
#
#
# Convention : Reuss Voigt Hill
#
# Bulk Modulus (GPa) = 48.20972 50.63748 49.42360
# Shear Modulus (GPa) = 27.72849 30.26974 28.99911
#
# Velocity S-wave (km/s) = 3.75429 3.92256 3.83935
# Velocity P-wave (km/s) = 6.58016 6.80110 6.69154
#
# Compressibility (1/GPa) = 0.02074271
#
# Stress axis : x y z
#
# Youngs Moduli (GPa) = 71.41645 67.50121 92.07146
#
# Poissons Ratio (x) = 0.34212 0.19517
# Poissons Ratio (y) = 0.36196 0.20988
# Poissons Ratio (z) = 0.15139 0.15387
#
# Static dielectric constant tensor:
#      x y z
#    x 3.605030 0.000000 0.115580 
#    y 0.000000 3.552320 0.000000 
#    z 0.115580 0.000000 3.872670 
# 
# 
# High freq. dielectric constant tensor:
#      x y z
#    x 1.763490 0.000000 0.019000 
#    y 0.000000 1.753220 0.000000 
#    z 0.019000 0.000000 1.777430 
# 
# From -- ./inp_files/147728.got.cif
#   From: 2010.06.25/outbox.cif.g09.slc.cpg/sg12_74_cif.got.tgz:147728.got - 2010.06.28 00:19:55.
