data_PCOD8114850
_publ_section_title
;
Structure prediction by ZEFSAII (Michael W. Deem and Ramdas Pophale) SiO2 
 PCOD8114850
Probable space group: C 2/M
;
_chemical_formula_sum "Si O2"
_cell_formula_units_Z 48
_cell_length_a 27.024071
_cell_length_b 8.622427
_cell_length_c 15.321362
_cell_angle_alpha 90.000000
_cell_angle_beta 139.023444
_cell_angle_gamma 90.000000
_cell_volume 2341.079070
_symmetry_space_group_name_H-M "C 2/M"
_symmetry_group_IT_number 12
_symmetry_cell_setting 'monoclinic'
loop_
_space_group_symop_operation_xyz
x,y,z
-x,y,-z
-x,-y,-z
x,-y,z
1/2+x,1/2+y,z
1/2-x,1/2+y,-z
1/2-x,1/2-y,-z
1/2+x,1/2-y,z
loop_
_atom_site_type_symbol
_atom_site_label
_atom_site_fract_x
_atom_site_fract_y
_atom_site_fract_z
Si Si1 0.780311 0.819349 0.784773
Si Si2 0.441158 0.182124 0.996071
Si Si3 0.711025 0.682531 0.864031
Si Si4 0.542190 0.684412 0.640150
Si Si5 0.028226 0.816393 0.272625
Si Si6 0.807055 0.682261 0.506232
O O1 0.755609 0.726446 0.836776
O O2 0.723238 0.779165 0.630533
O O3 0.779881 0.000000 0.806223
O O4 0.864033 0.768698 0.869360
O O5 0.472554 0.236062 0.130525
O O6 0.425671 0.000000 0.977460
O O7 0.500000 0.229405 0.000000
O O8 0.709401 0.500000 0.870595
O O9 0.626669 0.751101 0.749714
O O10 0.750000 0.750000 0.000000
O O11 0.500000 0.754446 0.500000
O O12 0.543008 0.500000 0.637413
O O13 0.499017 0.740895 0.668911
O O14 0.113560 0.764241 0.372088
O O15 0.022038 0.000000 0.253260
O O16 0.816266 0.500000 0.533639
O O17 0.750000 0.750000 0.500000
#
# Coordination Sequence:
#
# PCOD8114850 Si02
#       6
#     8   8   8   8   8   8
#     4  11  24  41  61  88 122 160 203 251 305 362
#     4  11  24  41  62  88 119 157 202 251 304 363
#     4  11  22  38  62  89 120 158 200 249 302 359
#     4   9  19  36  58  85 115 150 193 237 285 345
#     4  11  22  38  63  91 121 157 197 245 301 361
#     4  11  24  41  62  89 122 159 202 252 304 361
#
# _framework density 20.503364000000001
#
# number of rings (size 3 to 8) (size 9 to 14) (size 15 to 20)
#    0.000    1.333    0.000    5.500    0.000    9.333 
#    0.000    2.500    0.000    6.000    0.000    0.000 
#    0.000    0.000    0.000    0.000    0.000    0.000 
#
# Total GULP energy -297747.871676 kJ/mol
# GULP energy per Si atom -12406.161320 kJ/mol
# Density = 2.045670 g / cm^3
# Si number density = 20.503364 Si / 1000 Ang^3
#
#
#
# Elastic Constant Matrix: (Units=GPa)
#
#
# Indices 1 2 3 4 5 6 
#
# 1 99.0636 17.8401 13.3168 0.0000 0.4858 0.0000
# 2 17.8401 32.5775 28.4836 0.0000 -3.0567 0.0000
# 3 13.3168 28.4836 98.7769 0.0000 4.6071 0.0000
# 4 0.0000 0.0000 0.0000 35.7451 0.0000 1.8691
# 5 0.4858 -3.0567 4.6071 0.0000 45.8788 0.0000
# 6 0.0000 0.0000 0.0000 1.8691 0.0000 29.9240
#
#
#
# Elastic Compliance Matrix: (Units=1/GPa)
#
#
# Indices 1 2 3 4 5 6 
#
# 1 0.011224 -0.006557 0.000405 0.000000 -0.000596 0.000000
# 2 -0.006557 0.045597 -0.012468 0.000000 0.004359 0.000000
# 3 0.000405 -0.012468 0.013768 0.000000 -0.002218 0.000000
# 4 0.000000 0.000000 0.000000 0.028068 0.000000 -0.001753
# 5 -0.000596 0.004359 -0.002218 0.000000 0.022316 0.000000
# 6 0.000000 0.000000 0.000000 -0.001753 0.000000 0.033527
#
#
# Mechanical properties :
#
#
# Convention : Reuss Voigt Hill
#
# Bulk Modulus (GPa) = 29.98499 38.85544 34.42022
# Shear Modulus (GPa) = 24.64823 33.69473 29.17148
#
# Velocity S-wave (km/s) = 3.47097 4.05825 3.77605
# Velocity P-wave (km/s) = 5.54254 6.39931 5.98627
#
# Compressibility (1/GPa) = 0.03335002
#
# Stress axis : x y z
#
# Youngs Moduli (GPa) = 89.09685 21.93141 72.63297
#
# Poissons Ratio (x) = 0.14380 -0.02944
# Poissons Ratio (y) = 0.58419 0.90557
# Poissons Ratio (z) = -0.03612 0.27344
#
# Static dielectric constant tensor:
#      x y z
#    x 3.861170 0.000000 0.048310 
#    y 0.000000 3.644080 0.000000 
#    z 0.048310 0.000000 3.913400 
# 
# 
# High freq. dielectric constant tensor:
#      x y z
#    x 1.819260 0.000000 0.000740 
#    y 0.000000 1.796680 0.000000 
#    z 0.000740 0.000000 1.821800 
# 
# From -- ./inp_files/244868.got.cif
#   From: 2010.06.25/outbox.cif.g09.slc.cpg/sg12_123_cif.got.tgz:244868.got - 2010.06.28 00:19:55.
