data_PCOD8114420
_publ_section_title
;
Structure prediction by ZEFSAII (Michael W. Deem and Ramdas Pophale) SiO2 
 PCOD8114420
Probable space group: C 2/M
;
_chemical_formula_sum "Si O2"
_cell_formula_units_Z 40
_cell_length_a 9.274131
_cell_length_b 18.587443
_cell_length_c 24.663061
_cell_angle_alpha 90.000000
_cell_angle_beta 150.995769
_cell_angle_gamma 90.000000
_cell_volume 2061.431621
_symmetry_space_group_name_H-M "C 2/M"
_symmetry_group_IT_number 12
_symmetry_cell_setting 'monoclinic'
loop_
_space_group_symop_operation_xyz
x,y,z
-x,y,-z
-x,-y,-z
x,-y,z
1/2+x,1/2+y,z
1/2-x,1/2+y,-z
1/2-x,1/2-y,-z
1/2+x,1/2-y,z
loop_
_atom_site_type_symbol
_atom_site_label
_atom_site_fract_x
_atom_site_fract_y
_atom_site_fract_z
Si Si1 0.719315 0.580449 0.521747
Si Si2 0.832367 0.583168 0.089482
Si Si3 0.263858 0.821177 0.969031
Si Si4 0.232490 0.168511 0.689649
Si Si5 0.877904 0.685196 0.286787
O O1 0.500000 0.575429 0.500000
O O2 0.813687 0.500000 0.534547
O O3 0.555043 0.620239 0.418214
O O4 0.012434 0.624512 0.635113
O O5 0.917334 0.500000 0.117415
O O6 0.049804 0.623281 0.201371
O O7 0.500000 0.597454 0.000000
O O8 0.868524 0.612473 0.040442
O O9 0.947202 0.839008 0.838809
O O10 0.500000 0.807614 0.000000
O O11 0.250000 0.750000 0.000000
O O12 0.119870 0.238263 0.683624
O O13 0.401852 0.192655 0.691345
#
# Coordination Sequence:
#
# PCOD8114420 Si02
#       5
#     8   8   8   8   8
#     4   9  20  38  60  87 117 154 200 246 295 350
#     4  11  23  39  61  89 121 159 201 246 303 360
#     4  12  23  39  62  90 124 159 199 244 297 355
#     4  11  21  38  62  91 118 156 199 249 297 352
#     4  11  22  36  63  89 118 156 201 245 294 353
#
# _framework density 19.403991999999999
#
# number of rings (size 3 to 8) (size 9 to 14) (size 15 to 20)
#    0.000    1.200    4.000    3.000    0.000    2.000 
#    0.000    0.000    0.000    1.200    0.000    0.000 
#    0.000    0.000    0.000    0.000    0.000    0.000 
#
# Total GULP energy -248094.838118 kJ/mol
# GULP energy per Si atom -12404.741906 kJ/mol
# Density = 1.935983 g / cm^3
# Si number density = 19.403992 Si / 1000 Ang^3
#
#
#
# Elastic Constant Matrix: (Units=GPa)
#
#
# Indices 1 2 3 4 5 6 
#
# 1 101.7591 62.9887 39.4430 -0.0043 -7.7535 0.0102
# 2 62.9887 177.3616 95.9309 -0.0140 -15.1433 0.0141
# 3 39.4430 95.9309 167.5507 -0.0562 -16.2665 0.0598
# 4 -0.0043 -0.0140 -0.0562 50.2801 -0.0060 -35.4825
# 5 -7.7535 -15.1433 -16.2665 -0.0060 25.7584 0.0049
# 6 0.0102 0.0141 0.0598 -35.4825 0.0049 94.0989
#
#
#
# Elastic Compliance Matrix: (Units=1/GPa)
#
#
# Indices 1 2 3 4 5 6 
#
# 1 0.012663 -0.004128 -0.000514 -0.000001 0.001060 -0.000001
# 2 -0.004128 0.009608 -0.004370 -0.000002 0.001647 0.000001
# 3 -0.000514 -0.004370 0.008871 0.000007 0.002878 -0.000002
# 4 -0.000001 -0.000002 0.000007 0.027100 0.000008 0.010219
# 5 0.001060 0.001647 0.002878 0.000008 0.041927 -0.000001
# 6 -0.000001 0.000001 -0.000002 0.010219 -0.000001 0.014480
#
#
# Mechanical properties :
#
#
# Convention : Reuss Voigt Hill
#
# Bulk Modulus (GPa) = 76.23595 93.71072 84.97333
# Shear Modulus (GPa) = 36.48420 50.58141 43.53281
#
# Velocity S-wave (km/s) = 4.34088 5.11118 4.74170
# Velocity P-wave (km/s) = 8.03109 9.12313 8.59447
#
# Compressibility (1/GPa) = 0.01311717
#
# Stress axis : x y z
#
# Youngs Moduli (GPa) = 78.97204 104.07640 112.73197
#
# Poissons Ratio (x) = 0.42967 0.05798
# Poissons Ratio (y) = 0.32603 0.49258
# Poissons Ratio (z) = 0.04062 0.45476
#
# Static dielectric constant tensor:
#      x y z
#    x 3.553310 -0.000020 -0.163960 
#    y -0.000020 3.877410 -0.000020 
#    z -0.163960 -0.000020 3.768640 
# 
# 
# High freq. dielectric constant tensor:
#      x y z
#    x 1.737330 0.000000 -0.013960 
#    y 0.000000 1.766240 0.000000 
#    z -0.013960 0.000000 1.774850 
# 
# From -- ./inp_files/118884.got.cif
#   From: 2010.06.25/outbox.cif.g09.slc.cpg/sg12_60_cif.got.tgz:118884.got - 2010.06.28 00:19:55.
