data_PCOD8114841
_publ_section_title
;
Structure prediction by ZEFSAII (Michael W. Deem and Ramdas Pophale) SiO2 
 PCOD8114841
Probable space group: C 2/M
;
_chemical_formula_sum "Si O2"
_cell_formula_units_Z 56
_cell_length_a 26.772880
_cell_length_b 19.304056
_cell_length_c 8.464031
_cell_angle_alpha 90.000000
_cell_angle_beta 39.026967
_cell_angle_gamma 90.000000
_cell_volume 2754.514157
_symmetry_space_group_name_H-M "C 2/M"
_symmetry_group_IT_number 12
_symmetry_cell_setting 'monoclinic'
loop_
_space_group_symop_operation_xyz
x,y,z
-x,y,-z
-x,-y,-z
x,-y,z
1/2+x,1/2+y,z
1/2-x,1/2+y,-z
1/2-x,1/2-y,-z
1/2+x,1/2-y,z
loop_
_atom_site_type_symbol
_atom_site_label
_atom_site_fract_x
_atom_site_fract_y
_atom_site_fract_z
Si Si1 0.863152 0.921640 0.195940
Si Si2 0.029131 0.837383 0.267354
Si Si3 0.785846 0.581022 0.644182
Si Si4 0.419939 0.810647 0.794735
Si Si5 0.590842 0.826679 0.816099
Si Si6 0.880620 0.814828 0.416567
Si Si7 0.761666 0.670784 0.009313
O O1 0.774537 0.906811 0.352518
O O2 0.893889 0.874863 0.260815
O O3 0.873372 0.000000 0.224708
O O4 0.923921 0.903196 0.909232
O O5 0.085787 0.772187 0.169056
O O6 0.000000 0.869997 0.500000
O O7 0.958882 0.806790 0.330665
O O8 0.794061 0.500000 0.666720
O O9 0.869703 0.609834 0.375647
O O10 0.753900 0.621242 0.876792
O O11 0.500000 0.831154 0.500000
O O12 0.406922 0.841744 0.001868
O O13 0.348790 0.840834 0.865765
O O14 0.634361 0.756494 0.644633
O O15 0.500000 0.820650 0.000000
O O16 0.806425 0.844134 0.696863
O O17 0.750000 0.750000 0.000000
#
# Coordination Sequence:
#
# PCOD8114841 Si02
#       7
#     8   8   8   8   8   8   8
#     4  11  24  42  62  90 132 175 215 265 323 389
#     4  11  22  38  61  94 133 164 214 273 321 379
#     4  11  26  45  65  96 134 173 220 268 323 393
#     4  11  22  38  62  97 127 162 215 276 318 375
#     4  12  22  41  68  95 130 169 217 274 326 383
#     4  12  23  39  65 102 127 167 221 268 321 388
#     4  12  23  39  66  94 126 171 216 264 328 381
#
# _framework density 20.330264
#
# number of rings (size 3 to 8) (size 9 to 14) (size 15 to 20)
#    0.000    0.571    4.286    5.571    0.000    3.429 
#    0.000    0.714    0.000    1.714    0.000    0.000 
#    0.000    0.000    0.000    0.000    0.000    0.000 
#
# Total GULP energy -347083.033176 kJ/mol
# GULP energy per Si atom -12395.822613 kJ/mol
# Density = 2.028399 g / cm^3
# Si number density = 20.330264 Si / 1000 Ang^3
#
#
#
# Elastic Constant Matrix: (Units=GPa)
#
#
# Indices 1 2 3 4 5 6 
#
# 1 59.3024 28.2699 10.0455 0.0000 12.0152 0.0000
# 2 28.2699 103.1302 37.1594 0.0000 11.5080 0.0000
# 3 10.0455 37.1594 115.6732 0.0000 13.1065 0.0000
# 4 0.0000 0.0000 0.0000 28.2551 0.0000 0.4477
# 5 12.0152 11.5080 13.1065 0.0000 38.6486 0.0000
# 6 0.0000 0.0000 0.0000 0.4477 0.0000 22.6650
#
#
#
# Elastic Compliance Matrix: (Units=1/GPa)
#
#
# Indices 1 2 3 4 5 6 
#
# 1 0.020243 -0.005166 0.000458 0.000000 -0.004910 0.000000
# 2 -0.005166 0.012459 -0.003448 0.000000 -0.000935 0.000000
# 3 0.000458 -0.003448 0.009997 0.000000 -0.002506 0.000000
# 4 0.000000 0.000000 0.000000 0.035403 0.000000 -0.000699
# 5 -0.004910 -0.000935 -0.002506 0.000000 0.028529 0.000000
# 6 0.000000 0.000000 0.000000 -0.000699 0.000000 0.044135
#
#
# Mechanical properties :
#
#
# Convention : Reuss Voigt Hill
#
# Bulk Modulus (GPa) = 37.89778 47.67284 42.78531
# Shear Modulus (GPa) = 28.42966 31.42245 29.92606
#
# Velocity S-wave (km/s) = 3.74356 3.93568 3.84082
# Velocity P-wave (km/s) = 6.11287 6.64476 6.38436
#
# Compressibility (1/GPa) = 0.02638677
#
# Stress axis : x y z
#
# Youngs Moduli (GPa) = 49.40058 80.26187 100.03171
#
# Poissons Ratio (x) = 0.41463 -0.04581
# Poissons Ratio (y) = 0.25520 0.34490
# Poissons Ratio (z) = -0.02262 0.27674
#
# Static dielectric constant tensor:
#      x y z
#    x 4.247380 0.000000 0.723450 
#    y 0.000000 3.439400 0.000000 
#    z 0.723450 0.000000 4.514520 
# 
# 
# High freq. dielectric constant tensor:
#      x y z
#    x 1.806010 0.000000 0.008170 
#    y 0.000000 1.766260 0.000000 
#    z 0.008170 0.000000 1.815010 
# 
# From -- ./inp_files/105926.got.cif
#   From: 2010.06.25/outbox.cif.g09.slc.cpg/sg12_53_cif.got.tgz:105926.got - 2010.06.28 00:19:55.
