data_PCOD8114471
_publ_section_title
;
Structure prediction by ZEFSAII (Michael W. Deem and Ramdas Pophale) SiO2 
 PCOD8114471
Probable space group: C 2/M
;
_chemical_formula_sum "Si O2"
_cell_formula_units_Z 64
_cell_length_a 9.284398
_cell_length_b 29.459816
_cell_length_c 14.885913
_cell_angle_alpha 90.000000
_cell_angle_beta 48.906795
_cell_angle_gamma 90.000000
_cell_volume 3068.484782
_symmetry_space_group_name_H-M "C 2/M"
_symmetry_group_IT_number 12
_symmetry_cell_setting 'monoclinic'
loop_
_space_group_symop_operation_xyz
x,y,z
-x,y,-z
-x,-y,-z
x,-y,z
1/2+x,1/2+y,z
1/2-x,1/2+y,-z
1/2-x,1/2-y,-z
1/2+x,1/2-y,z
loop_
_atom_site_type_symbol
_atom_site_label
_atom_site_fract_x
_atom_site_fract_y
_atom_site_fract_z
Si Si1 0.046389 0.300287 0.290112
Si Si2 0.223745 0.369573 0.928774
Si Si3 0.334758 0.274482 0.632820
Si Si4 0.092715 0.548411 0.060623
Si Si5 0.690627 0.295365 0.976798
Si Si6 0.114146 0.386040 0.541203
Si Si7 0.445595 0.626694 0.657590
Si Si8 0.284433 0.052680 0.341278
O O1 0.856346 0.272547 0.346077
O O2 0.001853 0.344489 0.367163
O O3 0.183232 0.263296 0.282109
O O4 0.146452 0.314991 0.156266
O O5 0.342169 0.383607 0.793181
O O6 0.242459 0.410571 0.994189
O O7 0.336692 0.329067 0.928906
O O8 0.000000 0.357646 0.000000
O O9 0.500000 0.257292 0.500000
O O10 0.366399 0.325841 0.652852
O O11 0.194716 0.500000 0.037204
O O12 0.936971 0.557731 0.199880
O O13 0.000000 0.548120 0.000000
O O14 0.500000 0.287886 0.000000
O O15 0.750000 0.250000 0.000000
O O16 0.326610 0.370123 0.426117
O O17 0.122031 0.429004 0.604967
O O18 0.000000 0.402108 0.500000
O O19 0.394184 0.585263 0.611020
O O20 0.219236 0.000000 0.379262
#
# Coordination Sequence:
#
# PCOD8114471 Si02
#       8
#     8   8   8   8   8   8   8   8
#     4  12  25  43  67  93 136 176 222 278 341 392
#     4  11  21  39  67  97 132 172 210 276 341 388
#     4  12  23  40  63  95 129 170 225 270 331 393
#     4   9  17  35  67 104 131 163 213 269 333 400
#     4  12  26  44  64  96 134 175 228 275 333 405
#     4  12  28  44  64  96 139 180 227 277 334 401
#     4  12  23  42  65 101 133 171 228 276 324 407
#     4  11  22  44  74 101 133 176 225 283 342 402
#
# _framework density 20.857199999999999
#
# number of rings (size 3 to 8) (size 9 to 14) (size 15 to 20)
#    0.000    0.625    5.000    4.500    3.500    1.250 
#    0.000    0.000    0.000    0.375    0.000    0.000 
#    0.000    0.000    0.000    0.000    0.000    0.000 
#
# Total GULP energy -396749.765163 kJ/mol
# GULP energy per Si atom -12398.430161 kJ/mol
# Density = 2.080973 g / cm^3
# Si number density = 20.857200 Si / 1000 Ang^3
#
#
#
# Elastic Constant Matrix: (Units=GPa)
#
#
# Indices 1 2 3 4 5 6 
#
# 1 107.3296 41.5151 31.4398 0.0000 14.0802 0.0000
# 2 41.5151 146.4347 19.5633 0.0000 11.2718 0.0000
# 3 31.4398 19.5633 109.6694 0.0000 8.0608 0.0000
# 4 0.0000 0.0000 0.0000 -343.2795 0.0000 -153.1578
# 5 14.0802 11.2718 8.0608 0.0000 23.7683 0.0000
# 6 0.0000 0.0000 0.0000 -153.1578 0.0000 -36.3468
#
#
#
# Elastic Compliance Matrix: (Units=1/GPa)
#
#
# Indices 1 2 3 4 5 6 
#
# 1 0.011702 -0.002607 -0.002534 0.000000 -0.004837 0.000000
# 2 -0.002607 0.007787 -0.000496 0.000000 -0.001980 0.000000
# 3 -0.002534 -0.000496 0.010056 0.000000 -0.001674 0.000000
# 4 0.000000 0.000000 0.000000 0.003310 0.000000 -0.013949
# 5 -0.004837 -0.001980 -0.001674 0.000000 0.046445 0.000000
# 6 0.000000 0.000000 0.000000 -0.013949 0.000000 0.031264
#
#
# Mechanical properties :
#
#
# Convention : Reuss Voigt Hill
#
# Bulk Modulus (GPa) = 54.73181 60.94114 57.83647
# Shear Modulus (GPa) = 39.08427 -53.11057 -7.01315
#
# Velocity S-wave (km/s) = 4.33355 -5.05165 -1.83569
# Velocity P-wave (km/s) = 7.16503 2.17804 4.82669
#
# Compressibility (1/GPa) = 0.01827091
#
# Stress axis : x y z
#
# Youngs Moduli (GPa) = 85.45361 128.42347 99.43938
#
# Poissons Ratio (x) = 0.33477 0.25201
# Poissons Ratio (y) = 0.22276 0.04934
# Poissons Ratio (z) = 0.21656 0.06372
#
# Static dielectric constant tensor:
#      x y z
#    x 3.638440 0.000000 0.162690 
#    y 0.000000 4.429130 0.000000 
#    z 0.162690 0.000000 4.010910 
# 
# 
# High freq. dielectric constant tensor:
#      x y z
#    x 1.793640 0.000000 0.014680 
#    y 0.000000 1.825180 0.000000 
#    z 0.014680 0.000000 1.836790 
# 
# From -- ./inp_files/201310.got.cif
#   From: 2010.06.25/outbox.cif.g09.slc.cpg/sg12_101_cif.got.tgz:201310.got - 2010.06.28 00:19:55.
