data_PCOD8114658
_publ_section_title
;
Structure prediction by ZEFSAII (Michael W. Deem and Ramdas Pophale) SiO2 
 PCOD8114658
Probable space group: C 2/M
;
_chemical_formula_sum "Si O2"
_cell_formula_units_Z 56
_cell_length_a 19.306992
_cell_length_b 8.871268
_cell_length_c 27.547171
_cell_angle_alpha 90.000000
_cell_angle_beta 141.366043
_cell_angle_gamma 90.000000
_cell_volume 2945.780170
_symmetry_space_group_name_H-M "C 2/M"
_symmetry_group_IT_number 12
_symmetry_cell_setting 'monoclinic'
loop_
_space_group_symop_operation_xyz
x,y,z
-x,y,-z
-x,-y,-z
x,-y,z
1/2+x,1/2+y,z
1/2-x,1/2+y,-z
1/2-x,1/2-y,-z
1/2+x,1/2-y,z
loop_
_atom_site_type_symbol
_atom_site_label
_atom_site_fract_x
_atom_site_fract_y
_atom_site_fract_z
Si Si1 0.562859 0.827093 0.130485
Si Si2 0.361528 0.675918 0.544785
Si Si3 0.878387 0.331261 0.454816
Si Si4 0.717272 0.822497 0.124416
Si Si5 0.830753 0.822076 0.004381
Si Si6 0.092556 0.821570 0.703969
Si Si7 0.267998 0.674562 0.308910
O O1 0.623350 0.782741 0.113017
O O2 0.457770 0.722832 0.083592
O O3 0.643856 0.805081 0.220650
O O4 0.523290 0.000000 0.105069
O O5 0.347975 0.500000 0.542332
O O6 0.250000 0.750000 0.500000
O O7 0.384559 0.717284 0.502412
O O8 0.464239 0.731191 0.635240
O O9 0.843688 0.500000 0.452112
O O10 0.785155 0.272518 0.366496
O O11 0.000000 0.331441 0.500000
O O12 0.837732 0.769206 0.210897
O O13 0.715003 0.000000 0.111584
O O14 0.700134 0.730247 0.066393
O O15 0.818233 0.000000 0.001328
O O16 0.750000 0.750000 0.000000
O O17 0.147614 0.758534 0.684949
O O18 0.104165 0.000000 0.706845
O O19 0.292403 0.500000 0.334146
#
# Coordination Sequence:
#
# PCOD8114658 Si02
#       7
#     8   8   8   8   8   8   8
#     4   9  19  37  63  90 116 145 184 233 283 340
#     4  11  22  38  58  81 114 154 196 239 286 341
#     4  11  22  35  55  85 118 152 192 237 284 334
#     4   9  18  37  64  89 112 144 186 233 284 339
#     4  12  25  40  58  83 117 154 190 230 279 337
#     4   8  16  33  59  85 110 145 188 231 280 336
#     4   9  17  34  60  88 112 144 191 236 281 335
#
# _framework density 19.010242999999999
#
# number of rings (size 3 to 8) (size 9 to 14) (size 15 to 20)
#    0.000    2.143    1.429    4.286    0.000    3.429 
#    2.571    3.571    0.000    0.000    0.000    0.000 
#    0.000    0.000    0.000    0.000    0.000    0.000 
#
# Total GULP energy -347111.522093 kJ/mol
# GULP energy per Si atom -12396.840075 kJ/mol
# Density = 1.896698 g / cm^3
# Si number density = 19.010243 Si / 1000 Ang^3
#
#
#
# Elastic Constant Matrix: (Units=GPa)
#
#
# Indices 1 2 3 4 5 6 
#
# 1 80.2734 44.2668 51.4536 0.0000 14.2897 0.0000
# 2 44.2668 81.8746 54.0565 0.0000 9.7607 0.0001
# 3 51.4536 54.0565 136.6368 0.0000 11.3299 0.0000
# 4 0.0000 0.0000 0.0000 28.0367 0.0000 2.6079
# 5 14.2897 9.7607 11.3299 0.0000 29.0670 0.0000
# 6 0.0000 0.0001 0.0000 2.6079 0.0000 29.2005
#
#
#
# Elastic Compliance Matrix: (Units=1/GPa)
#
#
# Indices 1 2 3 4 5 6 
#
# 1 0.020338 -0.007530 -0.004196 0.000000 -0.005834 0.000000
# 2 -0.007530 0.019595 -0.004834 0.000000 -0.000994 0.000000
# 3 -0.004196 -0.004834 0.010856 0.000000 -0.000546 0.000000
# 4 0.000000 0.000000 0.000000 0.035966 0.000000 -0.003212
# 5 -0.005834 -0.000994 -0.000546 0.000000 0.037818 0.000000
# 6 0.000000 0.000000 0.000000 -0.003212 0.000000 0.034533
#
#
# Mechanical properties :
#
#
# Convention : Reuss Voigt Hill
#
# Bulk Modulus (GPa) = 56.59577 66.48207 61.53892
# Shear Modulus (GPa) = 25.23754 27.19470 26.21612
#
# Velocity S-wave (km/s) = 3.64754 3.78634 3.71759
# Velocity P-wave (km/s) = 6.89748 7.35953 7.13225
#
# Compressibility (1/GPa) = 0.01766916
#
# Stress axis : x y z
#
# Youngs Moduli (GPa) = 49.16895 51.03230 92.11088
#
# Poissons Ratio (x) = 0.38429 0.38648
# Poissons Ratio (y) = 0.37026 0.44529
# Poissons Ratio (z) = 0.20630 0.24670
#
# Static dielectric constant tensor:
#      x y z
#    x 3.273120 0.000000 0.099350 
#    y 0.000000 3.497270 0.000000 
#    z 0.099350 0.000000 3.858200 
# 
# 
# High freq. dielectric constant tensor:
#      x y z
#    x 1.720380 0.000000 0.001810 
#    y 0.000000 1.723650 0.000000 
#    z 0.001810 0.000000 1.758760 
# 
# From -- ./inp_files/363100.got.cif
#   From: 2010.06.25/outbox.cif.g09.slc.cpg/sg12_182_cif.got.tgz:363100.got - 2010.06.28 00:19:55.
