data_PCOD8114360
_publ_section_title
;
Structure prediction by ZEFSAII (Michael W. Deem and Ramdas Pophale) SiO2 
 PCOD8114360
Probable space group: C 2/M
;
_chemical_formula_sum "Si O2"
_cell_formula_units_Z 48
_cell_length_a 14.940012
_cell_length_b 8.342006
_cell_length_c 29.324605
_cell_angle_alpha 90.000000
_cell_angle_beta 139.695581
_cell_angle_gamma 90.000000
_cell_volume 2364.047819
_symmetry_space_group_name_H-M "C 2/M"
_symmetry_group_IT_number 12
_symmetry_cell_setting 'monoclinic'
loop_
_space_group_symop_operation_xyz
x,y,z
-x,y,-z
-x,-y,-z
x,-y,z
1/2+x,1/2+y,z
1/2-x,1/2+y,-z
1/2-x,1/2-y,-z
1/2+x,1/2-y,z
loop_
_atom_site_type_symbol
_atom_site_label
_atom_site_fract_x
_atom_site_fract_y
_atom_site_fract_z
Si Si1 0.887509 0.314031 0.576919
Si Si2 0.588504 0.312129 0.075733
Si Si3 0.886971 0.188189 0.077443
Si Si4 0.424374 0.314690 0.425025
Si Si5 0.366738 0.683551 0.667092
Si Si6 0.894263 0.686890 0.179459
O O1 0.869422 0.500000 0.580451
O O2 0.750000 0.250000 0.500000
O O3 0.914079 0.224381 0.634509
O O4 0.019263 0.285665 0.595806
O O5 0.598437 0.500000 0.070036
O O6 0.517748 0.273527 0.096236
O O7 0.744299 0.244380 0.136157
O O8 0.500000 0.233531 0.000000
O O9 0.914060 0.287063 0.133517
O O10 0.873626 0.000000 0.082480
O O11 0.750000 0.250000 0.000000
O O12 0.500000 0.252084 0.500000
O O13 0.459305 0.500000 0.430156
O O14 0.260924 0.292070 0.366373
O O15 0.319655 0.500000 0.651262
O O16 0.493847 0.711275 0.750030
O O17 0.911982 0.500000 0.198174
#
# Coordination Sequence:
#
# PCOD8114360 Si02
#       6
#     8   8   8   8   8   8
#     4  12  24  41  67  98 130 169 215 263 319 380
#     4   9  18  36  62  89 119 162 207 249 306 378
#     4  11  21  37  62  92 123 160 210 259 314 380
#     4  11  23  41  68  98 128 166 216 266 317 381
#     4  12  26  44  65  94 133 171 213 265 323 384
#     4  11  23  42  64  89 126 166 208 261 321 378
#
# _framework density 20.304158000000001
#
# number of rings (size 3 to 8) (size 9 to 14) (size 15 to 20)
#    0.000    1.000    3.333    4.500    0.000    2.000 
#    0.000    9.167    0.000    0.000    0.000    0.000 
#    0.000    0.000    0.000    0.000    0.000    0.000 
#
# Total GULP energy -297755.234598 kJ/mol
# GULP energy per Si atom -12406.468108 kJ/mol
# Density = 2.025794 g / cm^3
# Si number density = 20.304158 Si / 1000 Ang^3
#
#
#
# Elastic Constant Matrix: (Units=GPa)
#
#
# Indices 1 2 3 4 5 6 
#
# 1 130.3302 9.8628 50.8913 0.0000 6.4677 0.0000
# 2 9.8628 65.1554 10.6274 0.0000 -1.6858 0.0000
# 3 50.8913 10.6274 134.4177 0.0000 1.8366 0.0000
# 4 0.0000 0.0000 0.0000 31.3423 0.0000 -2.5358
# 5 6.4677 -1.6858 1.8366 0.0000 36.5883 0.0000
# 6 0.0000 0.0000 0.0000 -2.5358 0.0000 29.7506
#
#
#
# Elastic Compliance Matrix: (Units=1/GPa)
#
#
# Indices 1 2 3 4 5 6 
#
# 1 0.009127 -0.000871 -0.003366 0.000000 -0.001484 0.000000
# 2 -0.000871 0.015654 -0.000920 0.000000 0.000921 0.000000
# 3 -0.003366 -0.000920 0.008785 0.000000 0.000112 0.000000
# 4 0.000000 0.000000 0.000000 0.032127 0.000000 0.002738
# 5 -0.001484 0.000921 0.000112 0.000000 0.027630 0.000000
# 6 0.000000 0.000000 0.000000 0.002738 0.000000 0.033846
#
#
# Mechanical properties :
#
#
# Convention : Reuss Voigt Hill
#
# Bulk Modulus (GPa) = 43.01000 52.51850 47.76425
# Shear Modulus (GPa) = 34.42687 36.77102 35.59895
#
# Velocity S-wave (km/s) = 4.12218 4.26021 4.19177
# Velocity P-wave (km/s) = 6.62460 7.07964 6.85590
#
# Compressibility (1/GPa) = 0.02325041
#
# Stress axis : x y z
#
# Youngs Moduli (GPa) = 109.56638 63.88252 113.82695
#
# Poissons Ratio (x) = 0.05564 0.38318
# Poissons Ratio (y) = 0.09542 0.10478
# Poissons Ratio (z) = 0.36884 0.05880
#
# Static dielectric constant tensor:
#      x y z
#    x 4.012320 0.000000 0.081790 
#    y 0.000000 3.597600 0.000000 
#    z 0.081790 0.000000 3.566150 
# 
# 
# High freq. dielectric constant tensor:
#      x y z
#    x 1.808070 0.000000 -0.000150 
#    y 0.000000 1.788990 0.000000 
#    z -0.000150 0.000000 1.791850 
# 
# From -- ./inp_files/308593.got.cif
#   From: 2010.06.25/outbox.cif.g09.slc.cpg/sg12_155_cif.got.tgz:308593.got - 2010.06.28 00:19:55.
