data_PCOD8114270
_publ_section_title
;
Structure prediction by ZEFSAII (Michael W. Deem and Ramdas Pophale) SiO2 
 PCOD8114270
Probable space group: C 2/M
;
_chemical_formula_sum "Si O2"
_cell_formula_units_Z 64
_cell_length_a 23.601156
_cell_length_b 8.797201
_cell_length_c 24.723342
_cell_angle_alpha 90.000000
_cell_angle_beta 42.268382
_cell_angle_gamma 90.000000
_cell_volume 3452.586571
_symmetry_space_group_name_H-M "C 2/M"
_symmetry_group_IT_number 12
_symmetry_cell_setting 'monoclinic'
loop_
_space_group_symop_operation_xyz
x,y,z
-x,y,-z
-x,-y,-z
x,-y,z
1/2+x,1/2+y,z
1/2-x,1/2+y,-z
1/2-x,1/2-y,-z
1/2+x,1/2-y,z
loop_
_atom_site_type_symbol
_atom_site_label
_atom_site_fract_x
_atom_site_fract_y
_atom_site_fract_z
Si Si1 0.961227 0.320176 0.853806
Si Si2 0.336432 0.322197 0.026231
Si Si3 0.949926 0.170612 0.479744
Si Si4 0.619471 0.676413 0.789360
Si Si5 0.597338 0.173385 0.918823
Si Si6 0.597231 0.179876 0.320686
Si Si7 0.148672 0.320263 0.168006
Si Si8 0.189972 0.675319 0.362039
O O1 0.976316 0.500000 0.844688
O O2 0.920202 0.264172 0.826599
O O3 0.050005 0.233913 0.795853
O O4 0.899641 0.277883 0.946381
O O5 0.352118 0.500000 0.004019
O O6 0.351247 0.285961 0.078738
O O7 0.240684 0.271528 0.081273
O O8 0.857585 0.240341 0.555362
O O9 0.000000 0.179207 0.500000
O O10 0.001971 0.263231 0.398106
O O11 0.938895 0.000000 0.466413
O O12 0.604163 0.500000 0.814343
O O13 0.613614 0.777122 0.846557
O O14 0.711191 0.702219 0.698775
O O15 0.627558 0.000000 0.905470
O O16 0.500000 0.190924 0.000000
O O17 0.628920 0.249637 0.241153
O O18 0.660328 0.236400 0.323746
O O19 0.595659 0.000000 0.318812
O O20 0.146806 0.500000 0.174229
O O21 0.164921 0.500000 0.383594
#
# Coordination Sequence:
#
# PCOD8114270 Si02
#       8
#     8   8   8   8   8   8   8   8
#     4  11  22  37  53  73 104 140 177 218 267 313
#     4  11  21  36  57  78 101 134 179 223 262 308
#     4   9  17  29  48  78 112 138 160 197 254 311
#     4  11  22  36  55  78 104 138 180 220 257 306
#     4  11  22  35  52  76 106 137 169 210 264 317
#     4   9  16  32  55  77 102 134 170 207 253 307
#     4   9  20  36  55  77 102 136 178 221 261 308
#     4   9  18  32  53  80 106 134 170 208 250 306
#
# _framework density 18.536826000000001
#
# number of rings (size 3 to 8) (size 9 to 14) (size 15 to 20)
#    0.000    2.000    1.250    3.000    0.000    5.000 
#    0.000    6.875    0.000    0.750    0.000    0.000 
#    0.000    0.000    0.000    0.000    0.000    0.000 
#
# Total GULP energy -396828.186679 kJ/mol
# GULP energy per Si atom -12400.880834 kJ/mol
# Density = 1.849464 g / cm^3
# Si number density = 18.536826 Si / 1000 Ang^3
#
#
#
# Elastic Constant Matrix: (Units=GPa)
#
#
# Indices 1 2 3 4 5 6 
#
# 1 98.8791 19.6356 42.3607 0.0299 -14.0937 -0.0020
# 2 19.6356 45.4273 24.5558 -0.1835 -9.7837 -0.0586
# 3 42.3607 24.5558 82.6475 -0.0921 -22.6280 -0.0189
# 4 0.0299 -0.1835 -0.0921 490.2072 0.0028 54.9838
# 5 -14.0937 -9.7837 -22.6280 0.0028 22.4261 -0.0007
# 6 -0.0020 -0.0586 -0.0189 54.9838 -0.0007 30.1542
#
#
#
# Elastic Compliance Matrix: (Units=1/GPa)
#
#
# Indices 1 2 3 4 5 6 
#
# 1 0.013222 -0.002316 -0.005652 -0.000002 0.001596 -0.000003
# 2 -0.002316 0.027034 -0.005547 0.000005 0.004742 0.000041
# 3 -0.005652 -0.005547 0.020738 0.000002 0.014953 -0.000002
# 4 -0.000002 0.000005 0.000002 0.002564 0.000002 -0.004676
# 5 0.001596 0.004742 0.014953 0.000002 0.062751 0.000016
# 6 -0.000003 0.000041 -0.000002 -0.004676 0.000016 0.041689
#
#
# Mechanical properties :
#
#
# Convention : Reuss Voigt Hill
#
# Bulk Modulus (GPa) = 29.44202 44.45089 36.94645
# Shear Modulus (GPa) = 24.23063 117.91762 71.07412
#
# Velocity S-wave (km/s) = 3.61939 7.98440 6.19882
# Velocity P-wave (km/s) = 5.77790 10.44188 8.43851
#
# Compressibility (1/GPa) = 0.03396506
#
# Stress axis : x y z
#
# Youngs Moduli (GPa) = 75.63094 36.99045 48.21969
#
# Poissons Ratio (x) = 0.08568 0.27252
# Poissons Ratio (y) = 0.17519 0.26746
# Poissons Ratio (z) = 0.42744 0.20518
#
# Static dielectric constant tensor:
#      x y z
#    x 3.487740 0.000000 -0.131570 
#    y 0.000000 3.344890 0.000010 
#    z -0.131570 0.000010 3.585540 
# 
# 
# High freq. dielectric constant tensor:
#      x y z
#    x 1.700290 0.000000 -0.012940 
#    y 0.000000 1.714160 0.000000 
#    z -0.012940 0.000000 1.717240 
# 
# From -- ./inp_files/345982.got.cif
#   From: 2010.06.25/outbox.cif.g09.slc.cpg/sg12_173_cif.got.tgz:345982.got - 2010.06.28 00:19:55.
