data_PCOD8114177
_publ_section_title
;
Structure prediction by ZEFSAII (Michael W. Deem and Ramdas Pophale) SiO2 
 PCOD8114177
Probable space group: C 2/M
;
_chemical_formula_sum "Si O2"
_cell_formula_units_Z 48
_cell_length_a 19.224881
_cell_length_b 8.899221
_cell_length_c 20.436743
_cell_angle_alpha 90.000000
_cell_angle_beta 48.940198
_cell_angle_gamma 90.000000
_cell_volume 2636.408742
_symmetry_space_group_name_H-M "C 2/M"
_symmetry_group_IT_number 12
_symmetry_cell_setting 'monoclinic'
loop_
_space_group_symop_operation_xyz
x,y,z
-x,y,-z
-x,-y,-z
x,-y,z
1/2+x,1/2+y,z
1/2-x,1/2+y,-z
1/2-x,1/2-y,-z
1/2+x,1/2-y,z
loop_
_atom_site_type_symbol
_atom_site_label
_atom_site_fract_x
_atom_site_fract_y
_atom_site_fract_z
Si Si1 0.317267 0.177057 0.761731
Si Si2 0.298144 0.676262 0.290516
Si Si3 0.525785 0.828747 0.776054
Si Si4 0.183849 0.323054 0.093093
Si Si5 0.478873 0.172702 0.374057
Si Si6 0.696846 0.677319 0.472797
O O1 0.239327 0.221578 0.758011
O O2 0.290467 0.239561 0.850220
O O3 0.418013 0.236429 0.676916
O O4 0.329805 0.000000 0.761770
O O5 0.286138 0.500000 0.311504
O O6 0.405484 0.720894 0.226513
O O7 0.240108 0.769230 0.378446
O O8 0.421834 0.779326 0.857437
O O9 0.546224 0.811419 0.686693
O O10 0.543213 0.000000 0.787030
O O11 0.197360 0.500000 0.081444
O O12 0.250000 0.250000 0.000000
O O13 0.409946 0.273696 0.459328
O O14 0.468663 0.000000 0.402995
O O15 0.705996 0.500000 0.472607
O O16 0.750000 0.750000 0.500000
#
# Coordination Sequence:
#
# PCOD8114177 Si02
#       6
#     8   8   8   8   8   8
#     4   8  18  36  56  78 107 142 176 214 265 319
#     4  11  21  34  54  79 107 141 180 220 263 312
#     4   9  18  33  54  77 105 139 176 218 265 311
#     4   9  18  36  60  83 105 135 175 216 261 318
#     4   9  17  34  56  74  99 141 186 221 257 306
#     4  12  23  34  50  76 108 141 182 225 263 308
#
# _framework density 18.206585
#
# number of rings (size 3 to 8) (size 9 to 14) (size 15 to 20)
#    0.000    2.333    1.667    4.000    0.000    1.333 
#    0.000   10.000    0.000    5.000    0.000    0.000 
#    0.000    0.000    0.000    0.000    0.000    0.000 
#
# Total GULP energy -297578.946152 kJ/mol
# GULP energy per Si atom -12399.122756 kJ/mol
# Density = 1.816515 g / cm^3
# Si number density = 18.206585 Si / 1000 Ang^3
#
#
#
# Elastic Constant Matrix: (Units=GPa)
#
#
# Indices 1 2 3 4 5 6 
#
# 1 122.6492 49.5336 58.3383 0.0000 -3.3694 0.0000
# 2 49.5336 83.0400 49.0052 0.0000 -1.8343 0.0001
# 3 58.3383 49.0052 135.3934 0.0000 -8.2291 0.0000
# 4 0.0000 0.0000 0.0000 32.0893 0.0000 -4.5189
# 5 -3.3694 -1.8343 -8.2291 0.0000 20.7338 0.0000
# 6 0.0000 0.0001 0.0000 -4.5189 0.0000 25.9832
#
#
#
# Elastic Compliance Matrix: (Units=1/GPa)
#
#
# Indices 1 2 3 4 5 6 
#
# 1 0.011745 -0.005115 -0.003198 0.000000 0.000187 0.000000
# 2 -0.005115 0.017556 -0.004208 0.000000 -0.000948 0.000000
# 3 -0.003198 -0.004208 0.010486 0.000000 0.003270 0.000000
# 4 0.000000 0.000000 0.000000 0.031945 0.000000 0.005556
# 5 0.000187 -0.000948 0.003270 0.000000 0.049475 0.000000
# 6 0.000000 0.000000 0.000000 0.005556 0.000000 0.039453
#
#
# Mechanical properties :
#
#
# Convention : Reuss Voigt Hill
#
# Bulk Modulus (GPa) = 67.81988 72.75964 70.28976
# Shear Modulus (GPa) = 26.23070 28.04162 27.13616
#
# Velocity S-wave (km/s) = 3.79981 3.92878 3.86483
# Velocity P-wave (km/s) = 7.52213 7.78656 7.65549
#
# Compressibility (1/GPa) = 0.01474494
#
# Stress axis : x y z
#
# Youngs Moduli (GPa) = 85.14030 56.96168 95.36713
#
# Poissons Ratio (x) = 0.29133 0.30501
# Poissons Ratio (y) = 0.43546 0.40131
# Poissons Ratio (z) = 0.27230 0.23970
#
# Static dielectric constant tensor:
#      x y z
#    x 3.566240 0.000000 0.004190 
#    y 0.000000 3.270400 0.000000 
#    z 0.004190 0.000000 3.475280 
# 
# 
# High freq. dielectric constant tensor:
#      x y z
#    x 1.705270 0.000000 -0.011580 
#    y 0.000000 1.688020 0.000000 
#    z -0.011580 0.000000 1.697170 
# 
# From -- ./inp_files/280756.got.cif
#   From: 2010.06.25/outbox.cif.g09.slc.cpg/sg12_141_cif.got.tgz:280756.got - 2010.06.28 00:19:55.
