data_PCOD8114211
_publ_section_title
;
Structure prediction by ZEFSAII (Michael W. Deem and Ramdas Pophale) SiO2 
 PCOD8114211
Probable space group: C 2/M
;
_chemical_formula_sum "Si O2"
_cell_formula_units_Z 64
_cell_length_a 25.971954
_cell_length_b 28.441941
_cell_length_c 9.969767
_cell_angle_alpha 90.000000
_cell_angle_beta 150.425465
_cell_angle_gamma 90.000000
_cell_volume 3634.835396
_symmetry_space_group_name_H-M "C 2/M"
_symmetry_group_IT_number 12
_symmetry_cell_setting 'monoclinic'
loop_
_space_group_symop_operation_xyz
x,y,z
-x,y,-z
-x,-y,-z
x,-y,z
1/2+x,1/2+y,z
1/2-x,1/2+y,-z
1/2-x,1/2-y,-z
1/2+x,1/2-y,z
loop_
_atom_site_type_symbol
_atom_site_label
_atom_site_fract_x
_atom_site_fract_y
_atom_site_fract_z
Si Si1 0.735024 0.697061 0.160109
Si Si2 0.542199 0.221326 0.233356
Si Si3 0.150997 0.947078 0.734144
Si Si4 0.379977 0.639861 0.880880
Si Si5 0.244970 0.646799 0.067384
Si Si6 0.410036 0.217043 0.195031
Si Si7 0.081283 0.947445 0.877753
Si Si8 0.104933 0.826731 0.365983
O O1 0.855617 0.696772 0.475755
O O2 0.669029 0.678335 0.133878
O O3 0.722936 0.662045 0.008534
O O4 0.688849 0.747958 0.015875
O O5 0.450819 0.216790 0.135835
O O6 0.571046 0.273984 0.257181
O O7 0.500000 0.196993 0.000000
O O8 0.239098 0.909675 0.884910
O O9 0.135411 0.942100 0.857013
O O10 0.041898 0.936112 0.413207
O O11 0.189270 0.000000 0.785564
O O12 0.338895 0.650138 0.637472
O O13 0.358251 0.586757 0.881643
O O14 0.503881 0.643412 0.170734
O O15 0.319725 0.673671 0.338600
O O16 0.128975 0.665025 0.845086
O O17 0.500000 0.234563 0.500000
O O18 0.096623 0.000000 0.968092
#
# Coordination Sequence:
#
# PCOD8114211 Si02
#       8
#     8   8   8   8   8   8   8   8
#     4  12  24  36  59  81 108 154 195 227 280 337
#     4  12  24  41  54  79 113 153 195 233 276 333
#     4   9  18  32  55  84 110 146 189 231 285 339
#     4  11  21  35  53  84 113 149 195 221 280 339
#     4  12  22  36  57  82 114 147 190 232 283 328
#     4  12  24  37  54  83 116 143 189 241 275 326
#     4   9  17  32  54  82 115 147 185 233 280 337
#     4  11  22  35  53  82 115 154 186 229 275 331
#
# _framework density 17.607399999999998
#
# number of rings (size 3 to 8) (size 9 to 14) (size 15 to 20)
#    0.000    1.000    7.500    1.875    1.750    1.000 
#    0.000    1.875    0.000    0.375    0.000    0.000 
#    0.000    2.500    0.000    0.000    0.000    0.000 
#
# Total GULP energy -396694.294212 kJ/mol
# GULP energy per Si atom -12396.696694 kJ/mol
# Density = 1.756732 g / cm^3
# Si number density = 17.607400 Si / 1000 Ang^3
#
#
#
# Elastic Constant Matrix: (Units=GPa)
#
#
# Indices 1 2 3 4 5 6 
#
# 1 71.4630 29.6723 25.8087 0.0000 1.6233 0.0000
# 2 29.6723 104.7079 18.4083 0.0000 2.7129 0.0000
# 3 25.8087 18.4083 76.5350 0.0000 -11.8536 0.0000
# 4 0.0000 0.0000 0.0000 17.7965 0.0000 0.7764
# 5 1.6233 2.7129 -11.8536 0.0000 9.6848 0.0000
# 6 0.0000 0.0000 0.0000 0.7764 0.0000 25.0713
#
#
#
# Elastic Compliance Matrix: (Units=1/GPa)
#
#
# Indices 1 2 3 4 5 6 
#
# 1 0.018250 -0.003690 -0.006885 0.000000 -0.010452 0.000000
# 2 -0.003690 0.011127 -0.002244 0.000000 -0.005245 0.000000
# 3 -0.006885 -0.002244 0.019994 0.000000 0.026254 0.000000
# 4 0.000000 0.000000 0.000000 0.056267 0.000000 -0.001742
# 5 -0.010452 -0.005245 0.026254 0.000000 0.138608 0.000000
# 6 0.000000 0.000000 0.000000 -0.001742 0.000000 0.039940
#
#
# Mechanical properties :
#
#
# Convention : Reuss Voigt Hill
#
# Bulk Modulus (GPa) = 42.13992 44.49828 43.31910
# Shear Modulus (GPa) = 15.73641 22.43163 19.08402
#
# Velocity S-wave (km/s) = 2.99279 3.57317 3.29578
# Velocity P-wave (km/s) = 5.99395 6.50774 6.25612
#
# Compressibility (1/GPa) = 0.02373047
#
# Stress axis : x y z
#
# Youngs Moduli (GPa) = 54.79594 89.87503 50.01603
#
# Poissons Ratio (x) = 0.33167 0.34437
# Poissons Ratio (y) = 0.20221 0.11224
# Poissons Ratio (z) = 0.37728 0.20169
#
# Static dielectric constant tensor:
#      x y z
#    x 3.299550 0.000000 -0.109850 
#    y 0.000000 3.246670 0.000000 
#    z -0.109850 0.000000 3.203500 
# 
# 
# High freq. dielectric constant tensor:
#      x y z
#    x 1.681420 0.000000 -0.017450 
#    y 0.000000 1.665130 0.000000 
#    z -0.017450 0.000000 1.663880 
# 
# From -- ./inp_files/100236.got.cif
#   From: 2010.06.25/outbox.cif.g09.slc.cpg/sg12_51_cif.got.tgz:100236.got - 2010.06.28 00:19:55.
