data_PCOD8114237
_publ_section_title
;
Structure prediction by ZEFSAII (Michael W. Deem and Ramdas Pophale) SiO2 
 PCOD8114237
Probable space group: C 2/M
;
_chemical_formula_sum "Si O2"
_cell_formula_units_Z 64
_cell_length_a 15.399672
_cell_length_b 8.659800
_cell_length_c 24.194672
_cell_angle_alpha 90.000000
_cell_angle_beta 98.859314
_cell_angle_gamma 90.000000
_cell_volume 3188.060506
_symmetry_space_group_name_H-M "C 2/M"
_symmetry_group_IT_number 12
_symmetry_cell_setting 'monoclinic'
loop_
_space_group_symop_operation_xyz
x,y,z
-x,y,-z
-x,-y,-z
x,-y,z
1/2+x,1/2+y,z
1/2-x,1/2+y,-z
1/2-x,1/2-y,-z
1/2+x,1/2-y,z
loop_
_atom_site_type_symbol
_atom_site_label
_atom_site_fract_x
_atom_site_fract_y
_atom_site_fract_z
Si Si1 0.257277 0.823993 0.441116
Si Si2 0.686466 0.820781 0.328244
Si Si3 0.539821 0.175463 0.558679
Si Si4 0.315341 0.181133 0.254210
Si Si5 0.709910 0.681952 0.865730
Si Si6 0.991933 0.680826 0.325651
Si Si7 0.618844 0.816708 0.056269
Si Si8 0.571516 0.817269 0.930984
O O1 0.250000 0.750000 0.500000
O O2 0.199116 0.723891 0.393423
O O3 0.356111 0.816237 0.429943
O O4 0.223299 0.000000 0.439360
O O5 0.745338 0.713718 0.295381
O O6 0.583988 0.788483 0.303819
O O7 0.710165 0.000000 0.321456
O O8 0.500000 0.260014 0.500000
O O9 0.507220 0.255933 0.612474
O O10 0.504633 0.000000 0.554057
O O11 0.284629 0.269590 0.197001
O O12 0.411259 0.246459 0.281383
O O13 0.317997 0.000000 0.242085
O O14 0.712066 0.500000 0.870221
O O15 0.795207 0.752887 0.905446
O O16 0.620352 0.742128 0.884058
O O17 0.973764 0.500000 0.332103
O O18 0.530278 0.762256 0.079261
O O19 0.620447 0.000000 0.057050
O O20 0.616727 0.760118 0.992465
O O21 0.577835 0.000000 0.925727
#
# Coordination Sequence:
#
# PCOD8114237 Si02
#       8
#     8   8   8   8   8   8   8   8
#     4  11  21  35  57  85 119 152 187 229 279 341
#     4  11  22  39  63  87 111 143 186 239 294 342
#     4   9  16  30  55  82 107 141 184 223 262 330
#     4  11  23  42  61  80 111 155 200 237 277 344
#     4  11  22  36  55  85 119 150 189 242 296 336
#     4   9  19  37  60  82 107 147 190 225 278 351
#     4   8  17  34  58  84 117 155 194 235 283 347
#     4   9  17  35  60  85 112 154 200 235 278 342
#
# _framework density 20.074902000000002
#
# number of rings (size 3 to 8) (size 9 to 14) (size 15 to 20)
#    0.000    2.125    1.250    3.375    0.000    3.000 
#    0.000   10.625    0.000    1.500    0.000    0.000 
#    0.000    0.000    0.000    0.000    0.000    0.000 
#
# Total GULP energy -396765.644100 kJ/mol
# GULP energy per Si atom -12398.926378 kJ/mol
# Density = 2.002921 g / cm^3
# Si number density = 20.074902 Si / 1000 Ang^3
#
#
#
# Elastic Constant Matrix: (Units=GPa)
#
#
# Indices 1 2 3 4 5 6 
#
# 1 102.3143 20.5296 35.7495 0.0000 0.3969 0.0000
# 2 20.5296 39.7124 11.1356 0.0000 0.4143 0.0000
# 3 35.7495 11.1356 95.3302 0.0000 -0.1797 0.0000
# 4 0.0000 0.0000 0.0000 31.0853 0.0000 -2.7695
# 5 0.3969 0.4143 -0.1797 0.0000 29.3692 0.0000
# 6 0.0000 0.0000 0.0000 -2.7695 0.0000 23.0926
#
#
#
# Elastic Compliance Matrix: (Units=1/GPa)
#
#
# Indices 1 2 3 4 5 6 
#
# 1 0.012204 -0.005194 -0.003970 0.000000 -0.000116 0.000000
# 2 -0.005194 0.028249 -0.001352 0.000000 -0.000337 0.000000
# 3 -0.003970 -0.001352 0.012137 0.000000 0.000147 0.000000
# 4 0.000000 0.000000 0.000000 0.032517 0.000000 0.003900
# 5 -0.000116 -0.000337 0.000147 0.000000 0.034057 0.000000
# 6 0.000000 0.000000 0.000000 0.003900 0.000000 0.043772
#
#
# Mechanical properties :
#
#
# Convention : Reuss Voigt Hill
#
# Bulk Modulus (GPa) = 31.68969 41.35404 36.52187
# Shear Modulus (GPa) = 25.70868 28.03890 26.87379
#
# Velocity S-wave (km/s) = 3.58248 3.74132 3.66276
# Velocity P-wave (km/s) = 5.73866 6.26960 6.01000
#
# Compressibility (1/GPa) = 0.03155600
#
# Stress axis : x y z
#
# Youngs Moduli (GPa) = 81.94281 35.39941 82.39368
#
# Poissons Ratio (x) = 0.18388 0.32710
# Poissons Ratio (y) = 0.42564 0.11144
# Poissons Ratio (z) = 0.32531 0.04788
#
# Static dielectric constant tensor:
#      x y z
#    x 3.918150 0.000000 0.141650 
#    y 0.000000 3.305930 0.000000 
#    z 0.141650 0.000000 3.740770 
# 
# 
# High freq. dielectric constant tensor:
#      x y z
#    x 1.795450 0.000000 0.000660 
#    y 0.000000 1.746070 0.000000 
#    z 0.000660 0.000000 1.786220 
# 
# From -- ./inp_files/338789.got.cif
#   From: 2010.06.25/outbox.cif.g09.slc.cpg/sg12_170_cif.got.tgz:338789.got - 2010.06.28 00:19:55.
