data_PCOD8114569
_publ_section_title
;
Structure prediction by ZEFSAII (Michael W. Deem and Ramdas Pophale) SiO2 
 PCOD8114569
Probable space group: C 2/M
;
_chemical_formula_sum "Si O2"
_cell_formula_units_Z 56
_cell_length_a 21.507310
_cell_length_b 13.250933
_cell_length_c 15.971532
_cell_angle_alpha 90.000000
_cell_angle_beta 145.217203
_cell_angle_gamma 90.000000
_cell_volume 2596.627487
_symmetry_space_group_name_H-M "C 2/M"
_symmetry_group_IT_number 12
_symmetry_cell_setting 'monoclinic'
loop_
_space_group_symop_operation_xyz
x,y,z
-x,y,-z
-x,-y,-z
x,-y,z
1/2+x,1/2+y,z
1/2-x,1/2+y,-z
1/2-x,1/2-y,-z
1/2+x,1/2-y,z
loop_
_atom_site_type_symbol
_atom_site_label
_atom_site_fract_x
_atom_site_fract_y
_atom_site_fract_z
Si Si1 0.275408 0.880811 0.601243
Si Si2 0.881859 0.315848 0.887001
Si Si3 0.185836 0.888678 0.757251
Si Si4 0.834065 0.888316 0.904541
Si Si5 0.386245 0.809906 0.403760
Si Si6 0.407231 0.228784 0.615034
Si Si7 0.143427 0.182750 0.887419
O O1 0.303564 0.832297 0.721779
O O2 0.373067 0.853996 0.645997
O O3 0.161334 0.831913 0.444849
O O4 0.260859 0.000000 0.592153
O O5 0.816914 0.364435 0.894054
O O6 0.900220 0.196827 0.926265
O O7 0.000000 0.365896 0.000000
O O8 0.118559 0.807660 0.629202
O O9 0.147624 0.889160 0.811206
O O10 0.162495 0.000000 0.694664
O O11 0.706260 0.873265 0.745234
O O12 0.869788 0.000000 0.913832
O O13 0.856368 0.882235 0.028146
O O14 0.500000 0.856832 0.500000
O O15 0.376833 0.819779 0.492644
O O16 0.535183 0.248917 0.764689
O O17 0.250000 0.250000 0.000000
#
# Coordination Sequence:
#
# PCOD8114569 Si02
#       7
#     8   8   8   8   8   8   8
#     4  11  25  44  67  97 131 177 231 275 335 407
#     4  11  23  44  66  94 135 174 219 285 332 396
#     4  11  23  38  66  98 128 167 217 272 334 398
#     4  11  24  42  66  97 131 173 224 272 334 406
#     4  11  21  43  66  94 132 170 209 272 334 396
#     4  11  24  44  68  97 136 177 221 283 344 392
#     4  12  22  45  67  95 140 174 218 282 341 402
#
# _framework density 21.566434999999998
#
# number of rings (size 3 to 8) (size 9 to 14) (size 15 to 20)
#    0.000    0.857    7.143    1.714    0.000    3.714 
#    0.000    2.143    0.000    0.000    0.000    0.000 
#    0.000    0.000    0.000    0.000    0.000    0.000 
#
# Total GULP energy -347166.897007 kJ/mol
# GULP energy per Si atom -12398.817750 kJ/mol
# Density = 2.151735 g / cm^3
# Si number density = 21.566435 Si / 1000 Ang^3
#
#
#
# Elastic Constant Matrix: (Units=GPa)
#
#
# Indices 1 2 3 4 5 6 
#
# 1 113.4971 13.4610 31.4125 0.0000 -0.3786 0.0000
# 2 13.4610 95.5062 0.9395 0.0000 -25.7261 0.0000
# 3 31.4125 0.9395 87.1193 0.0000 0.6255 0.0000
# 4 0.0000 0.0000 0.0000 11.7438 0.0000 -8.4006
# 5 -0.3786 -25.7261 0.6255 0.0000 46.3338 0.0000
# 6 0.0000 0.0000 0.0000 -8.4006 0.0000 17.1598
#
#
#
# Elastic Compliance Matrix: (Units=1/GPa)
#
#
# Indices 1 2 3 4 5 6 
#
# 1 0.009985 -0.001572 -0.003578 0.000000 -0.000743 0.000000
# 2 -0.001572 0.012562 0.000381 0.000000 0.006957 0.000000
# 3 -0.003578 0.000381 0.012764 0.000000 0.000010 0.000000
# 4 0.000000 0.000000 0.000000 0.131040 0.000000 0.064150
# 5 -0.000743 0.006957 0.000010 0.000000 0.025439 0.000000
# 6 0.000000 0.000000 0.000000 0.064150 0.000000 0.089680
#
#
# Mechanical properties :
#
#
# Convention : Reuss Voigt Hill
#
# Bulk Modulus (GPa) = 38.79839 43.08317 40.94078
# Shear Modulus (GPa) = 16.68891 31.73477 24.21184
#
# Velocity S-wave (km/s) = 2.78481 3.84016 3.35425
# Velocity P-wave (km/s) = 5.32630 6.29943 5.83319
#
# Compressibility (1/GPa) = 0.02577427
#
# Stress axis : x y z
#
# Youngs Moduli (GPa) = 100.14940 79.60276 78.34259
#
# Poissons Ratio (x) = 0.12516 0.28031
# Poissons Ratio (y) = 0.15747 -0.02989
# Poissons Ratio (z) = 0.35834 -0.03037
#
# Static dielectric constant tensor:
#      x y z
#    x 4.236240 0.000000 -0.088240 
#    y 0.000000 3.623180 0.000000 
#    z -0.088240 0.000000 3.865220 
# 
# 
# High freq. dielectric constant tensor:
#      x y z
#    x 1.864510 0.000000 -0.000600 
#    y 0.000000 1.824380 0.000000 
#    z -0.000600 0.000000 1.844050 
# 
# From -- ./inp_files/233731.got.cif
#   From: 2010.06.25/outbox.cif.g09.slc.cpg/sg12_117_cif.got.tgz:233731.got - 2010.06.28 00:19:55.
