data_PCOD8114649
_publ_section_title
;
Structure prediction by ZEFSAII (Michael W. Deem and Ramdas Pophale) SiO2 
 PCOD8114649
Probable space group: C 2/M
;
_chemical_formula_sum "Si O2"
_cell_formula_units_Z 64
_cell_length_a 28.471925
_cell_length_b 8.760084
_cell_length_c 20.776197
_cell_angle_alpha 90.000000
_cell_angle_beta 136.861973
_cell_angle_gamma 90.000000
_cell_volume 3543.184133
_symmetry_space_group_name_H-M "C 2/M"
_symmetry_group_IT_number 12
_symmetry_cell_setting 'monoclinic'
loop_
_space_group_symop_operation_xyz
x,y,z
-x,y,-z
-x,-y,-z
x,-y,z
1/2+x,1/2+y,z
1/2-x,1/2+y,-z
1/2-x,1/2-y,-z
1/2+x,1/2-y,z
loop_
_atom_site_type_symbol
_atom_site_label
_atom_site_fract_x
_atom_site_fract_y
_atom_site_fract_z
Si Si1 0.324253 0.181199 0.193980
Si Si2 0.327733 0.177397 0.343501
Si Si3 0.459287 0.678740 0.523266
Si Si4 0.459287 0.178740 0.895308
Si Si5 0.965308 0.319349 0.281640
Si Si6 0.534692 0.319349 0.851023
Si Si7 0.824253 0.181199 0.954526
Si Si8 0.327733 0.322603 0.811966
O O1 0.334579 0.237288 0.277315
O O2 0.387124 0.242479 0.213904
O O3 0.323517 0.000000 0.193890
O O4 0.250000 0.241752 0.093625
O O5 0.379285 0.277363 0.437778
O O6 0.250000 0.203176 0.290792
O O7 0.348206 0.000000 0.369080
O O8 0.500000 0.731676 0.500000
O O9 0.467602 0.500000 0.543436
O O10 0.487851 0.767351 0.612994
O O11 0.487851 0.267351 0.862708
O O12 0.379284 0.222637 0.820791
O O13 0.467602 0.000000 0.891769
O O14 0.500000 0.231677 0.000000
O O15 0.967550 0.500000 0.279576
O O16 0.993638 0.250000 0.243638
O O17 0.532450 0.500000 0.844477
O O18 0.612876 0.257521 0.939655
O O19 0.823516 0.000000 0.953143
O O20 0.834579 0.237289 0.891842
O O21 0.348205 0.500000 0.827331
#
# Coordination Sequence:
#
# PCOD8114649 Si02
#       8
#     8   8   8   8   8   8   8   8
#     4   8  15  29  50  76 106 142 181 218 260 317
#     4   9  17  32  56  83 108 138 180 224 270 324
#     4  11  22  35  54  81 112 143 182 228 272 319
#     4  11  22  35  54  81 112 143 182 228 272 319
#     4  11  22  36  55  77 109 147 186 227 273 324
#     4  11  22  36  55  77 109 147 186 227 273 324
#     4   8  15  29  50  76 106 142 181 218 260 317
#     4   9  17  32  56  83 108 138 180 224 270 324
#
# _framework density 18.062849
#
# number of rings (size 3 to 8) (size 9 to 14) (size 15 to 20)
#    0.000    2.250    2.500    3.000    0.000    2.000 
#    0.000    0.000    0.000    3.000    0.000    0.000 
#    0.000    0.000    0.000    0.000    0.000    0.000 
#
# Total GULP energy -396726.470911 kJ/mol
# GULP energy per Si atom -12397.702216 kJ/mol
# Density = 1.802174 g / cm^3
# Si number density = 18.062849 Si / 1000 Ang^3
#
#
#
# Elastic Constant Matrix: (Units=GPa)
#
#
# Indices 1 2 3 4 5 6 
#
# 1 92.8724 32.8354 58.4184 0.0000 -0.9951 0.0000
# 2 32.8354 54.6888 33.0070 0.0000 -0.8636 0.0000
# 3 58.4184 33.0070 93.6343 0.0000 -2.8332 0.0000
# 4 0.0000 0.0000 0.0000 22.2765 0.0000 0.5635
# 5 -0.9951 -0.8636 -2.8332 0.0000 26.5488 0.0000
# 6 0.0000 0.0000 0.0000 0.5635 0.0000 22.3889
#
#
#
# Elastic Compliance Matrix: (Units=1/GPa)
#
#
# Indices 1 2 3 4 5 6 
#
# 1 0.018895 -0.005371 -0.009911 0.000000 -0.000524 0.000000
# 2 -0.005371 0.024754 -0.005374 0.000000 0.000030 0.000000
# 3 -0.009911 -0.005374 0.018802 0.000000 0.001460 0.000000
# 4 0.000000 0.000000 0.000000 0.044919 0.000000 -0.001131
# 5 -0.000524 0.000030 0.001460 0.000000 0.037804 0.000000
# 6 0.000000 0.000000 0.000000 -0.001131 0.000000 0.044693
#
#
# Mechanical properties :
#
#
# Convention : Reuss Voigt Hill
#
# Bulk Modulus (GPa) = 47.30713 54.41301 50.86007
# Shear Modulus (GPa) = 20.98845 22.03848 21.51346
#
# Velocity S-wave (km/s) = 3.41246 3.49678 3.45488
# Velocity P-wave (km/s) = 6.46326 6.81858 6.64329
#
# Compressibility (1/GPa) = 0.02113846
#
# Stress axis : x y z
#
# Youngs Moduli (GPa) = 52.92372 40.39732 53.18586
#
# Poissons Ratio (x) = 0.21698 0.52713
# Poissons Ratio (y) = 0.28426 0.28582
# Poissons Ratio (z) = 0.52453 0.21710
#
# Static dielectric constant tensor:
#      x y z
#    x 3.380650 0.000000 0.229540 
#    y 0.000000 3.059010 0.000000 
#    z 0.229540 0.000000 3.334900 
# 
# 
# High freq. dielectric constant tensor:
#      x y z
#    x 1.691710 0.000000 0.014980 
#    y 0.000000 1.682260 0.000000 
#    z 0.014980 0.000000 1.688730 
# 
# From -- ./inp_files/295829.got.cif
#   From: 2010.06.25/outbox.cif.g09.slc.cpg/sg12_148_cif.got.tgz:295829.got - 2010.06.28 00:19:55.
