data_PCOD8114097
_publ_section_title
;
Structure prediction by ZEFSAII (Michael W. Deem and Ramdas Pophale) SiO2 
 PCOD8114097
Probable space group: C 2/M
;
_chemical_formula_sum "Si O2"
_cell_formula_units_Z 48
_cell_length_a 31.925808
_cell_length_b 16.513387
_cell_length_c 10.230780
_cell_angle_alpha 90.000000
_cell_angle_beta 29.536420
_cell_angle_gamma 90.000000
_cell_volume 2658.968526
_symmetry_space_group_name_H-M "C 2/M"
_symmetry_group_IT_number 12
_symmetry_cell_setting 'monoclinic'
loop_
_space_group_symop_operation_xyz
x,y,z
-x,y,-z
-x,-y,-z
x,-y,z
1/2+x,1/2+y,z
1/2-x,1/2+y,-z
1/2-x,1/2-y,-z
1/2+x,1/2-y,z
loop_
_atom_site_type_symbol
_atom_site_label
_atom_site_fract_x
_atom_site_fract_y
_atom_site_fract_z
Si Si1 0.616916 0.591468 0.917288
Si Si2 0.800981 0.909133 0.584968
Si Si3 0.157843 0.671202 0.856118
Si Si4 0.004514 0.227422 0.337669
Si Si5 0.826620 0.757858 0.692654
Si Si6 0.228923 0.673653 0.398612
O O1 0.584389 0.500000 0.023897
O O2 0.644492 0.608982 0.693714
O O3 0.697393 0.605254 0.796297
O O4 0.540102 0.652001 0.158157
O O5 0.699930 0.902862 0.822855
O O6 0.828450 0.846541 0.622112
O O7 0.818435 0.000000 0.588874
O O8 0.156765 0.654237 0.703157
O O9 0.225203 0.741982 0.698844
O O10 0.064680 0.693636 0.159723
O O11 0.913211 0.254477 0.535510
O O12 0.000000 0.200621 0.500000
O O13 0.817531 0.683348 0.614584
O O14 0.750000 0.750000 0.000000
#
# Coordination Sequence:
#
# PCOD8114097 Si02
#       6
#     8   8   8   8   8   8
#     4   9  18  33  53  78 106 133 162 201 253 310
#     4   9  18  34  56  78 101 131 166 206 253 303
#     4   8  15  30  51  72  95 126 166 204 243 293
#     4  11  21  32  49  72 102 138 172 210 251 295
#     4  11  21  33  50  72 101 135 172 212 251 295
#     4   8  15  30  50  71  96 129 164 199 243 297
#
# _framework density 18.052114
#
# number of rings (size 3 to 8) (size 9 to 14) (size 15 to 20)
#    0.000    2.667    0.000    6.000    0.000    3.667 
#    0.000    4.167    0.000    5.500    0.000    4.667 
#    0.000    0.000    0.000    0.000    0.000    0.000 
#
# Total GULP energy -297446.479000 kJ/mol
# GULP energy per Si atom -12393.603292 kJ/mol
# Density = 1.801103 g / cm^3
# Si number density = 18.052114 Si / 1000 Ang^3
#
#
#
# Elastic Constant Matrix: (Units=GPa)
#
#
# Indices 1 2 3 4 5 6 
#
# 1 90.8831 6.5388 31.9550 0.0000 -2.8346 0.0000
# 2 6.5388 19.8225 17.4866 0.0000 0.2474 0.0000
# 3 31.9550 17.4866 95.9195 0.0000 -8.1054 0.0000
# 4 0.0000 0.0000 0.0000 17.3179 0.0000 -1.6883
# 5 -2.8346 0.2474 -8.1054 0.0000 27.3028 0.0000
# 6 0.0000 0.0000 0.0000 -1.6883 0.0000 18.8685
#
#
#
# Elastic Compliance Matrix: (Units=1/GPa)
#
#
# Indices 1 2 3 4 5 6 
#
# 1 0.012468 -0.000545 -0.004046 0.000000 0.000098 0.000000
# 2 -0.000545 0.060546 -0.011188 0.000000 -0.003927 0.000000
# 3 -0.004046 -0.011188 0.014141 0.000000 0.003879 0.000000
# 4 0.000000 0.000000 0.000000 0.058252 0.000000 0.005212
# 5 0.000098 -0.003927 0.003879 0.000000 0.037824 0.000000
# 6 0.000000 0.000000 0.000000 0.005212 0.000000 0.053465
#
#
# Mechanical properties :
#
#
# Convention : Reuss Voigt Hill
#
# Bulk Modulus (GPa) = 17.98657 35.39843 26.69250
# Shear Modulus (GPa) = 17.43463 22.74081 20.08772
#
# Velocity S-wave (km/s) = 3.11109 3.55312 3.33943
# Velocity P-wave (km/s) = 4.78441 6.04024 5.44862
#
# Compressibility (1/GPa) = 0.05559703
#
# Stress axis : x y z
#
# Youngs Moduli (GPa) = 80.20528 16.51632 70.71741
#
# Poissons Ratio (x) = 0.00900 0.28612
# Poissons Ratio (y) = 0.04369 0.79120
# Poissons Ratio (z) = 0.32451 0.18479
#
# Static dielectric constant tensor:
#      x y z
#    x 3.392030 0.000000 0.103530 
#    y 0.000000 3.390700 0.000000 
#    z 0.103530 0.000000 3.284850 
# 
# 
# High freq. dielectric constant tensor:
#      x y z
#    x 1.689680 0.000000 0.008710 
#    y 0.000000 1.671890 0.000000 
#    z 0.008710 0.000000 1.693490 
# 
# From -- ./inp_files/112753.got.cif
#   From: 2010.06.25/outbox.cif.g09.slc.cpg/sg12_57_cif.got.tgz:112753.got - 2010.06.28 00:19:55.
