data_PCOD8114010
_publ_section_title
;
Structure prediction by ZEFSAII (Michael W. Deem and Ramdas Pophale) SiO2 
 PCOD8114010
Probable space group: C 2/M
;
_chemical_formula_sum "Si O2"
_cell_formula_units_Z 32
_cell_length_a 13.950895
_cell_length_b 7.552627
_cell_length_c 15.958020
_cell_angle_alpha 90.000000
_cell_angle_beta 91.357210
_cell_angle_gamma 90.000000
_cell_volume 1680.959526
_symmetry_space_group_name_H-M "C 2/M"
_symmetry_group_IT_number 12
_symmetry_cell_setting 'monoclinic'
loop_
_space_group_symop_operation_xyz
x,y,z
-x,y,-z
-x,-y,-z
x,-y,z
1/2+x,1/2+y,z
1/2-x,1/2+y,-z
1/2-x,1/2-y,-z
1/2+x,1/2-y,z
loop_
_atom_site_type_symbol
_atom_site_label
_atom_site_fract_x
_atom_site_fract_y
_atom_site_fract_z
Si Si1 0.893468 0.710447 0.005820
Si Si2 0.602365 0.000000 0.397400
Si Si3 0.751222 0.297408 0.864888
Si Si4 0.116086 0.500000 0.595873
Si Si5 0.761385 0.197761 0.320220
O O1 0.891512 0.500000 0.003101
O O2 0.830490 0.791249 0.927886
O O3 0.852306 0.775314 0.093926
O O4 0.000000 0.786778 0.000000
O O5 0.656189 0.824689 0.361400
O O6 0.611498 0.000000 0.496619
O O7 0.491147 0.000000 0.367346
O O8 0.779301 0.500000 0.852700
O O9 0.750374 0.212642 0.772158
O O10 0.171025 0.323353 0.624333
O O11 0.809223 0.000000 0.315364
#
# Coordination Sequence:
#
# PCOD8114010 Si02
#       5
#     8   4   8   4   8
#     4   9  18  31  52  75 102 143 181 219 271 327
#     4   9  22  40  59  92 117 142 201 240 274 359
#     4   9  18  34  49  73 110 138 176 232 272 321
#     4  11  20  40  65  84 115 160 185 232 304 341
#     4   9  21  38  57  86 121 150 189 245 281 341
#
# _framework density 19.036746999999998
#
# number of rings (size 3 to 8) (size 9 to 14) (size 15 to 20)
#    0.750    2.000    0.000    0.750    1.750    2.500 
#    2.250    1.250    0.000    0.000    0.000    0.000 
#    0.000    0.000    0.000    0.000    0.000    0.000 
#
# Total GULP energy -198274.749961 kJ/mol
# GULP energy per Si atom -12392.171873 kJ/mol
# Density = 1.899342 g / cm^3
# Si number density = 19.036747 Si / 1000 Ang^3
#
#
#
# Elastic Constant Matrix: (Units=GPa)
#
#
# Indices 1 2 3 4 5 6 
#
# 1 157.7847 26.8450 58.1212 0.0000 -14.5961 0.0000
# 2 26.8450 54.5146 16.1076 0.0000 4.1081 0.0000
# 3 58.1212 16.1076 118.2407 0.0000 -15.5465 0.0000
# 4 0.0000 0.0000 0.0000 21.8290 0.0000 -3.5698
# 5 -14.5961 4.1081 -15.5465 0.0000 18.3866 0.0000
# 6 0.0000 0.0000 0.0000 -3.5698 0.0000 14.8160
#
#
#
# Elastic Compliance Matrix: (Units=1/GPa)
#
#
# Indices 1 2 3 4 5 6 
#
# 1 0.008552 -0.003694 -0.003037 0.000000 0.005046 0.000000
# 2 -0.003694 0.021616 -0.002418 0.000000 -0.009807 0.000000
# 3 -0.003037 -0.002418 0.011289 0.000000 0.007674 0.000000
# 4 0.000000 0.000000 0.000000 0.047690 0.000000 0.011490
# 5 0.005046 -0.009807 0.007674 0.000000 0.067074 0.000000
# 6 0.000000 0.000000 0.000000 0.011490 0.000000 0.070263
#
#
# Mechanical properties :
#
#
# Convention : Reuss Voigt Hill
#
# Bulk Modulus (GPa) = 43.18152 59.18748 51.18450
# Shear Modulus (GPa) = 19.80190 26.30408 23.05299
#
# Velocity S-wave (km/s) = 3.22870 3.72123 3.48368
# Velocity P-wave (km/s) = 6.05242 7.04429 6.56711
#
# Compressibility (1/GPa) = 0.02315806
#
# Stress axis : x y z
#
# Youngs Moduli (GPa) = 116.93537 46.26106 88.58509
#
# Poissons Ratio (x) = 0.17090 0.26902
# Poissons Ratio (y) = 0.43198 0.21423
# Poissons Ratio (z) = 0.35511 0.11188
#
# Static dielectric constant tensor:
#      x y z
#    x 3.576910 0.000000 0.014910 
#    y 0.000000 3.184350 0.000000 
#    z 0.014910 0.000000 3.638040 
# 
# 
# High freq. dielectric constant tensor:
#      x y z
#    x 1.729160 0.000000 -0.004210 
#    y 0.000000 1.720140 0.000000 
#    z -0.004210 0.000000 1.749380 
# 
# From -- ./inp_files/210387.got.cif
#   From: 2010.06.25/outbox.cif.g09.slc.cpg/sg12_106_cif.got.tgz:210387.got - 2010.06.28 00:19:55.
