data_PCOD8114965
_publ_section_title
;
Structure prediction by ZEFSAII (Michael W. Deem and Ramdas Pophale) SiO2 
 PCOD8114965
Probable space group: C 2/M
;
_chemical_formula_sum "Si O2"
_cell_formula_units_Z 56
_cell_length_a 7.502101
_cell_length_b 17.406459
_cell_length_c 31.407244
_cell_angle_alpha 90.000000
_cell_angle_beta 44.102492
_cell_angle_gamma 90.000000
_cell_volume 2854.285954
_symmetry_space_group_name_H-M "C 2/M"
_symmetry_group_IT_number 12
_symmetry_cell_setting 'monoclinic'
loop_
_space_group_symop_operation_xyz
x,y,z
-x,y,-z
-x,-y,-z
x,-y,z
1/2+x,1/2+y,z
1/2-x,1/2+y,-z
1/2-x,1/2-y,-z
1/2+x,1/2-y,z
loop_
_atom_site_type_symbol
_atom_site_label
_atom_site_fract_x
_atom_site_fract_y
_atom_site_fract_z
Si Si1 0.791275 0.167343 0.127978
Si Si2 0.107126 0.655477 0.878215
Si Si3 0.986499 0.591424 0.569082
Si Si4 0.402045 0.591412 0.433198
Si Si5 0.844893 0.910211 0.206944
Si Si6 0.306907 0.585852 0.994361
Si Si7 0.469154 0.091648 0.344526
O O1 0.808937 0.258189 0.127635
O O2 0.559227 0.144653 0.136195
O O3 0.741952 0.132903 0.182816
O O4 0.064178 0.134443 0.065449
O O5 0.361083 0.604637 0.831052
O O6 0.952163 0.627337 0.946346
O O7 0.984325 0.500000 0.570414
O O8 0.253079 0.618667 0.501478
O O9 0.957155 0.624470 0.621633
O O10 0.747470 0.622255 0.582635
O O11 0.410421 0.500000 0.431350
O O12 0.687889 0.624942 0.382228
O O13 0.672237 0.878298 0.275243
O O14 0.803335 0.000000 0.206426
O O15 0.244051 0.500000 0.988553
O O16 0.500000 0.581378 0.000000
O O17 0.467103 0.000000 0.345313
#
# Coordination Sequence:
#
# PCOD8114965 Si02
#       7
#     8   8   8   8   8   8   8
#     4  11  22  40  62  83 115 153 191 237 286 346
#     4  11  22  40  62  83 115 153 191 237 286 346
#     4   8  13  22  39  64  97 139 181 220 272 333
#     4   8  13  22  39  64  97 139 181 220 272 333
#     4  11  24  38  56  86 116 153 199 237 287 345
#     4   9  19  35  59  90 117 142 182 236 294 344
#     4   9  17  28  42  66 105 143 181 227 275 330
#
# _framework density 19.619617999999999
#
# number of rings (size 3 to 8) (size 9 to 14) (size 15 to 20)
#    0.000    2.429    1.429    2.571    0.000    5.143 
#    0.000    4.286    0.000    0.000    0.000    0.000 
#    0.000    4.571    0.000    0.000    0.000    0.000 
#
# Total GULP energy -347134.362528 kJ/mol
# GULP energy per Si atom -12397.655805 kJ/mol
# Density = 1.957496 g / cm^3
# Si number density = 19.619618 Si / 1000 Ang^3
#
#
#
# Elastic Constant Matrix: (Units=GPa)
#
#
# Indices 1 2 3 4 5 6 
#
# 1 81.5772 -9.1471 40.7191 -0.0048 4.5099 -0.0266
# 2 -9.1471 42.3198 4.3211 -0.0010 3.7777 -0.0161
# 3 40.7191 4.3211 135.9617 0.0035 7.8335 -0.0394
# 4 -0.0048 -0.0010 0.0035 2.1464 0.0017 4.3798
# 5 4.5099 3.7777 7.8335 0.0017 25.2068 0.0163
# 6 -0.0266 -0.0161 -0.0394 4.3798 0.0163 0.3406
#
#
#
# Elastic Compliance Matrix: (Units=1/GPa)
#
#
# Indices 1 2 3 4 5 6 
#
# 1 0.015056 0.003883 -0.004525 0.000073 -0.001869 -0.000014
# 2 0.003883 0.024994 -0.001732 0.000118 -0.003902 -0.000045
# 3 -0.004525 -0.001732 0.008862 0.000055 -0.001685 -0.000039
# 4 0.000073 0.000118 0.000055 -0.018455 -0.000200 0.237364
# 5 -0.001869 -0.003902 -0.001685 -0.000200 0.041115 0.000081
# 6 -0.000014 -0.000045 -0.000039 0.237364 0.000081 -0.116324
#
#
# Mechanical properties :
#
#
# Convention : Reuss Voigt Hill
#
# Bulk Modulus (GPa) = 22.64311 36.84944 29.74628
# Shear Modulus (GPa) = -197.76313 20.46979 -88.64667
#
# Velocity S-wave (km/s) = -10.05075 3.23357 -6.72910
# Velocity P-wave (km/s) = 11.09612 5.72399 6.72160
#
# Compressibility (1/GPa) = 0.04416354
#
# Stress axis : x y z
#
# Youngs Moduli (GPa) = 66.42069 40.00951 112.83838
#
# Poissons Ratio (x) = -0.15536 0.51056
# Poissons Ratio (y) = -0.25791 0.19549
# Poissons Ratio (z) = 0.30053 0.06932
#
# Static dielectric constant tensor:
#      x y z
#    x 3.762030 -0.000030 0.016940 
#    y -0.000030 3.168260 0.000020 
#    z 0.016940 0.000020 3.812920 
# 
# 
# High freq. dielectric constant tensor:
#      x y z
#    x 1.773180 0.000000 0.002240 
#    y 0.000000 1.720860 0.000000 
#    z 0.002240 0.000000 1.766620 
# 
# From -- ./inp_files/372767.got.cif
#   From: 2010.06.25/outbox.cif.g09.slc.cpg/sg12_187_cif.got.tgz:372767.got - 2010.06.28 00:19:55.
