data_PCOD8114801
_publ_section_title
;
Structure prediction by ZEFSAII (Michael W. Deem and Ramdas Pophale) SiO2 
 PCOD8114801
Probable space group: C 2/M
;
_chemical_formula_sum "Si O2"
_cell_formula_units_Z 48
_cell_length_a 14.797175
_cell_length_b 8.575557
_cell_length_c 24.611733
_cell_angle_alpha 90.000000
_cell_angle_beta 50.132983
_cell_angle_gamma 90.000000
_cell_volume 2397.072259
_symmetry_space_group_name_H-M "C 2/M"
_symmetry_group_IT_number 12
_symmetry_cell_setting 'monoclinic'
loop_
_space_group_symop_operation_xyz
x,y,z
-x,y,-z
-x,-y,-z
x,-y,z
1/2+x,1/2+y,z
1/2-x,1/2+y,-z
1/2-x,1/2-y,-z
1/2+x,1/2-y,z
loop_
_atom_site_type_symbol
_atom_site_label
_atom_site_fract_x
_atom_site_fract_y
_atom_site_fract_z
Si Si1 0.614377 0.684891 0.392233
Si Si2 0.649682 0.684425 0.499394
Si Si3 0.740363 0.816790 0.766338
Si Si4 0.329370 0.182464 0.837786
Si Si5 0.011769 0.182520 0.140874
Si Si6 0.890794 0.184831 0.008978
O O1 0.608812 0.500000 0.393948
O O2 0.667426 0.740359 0.429873
O O3 0.480675 0.745222 0.433309
O O4 0.698539 0.746680 0.312073
O O5 0.656914 0.500000 0.500481
O O6 0.750000 0.750000 0.500000
O O7 0.826308 0.778297 0.783199
O O8 0.621888 0.721195 0.822468
O O9 0.714416 0.000000 0.773090
O O10 0.452884 0.220840 0.819175
O O11 0.317764 0.000000 0.829814
O O12 0.228808 0.246375 0.917655
O O13 0.096222 0.237192 0.058659
O O14 0.024520 0.000000 0.147142
O O15 0.895180 0.000000 0.011043
O O16 0.000000 0.257233 0.000000
#
# Coordination Sequence:
#
# PCOD8114801 Si02
#       6
#     8   8   8   8   8   8
#     4   8  18  36  57  79 111 147 178 215 266 323
#     4   9  17  35  60  84 108 141 179 219 264 314
#     4  11  22  38  57  82 114 149 186 226 274 331
#     4  11  22  38  58  81 110 146 187 233 282 332
#     4  11  22  38  58  81 110 146 187 233 282 332
#     4   9  17  34  58  79 104 140 184 235 284 327
#
# _framework density 20.024425999999998
#
# number of rings (size 3 to 8) (size 9 to 14) (size 15 to 20)
#    0.000    2.167    1.667    3.000    0.000    1.333 
#    0.000   11.667    0.000    0.000    0.000    0.000 
#    0.000    0.000    0.000    0.000    0.000    0.000 
#
# Total GULP energy -297555.760375 kJ/mol
# GULP energy per Si atom -12398.156682 kJ/mol
# Density = 1.997885 g / cm^3
# Si number density = 20.024426 Si / 1000 Ang^3
#
#
#
# Elastic Constant Matrix: (Units=GPa)
#
#
# Indices 1 2 3 4 5 6 
#
# 1 135.6184 20.1257 33.7826 0.0000 15.5925 0.0001
# 2 20.1257 36.5045 29.3762 0.0000 4.5724 0.0002
# 3 33.7826 29.3762 104.0346 0.0000 26.6405 0.0000
# 4 0.0000 0.0000 0.0000 18.4501 0.0000 -1.2301
# 5 15.5925 4.5724 26.6405 0.0000 26.4038 0.0000
# 6 0.0001 0.0002 0.0000 -1.2301 0.0000 35.3940
#
#
#
# Elastic Compliance Matrix: (Units=1/GPa)
#
#
# Indices 1 2 3 4 5 6 
#
# 1 0.008524 -0.003571 -0.000848 0.000000 -0.003560 0.000000
# 2 -0.003571 0.037513 -0.011204 0.000000 0.006917 0.000000
# 3 -0.000848 -0.011204 0.016755 0.000000 -0.014464 0.000000
# 4 0.000000 0.000000 0.000000 0.054326 0.000000 0.001888
# 5 -0.003560 0.006917 -0.014464 0.000000 0.053372 0.000000
# 6 0.000000 0.000000 0.000000 0.001888 0.000000 0.028319
#
#
# Mechanical properties :
#
#
# Convention : Reuss Voigt Hill
#
# Bulk Modulus (GPa) = 31.70054 49.19184 40.44619
# Shear Modulus (GPa) = 20.78394 28.90778 24.84586
#
# Velocity S-wave (km/s) = 3.22519 3.80363 3.52629
# Velocity P-wave (km/s) = 5.45293 6.62642 6.06810
#
# Compressibility (1/GPa) = 0.03154520
#
# Stress axis : x y z
#
# Youngs Moduli (GPa) = 117.31418 26.65775 59.68302
#
# Poissons Ratio (x) = 0.09520 0.05061
# Poissons Ratio (y) = 0.41895 0.66869
# Poissons Ratio (z) = 0.09949 0.29868
#
# Static dielectric constant tensor:
#      x y z
#    x 3.722600 0.000000 0.107940 
#    y 0.000000 3.187240 0.000000 
#    z 0.107940 0.000000 3.888020 
# 
# 
# High freq. dielectric constant tensor:
#      x y z
#    x 1.793940 0.000000 0.006130 
#    y 0.000000 1.750410 0.000000 
#    z 0.006130 0.000000 1.776360 
# 
# From -- ./inp_files/360262.got.cif
#   From: 2010.06.25/outbox.cif.g09.slc.cpg/sg12_181_cif.got.tgz:360262.got - 2010.06.28 00:19:55.
