data_PCOD8114248
_publ_section_title
;
Structure prediction by ZEFSAII (Michael W. Deem and Ramdas Pophale) SiO2 
 PCOD8114248
Probable space group: C 2/M
;
_chemical_formula_sum "Si O2"
_cell_formula_units_Z 64
_cell_length_a 27.120789
_cell_length_b 15.179762
_cell_length_c 12.702136
_cell_angle_alpha 90.000000
_cell_angle_beta 144.236683
_cell_angle_gamma 90.000000
_cell_volume 3056.206499
_symmetry_space_group_name_H-M "C 2/M"
_symmetry_group_IT_number 12
_symmetry_cell_setting 'monoclinic'
loop_
_space_group_symop_operation_xyz
x,y,z
-x,y,-z
-x,-y,-z
x,-y,z
1/2+x,1/2+y,z
1/2-x,1/2+y,-z
1/2-x,1/2-y,-z
1/2+x,1/2-y,z
loop_
_atom_site_type_symbol
_atom_site_label
_atom_site_fract_x
_atom_site_fract_y
_atom_site_fract_z
Si Si1 0.827474 0.645289 0.850154
Si Si2 0.101411 0.751981 0.397812
Si Si3 0.186074 0.099223 0.984598
Si Si4 0.334308 0.897988 0.085122
Si Si5 0.011324 0.405167 0.141765
Si Si6 0.956561 0.761076 0.314389
Si Si7 0.725732 0.328643 0.269669
Si Si8 0.696018 0.400721 0.448790
O O1 0.842064 0.749207 0.853697
O O2 0.776666 0.601663 0.666055
O O3 0.784554 0.624829 0.889442
O O4 0.918878 0.604373 0.030092
O O5 0.076106 0.670853 0.281037
O O6 0.186301 0.721238 0.603321
O O7 0.121479 0.837409 0.360649
O O8 0.028196 0.774907 0.351339
O O9 0.113592 0.165623 0.825954
O O10 0.157367 0.000000 0.907224
O O11 0.270562 0.124844 0.068786
O O12 0.205787 0.102115 0.143727
O O13 0.417121 0.836656 0.241204
O O14 0.362631 0.000000 0.139727
O O15 0.048412 0.500000 0.243617
O O16 0.000000 0.403230 0.000000
O O17 0.000000 0.778151 0.500000
O O18 0.725547 0.373070 0.383571
O O19 0.660599 0.500000 0.383767
#
# Coordination Sequence:
#
# PCOD8114248 Si02
#       8
#     8   8   8   8   8   8   8   8
#     4  11  21  39  65  94 128 171 215 267 319 384
#     4  11  24  39  62  98 129 168 213 264 323 386
#     4  11  25  44  69  95 127 175 224 265 316 385
#     4  11  23  42  69  98 128 169 219 268 322 387
#     4  11  21  35  59  92 129 165 207 265 328 383
#     4  12  26  43  66  95 133 169 212 273 334 386
#     4  11  22  43  67  92 130 172 219 264 315 384
#     4  11  24  41  66  97 132 174 220 264 311 377
#
# _framework density 20.940994
#
# number of rings (size 3 to 8) (size 9 to 14) (size 15 to 20)
#    0.000    0.875    2.500    5.625    3.500    3.000 
#    0.000    0.000    0.000    4.125    0.000    0.000 
#    0.000    0.000    0.000    0.000    0.000    0.000 
#
# Total GULP energy -396780.930030 kJ/mol
# GULP energy per Si atom -12399.404063 kJ/mol
# Density = 2.089333 g / cm^3
# Si number density = 20.940994 Si / 1000 Ang^3
#
#
#
# Elastic Constant Matrix: (Units=GPa)
#
#
# Indices 1 2 3 4 5 6 
#
# 1 118.1383 49.4818 50.2254 0.0000 -9.4077 0.0000
# 2 49.4818 146.1509 40.9622 0.0000 -0.0427 0.0000
# 3 50.2254 40.9622 88.0055 0.0000 -18.8293 0.0000
# 4 0.0000 0.0000 0.0000 21.6434 0.0000 -2.0717
# 5 -9.4077 -0.0427 -18.8293 0.0000 32.2652 0.0000
# 6 0.0000 0.0000 0.0000 -2.0717 0.0000 28.8565
#
#
#
# Elastic Compliance Matrix: (Units=1/GPa)
#
#
# Indices 1 2 3 4 5 6 
#
# 1 0.011890 -0.002456 -0.005601 0.000000 0.000195 0.000000
# 2 -0.002456 0.008546 -0.003116 0.000000 -0.002523 0.000000
# 3 -0.005601 -0.003116 0.017894 0.000000 0.008805 0.000000
# 4 0.000000 0.000000 0.000000 0.046523 0.000000 0.003340
# 5 0.000195 -0.002523 0.008805 0.000000 0.036185 0.000000
# 6 0.000000 0.000000 0.000000 0.003340 0.000000 0.034894
#
#
# Mechanical properties :
#
#
# Convention : Reuss Voigt Hill
#
# Bulk Modulus (GPa) = 62.56164 70.40373 66.48268
# Shear Modulus (GPa) = 27.23214 30.66136 28.94675
#
# Velocity S-wave (km/s) = 3.61005 3.83061 3.72196
# Velocity P-wave (km/s) = 6.87871 7.29779 7.09135
#
# Compressibility (1/GPa) = 0.01598424
#
# Stress axis : x y z
#
# Youngs Moduli (GPa) = 84.10481 117.00930 55.88507
#
# Poissons Ratio (x) = 0.28734 0.31301
# Poissons Ratio (y) = 0.20653 0.17415
# Poissons Ratio (z) = 0.47107 0.36464
#
# Static dielectric constant tensor:
#      x y z
#    x 3.787620 0.000000 -0.194550 
#    y 0.000000 4.131990 0.000000 
#    z -0.194550 0.000000 3.757720 
# 
# 
# High freq. dielectric constant tensor:
#      x y z
#    x 1.830620 0.000000 -0.014060 
#    y 0.000000 1.832700 0.000000 
#    z -0.014060 0.000000 1.809290 
# 
# From -- ./inp_files/183816.got.cif
#   From: 2010.06.25/outbox.cif.g09.slc.cpg/sg12_92_cif.got.tgz:183816.got - 2010.06.28 00:19:55.
