data_PCOD8114761
_publ_section_title
;
Structure prediction by ZEFSAII (Michael W. Deem and Ramdas Pophale) SiO2 
 PCOD8114761
Probable space group: C 2/M
;
_chemical_formula_sum "Si O2"
_cell_formula_units_Z 56
_cell_length_a 23.690812
_cell_length_b 8.443260
_cell_length_c 15.628158
_cell_angle_alpha 90.000000
_cell_angle_beta 116.733194
_cell_angle_gamma 90.000000
_cell_volume 2791.922161
_symmetry_space_group_name_H-M "C 2/M"
_symmetry_group_IT_number 12
_symmetry_cell_setting 'monoclinic'
loop_
_space_group_symop_operation_xyz
x,y,z
-x,y,-z
-x,-y,-z
x,-y,z
1/2+x,1/2+y,z
1/2-x,1/2+y,-z
1/2-x,1/2-y,-z
1/2+x,1/2-y,z
loop_
_atom_site_type_symbol
_atom_site_label
_atom_site_fract_x
_atom_site_fract_y
_atom_site_fract_z
Si Si1 0.689484 0.684132 0.411081
Si Si2 0.716543 0.182583 0.249396
Si Si3 0.100841 0.812317 0.085647
Si Si4 0.084581 0.684959 0.452946
Si Si5 0.012354 0.812625 0.874878
Si Si6 0.648870 0.185138 0.672446
Si Si7 0.961555 0.814010 0.296774
O O1 0.680993 0.500000 0.425845
O O2 0.750000 0.750000 0.500000
O O3 0.697618 0.707795 0.316130
O O4 0.627717 0.776243 0.400694
O O5 0.667444 0.222507 0.140190
O O6 0.786702 0.221708 0.265236
O O7 0.712599 0.000000 0.273269
O O8 0.053964 0.755007 0.129966
O O9 0.111506 0.000000 0.096048
O O10 0.070712 0.759259 0.974613
O O11 0.069439 0.500000 0.447065
O O12 0.119741 0.743624 0.562494
O O13 0.018558 0.776853 0.400477
O O14 0.021306 0.745221 0.785502
O O15 0.010255 0.000000 0.870497
O O16 0.601100 0.224119 0.716101
O O17 0.663825 0.000000 0.679290
O O18 0.948100 0.000000 0.285878
#
# Coordination Sequence:
#
# PCOD8114761 Si02
#       7
#     8   8   8   8   8   8   8
#     4  12  23  37  58  85 117 152 190 235 287 340
#     4  12  24  38  58  87 120 153 193 238 294 350
#     4   9  17  36  64  89 116 150 190 232 288 351
#     4  11  23  39  59  84 115 154 200 243 289 343
#     4   8  17  35  61  90 116 148 188 236 288 348
#     4  11  24  41  58  78 113 159 203 243 287 342
#     4  11  22  37  59  87 118 152 196 244 294 346
#
# _framework density 20.057866000000001
#
# number of rings (size 3 to 8) (size 9 to 14) (size 15 to 20)
#    0.000    1.429    1.429    6.000    0.000    4.571 
#    0.000    4.286    0.000    0.000    0.000    0.000 
#    0.000    0.000    0.000    0.000    0.000    0.000 
#
# Total GULP energy -347334.859493 kJ/mol
# GULP energy per Si atom -12404.816410 kJ/mol
# Density = 2.001221 g / cm^3
# Si number density = 20.057866 Si / 1000 Ang^3
#
#
#
# Elastic Constant Matrix: (Units=GPa)
#
#
# Indices 1 2 3 4 5 6 
#
# 1 116.5915 14.8132 50.2157 0.0000 14.1320 0.0000
# 2 14.8132 55.5449 28.0077 0.0000 2.4276 0.0000
# 3 50.2157 28.0077 101.4409 0.0000 19.8711 0.0000
# 4 0.0000 0.0000 0.0000 25.2200 0.0000 3.6189
# 5 14.1320 2.4276 19.8711 0.0000 33.0417 0.0000
# 6 0.0000 0.0000 0.0000 3.6189 0.0000 33.9823
#
#
#
# Elastic Compliance Matrix: (Units=1/GPa)
#
#
# Indices 1 2 3 4 5 6 
#
# 1 0.010982 -0.000324 -0.005023 0.000000 -0.001652 0.000000
# 2 -0.000324 0.021066 -0.006098 0.000000 0.002258 0.000000
# 3 -0.005023 -0.006098 0.015325 0.000000 -0.006620 0.000000
# 4 0.000000 0.000000 0.000000 0.040266 0.000000 -0.004288
# 5 -0.001652 0.002258 -0.006620 0.000000 0.034787 0.000000
# 6 0.000000 0.000000 0.000000 -0.004288 0.000000 0.029884
#
#
# Mechanical properties :
#
#
# Convention : Reuss Voigt Hill
#
# Bulk Modulus (GPa) = 40.84579 51.07229 45.95904
# Shear Modulus (GPa) = 27.26852 30.48484 28.87668
#
# Velocity S-wave (km/s) = 3.69113 3.90275 3.79841
# Velocity P-wave (km/s) = 6.21081 6.76952 6.49617
#
# Compressibility (1/GPa) = 0.02448233
#
# Stress axis : x y z
#
# Youngs Moduli (GPa) = 91.05934 47.46958 65.25213
#
# Poissons Ratio (x) = 0.01536 0.32778
# Poissons Ratio (y) = 0.02947 0.39794
# Poissons Ratio (z) = 0.45742 0.28949
#
# Static dielectric constant tensor:
#      x y z
#    x 3.720240 0.000000 -0.012710 
#    y 0.000000 3.452000 0.000000 
#    z -0.012710 0.000000 3.912110 
# 
# 
# High freq. dielectric constant tensor:
#      x y z
#    x 1.783390 0.000000 0.010530 
#    y 0.000000 1.773230 0.000000 
#    z 0.010530 0.000000 1.779770 
# 
# From -- ./inp_files/238973.got.cif
#   From: 2010.06.25/outbox.cif.g09.slc.cpg/sg12_120_cif.got.tgz:238973.got - 2010.06.28 00:19:55.
