data_PCOD8114320
_publ_section_title
;
Structure prediction by ZEFSAII (Michael W. Deem and Ramdas Pophale) SiO2 
 PCOD8114320
Probable space group: C 2/M
;
_chemical_formula_sum "Si O2"
_cell_formula_units_Z 56
_cell_length_a 15.881226
_cell_length_b 18.690098
_cell_length_c 20.175662
_cell_angle_alpha 90.000000
_cell_angle_beta 28.682905
_cell_angle_gamma 90.000000
_cell_volume 2874.286413
_symmetry_space_group_name_H-M "C 2/M"
_symmetry_group_IT_number 12
_symmetry_cell_setting 'monoclinic'
loop_
_space_group_symop_operation_xyz
x,y,z
-x,y,-z
-x,-y,-z
x,-y,z
1/2+x,1/2+y,z
1/2-x,1/2+y,-z
1/2-x,1/2-y,-z
1/2+x,1/2-y,z
loop_
_atom_site_type_symbol
_atom_site_label
_atom_site_fract_x
_atom_site_fract_y
_atom_site_fract_z
Si Si1 0.010933 0.584737 0.822401
Si Si2 0.670674 0.328154 0.066531
Si Si3 0.615593 0.852557 0.608724
Si Si4 0.348599 0.831978 0.158781
Si Si5 0.583528 0.673530 0.871274
Si Si6 0.573059 0.917169 0.379653
Si Si7 0.002480 0.193873 0.319113
O O1 0.006365 0.500000 0.822820
O O2 0.061236 0.614655 0.716089
O O3 0.146637 0.609544 0.785799
O O4 0.822526 0.614706 0.974455
O O5 0.559013 0.355775 0.081623
O O6 0.538611 0.328318 0.219102
O O7 0.750000 0.250000 0.000000
O O8 0.567734 0.905371 0.581595
O O9 0.823649 0.841782 0.467082
O O10 0.509767 0.779550 0.668171
O O11 0.371821 0.755246 0.178086
O O12 0.158134 0.835506 0.257258
O O13 0.500000 0.846324 0.000000
O O14 0.751183 0.624285 0.757340
O O15 0.500000 0.671028 0.000000
O O16 0.500000 0.888376 0.500000
O O17 0.620021 0.000000 0.352291
#
# Coordination Sequence:
#
# PCOD8114320 Si02
#       7
#     8   8   8   8   8   8   8
#     4  12  26  42  65  96 137 176 206 268 338 387
#     4  12  20  40  66  95 127 165 220 270 311 383
#     4  11  23  42  64  97 132 164 217 268 324 389
#     4  11  21  42  67  97 126 161 219 272 318 378
#     4  11  21  36  65  93 120 159 211 267 318 371
#     4  11  24  41  59  87 129 167 203 261 329 384
#     4  11  22  40  68  98 121 169 222 271 313 372
#
# _framework density 19.483097000000001
#
# number of rings (size 3 to 8) (size 9 to 14) (size 15 to 20)
#    0.000    0.714    5.714    3.000    0.000    2.857 
#    0.000    3.571    0.000    0.000    0.000    0.000 
#    0.000    0.000    0.000    0.000    0.000    0.000 
#
# Total GULP energy -347339.317698 kJ/mol
# GULP energy per Si atom -12404.975632 kJ/mol
# Density = 1.943875 g / cm^3
# Si number density = 19.483097 Si / 1000 Ang^3
#
#
#
# Elastic Constant Matrix: (Units=GPa)
#
#
# Indices 1 2 3 4 5 6 
#
# 1 126.1438 15.8078 24.8768 -0.0061 -9.9499 0.0061
# 2 15.8078 73.1774 34.5131 0.0286 -7.4117 0.0057
# 3 24.8768 34.5131 76.9561 0.0160 -8.3965 0.0102
# 4 -0.0061 0.0286 0.0160 30.9397 -0.0131 4.2629
# 5 -9.9499 -7.4117 -8.3965 -0.0131 34.4915 0.0004
# 6 0.0061 0.0057 0.0102 4.2629 0.0004 22.6165
#
#
#
# Elastic Compliance Matrix: (Units=1/GPa)
#
#
# Indices 1 2 3 4 5 6 
#
# 1 0.008600 -0.000580 -0.002324 0.000004 0.001790 -0.000002
# 2 -0.000580 0.017490 -0.007463 -0.000012 0.001774 0.000001
# 3 -0.002324 -0.007463 0.017304 -0.000001 0.001938 -0.000005
# 4 0.000004 -0.000012 -0.000001 0.033183 0.000011 -0.006254
# 5 0.001790 0.001774 0.001938 0.000011 0.030362 -0.000004
# 6 -0.000002 0.000001 -0.000005 -0.006254 -0.000004 0.045394
#
#
# Mechanical properties :
#
#
# Convention : Reuss Voigt Hill
#
# Bulk Modulus (GPa) = 44.13182 47.40807 45.76994
# Shear Modulus (GPa) = 27.68222 31.01485 29.34853
#
# Velocity S-wave (km/s) = 3.77348 3.99417 3.88539
# Velocity P-wave (km/s) = 6.45648 6.75699 6.60844
#
# Compressibility (1/GPa) = 0.02265939
#
# Stress axis : x y z
#
# Youngs Moduli (GPa) = 116.28206 57.17496 57.78938
#
# Poissons Ratio (x) = 0.03317 0.13433
# Poissons Ratio (y) = 0.06745 0.43127
# Poissons Ratio (z) = 0.27029 0.42669
#
# Static dielectric constant tensor:
#      x y z
#    x 3.800320 -0.000050 0.064910 
#    y -0.000050 3.497450 0.000020 
#    z 0.064910 0.000020 3.644480 
# 
# 
# High freq. dielectric constant tensor:
#      x y z
#    x 1.779290 0.000000 0.002860 
#    y 0.000000 1.741750 0.000000 
#    z 0.002860 0.000000 1.765480 
# 
# From -- ./inp_files/272361.got.cif
#   From: 2010.06.25/outbox.cif.g09.slc.cpg/sg12_137_cif.got.tgz:272361.got - 2010.06.28 00:19:55.
