data_PCOD8114474
_publ_section_title
;
Structure prediction by ZEFSAII (Michael W. Deem and Ramdas Pophale) SiO2 
 PCOD8114474
Probable space group: C 2/M
;
_chemical_formula_sum "Si O2"
_cell_formula_units_Z 52
_cell_length_a 23.170722
_cell_length_b 26.334118
_cell_length_c 5.118833
_cell_angle_alpha 90.000000
_cell_angle_beta 66.301221
_cell_angle_gamma 90.000000
_cell_volume 2860.018486
_symmetry_space_group_name_H-M "C 2/M"
_symmetry_group_IT_number 12
_symmetry_cell_setting 'monoclinic'
loop_
_space_group_symop_operation_xyz
x,y,z
-x,y,-z
-x,-y,-z
x,-y,z
1/2+x,1/2+y,z
1/2-x,1/2+y,-z
1/2-x,1/2-y,-z
1/2+x,1/2-y,z
loop_
_atom_site_type_symbol
_atom_site_label
_atom_site_fract_x
_atom_site_fract_y
_atom_site_fract_z
Si Si1 0.570116 0.259202 0.805547
Si Si2 0.852167 0.765474 0.840051
Si Si3 0.000000 0.584622 0.500000
Si Si4 0.565784 0.140189 0.771623
Si Si5 0.229890 0.332021 0.030891
Si Si6 0.332077 0.000000 0.498107
Si Si7 0.081644 0.500000 0.144329
Si Si8 0.700053 0.107022 0.593336
O O1 0.594358 0.275582 0.476326
O O2 0.571208 0.199081 0.811239
O O3 0.500000 0.279811 0.000000
O O4 0.617829 0.280215 0.936991
O O5 0.828702 0.706951 0.891995
O O6 0.794753 0.802233 0.882796
O O7 0.942873 0.622155 0.511255
O O8 0.963214 0.548884 0.769004
O O9 0.625688 0.112105 0.780993
O O10 0.500000 0.118422 0.000000
O O11 0.225185 0.355223 0.326457
O O12 0.231487 0.376557 0.810267
O O13 0.363130 0.000000 0.730975
O O14 0.287321 0.049098 0.521750
O O15 0.389119 0.000000 0.193762
#
# Coordination Sequence:
#
# PCOD8114474 Si02
#       8
#     8   8   4   8   8   4   4   8
#     4  11  23  34  56  82 114 140 174 226 282 316
#     4  11  21  40  56  82 106 143 183 227 263 335
#     4  11  24  34  50  66 100 146 194 236 286 317
#     4  11  23  32  51  71 107 143 188 234 284 316
#     4  11  23  38  60  75 106 144 190 224 268 320
#     4  12  24  39  54  74 106 134 187 244 283 313
#     4  11  24  38  50  68  96 146 190 240 286 317
#     4  12  23  39  54  79 101 146 186 239 273 326
#
# _framework density 18.181699999999999
#
# number of rings (size 3 to 8) (size 9 to 14) (size 15 to 20)
#    0.000    0.769    4.615    3.231    6.462    3.077 
#    0.000    0.000    0.000    0.000    0.000    0.000 
#    0.000    0.000    0.000   48.462    0.000    0.000 
#
# Total GULP energy -322222.839190 kJ/mol
# GULP energy per Si atom -12393.186123 kJ/mol
# Density = 1.814032 g / cm^3
# Si number density = 18.181700 Si / 1000 Ang^3
#
#
#
# Elastic Constant Matrix: (Units=GPa)
#
#
# Indices 1 2 3 4 5 6 
#
# 1 67.1856 23.0036 15.1810 0.0000 5.4564 0.0000
# 2 23.0036 57.9700 8.6336 0.0000 -2.4370 0.0000
# 3 15.1810 8.6336 71.4051 0.0000 -1.5469 0.0000
# 4 0.0000 0.0000 0.0000 15.6919 0.0000 5.5903
# 5 5.4564 -2.4370 -1.5469 0.0000 31.3737 0.0000
# 6 0.0000 0.0000 0.0000 5.5903 0.0000 17.8547
#
#
#
# Elastic Compliance Matrix: (Units=1/GPa)
#
#
# Indices 1 2 3 4 5 6 
#
# 1 0.018287 -0.006953 -0.003131 0.000000 -0.003875 0.000000
# 2 -0.006953 0.020260 -0.000912 0.000000 0.002738 0.000000
# 3 -0.003131 -0.000912 0.014807 0.000000 0.001204 0.000000
# 4 0.000000 0.000000 0.000000 0.071728 0.000000 -0.022458
# 5 -0.003875 0.002738 0.001204 0.000000 0.032820 0.000000
# 6 0.000000 0.000000 0.000000 -0.022458 0.000000 0.063039
#
#
# Mechanical properties :
#
#
# Convention : Reuss Voigt Hill
#
# Bulk Modulus (GPa) = 31.88649 32.24412 32.06530
# Shear Modulus (GPa) = 19.73265 22.96691 21.34978
#
# Velocity S-wave (km/s) = 3.29797 3.55799 3.43044
# Velocity P-wave (km/s) = 5.66373 5.88659 5.77624
#
# Compressibility (1/GPa) = 0.03136125
#
# Stress axis : x y z
#
# Youngs Moduli (GPa) = 54.68357 49.35736 67.53721
#
# Poissons Ratio (x) = 0.34319 0.21147
# Poissons Ratio (y) = 0.38023 0.06160
# Poissons Ratio (z) = 0.17122 0.04502
#
# Static dielectric constant tensor:
#      x y z
#    x 3.339130 0.000000 0.101240 
#    y 0.000000 3.293930 0.000000 
#    z 0.101240 0.000000 3.530200 
# 
# 
# High freq. dielectric constant tensor:
#      x y z
#    x 1.682900 0.000000 0.016110 
#    y 0.000000 1.679320 0.000000 
#    z 0.016110 0.000000 1.718600 
# 
# From -- ./inp_files/25905.got.cif
#   From: 2010.06.25/outbox.cif.g09.slc.cpg/sg12_13_cif.got.tgz:25905.got - 2010.06.28 00:19:55.
