data_PCOD8114682
_publ_section_title
;
Structure prediction by ZEFSAII (Michael W. Deem and Ramdas Pophale) SiO2 
 PCOD8114682
Probable space group: C 2/M
;
_chemical_formula_sum "Si O2"
_cell_formula_units_Z 64
_cell_length_a 15.966810
_cell_length_b 27.273810
_cell_length_c 12.304033
_cell_angle_alpha 90.000000
_cell_angle_beta 142.946242
_cell_angle_gamma 90.000000
_cell_volume 3228.603366
_symmetry_space_group_name_H-M "C 2/M"
_symmetry_group_IT_number 12
_symmetry_cell_setting 'monoclinic'
loop_
_space_group_symop_operation_xyz
x,y,z
-x,y,-z
-x,-y,-z
x,-y,z
1/2+x,1/2+y,z
1/2-x,1/2+y,-z
1/2-x,1/2-y,-z
1/2+x,1/2-y,z
loop_
_atom_site_type_symbol
_atom_site_label
_atom_site_fract_x
_atom_site_fract_y
_atom_site_fract_z
Si Si1 0.351710 0.555257 0.722705
Si Si2 0.678256 0.555755 0.061352
Si Si3 0.877717 0.777028 0.803741
Si Si4 0.183094 0.853410 0.438406
Si Si5 0.553626 0.829362 0.172019
Si Si6 0.628792 0.221394 0.698750
Si Si7 0.186039 0.358623 0.930630
Si Si8 0.064680 0.827904 0.681102
O O1 0.319526 0.500000 0.651333
O O2 0.289167 0.563923 0.777839
O O3 0.276489 0.593243 0.565536
O O4 0.515187 0.566311 0.881438
O O5 0.712562 0.500000 0.062460
O O6 0.775003 0.590144 0.086581
O O7 0.805144 0.813010 0.643669
O O8 0.953550 0.729934 0.827825
O O9 0.751124 0.758797 0.747811
O O10 0.000000 0.804319 0.000000
O O11 0.285845 0.843127 0.644639
O O12 0.026779 0.851140 0.318528
O O13 0.469193 0.856160 0.181465
O O14 0.500000 0.848247 0.000000
O O15 0.500000 0.196199 0.500000
O O16 0.699498 0.183955 0.855152
O O17 0.565204 0.269024 0.692243
O O18 0.282482 0.348784 0.135875
O O19 0.000000 0.845554 0.500000
#
# Coordination Sequence:
#
# PCOD8114682 Si02
#       8
#     8   8   8   8   8   8   8   8
#     4   9  19  37  62  93 119 137 176 240 303 350
#     4   9  19  37  62  92 119 140 174 237 303 356
#     4  11  22  36  56  85 120 152 194 237 288 347
#     4  12  21  36  62  84 111 159 198 229 286 349
#     4  11  24  40  53  79 123 166 197 235 277 329
#     4  11  22  36  54  84 120 150 190 241 285 336
#     4  12  21  37  60  85 114 155 194 233 287 343
#     4  11  22  36  54  80 112 152 204 240 271 317
#
# _framework density 19.822811999999999
#
# number of rings (size 3 to 8) (size 9 to 14) (size 15 to 20)
#    0.000    1.250    1.250    8.250    1.750    0.000 
#    0.000    0.625    0.000    6.375    0.000    0.000 
#    0.000    0.000    0.000    0.000    0.000    0.000 
#
# Total GULP energy -396747.850781 kJ/mol
# GULP energy per Si atom -12398.370337 kJ/mol
# Density = 1.977769 g / cm^3
# Si number density = 19.822812 Si / 1000 Ang^3
#
#
#
# Elastic Constant Matrix: (Units=GPa)
#
#
# Indices 1 2 3 4 5 6 
#
# 1 88.4653 44.3927 12.0048 0.0000 1.3141 0.0000
# 2 44.3927 105.1364 32.4603 0.0000 -17.3708 0.0000
# 3 12.0048 32.4603 105.7996 0.0000 -7.9463 0.0000
# 4 0.0000 0.0000 0.0000 16.2173 0.0000 -3.8375
# 5 1.3141 -17.3708 -7.9463 0.0000 28.4174 0.0000
# 6 0.0000 0.0000 0.0000 -3.8375 0.0000 28.4657
#
#
#
# Elastic Compliance Matrix: (Units=1/GPa)
#
#
# Indices 1 2 3 4 5 6 
#
# 1 0.014973 -0.007198 0.000130 0.000000 -0.005056 0.000000
# 2 -0.007198 0.014933 -0.003120 0.000000 0.008588 0.000000
# 3 0.000130 -0.003120 0.010471 0.000000 0.001015 0.000000
# 4 0.000000 0.000000 0.000000 0.063695 0.000000 0.008587
# 5 -0.005056 0.008588 0.001015 0.000000 0.040957 0.000000
# 6 0.000000 0.000000 0.000000 0.008587 0.000000 0.036288
#
#
# Mechanical properties :
#
#
# Convention : Reuss Voigt Hill
#
# Bulk Modulus (GPa) = 49.99767 53.01297 51.50532
# Shear Modulus (GPa) = 23.99712 28.65632 26.32672
#
# Velocity S-wave (km/s) = 3.48312 3.80626 3.64827
# Velocity P-wave (km/s) = 6.43841 6.79105 6.61708
#
# Compressibility (1/GPa) = 0.02000093
#
# Stress axis : x y z
#
# Youngs Moduli (GPa) = 66.78597 66.96680 95.50620
#
# Poissons Ratio (x) = 0.48200 -0.01238
# Poissons Ratio (y) = 0.48070 0.29796
# Poissons Ratio (z) = -0.00866 0.20892
#
# Static dielectric constant tensor:
#      x y z
#    x 3.518750 0.000000 -0.064230 
#    y 0.000000 3.377240 0.000000 
#    z -0.064230 0.000000 3.644860 
# 
# 
# High freq. dielectric constant tensor:
#      x y z
#    x 1.772150 0.000000 0.000600 
#    y 0.000000 1.744790 0.000000 
#    z 0.000600 0.000000 1.776300 
# 
# From -- ./inp_files/149716.got.cif
#   From: 2010.06.25/outbox.cif.g09.slc.cpg/sg12_75_cif.got.tgz:149716.got - 2010.06.28 00:19:55.
