data_PCOD8114619
_publ_section_title
;
Structure prediction by ZEFSAII (Michael W. Deem and Ramdas Pophale) SiO2 
 PCOD8114619
Probable space group: C 2/M
;
_chemical_formula_sum "Si O2"
_cell_formula_units_Z 32
_cell_length_a 22.536134
_cell_length_b 8.756903
_cell_length_c 11.339447
_cell_angle_alpha 90.000000
_cell_angle_beta 131.204311
_cell_angle_gamma 90.000000
_cell_volume 1683.645348
_symmetry_space_group_name_H-M "C 2/M"
_symmetry_group_IT_number 12
_symmetry_cell_setting 'monoclinic'
loop_
_space_group_symop_operation_xyz
x,y,z
-x,y,-z
-x,-y,-z
x,-y,z
1/2+x,1/2+y,z
1/2-x,1/2+y,-z
1/2-x,1/2-y,-z
1/2+x,1/2-y,z
loop_
_atom_site_type_symbol
_atom_site_label
_atom_site_fract_x
_atom_site_fract_y
_atom_site_fract_z
Si Si1 0.956054 0.319269 0.270520
Si Si2 0.736906 0.180364 0.355450
Si Si3 0.880284 0.680773 0.410248
Si Si4 0.924117 0.682012 0.970589
O O1 0.957948 0.500000 0.269390
O O2 0.896352 0.269016 0.295981
O O3 0.045221 0.265098 0.413875
O O4 0.927085 0.251657 0.107833
O O5 0.750000 0.250000 0.500000
O O6 0.804225 0.229333 0.353242
O O7 0.654222 0.242518 0.195999
O O8 0.735322 0.000000 0.365843
O O9 0.866154 0.500000 0.403617
O O10 0.924859 0.500000 0.974732
O O11 0.000000 0.744477 0.000000
#
# Coordination Sequence:
#
# PCOD8114619 Si02
#       4
#     8   8   8   8
#     4   8  15  30  53  78 101 131 169 201 236 291
#     4  11  22  34  51  74 100 131 167 208 252 295
#     4   9  17  32  55  78 101 130 164 203 245 292
#     4   9  17  30  50  74  98 128 169 209 241 286
#
# _framework density 19.006378000000002
#
# number of rings (size 3 to 8) (size 9 to 14) (size 15 to 20)
#    0.000    2.750    0.000    3.750    0.000    5.000 
#    0.000    2.500    0.000   15.000    0.000    0.000 
#    0.000    0.000    0.000    0.000    0.000    0.000 
#
# Total GULP energy -198360.476158 kJ/mol
# GULP energy per Si atom -12397.529760 kJ/mol
# Density = 1.896312 g / cm^3
# Si number density = 19.006378 Si / 1000 Ang^3
#
#
#
# Elastic Constant Matrix: (Units=GPa)
#
#
# Indices 1 2 3 4 5 6 
#
# 1 172.9505 25.5018 109.2291 0.0000 3.3805 0.0000
# 2 25.5018 30.0073 27.2967 0.0000 2.0706 0.0000
# 3 109.2291 27.2967 189.3058 0.0000 -10.9339 0.0000
# 4 0.0000 0.0000 0.0000 18.4421 0.0000 3.5068
# 5 3.3805 2.0706 -10.9339 0.0000 38.9186 0.0000
# 6 0.0000 0.0000 0.0000 3.5068 0.0000 29.4843
#
#
#
# Elastic Compliance Matrix: (Units=1/GPa)
#
#
# Indices 1 2 3 4 5 6 
#
# 1 0.009575 -0.003286 -0.005173 0.000000 -0.002110 0.000000
# 2 -0.003286 0.040002 -0.004044 0.000000 -0.002979 0.000000
# 3 -0.005173 -0.004044 0.009035 0.000000 0.003203 0.000000
# 4 0.000000 0.000000 0.000000 0.055478 0.000000 -0.006599
# 5 -0.002110 -0.002979 0.003203 0.000000 0.026936 0.000000
# 6 0.000000 0.000000 0.000000 -0.006599 0.000000 0.034701
#
#
# Mechanical properties :
#
#
# Convention : Reuss Voigt Hill
#
# Bulk Modulus (GPa) = 29.75613 79.59098 54.67356
# Shear Modulus (GPa) = 23.59212 32.71807 28.15509
#
# Velocity S-wave (km/s) = 3.52699 4.15351 3.85301
# Velocity P-wave (km/s) = 5.68121 8.06034 6.97299
#
# Compressibility (1/GPa) = 0.03360652
#
# Stress axis : x y z
#
# Youngs Moduli (GPa) = 104.44335 24.99863 110.67917
#
# Poissons Ratio (x) = 0.08215 0.57249
# Poissons Ratio (y) = 0.34321 0.44759
# Poissons Ratio (z) = 0.54024 0.10110
#
# Static dielectric constant tensor:
#      x y z
#    x 3.719360 0.000000 -0.188580 
#    y 0.000000 2.948120 0.000000 
#    z -0.188580 0.000000 3.916310 
# 
# 
# High freq. dielectric constant tensor:
#      x y z
#    x 1.754590 0.000000 -0.006290 
#    y 0.000000 1.685100 0.000000 
#    z -0.006290 0.000000 1.748060 
# 
# From -- ./inp_files/138647.got.cif
#   From: 2010.06.25/outbox.cif.g09.slc.cpg/sg12_70_cif.got.tgz:138647.got - 2010.06.28 00:19:55.
