data_PCOD8114448
_publ_section_title
;
Structure prediction by ZEFSAII (Michael W. Deem and Ramdas Pophale) SiO2 
 PCOD8114448
Probable space group: C 2/M
;
_chemical_formula_sum "Si O2"
_cell_formula_units_Z 56
_cell_length_a 11.474253
_cell_length_b 18.063561
_cell_length_c 14.568217
_cell_angle_alpha 90.000000
_cell_angle_beta 76.444694
_cell_angle_gamma 90.000000
_cell_volume 2935.383517
_symmetry_space_group_name_H-M "C 2/M"
_symmetry_group_IT_number 12
_symmetry_cell_setting 'monoclinic'
loop_
_space_group_symop_operation_xyz
x,y,z
-x,y,-z
-x,-y,-z
x,-y,z
1/2+x,1/2+y,z
1/2-x,1/2+y,-z
1/2-x,1/2-y,-z
1/2+x,1/2-y,z
loop_
_atom_site_type_symbol
_atom_site_label
_atom_site_fract_x
_atom_site_fract_y
_atom_site_fract_z
Si Si1 0.347581 0.658091 0.727666
Si Si2 0.169853 0.668257 0.270949
Si Si3 0.614243 0.661004 0.641905
Si Si4 0.217116 0.912313 0.453662
Si Si5 0.601560 0.913303 0.108285
Si Si6 0.162672 0.586179 0.891658
Si Si7 0.059875 0.317608 0.581547
O O1 0.317853 0.744054 0.731231
O O2 0.488979 0.644047 0.715613
O O3 0.308831 0.619523 0.641295
O O4 0.276101 0.625960 0.826659
O O5 0.279389 0.635679 0.310195
O O6 0.175587 0.633939 0.168471
O O7 0.041891 0.645075 0.336747
O O8 0.619807 0.614067 0.546507
O O9 0.625151 0.748414 0.617882
O O10 0.345813 0.881029 0.461460
O O11 0.220390 0.000000 0.448854
O O12 0.462227 0.887959 0.131799
O O13 0.610908 0.000000 0.129918
O O14 0.661788 0.895646 0.999558
O O15 0.177787 0.500000 0.871991
O O16 0.000000 0.286242 0.500000
#
# Coordination Sequence:
#
# PCOD8114448 Si02
#       7
#     8   8   8   8   8   8   8
#     4  11  23  37  61  86 116 159 199 236 289 348
#     4  11  22  37  61  86 120 155 192 242 293 343
#     4  11  23  40  56  84 123 160 192 237 293 346
#     4  12  24  39  60  86 118 157 202 243 285 343
#     4   9  20  39  65  91 115 151 192 244 298 342
#     4   9  19  40  65  89 119 149 192 246 294 342
#     4  11  21  39  62  82 114 158 199 241 290 341
#
# _framework density 19.077576000000001
#
# number of rings (size 3 to 8) (size 9 to 14) (size 15 to 20)
#    0.000    1.429    2.857    4.714    2.000    4.857 
#    0.000    0.714    0.000    1.714    0.000    0.000 
#    0.000    0.000    0.000    0.000    0.000    0.000 
#
# Total GULP energy -347264.400405 kJ/mol
# GULP energy per Si atom -12402.300014 kJ/mol
# Density = 1.903415 g / cm^3
# Si number density = 19.077576 Si / 1000 Ang^3
#
#
#
# Elastic Constant Matrix: (Units=GPa)
#
#
# Indices 1 2 3 4 5 6 
#
# 1 81.7683 46.5035 53.0595 0.0000 -0.2181 0.0000
# 2 46.5035 86.3772 45.3794 0.0000 -8.2652 0.0000
# 3 53.0595 45.3794 109.8387 0.0000 -14.8342 0.0000
# 4 0.0000 0.0000 0.0000 31.4864 0.0000 5.3896
# 5 -0.2181 -8.2652 -14.8342 0.0000 35.1178 0.0000
# 6 0.0000 0.0000 0.0000 5.3896 0.0000 21.5995
#
#
#
# Elastic Compliance Matrix: (Units=1/GPa)
#
#
# Indices 1 2 3 4 5 6 
#
# 1 0.022028 -0.008170 -0.007961 0.000000 -0.005149 0.000000
# 2 -0.008170 0.017847 -0.003040 0.000000 0.002866 0.000000
# 3 -0.007961 -0.003040 0.014956 0.000000 0.005553 0.000000
# 4 0.000000 0.000000 0.000000 0.033177 0.000000 -0.008278
# 5 -0.005149 0.002866 0.005553 0.000000 0.031464 0.000000
# 6 0.000000 0.000000 0.000000 -0.008278 0.000000 0.048363
#
#
# Mechanical properties :
#
#
# Convention : Reuss Voigt Hill
#
# Bulk Modulus (GPa) = 60.64493 63.09655 61.87074
# Shear Modulus (GPa) = 23.62142 26.51018 25.06580
#
# Velocity S-wave (km/s) = 3.52259 3.73178 3.62869
# Velocity P-wave (km/s) = 6.95719 7.19122 7.07517
#
# Compressibility (1/GPa) = 0.01648942
#
# Stress axis : x y z
#
# Youngs Moduli (GPa) = 45.39614 56.03280 66.86328
#
# Poissons Ratio (x) = 0.45777 0.53232
# Poissons Ratio (y) = 0.37087 0.20325
# Poissons Ratio (z) = 0.36141 0.17033
#
# Static dielectric constant tensor:
#      x y z
#    x 3.541270 0.000000 -0.159110 
#    y 0.000000 3.290310 0.000000 
#    z -0.159110 0.000000 3.669240 
# 
# 
# High freq. dielectric constant tensor:
#      x y z
#    x 1.744640 0.000000 -0.004540 
#    y 0.000000 1.728630 0.000000 
#    z -0.004540 0.000000 1.743650 
# 
# From -- ./inp_files/206125.got.cif
#   From: 2010.06.25/outbox.cif.g09.slc.cpg/sg12_104_cif.got.tgz:206125.got - 2010.06.28 00:19:55.
