data_PCOD8114528
_publ_section_title
;
Structure prediction by ZEFSAII (Michael W. Deem and Ramdas Pophale) SiO2 
 PCOD8114528
Probable space group: C 2/M
;
_chemical_formula_sum "Si O2"
_cell_formula_units_Z 56
_cell_length_a 17.836875
_cell_length_b 20.847265
_cell_length_c 8.020718
_cell_angle_alpha 90.000000
_cell_angle_beta 62.480118
_cell_angle_gamma 90.000000
_cell_volume 2645.035729
_symmetry_space_group_name_H-M "C 2/M"
_symmetry_group_IT_number 12
_symmetry_cell_setting 'monoclinic'
loop_
_space_group_symop_operation_xyz
x,y,z
-x,y,-z
-x,-y,-z
x,-y,z
1/2+x,1/2+y,z
1/2-x,1/2+y,-z
1/2-x,1/2-y,-z
1/2+x,1/2-y,z
loop_
_atom_site_type_symbol
_atom_site_label
_atom_site_fract_x
_atom_site_fract_y
_atom_site_fract_z
Si Si1 0.836828 0.927828 0.920647
Si Si2 0.092470 0.315793 0.976672
Si Si3 0.725106 0.928944 0.354889
Si Si4 0.089877 0.339065 0.351158
Si Si5 0.544418 0.319516 0.107100
Si Si6 0.744865 0.619071 0.319896
Si Si7 0.920515 0.798882 0.495943
O O1 0.798510 0.916888 0.143740
O O2 0.875164 0.000000 0.869830
O O3 0.906929 0.871659 0.828946
O O4 0.770274 0.920234 0.836455
O O5 0.104325 0.351796 0.141233
O O6 0.104847 0.238890 0.986457
O O7 0.167266 0.341614 0.780602
O O8 0.000000 0.333550 0.000000
O O9 0.655876 0.875417 0.397720
O O10 0.755415 0.925638 0.515898
O O11 0.687833 0.000000 0.363042
O O12 0.098254 0.263470 0.374902
O O13 0.000000 0.366051 0.500000
O O14 0.462716 0.283276 0.274302
O O15 0.500000 0.357181 0.000000
O O16 0.666343 0.665054 0.433207
O O17 0.000000 0.837468 0.500000
#
# Coordination Sequence:
#
# PCOD8114528 Si02
#       7
#     8   8   8   8   8   8   8
#     4  11  24  44  67  94 135 183 224 265 317 390
#     4  11  23  40  66 102 130 167 217 278 336 394
#     4  11  26  44  64  94 132 176 226 271 320 395
#     4  11  21  41  65  95 137 166 212 278 334 395
#     4  11  23  42  64  98 138 169 218 277 325 396
#     4  12  24  42  71  96 131 176 222 274 333 383
#     4  11  22  40  64 101 136 165 215 276 335 388
#
# _framework density 21.171738000000001
#
# number of rings (size 3 to 8) (size 9 to 14) (size 15 to 20)
#    0.000    0.857    5.714    2.143    4.000    2.286 
#    0.000    2.143    0.000    2.143    0.000    0.000 
#    0.000    0.000    0.000    0.000    0.000    0.000 
#
# Total GULP energy -346922.855464 kJ/mol
# GULP energy per Si atom -12390.101981 kJ/mol
# Density = 2.112355 g / cm^3
# Si number density = 21.171738 Si / 1000 Ang^3
#
#
#
# Elastic Constant Matrix: (Units=GPa)
#
#
# Indices 1 2 3 4 5 6 
#
# 1 105.6309 33.0909 34.0042 0.0000 6.6602 0.0000
# 2 33.0909 67.8834 39.9581 0.0000 -7.9578 0.0000
# 3 34.0042 39.9581 108.5218 0.0000 8.1335 0.0000
# 4 0.0000 0.0000 0.0000 19.0219 0.0000 -5.6507
# 5 6.6602 -7.9578 8.1335 0.0000 48.2746 0.0000
# 6 0.0000 0.0000 0.0000 -5.6507 0.0000 6.8928
#
#
#
# Elastic Compliance Matrix: (Units=1/GPa)
#
#
# Indices 1 2 3 4 5 6 
#
# 1 0.011698 -0.004969 -0.001675 0.000000 -0.002151 0.000000
# 2 -0.004969 0.021852 -0.006898 0.000000 0.005450 0.000000
# 3 -0.001675 -0.006898 0.012505 0.000000 -0.003013 0.000000
# 4 0.000000 0.000000 0.000000 0.069495 0.000000 0.056972
# 5 -0.002151 0.005450 -0.003013 0.000000 0.022418 0.000000
# 6 0.000000 0.000000 0.000000 0.056972 0.000000 0.191784
#
#
# Mechanical properties :
#
#
# Convention : Reuss Voigt Hill
#
# Bulk Modulus (GPa) = 52.70608 55.12694 53.91651
# Shear Modulus (GPa) = 13.76805 26.50339 20.13572
#
# Velocity S-wave (km/s) = 2.55287 3.54196 3.08728
# Velocity P-wave (km/s) = 5.79984 6.54384 6.18304
#
# Compressibility (1/GPa) = 0.01897314
#
# Stress axis : x y z
#
# Youngs Moduli (GPa) = 85.48288 45.76184 79.96771
#
# Poissons Ratio (x) = 0.22738 0.13393
# Poissons Ratio (y) = 0.42475 0.55159
# Poissons Ratio (z) = 0.14317 0.31565
#
# Static dielectric constant tensor:
#      x y z
#    x 3.833990 0.000000 0.239130 
#    y 0.000000 3.548730 0.000000 
#    z 0.239130 0.000000 4.259890 
# 
# 
# High freq. dielectric constant tensor:
#      x y z
#    x 1.830700 0.000000 0.018080 
#    y 0.000000 1.803190 0.000000 
#    z 0.018080 0.000000 1.854150 
# 
# From -- ./inp_files/77379.got.cif
#   From: 2010.06.25/outbox.cif.g09.slc.cpg/sg12_39_cif.got.tgz:77379.got - 2010.06.28 00:19:55.
