data_PCOD8114287
_publ_section_title
;
Structure prediction by ZEFSAII (Michael W. Deem and Ramdas Pophale) SiO2 
 PCOD8114287
Probable space group: C 2/M
;
_chemical_formula_sum "Si O2"
_cell_formula_units_Z 64
_cell_length_a 31.735257
_cell_length_b 8.567345
_cell_length_c 24.635412
_cell_angle_alpha 90.000000
_cell_angle_beta 152.326198
_cell_angle_gamma 90.000000
_cell_volume 3110.821306
_symmetry_space_group_name_H-M "C 2/M"
_symmetry_group_IT_number 12
_symmetry_cell_setting 'monoclinic'
loop_
_space_group_symop_operation_xyz
x,y,z
-x,y,-z
-x,-y,-z
x,-y,z
1/2+x,1/2+y,z
1/2-x,1/2+y,-z
1/2-x,1/2-y,-z
1/2+x,1/2-y,z
loop_
_atom_site_type_symbol
_atom_site_label
_atom_site_fract_x
_atom_site_fract_y
_atom_site_fract_z
Si Si1 0.099310 0.313917 0.596303
Si Si2 0.778863 0.185460 0.862638
Si Si3 0.690211 0.322502 0.294325
Si Si4 0.193805 0.314247 0.986354
Si Si5 0.003682 0.314112 0.268983
Si Si6 0.098136 0.683219 0.089537
Si Si7 0.605966 0.177648 0.485690
Si Si8 0.660451 0.184394 0.370833
O O1 0.104744 0.500000 0.602937
O O2 0.183119 0.252387 0.728463
O O3 0.110455 0.239658 0.549086
O O4 0.000000 0.253965 0.500000
O O5 0.865945 0.243857 0.926530
O O6 0.782810 0.000000 0.867819
O O7 0.778174 0.247264 0.923379
O O8 0.658735 0.500000 0.248564
O O9 0.671813 0.225226 0.219056
O O10 0.795976 0.313919 0.430477
O O11 0.638715 0.247673 0.286101
O O12 0.200537 0.500000 0.995856
O O13 0.093261 0.252171 0.859343
O O14 0.250000 0.250000 0.000000
O O15 0.006781 0.500000 0.275463
O O16 0.032455 0.245613 0.361027
O O17 0.075242 0.253219 0.307085
O O18 0.091688 0.500000 0.072504
O O19 0.000000 0.746205 0.000000
O O20 0.576534 0.000000 0.462716
O O21 0.750000 0.250000 0.500000
O O22 0.667813 0.000000 0.377329
#
# Coordination Sequence:
#
# PCOD8114287 Si02
#       8
#     8   8   8   8   8   8   8   8
#     4   9  18  32  59  93 120 150 195 246 305 375
#     4  11  23  42  67  97 128 162 208 263 318 377
#     4  11  21  37  60  88 123 158 201 260 315 369
#     4  11  25  45  67  91 123 169 217 265 315 373
#     4   9  20  37  60  85 118 164 210 252 306 374
#     4  11  25  43  63  88 124 171 214 256 313 381
#     4   9  16  32  57  87 118 150 195 251 305 362
#     4  11  21  36  57  87 123 162 206 250 306 376
#
# _framework density 20.573343999999999
#
# number of rings (size 3 to 8) (size 9 to 14) (size 15 to 20)
#    0.000    1.750    2.500    1.875    3.500    1.000 
#    0.000    1.875    0.000    3.000    0.000    0.000 
#    0.000    0.000    0.000    0.000    0.000    0.000 
#
# Total GULP energy -396625.304612 kJ/mol
# GULP energy per Si atom -12394.540769 kJ/mol
# Density = 2.052652 g / cm^3
# Si number density = 20.573344 Si / 1000 Ang^3
#
#
#
# Elastic Constant Matrix: (Units=GPa)
#
#
# Indices 1 2 3 4 5 6 
#
# 1 184.2730 37.3998 84.4930 0.0000 -10.4793 0.0000
# 2 37.3998 54.0709 30.4808 0.0000 2.6497 0.0000
# 3 84.4930 30.4808 136.6556 0.0000 -5.6243 0.0000
# 4 0.0000 0.0000 0.0000 25.6198 0.0000 -4.9369
# 5 -10.4793 2.6497 -5.6243 0.0000 44.6418 0.0000
# 6 0.0000 0.0000 0.0000 -4.9369 0.0000 31.4994
#
#
#
# Elastic Compliance Matrix: (Units=1/GPa)
#
#
# Indices 1 2 3 4 5 6 
#
# 1 0.008124 -0.003318 -0.004218 0.000000 0.001573 0.000000
# 2 -0.003318 0.022664 -0.003107 0.000000 -0.002516 0.000000
# 3 -0.004218 -0.003107 0.010641 0.000000 0.000535 0.000000
# 4 0.000000 0.000000 0.000000 0.040248 0.000000 0.006308
# 5 0.001573 -0.002516 0.000535 0.000000 0.022986 0.000000
# 6 0.000000 0.000000 0.000000 0.006308 0.000000 0.032735
#
#
# Mechanical properties :
#
#
# Convention : Reuss Voigt Hill
#
# Bulk Modulus (GPa) = 49.64773 75.52741 62.58757
# Shear Modulus (GPa) = 30.23003 35.19394 32.71199
#
# Velocity S-wave (km/s) = 3.83741 4.14050 3.99183
# Velocity P-wave (km/s) = 6.61957 7.72329 7.19263
#
# Compressibility (1/GPa) = 0.02014191
#
# Stress axis : x y z
#
# Youngs Moduli (GPa) = 123.09755 44.12235 93.97962
#
# Poissons Ratio (x) = 0.14641 0.39640
# Poissons Ratio (y) = 0.40848 0.29200
# Poissons Ratio (z) = 0.51922 0.13709
#
# Static dielectric constant tensor:
#      x y z
#    x 3.973880 0.000000 -0.013810 
#    y 0.000000 3.440860 0.000000 
#    z -0.013810 0.000000 4.194540 
# 
# 
# High freq. dielectric constant tensor:
#      x y z
#    x 1.821320 0.000000 -0.006860 
#    y 0.000000 1.769740 0.000000 
#    z -0.006860 0.000000 1.812490 
# 
# From -- ./inp_files/353535.got.cif
#   From: 2010.06.25/outbox.cif.g09.slc.cpg/sg12_177_cif.got.tgz:353535.got - 2010.06.28 00:19:55.
