data_PCOD8114267
_publ_section_title
;
Structure prediction by ZEFSAII (Michael W. Deem and Ramdas Pophale) SiO2 
 PCOD8114267
Probable space group: C 2/M
;
_chemical_formula_sum "Si O2"
_cell_formula_units_Z 48
_cell_length_a 9.317669
_cell_length_b 23.103193
_cell_length_c 12.182779
_cell_angle_alpha 90.000000
_cell_angle_beta 82.467662
_cell_angle_gamma 90.000000
_cell_volume 2599.931322
_symmetry_space_group_name_H-M "C 2/M"
_symmetry_group_IT_number 12
_symmetry_cell_setting 'monoclinic'
loop_
_space_group_symop_operation_xyz
x,y,z
-x,y,-z
-x,-y,-z
x,-y,z
1/2+x,1/2+y,z
1/2-x,1/2+y,-z
1/2-x,1/2-y,-z
1/2+x,1/2-y,z
loop_
_atom_site_type_symbol
_atom_site_label
_atom_site_fract_x
_atom_site_fract_y
_atom_site_fract_z
Si Si1 0.671263 0.062713 0.476723
Si Si2 0.366737 0.565775 0.866196
Si Si3 0.621845 0.855610 0.292429
Si Si4 0.219876 0.373470 0.683432
Si Si5 0.693659 0.567247 0.875789
Si Si6 0.857117 0.239867 0.585861
O O1 0.500000 0.058004 0.500000
O O2 0.703034 0.109639 0.381183
O O3 0.746053 0.080652 0.583417
O O4 0.735947 0.000000 0.437328
O O5 0.339791 0.500000 0.835731
O O6 0.269373 0.603413 0.795448
O O7 0.536971 0.580112 0.838558
O O8 0.312252 0.577211 0.994088
O O9 0.450121 0.860392 0.298320
O O10 0.693974 0.883703 0.177099
O O11 0.650884 0.788584 0.317456
O O12 0.320670 0.318492 0.652818
O O13 0.740694 0.500000 0.845951
O O14 0.750000 0.250000 0.500000
O O15 0.000000 0.237869 0.500000
#
# Coordination Sequence:
#
# PCOD8114267 Si02
#       6
#     8   8   8   8   8   8
#     4   9  17  30  49  78 114 143 175 226 285 339
#     4   9  20  39  60  86 118 153 191 234 289 345
#     4  11  21  36  56  85 114 151 195 234 288 343
#     4  11  22  35  58  86 115 148 195 241 282 341
#     4   9  20  39  61  85 118 155 189 233 291 347
#     4  12  23  41  58  82 118 157 195 236 289 345
#
# _framework density 18.462026000000002
#
# number of rings (size 3 to 8) (size 9 to 14) (size 15 to 20)
#    0.000    1.833    3.333    2.500    2.333    2.667 
#    0.000    2.500    0.000    4.000    0.000    0.000 
#    0.000    0.000    0.000    0.000    0.000    0.000 
#
# Total GULP energy -297363.301743 kJ/mol
# GULP energy per Si atom -12390.137573 kJ/mol
# Density = 1.842001 g / cm^3
# Si number density = 18.462026 Si / 1000 Ang^3
#
#
#
# Elastic Constant Matrix: (Units=GPa)
#
#
# Indices 1 2 3 4 5 6 
#
# 1 73.2444 43.7219 36.7326 0.0000 1.1493 0.0000
# 2 43.7219 125.1202 50.7837 0.0000 -0.6600 0.0000
# 3 36.7326 50.7837 85.6955 0.0000 9.8321 0.0000
# 4 0.0000 0.0000 0.0000 34.7463 0.0000 -8.7450
# 5 1.1493 -0.6600 9.8321 0.0000 40.0546 0.0000
# 6 0.0000 0.0000 0.0000 -8.7450 0.0000 21.9442
#
#
#
# Elastic Compliance Matrix: (Units=1/GPa)
#
#
# Indices 1 2 3 4 5 6 
#
# 1 0.019097 -0.004359 -0.005692 0.000000 0.000777 0.000000
# 2 -0.004359 0.011640 -0.005212 0.000000 0.001596 0.000000
# 3 -0.005692 -0.005212 0.017687 0.000000 -0.004264 0.000000
# 4 0.000000 0.000000 0.000000 0.031988 0.000000 0.012748
# 5 0.000777 0.001596 -0.004264 0.000000 0.026017 0.000000
# 6 0.000000 0.000000 0.000000 0.012748 0.000000 0.050650
#
#
# Mechanical properties :
#
#
# Convention : Reuss Voigt Hill
#
# Bulk Modulus (GPa) = 55.87400 60.72627 58.30013
# Shear Modulus (GPa) = 25.83021 29.53713 27.68367
#
# Velocity S-wave (km/s) = 3.74451 4.00420 3.87653
# Velocity P-wave (km/s) = 7.00180 7.37171 7.18913
#
# Compressibility (1/GPa) = 0.01789741
#
# Stress axis : x y z
#
# Youngs Moduli (GPa) = 52.36346 85.91404 56.53827
#
# Poissons Ratio (x) = 0.37450 0.32181
# Poissons Ratio (y) = 0.22825 0.29470
# Poissons Ratio (z) = 0.29805 0.44782
#
# Static dielectric constant tensor:
#      x y z
#    x 3.212100 0.000000 0.038040 
#    y 0.000000 3.513710 0.000000 
#    z 0.038040 0.000000 3.330540 
# 
# 
# High freq. dielectric constant tensor:
#      x y z
#    x 1.712070 0.000000 0.006370 
#    y 0.000000 1.717620 0.000000 
#    z 0.006370 0.000000 1.712040 
# 
# From -- ./inp_files/121941.got.cif
#   From: 2010.06.25/outbox.cif.g09.slc.cpg/sg12_61_cif.got.tgz:121941.got - 2010.06.28 00:19:55.
