data_PCOD8114136
_publ_section_title
;
Structure prediction by ZEFSAII (Michael W. Deem and Ramdas Pophale) SiO2 
 PCOD8114136
Probable space group: C 2/M
;
_chemical_formula_sum "Si O2"
_cell_formula_units_Z 56
_cell_length_a 19.368098
_cell_length_b 8.821060
_cell_length_c 24.909037
_cell_angle_alpha 90.000000
_cell_angle_beta 43.087746
_cell_angle_gamma 90.000000
_cell_volume 2907.101265
_symmetry_space_group_name_H-M "C 2/M"
_symmetry_group_IT_number 12
_symmetry_cell_setting 'monoclinic'
loop_
_space_group_symop_operation_xyz
x,y,z
-x,y,-z
-x,-y,-z
x,-y,z
1/2+x,1/2+y,z
1/2-x,1/2+y,-z
1/2-x,1/2-y,-z
1/2+x,1/2-y,z
loop_
_atom_site_type_symbol
_atom_site_label
_atom_site_fract_x
_atom_site_fract_y
_atom_site_fract_z
Si Si1 0.690905 0.677358 0.081974
Si Si2 0.221913 0.679029 0.737989
Si Si3 0.828101 0.178518 0.495922
Si Si4 0.213289 0.820420 0.186264
Si Si5 0.956582 0.822585 0.226136
Si Si6 0.993443 0.822263 0.321108
Si Si7 0.883776 0.679787 0.571794
O O1 0.706116 0.500000 0.068830
O O2 0.740381 0.737131 0.110580
O O3 0.572210 0.718110 0.145578
O O4 0.750000 0.750000 0.000000
O O5 0.233257 0.500000 0.724757
O O6 0.212585 0.725796 0.806807
O O7 0.119376 0.732696 0.768775
O O8 0.325133 0.752067 0.656097
O O9 0.750000 0.250000 0.500000
O O10 0.936276 0.216744 0.408260
O O11 0.820615 0.262334 0.556603
O O12 0.809258 0.000000 0.513771
O O13 0.103947 0.749387 0.263003
O O14 0.205160 0.000000 0.187873
O O15 0.936670 0.766748 0.298859
O O16 0.934233 0.000000 0.231181
O O17 0.004975 0.000000 0.306261
O O18 0.879562 0.500000 0.577314
O O19 0.000000 0.737402 0.500000
#
# Coordination Sequence:
#
# PCOD8114136 Si02
#       7
#     8   8   8   8   8   8   8
#     4   9  18  35  59  83 108 139 173 212 257 312
#     4  11  21  34  55  80 105 136 178 226 271 321
#     4  11  21  33  52  77 104 136 179 231 282 329
#     4   8  16  32  53  76 100 130 170 212 258 309
#     4   9  18  34  55  78 107 141 172 211 269 324
#     4   8  15  30  51  70  92 129 174 216 258 309
#     4  11  24  39  53  73 107 149 188 230 280 328
#
# _framework density 19.263176000000001
#
# number of rings (size 3 to 8) (size 9 to 14) (size 15 to 20)
#    0.000    2.429    0.000    4.714    0.000    4.000 
#    0.000    2.857    0.000    7.714    0.000    0.000 
#    0.000    0.000    0.000    0.000    0.000    0.000 
#
# Total GULP energy -346942.835569 kJ/mol
# GULP energy per Si atom -12390.815556 kJ/mol
# Density = 1.921933 g / cm^3
# Si number density = 19.263176 Si / 1000 Ang^3
#
#
#
# Elastic Constant Matrix: (Units=GPa)
#
#
# Indices 1 2 3 4 5 6 
#
# 1 111.5930 28.2429 37.3894 -0.0002 21.3941 0.0009
# 2 28.2429 54.6165 31.4828 -0.0003 3.5552 0.0020
# 3 37.3894 31.4828 86.3935 0.0000 22.6739 0.0001
# 4 -0.0002 -0.0003 0.0000 28.7438 -0.0001 -0.5816
# 5 21.3941 3.5552 22.6739 -0.0001 29.5729 -0.0001
# 6 0.0009 0.0020 0.0001 -0.5816 -0.0001 26.7789
#
#
#
# Elastic Compliance Matrix: (Units=1/GPa)
#
#
# Indices 1 2 3 4 5 6 
#
# 1 0.012056 -0.004835 -0.001652 0.000000 -0.006874 0.000000
# 2 -0.004835 0.025632 -0.009211 0.000000 0.007478 -0.000002
# 3 -0.001652 -0.009211 0.018831 0.000000 -0.012136 0.000001
# 4 0.000000 0.000000 0.000000 0.034805 0.000000 0.000756
# 5 -0.006874 0.007478 -0.012136 0.000000 0.047194 0.000000
# 6 0.000000 -0.000002 0.000001 0.000756 0.000000 0.037359
#
#
# Mechanical properties :
#
#
# Convention : Reuss Voigt Hill
#
# Bulk Modulus (GPa) = 39.80106 49.64815 44.72460
# Shear Modulus (GPa) = 23.18592 27.38498 25.28545
#
# Velocity S-wave (km/s) = 3.47311 3.77453 3.62696
# Velocity P-wave (km/s) = 6.06547 6.69520 6.38810
#
# Compressibility (1/GPa) = 0.02512496
#
# Stress axis : x y z
#
# Youngs Moduli (GPa) = 82.94590 39.01311 53.10271
#
# Poissons Ratio (x) = 0.18862 0.08770
# Poissons Ratio (y) = 0.40103 0.48913
# Poissons Ratio (z) = 0.13699 0.35935
#
# Static dielectric constant tensor:
#      x y z
#    x 36.506960 -0.000360 98.396080 
#    y -0.000360 3.231650 -0.001090 
#    z 98.396080 -0.001090 297.999180 
# 
# 
# High freq. dielectric constant tensor:
#      x y z
#    x 1.760950 0.000000 0.014220 
#    y 0.000000 1.722450 0.000000 
#    z 0.014220 0.000000 1.740860 
# 
# From -- ./inp_files/342314.got.cif
#   From: 2010.06.25/outbox.cif.g09.slc.cpg/sg12_172_cif.got.tgz:342314.got - 2010.06.28 00:19:55.
