data_PCOD8114616
_publ_section_title
;
Structure prediction by ZEFSAII (Michael W. Deem and Ramdas Pophale) SiO2 
 PCOD8114616
Probable space group: C 2/M
;
_chemical_formula_sum "Si O2"
_cell_formula_units_Z 56
_cell_length_a 20.355463
_cell_length_b 9.209863
_cell_length_c 24.784937
_cell_angle_alpha 90.000000
_cell_angle_beta 135.058826
_cell_angle_gamma 90.000000
_cell_volume 3282.166626
_symmetry_space_group_name_H-M "C 2/M"
_symmetry_group_IT_number 12
_symmetry_cell_setting 'monoclinic'
loop_
_space_group_symop_operation_xyz
x,y,z
-x,y,-z
-x,-y,-z
x,-y,z
1/2+x,1/2+y,z
1/2-x,1/2+y,-z
1/2-x,1/2-y,-z
1/2+x,1/2-y,z
loop_
_atom_site_type_symbol
_atom_site_label
_atom_site_fract_x
_atom_site_fract_y
_atom_site_fract_z
Si Si1 0.975188 0.830557 0.047655
Si Si2 0.787352 0.328206 0.969218
Si Si3 0.577898 0.162218 0.499330
Si Si4 0.547066 0.337958 0.644336
Si Si5 0.149307 0.671586 0.187145
Si Si6 0.199572 0.169850 0.808126
Si Si7 0.201382 0.839677 0.641801
O O1 0.055570 0.765052 0.132203
O O2 0.960585 0.000000 0.052722
O O3 0.000000 0.805448 0.000000
O O4 0.883781 0.740656 0.007771
O O5 0.799631 0.500000 0.986019
O O6 0.711724 0.296692 0.878273
O O7 0.750000 0.250000 0.000000
O O8 0.500000 0.168124 0.500000
O O9 0.541045 0.241485 0.424002
O O10 0.673080 0.233517 0.576633
O O11 0.602613 0.000000 0.496752
O O12 0.509418 0.500000 0.633778
O O13 0.600224 0.269929 0.727950
O O14 0.622356 0.340579 0.640899
O O15 0.127274 0.500000 0.168493
O O16 0.212642 0.731018 0.174452
O O17 0.201281 0.706016 0.273884
O O18 0.197516 0.000000 0.793884
O O19 0.210581 0.000000 0.622085
#
# Coordination Sequence:
#
# PCOD8114616 Si02
#       7
#     8   8   8   8   8   8   8
#     4  11  22  34  50  75 102 128 164 206 248 297
#     4  11  22  37  55  73  99 131 166 207 253 299
#     4   9  15  21  30  50  82 117 149 182 230 281
#     4   8  13  23  38  55  77 111 155 192 225 273
#     4   9  16  29  48  69  90 121 164 202 242 287
#     4   8  15  28  47  67  88 120 160 200 241 289
#     4   8  14  23  37  56  81 114 153 192 228 277
#
# _framework density 17.061899
#
# number of rings (size 3 to 8) (size 9 to 14) (size 15 to 20)
#    0.000    2.857    1.429    3.000    0.000    2.857 
#    0.000    3.571    0.000    0.000    0.000    0.000 
#    0.000    1.143    0.000    3.429    0.000    5.143 
#
# Total GULP energy -347011.895477 kJ/mol
# GULP energy per Si atom -12393.281981 kJ/mol
# Density = 1.702307 g / cm^3
# Si number density = 17.061899 Si / 1000 Ang^3
#
#
#
# Elastic Constant Matrix: (Units=GPa)
#
#
# Indices 1 2 3 4 5 6 
#
# 1 42.2279 32.3981 34.0438 0.0000 -5.7137 0.0000
# 2 32.3981 111.7466 81.6907 0.0000 0.4803 0.0000
# 3 34.0438 81.6907 163.6059 0.0000 -0.8903 0.0000
# 4 0.0000 0.0000 0.0000 20.8862 0.0000 1.4407
# 5 -5.7137 0.4803 -0.8903 0.0000 11.7900 0.0000
# 6 0.0000 0.0000 0.0000 1.4407 0.0000 17.9843
#
#
#
# Elastic Compliance Matrix: (Units=1/GPa)
#
#
# Indices 1 2 3 4 5 6 
#
# 1 0.034466 -0.007699 -0.003237 0.000000 0.016773 0.000000
# 2 -0.007699 0.015827 -0.006327 0.000000 -0.004854 0.000000
# 3 -0.003237 -0.006327 0.009942 0.000000 -0.000560 0.000000
# 4 0.000000 0.000000 0.000000 0.048144 0.000000 -0.003857
# 5 0.016773 -0.004854 -0.000560 0.000000 0.093102 0.000000
# 6 0.000000 0.000000 0.000000 -0.003857 0.000000 0.055913
#
#
# Mechanical properties :
#
#
# Convention : Reuss Voigt Hill
#
# Bulk Modulus (GPa) = 38.89452 68.20507 53.54979
# Shear Modulus (GPa) = 16.63953 21.42863 19.03408
#
# Velocity S-wave (km/s) = 3.12628 3.54776 3.34367
# Velocity P-wave (km/s) = 5.98975 7.53950 6.80886
#
# Compressibility (1/GPa) = 0.02571056
#
# Stress axis : x y z
#
# Youngs Moduli (GPa) = 29.01380 63.18292 100.58444
#
# Poissons Ratio (x) = 0.48643 0.32555
# Poissons Ratio (y) = 0.22337 0.63641
# Poissons Ratio (z) = 0.09391 0.39977
#
# Static dielectric constant tensor:
#      x y z
#    x 2.305810 0.000000 0.148390 
#    y 0.000000 3.199800 0.000000 
#    z 0.148390 0.000000 3.541730 
# 
# 
# High freq. dielectric constant tensor:
#      x y z
#    x 1.581790 0.000000 0.003970 
#    y 0.000000 1.651250 0.000000 
#    z 0.003970 0.000000 1.682110 
# 
# From -- ./inp_files/342537.got.cif
#   From: 2010.06.25/outbox.cif.g09.slc.cpg/sg12_172_cif.got.tgz:342537.got - 2010.06.28 00:19:55.
