data_PCOD8114236
_publ_section_title
;
Structure prediction by ZEFSAII (Michael W. Deem and Ramdas Pophale) SiO2 
 PCOD8114236
Probable space group: C 2/M
;
_chemical_formula_sum "Si O2"
_cell_formula_units_Z 56
_cell_length_a 24.942359
_cell_length_b 8.402638
_cell_length_c 14.924035
_cell_angle_alpha 90.000000
_cell_angle_beta 105.399363
_cell_angle_gamma 90.000000
_cell_volume 3015.510056
_symmetry_space_group_name_H-M "C 2/M"
_symmetry_group_IT_number 12
_symmetry_cell_setting 'monoclinic'
loop_
_space_group_symop_operation_xyz
x,y,z
-x,y,-z
-x,-y,-z
x,-y,z
1/2+x,1/2+y,z
1/2-x,1/2+y,-z
1/2-x,1/2-y,-z
1/2+x,1/2-y,z
loop_
_atom_site_type_symbol
_atom_site_label
_atom_site_fract_x
_atom_site_fract_y
_atom_site_fract_z
Si Si1 0.431528 0.684937 0.100281
Si Si2 0.078421 0.813534 0.596796
Si Si3 0.244434 0.312177 0.097500
Si Si4 0.378648 0.183966 0.902468
Si Si5 0.961886 0.315088 0.598704
Si Si6 0.448625 0.315768 0.778766
Si Si7 0.354209 0.815263 0.217269
O O1 0.431670 0.500000 0.073946
O O2 0.492477 0.743695 0.156207
O O3 0.388620 0.712071 0.161506
O O4 0.415000 0.785868 0.006674
O O5 0.080058 0.742299 0.497425
O O6 0.126745 0.727719 0.674219
O O7 0.019176 0.782545 0.617293
O O8 0.090176 0.000000 0.598985
O O9 0.253458 0.500000 0.102583
O O10 0.184462 0.263073 0.108340
O O11 0.289457 0.227390 0.180562
O O12 0.250000 0.250000 0.000000
O O13 0.400555 0.286321 0.829249
O O14 0.382921 0.000000 0.878853
O O15 0.975328 0.500000 0.592251
O O16 0.934264 0.281660 0.682426
O O17 0.451490 0.500000 0.754865
O O18 0.364239 0.000000 0.201220
#
# Coordination Sequence:
#
# PCOD8114236 Si02
#       7
#     8   8   8   8   8   8   8
#     4  11  22  36  56  82 116 154 192 232 284 344
#     4  11  21  36  57  84 117 151 188 233 288 344
#     4  11  23  39  59  83 113 151 195 240 289 336
#     4  11  24  39  57  82 114 153 197 240 284 339
#     4  11  21  35  57  85 117 150 189 235 283 340
#     4  11  23  38  57  83 117 157 194 232 285 345
#     4  12  23  36  58  86 116 151 192 238 288 338
#
# _framework density 18.570656
#
# number of rings (size 3 to 8) (size 9 to 14) (size 15 to 20)
#    0.000    0.857    2.857    6.857    0.000    5.143 
#    0.000    0.000    0.000    0.857    0.000    0.000 
#    0.000    0.000    0.000    0.000    0.000    0.000 
#
# Total GULP energy -347410.372647 kJ/mol
# GULP energy per Si atom -12407.513309 kJ/mol
# Density = 1.852839 g / cm^3
# Si number density = 18.570656 Si / 1000 Ang^3
#
#
#
# Elastic Constant Matrix: (Units=GPa)
#
#
# Indices 1 2 3 4 5 6 
#
# 1 92.4456 23.6363 57.6436 0.0000 -4.5909 0.0000
# 2 23.6363 66.1747 21.5217 0.0000 3.1079 0.0000
# 3 57.6436 21.5217 138.2163 0.0000 7.8426 0.0000
# 4 0.0000 0.0000 0.0000 34.3803 0.0000 -0.9359
# 5 -4.5909 3.1079 7.8426 0.0000 22.9493 0.0000
# 6 0.0000 0.0000 0.0000 -0.9359 0.0000 26.5902
#
#
#
# Elastic Compliance Matrix: (Units=1/GPa)
#
#
# Indices 1 2 3 4 5 6 
#
# 1 0.016152 -0.003949 -0.006460 0.000000 0.005973 0.000000
# 2 -0.003949 0.016923 -0.000830 0.000000 -0.002798 0.000000
# 3 -0.006460 -0.000830 0.010326 0.000000 -0.004709 0.000000
# 4 0.000000 0.000000 0.000000 0.029114 0.000000 0.001025
# 5 0.005973 -0.002798 -0.004709 0.000000 0.046757 0.000000
# 6 0.000000 0.000000 0.000000 0.001025 0.000000 0.037644
#
#
# Mechanical properties :
#
#
# Convention : Reuss Voigt Hill
#
# Bulk Modulus (GPa) = 47.79274 55.82663 51.80968
# Shear Modulus (GPa) = 26.82881 29.71965 28.27423
#
# Velocity S-wave (km/s) = 3.80503 4.00478 3.90618
# Velocity P-wave (km/s) = 6.71534 7.17714 6.95008
#
# Compressibility (1/GPa) = 0.02092368
#
# Stress axis : x y z
#
# Youngs Moduli (GPa) = 61.91350 59.09093 96.84639
#
# Poissons Ratio (x) = 0.23332 0.62565
# Poissons Ratio (y) = 0.24447 0.08034
# Poissons Ratio (z) = 0.39997 0.04902
#
# Static dielectric constant tensor:
#      x y z
#    x 3.339040 0.000000 0.140510 
#    y 0.000000 3.458590 0.000000 
#    z 0.140510 0.000000 3.632470 
# 
# 
# High freq. dielectric constant tensor:
#      x y z
#    x 1.695100 0.000000 0.003090 
#    y 0.000000 1.738090 0.000000 
#    z 0.003090 0.000000 1.726370 
# 
# From -- ./inp_files/237828.got.cif
#   From: 2010.06.25/outbox.cif.g09.slc.cpg/sg12_119_cif.got.tgz:237828.got - 2010.06.28 00:19:55.
