data_PCOD8114433
_publ_section_title
;
Structure prediction by ZEFSAII (Michael W. Deem and Ramdas Pophale) SiO2 
 PCOD8114433
Probable space group: C 2/M
;
_chemical_formula_sum "Si O2"
_cell_formula_units_Z 64
_cell_length_a 9.254930
_cell_length_b 18.613051
_cell_length_c 28.962397
_cell_angle_alpha 90.000000
_cell_angle_beta 40.137432
_cell_angle_gamma 90.000000
_cell_volume 3216.111937
_symmetry_space_group_name_H-M "C 2/M"
_symmetry_group_IT_number 12
_symmetry_cell_setting 'monoclinic'
loop_
_space_group_symop_operation_xyz
x,y,z
-x,y,-z
-x,-y,-z
x,-y,z
1/2+x,1/2+y,z
1/2-x,1/2+y,-z
1/2-x,1/2-y,-z
1/2+x,1/2-y,z
loop_
_atom_site_type_symbol
_atom_site_label
_atom_site_fract_x
_atom_site_fract_y
_atom_site_fract_z
Si Si1 0.052889 0.182291 0.702275
Si Si2 0.904254 0.583547 0.740683
Si Si3 0.127944 0.419619 0.016888
Si Si4 0.552357 0.916281 0.377455
Si Si5 0.993505 0.166468 0.882518
Si Si6 0.300590 0.325806 0.669294
Si Si7 0.855007 0.824205 0.490285
Si Si8 0.205282 0.689854 0.866698
O O1 0.222224 0.115894 0.655283
O O2 0.196911 0.253677 0.673667
O O3 0.901717 0.191711 0.694199
O O4 0.891215 0.167071 0.784527
O O5 0.881437 0.500000 0.756399
O O6 0.954298 0.600638 0.675193
O O7 0.673888 0.620497 0.810713
O O8 0.107683 0.614472 0.721582
O O9 0.157659 0.500000 0.030224
O O10 0.986264 0.371339 0.087339
O O11 0.371656 0.383854 0.949966
O O12 0.000000 0.424636 0.000000
O O13 0.334683 0.882793 0.454209
O O14 0.551788 0.000000 0.388321
O O15 0.105726 0.232436 0.880978
O O16 0.812641 0.196944 0.890891
O O17 0.490620 0.355240 0.588372
O O18 0.750000 0.750000 0.500000
O O19 0.000000 0.809414 0.500000
#
# Coordination Sequence:
#
# PCOD8114433 Si02
#       8
#     8   8   8   8   8   8   8   8
#     4  12  23  41  65  94 126 166 207 262 311 370
#     4  11  23  41  64  92 125 164 209 258 314 373
#     4   9  20  38  60  91 126 163 209 252 304 369
#     4  11  25  43  64  93 126 165 211 257 316 377
#     4  11  21  38  64  95 122 166 206 260 305 367
#     4  12  24  40  66  93 125 161 212 256 312 373
#     4  12  24  40  66  93 122 164 207 259 316 370
#     4  11  22  36  65  93 123 161 210 255 310 362
#
# _framework density 19.899805000000001
#
# number of rings (size 3 to 8) (size 9 to 14) (size 15 to 20)
#    0.000    0.875    5.000    3.000    0.000    2.250 
#    0.000    0.625    0.000    0.750    0.000    0.000 
#    0.000    0.000    0.000    0.000    0.000    0.000 
#
# Total GULP energy -396981.343410 kJ/mol
# GULP energy per Si atom -12405.666982 kJ/mol
# Density = 1.985451 g / cm^3
# Si number density = 19.899805 Si / 1000 Ang^3
#
#
#
# Elastic Constant Matrix: (Units=GPa)
#
#
# Indices 1 2 3 4 5 6 
#
# 1 86.9119 39.4573 7.6169 0.0030 -11.6179 -0.0009
# 2 39.4573 151.9751 64.1961 0.0080 -14.4408 0.0000
# 3 7.6169 64.1961 135.6363 0.0022 -18.0180 0.0038
# 4 0.0030 0.0080 0.0022 34.5196 0.0030 2.1006
# 5 -11.6179 -14.4408 -18.0180 0.0030 24.3714 -0.0010
# 6 -0.0009 0.0000 0.0038 2.1006 -0.0010 19.9734
#
#
#
# Elastic Compliance Matrix: (Units=1/GPa)
#
#
# Indices 1 2 3 4 5 6 
#
# 1 0.013833 -0.003804 0.001774 -0.000001 0.005652 0.000001
# 2 -0.003804 0.009379 -0.004134 -0.000002 0.000688 0.000001
# 3 0.001774 -0.004134 0.009999 0.000000 0.005788 -0.000002
# 4 -0.000001 -0.000002 0.000000 0.029156 -0.000005 -0.003066
# 5 0.005652 0.000688 0.005788 -0.000005 0.048413 0.000002
# 6 0.000001 0.000001 -0.000002 -0.003066 0.000002 0.050389
#
#
# Mechanical properties :
#
#
# Convention : Reuss Voigt Hill
#
# Bulk Modulus (GPa) = 47.88502 66.34043 57.11273
# Shear Modulus (GPa) = 27.70744 33.32308 30.51526
#
# Velocity S-wave (km/s) = 3.73546 4.09656 3.92017
# Velocity P-wave (km/s) = 6.53607 7.46896 7.01803
#
# Compressibility (1/GPa) = 0.02088336
#
# Stress axis : x y z
#
# Youngs Moduli (GPa) = 72.29167 106.61747 100.01352
#
# Poissons Ratio (x) = 0.40556 -0.17746
# Poissons Ratio (y) = 0.27499 0.41348
# Poissons Ratio (z) = -0.12827 0.44078
#
# Static dielectric constant tensor:
#      x y z
#    x 3.670090 0.000000 -0.258410 
#    y 0.000000 3.671190 0.000020 
#    z -0.258410 0.000020 4.018730 
# 
# 
# High freq. dielectric constant tensor:
#      x y z
#    x 1.765550 0.000000 -0.013510 
#    y 0.000000 1.778770 0.000000 
#    z -0.013510 0.000000 1.795000 
# 
# From -- ./inp_files/372885.got.cif
#   From: 2010.06.25/outbox.cif.g09.slc.cpg/sg12_187_cif.got.tgz:372885.got - 2010.06.28 00:19:55.
