data_PCOD8114041
_publ_section_title
;
Structure prediction by ZEFSAII (Michael W. Deem and Ramdas Pophale) SiO2 
 PCOD8114041
Probable space group: C 2/M
;
_chemical_formula_sum "Si O2"
_cell_formula_units_Z 48
_cell_length_a 19.148170
_cell_length_b 9.818357
_cell_length_c 15.635337
_cell_angle_alpha 90.000000
_cell_angle_beta 52.726085
_cell_angle_gamma 90.000000
_cell_volume 2339.104357
_symmetry_space_group_name_H-M "C 2/M"
_symmetry_group_IT_number 12
_symmetry_cell_setting 'monoclinic'
loop_
_space_group_symop_operation_xyz
x,y,z
-x,y,-z
-x,-y,-z
x,-y,z
1/2+x,1/2+y,z
1/2-x,1/2+y,-z
1/2-x,1/2-y,-z
1/2+x,1/2-y,z
loop_
_atom_site_type_symbol
_atom_site_label
_atom_site_fract_x
_atom_site_fract_y
_atom_site_fract_z
Si Si1 0.298200 0.842211 0.393123
Si Si2 0.908292 0.000000 0.893715
Si Si3 0.758701 0.227947 0.750200
Si Si4 0.118840 0.500000 0.148492
Si Si5 0.447160 0.343111 0.619860
Si Si6 0.739808 0.000000 0.897467
Si Si7 0.493686 0.743943 0.249995
Si Si8 0.215158 0.000000 0.855032
O O1 0.250000 0.750000 0.500000
O O2 0.249674 0.832127 0.338477
O O3 0.396156 0.791354 0.300834
O O4 0.297717 0.000000 0.424334
O O5 0.837155 0.000000 0.868382
O O6 0.970059 0.132825 0.843811
O O7 0.862911 0.000000 0.019096
O O8 0.861642 0.250353 0.691316
O O9 0.723125 0.130334 0.850935
O O10 0.707624 0.369906 0.798619
O O11 0.059200 0.369080 0.201340
O O12 0.191966 0.500000 0.166717
O O13 0.164350 0.500000 0.023025
O O14 0.500000 0.289224 0.500000
O O15 0.417436 0.500000 0.630911
O O16 0.509772 0.325667 0.654594
#
# Coordination Sequence:
#
# PCOD8114041 Si02
#       8
#     8   4   8   4   8   4   8   4
#     4  12  29  48  70  95 131 179 220 271 338 396
#     4  11  22  41  70 103 133 177 219 265 334 393
#     4  12  22  44  65  98 132 173 223 271 324 394
#     4  11  22  39  68 103 137 167 217 279 330 385
#     4  11  21  38  66  95 125 169 225 274 326 390
#     4  11  20  41  72  97 131 181 219 265 330 395
#     4  12  22  43  65 100 133 170 219 274 329 389
#     4  11  24  39  68 105 137 171 217 275 334 381
#
# _framework density 20.520674
#
# number of rings (size 3 to 8) (size 9 to 14) (size 15 to 20)
#    0.000    0.500    6.667    2.000    2.333    4.000 
#    0.000    5.833    0.000    0.000    0.000    0.000 
#    0.000    0.000    0.000    0.000    0.000    0.000 
#
# Total GULP energy -297666.642216 kJ/mol
# GULP energy per Si atom -12402.776759 kJ/mol
# Density = 2.047397 g / cm^3
# Si number density = 20.520674 Si / 1000 Ang^3
#
#
#
# Elastic Constant Matrix: (Units=GPa)
#
#
# Indices 1 2 3 4 5 6 
#
# 1 55.3765 11.0840 16.1610 0.0000 0.8669 0.0000
# 2 11.0840 141.3248 52.6684 0.0000 -9.4799 0.0001
# 3 16.1610 52.6684 112.8291 0.0000 1.4267 0.0000
# 4 0.0000 0.0000 0.0000 27.7832 0.0000 -0.9619
# 5 0.8669 -9.4799 1.4267 0.0000 30.1778 0.0000
# 6 0.0000 0.0001 0.0000 -0.9619 0.0000 24.8181
#
#
#
# Elastic Compliance Matrix: (Units=1/GPa)
#
#
# Indices 1 2 3 4 5 6 
#
# 1 0.018896 -0.000627 -0.002406 0.000000 -0.000626 0.000000
# 2 -0.000627 0.008845 -0.004077 0.000000 0.002989 0.000000
# 3 -0.002406 -0.004077 0.011133 0.000000 -0.001738 0.000000
# 4 0.000000 0.000000 0.000000 0.036041 0.000000 0.001397
# 5 -0.000626 0.002989 -0.001738 0.000000 0.034176 0.000000
# 6 0.000000 0.000000 0.000000 0.001397 0.000000 0.040347
#
#
# Mechanical properties :
#
#
# Convention : Reuss Voigt Hill
#
# Bulk Modulus (GPa) = 40.56237 52.15082 46.35660
# Shear Modulus (GPa) = 29.09084 31.86362 30.47723
#
# Velocity S-wave (km/s) = 3.76924 3.94478 3.85801
# Velocity P-wave (km/s) = 6.22514 6.79833 6.51804
#
# Compressibility (1/GPa) = 0.02465339
#
# Stress axis : x y z
#
# Youngs Moduli (GPa) = 52.92217 113.05919 89.82689
#
# Poissons Ratio (x) = 0.07094 0.21610
# Poissons Ratio (y) = 0.03320 0.36620
# Poissons Ratio (z) = 0.12732 0.46091
#
# Static dielectric constant tensor:
#      x y z
#    x 3.579740 0.000000 0.002740 
#    y 0.000000 3.801360 0.000000 
#    z 0.002740 0.000000 3.816650 
# 
# 
# High freq. dielectric constant tensor:
#      x y z
#    x 1.787170 0.000000 0.000160 
#    y 0.000000 1.811870 0.000000 
#    z 0.000160 0.000000 1.817760 
# 
# From -- ./inp_files/280840.got.cif
#   From: 2010.06.25/outbox.cif.g09.slc.cpg/sg12_141_cif.got.tgz:280840.got - 2010.06.28 00:19:55.
