data_PCOD8114606
_publ_section_title
;
Structure prediction by ZEFSAII (Michael W. Deem and Ramdas Pophale) SiO2 
 PCOD8114606
Probable space group: C 2/M
;
_chemical_formula_sum "Si O2"
_cell_formula_units_Z 64
_cell_length_a 22.574849
_cell_length_b 9.125043
_cell_length_c 22.936477
_cell_angle_alpha 90.000000
_cell_angle_beta 54.830094
_cell_angle_gamma 90.000000
_cell_volume 3862.303364
_symmetry_space_group_name_H-M "C 2/M"
_symmetry_group_IT_number 12
_symmetry_cell_setting 'monoclinic'
loop_
_space_group_symop_operation_xyz
x,y,z
-x,y,-z
-x,-y,-z
x,-y,z
1/2+x,1/2+y,z
1/2-x,1/2+y,-z
1/2-x,1/2-y,-z
1/2+x,1/2-y,z
loop_
_atom_site_type_symbol
_atom_site_label
_atom_site_fract_x
_atom_site_fract_y
_atom_site_fract_z
Si Si1 0.323062 0.826927 0.438905
Si Si2 0.738972 0.328897 0.258891
Si Si3 0.592192 0.327885 0.395013
Si Si4 0.431613 0.326913 0.461550
Si Si5 0.460305 0.665211 0.151094
Si Si6 0.060570 0.334447 0.015308
Si Si7 0.142050 0.331232 0.712598
Si Si8 0.839266 0.165493 0.120678
O O1 0.250000 0.750000 0.500000
O O2 0.390361 0.766068 0.436897
O O3 0.336714 0.785475 0.364285
O O4 0.315475 0.000000 0.452303
O O5 0.737704 0.500000 0.243804
O O6 0.659363 0.265231 0.319632
O O7 0.788971 0.297662 0.286318
O O8 0.767338 0.243160 0.186128
O O9 0.601811 0.500000 0.395168
O O10 0.516888 0.290484 0.405776
O O11 0.593567 0.269399 0.460625
O O12 0.416446 0.500000 0.462128
O O13 0.484044 0.500000 0.152160
O O14 0.530861 0.753900 0.089838
O O15 0.427475 0.737916 0.227772
O O16 0.400643 0.668859 0.134705
O O17 0.081736 0.500000 0.019845
O O18 0.132346 0.251390 0.952238
O O19 0.000000 0.332830 0.000000
O O20 0.119224 0.500000 0.729958
O O21 0.820243 0.000000 0.113272
#
# Coordination Sequence:
#
# PCOD8114606 Si02
#       8
#     8   8   8   8   8   8   8   8
#     4  11  22  34  48  67  91 119 150 186 226 266
#     4   9  15  26  43  61  82 113 150 181 213 259
#     4   8  15  29  50  69  87 115 149 183 222 270
#     4   9  17  32  51  69  88 114 149 186 224 267
#     4   9  16  25  38  56  80 110 143 179 217 255
#     4   9  15  23  36  53  76 110 147 177 208 252
#     4   9  18  30  43  60  85 116 149 182 216 260
#     4   9  16  24  34  54  83 111 140 177 218 256
#
# _framework density 16.570423000000002
#
# number of rings (size 3 to 8) (size 9 to 14) (size 15 to 20)
#    0.000    2.875    0.000    3.000    0.000    7.500 
#    0.000    5.000    0.000    0.000    0.000    0.000 
#    0.000    1.000    0.000    3.000    0.000    5.000 
#
# Total GULP energy -396731.073351 kJ/mol
# GULP energy per Si atom -12397.846042 kJ/mol
# Density = 1.653271 g / cm^3
# Si number density = 16.570423 Si / 1000 Ang^3
#
#
#
# Elastic Constant Matrix: (Units=GPa)
#
#
# Indices 1 2 3 4 5 6 
#
# 1 48.3322 31.4612 44.0410 0.0002 -8.7654 -0.0014
# 2 31.4612 104.7424 80.6525 0.0000 -7.7114 -0.0016
# 3 44.0410 80.6525 166.8113 0.0001 -23.8367 -0.0001
# 4 0.0002 0.0000 0.0001 28.2897 0.0000 0.4826
# 5 -8.7654 -7.7114 -23.8367 0.0000 19.8637 -0.0002
# 6 -0.0014 -0.0016 -0.0001 0.4826 -0.0002 16.9017
#
#
#
# Elastic Compliance Matrix: (Units=1/GPa)
#
#
# Indices 1 2 3 4 5 6 
#
# 1 0.028939 -0.004792 -0.004544 0.000000 0.005457 0.000002
# 2 -0.004792 0.016210 -0.007212 0.000000 -0.004476 0.000001
# 3 -0.004544 -0.007212 0.012063 0.000000 0.009671 -0.000001
# 4 0.000000 0.000000 0.000000 0.035366 0.000000 -0.001010
# 5 0.005457 -0.004476 0.009671 0.000000 0.062620 0.000001
# 6 0.000002 0.000001 -0.000001 -0.001010 0.000001 0.059195
#
#
# Mechanical properties :
#
#
# Convention : Reuss Voigt Hill
#
# Bulk Modulus (GPa) = 41.46334 70.24392 55.85363
# Shear Modulus (GPa) = 19.56731 23.92644 21.74687
#
# Velocity S-wave (km/s) = 3.44009 3.80402 3.62662
# Velocity P-wave (km/s) = 6.39185 7.85985 7.16356
#
# Compressibility (1/GPa) = 0.02411769
#
# Stress axis : x y z
#
# Youngs Moduli (GPa) = 34.55485 61.68868 82.89477
#
# Poissons Ratio (x) = 0.29561 0.37666
# Poissons Ratio (y) = 0.16558 0.59785
# Poissons Ratio (z) = 0.15701 0.44491
#
# Static dielectric constant tensor:
#      x y z
#    x 2.722830 0.000000 -0.217140 
#    y 0.000000 3.117050 0.000000 
#    z -0.217140 0.000000 3.414620 
# 
# 
# High freq. dielectric constant tensor:
#      x y z
#    x 1.578550 0.000000 -0.015840 
#    y 0.000000 1.635330 0.000000 
#    z -0.015840 0.000000 1.651590 
# 
# From -- ./inp_files/323631.got.cif
#   From: 2010.06.25/outbox.cif.g09.slc.cpg/sg12_162_cif.got.tgz:323631.got - 2010.06.28 00:19:55.
