data_PCOD8114311
_publ_section_title
;
Structure prediction by ZEFSAII (Michael W. Deem and Ramdas Pophale) SiO2 
 PCOD8114311
Probable space group: C 2/M
;
_chemical_formula_sum "Si O2"
_cell_formula_units_Z 48
_cell_length_a 27.965897
_cell_length_b 8.428668
_cell_length_c 17.153862
_cell_angle_alpha 90.000000
_cell_angle_beta 144.302587
_cell_angle_gamma 90.000000
_cell_volume 2359.358063
_symmetry_space_group_name_H-M "C 2/M"
_symmetry_group_IT_number 12
_symmetry_cell_setting 'monoclinic'
loop_
_space_group_symop_operation_xyz
x,y,z
-x,y,-z
-x,-y,-z
x,-y,z
1/2+x,1/2+y,z
1/2-x,1/2+y,-z
1/2-x,1/2-y,-z
1/2+x,1/2-y,z
loop_
_atom_site_type_symbol
_atom_site_label
_atom_site_fract_x
_atom_site_fract_y
_atom_site_fract_z
Si Si1 0.692478 0.315268 0.490478
Si Si2 0.939377 0.684542 0.987233
Si Si3 0.015875 0.316570 0.634228
Si Si4 0.373293 0.314151 0.345346
Si Si5 0.235796 0.184105 0.261853
Si Si6 0.004921 0.181674 0.230596
O O1 0.709735 0.500000 0.528943
O O2 0.750000 0.250000 0.500000
O O3 0.707714 0.216946 0.588805
O O4 0.600129 0.283408 0.340774
O O5 0.954731 0.500000 0.022653
O O6 0.846780 0.715377 0.838165
O O7 0.000000 0.747558 0.000000
O O8 0.954993 0.778278 0.087270
O O9 0.996948 0.500000 0.593352
O O10 0.097829 0.265923 0.696901
O O11 0.939431 0.214747 0.501379
O O12 0.028945 0.286213 0.742885
O O13 0.362006 0.500000 0.318054
O O14 0.286022 0.238164 0.252115
O O15 0.213571 0.000000 0.226521
O O16 0.989979 0.000000 0.233195
#
# Coordination Sequence:
#
# PCOD8114311 Si02
#       6
#     8   8   8   8   8   8
#     4  11  23  38  60  89 123 158 203 258 311 365
#     4  11  25  44  65  89 123 166 211 256 311 374
#     4  11  21  36  61  93 126 162 205 252 309 368
#     4  11  21  37  61  91 127 163 203 253 311 367
#     4  12  24  40  63  91 124 162 208 256 310 370
#     4  11  23  40  62  90 124 164 207 254 310 367
#
# _framework density 20.344517
#
# number of rings (size 3 to 8) (size 9 to 14) (size 15 to 20)
#    0.000    0.833    1.667    8.000    0.000    6.000 
#    0.000    0.833    0.000    0.000    0.000    0.000 
#    0.000    0.000    0.000    0.000    0.000    0.000 
#
# Total GULP energy -297794.284092 kJ/mol
# GULP energy per Si atom -12408.095171 kJ/mol
# Density = 2.029821 g / cm^3
# Si number density = 20.344517 Si / 1000 Ang^3
#
#
#
# Elastic Constant Matrix: (Units=GPa)
#
#
# Indices 1 2 3 4 5 6 
#
# 1 136.6629 32.3287 16.3798 0.0000 -0.3007 0.0000
# 2 32.3287 90.6038 11.5371 0.0000 -2.6054 0.0000
# 3 16.3798 11.5371 54.6411 0.0000 -3.3619 0.0000
# 4 0.0000 0.0000 0.0000 31.5693 0.0000 -1.7319
# 5 -0.3007 -2.6054 -3.3619 0.0000 36.2678 0.0000
# 6 0.0000 0.0000 0.0000 -1.7319 0.0000 36.6779
#
#
#
# Elastic Compliance Matrix: (Units=1/GPa)
#
#
# Indices 1 2 3 4 5 6 
#
# 1 0.008180 -0.002685 -0.001904 0.000000 -0.000302 0.000000
# 2 -0.002685 0.012236 -0.001736 0.000000 0.000696 0.000000
# 3 -0.001904 -0.001736 0.019340 0.000000 0.001652 0.000000
# 4 0.000000 0.000000 0.000000 0.031759 0.000000 0.001500
# 5 -0.000302 0.000696 0.001652 0.000000 0.027773 0.000000
# 6 0.000000 0.000000 0.000000 0.001500 0.000000 0.027335
#
#
# Mechanical properties :
#
#
# Convention : Reuss Voigt Hill
#
# Bulk Modulus (GPa) = 36.89085 44.71100 40.80093
# Shear Modulus (GPa) = 33.71358 35.68049 34.69703
#
# Velocity S-wave (km/s) = 4.07521 4.19240 4.13422
# Velocity P-wave (km/s) = 6.34945 6.74237 6.54886
#
# Compressibility (1/GPa) = 0.02710699
#
# Stress axis : x y z
#
# Youngs Moduli (GPa) = 122.25024 81.72503 51.70597
#
# Poissons Ratio (x) = 0.21943 0.09844
# Poissons Ratio (y) = 0.32824 0.08976
# Poissons Ratio (z) = 0.23273 0.14187
#
# Static dielectric constant tensor:
#      x y z
#    x 3.923160 0.000000 -0.022200 
#    y 0.000000 3.753960 0.000000 
#    z -0.022200 0.000000 3.392930 
# 
# 
# High freq. dielectric constant tensor:
#      x y z
#    x 1.813670 0.000000 -0.001530 
#    y 0.000000 1.809510 0.000000 
#    z -0.001530 0.000000 1.769800 
# 
# From -- ./inp_files/244914.got.cif
#   From: 2010.06.25/outbox.cif.g09.slc.cpg/sg12_123_cif.got.tgz:244914.got - 2010.06.28 00:19:55.
