data_PCOD8114983
_publ_section_title
;
Structure prediction by ZEFSAII (Michael W. Deem and Ramdas Pophale) SiO2 
 PCOD8114983
Probable space group: C 2/M
;
_chemical_formula_sum "Si O2"
_cell_formula_units_Z 48
_cell_length_a 19.084758
_cell_length_b 14.133101
_cell_length_c 19.108994
_cell_angle_alpha 90.000000
_cell_angle_beta 151.234041
_cell_angle_gamma 90.000000
_cell_volume 2480.374746
_symmetry_space_group_name_H-M "C 2/M"
_symmetry_group_IT_number 12
_symmetry_cell_setting 'monoclinic'
loop_
_space_group_symop_operation_xyz
x,y,z
-x,y,-z
-x,-y,-z
x,-y,z
1/2+x,1/2+y,z
1/2-x,1/2+y,-z
1/2-x,1/2-y,-z
1/2+x,1/2-y,z
loop_
_atom_site_type_symbol
_atom_site_label
_atom_site_fract_x
_atom_site_fract_y
_atom_site_fract_z
Si Si1 0.093949 0.000000 0.379492
Si Si2 0.908376 0.181181 0.855730
Si Si3 0.305208 0.500000 0.687080
Si Si4 0.913850 0.500000 0.699651
Si Si5 0.389630 0.197219 0.340790
Si Si6 0.514913 0.000000 0.627078
Si Si7 0.437194 0.815216 0.115644
Si Si8 0.896525 0.183192 0.209925
O O1 0.168438 0.000000 0.370663
O O2 0.237789 0.000000 0.554516
O O3 0.992776 0.909823 0.300702
O O4 0.763609 0.226032 0.760721
O O5 0.995604 0.262165 0.891843
O O6 0.877665 0.093646 0.779274
O O7 0.000000 0.140421 0.000000
O O8 0.131574 0.500000 0.548623
O O9 0.976456 0.500000 0.675447
O O10 0.972462 0.409263 0.791702
O O11 0.500000 0.213081 0.500000
O O12 0.424162 0.265639 0.307199
O O13 0.389341 0.090639 0.309950
O O14 0.453720 0.749187 0.197829
O O15 0.271100 0.842344 0.952259
#
# Coordination Sequence:
#
# PCOD8114983 Si02
#       8
#     4   8   4   4   8   4   8   8
#     4  11  25  41  69 101 126 170 227 266 318 382
#     4  12  24  42  63 100 133 171 218 265 336 383
#     4  11  22  40  64  99 139 168 206 279 325 389
#     4  11  25  41  70 100 128 171 222 270 318 380
#     4  12  24  41  68  96 135 175 213 266 332 393
#     4  11  22  41  63 101 137 170 209 266 337 389
#     4  11  24  45  67  93 135 174 218 267 322 387
#     4  11  24  45  67  95 130 177 221 263 319 394
#
# _framework density 19.351915000000002
#
# number of rings (size 3 to 8) (size 9 to 14) (size 15 to 20)
#    0.000    0.667    6.667    1.500    2.333    0.667 
#    3.000    1.667    0.000    0.000    0.000    0.000 
#    0.000    0.000    0.000    0.000    0.000    0.000 
#
# Total GULP energy -297642.694930 kJ/mol
# GULP energy per Si atom -12401.778955 kJ/mol
# Density = 1.930787 g / cm^3
# Si number density = 19.351915 Si / 1000 Ang^3
#
#
#
# Elastic Constant Matrix: (Units=GPa)
#
#
# Indices 1 2 3 4 5 6 
#
# 1 79.5739 36.9350 29.3247 -0.0013 11.0045 -0.0014
# 2 36.9350 131.7336 55.2082 0.0006 7.7047 -0.0006
# 3 29.3247 55.2082 94.9173 0.0000 5.5295 -0.0006
# 4 -0.0013 0.0006 0.0000 35.1471 -0.0041 -3.7412
# 5 11.0045 7.7047 5.5295 -0.0041 37.6460 -0.0019
# 6 -0.0014 -0.0006 -0.0006 -3.7412 -0.0019 6.7092
#
#
#
# Elastic Compliance Matrix: (Units=1/GPa)
#
#
# Indices 1 2 3 4 5 6 
#
# 1 0.015469 -0.002929 -0.002872 0.000000 -0.003501 0.000002
# 2 -0.002929 0.010647 -0.005256 0.000000 -0.000551 -0.000001
# 3 -0.002872 -0.005256 0.014492 0.000000 -0.000214 0.000000
# 4 0.000000 0.000000 0.000000 0.030247 0.000004 0.016866
# 5 -0.003501 -0.000551 -0.000214 0.000004 0.027731 0.000009
# 6 0.000002 -0.000001 0.000000 0.016866 0.000009 0.158453
#
#
# Mechanical properties :
#
#
# Convention : Reuss Voigt Hill
#
# Bulk Modulus (GPa) = 54.06757 61.01783 57.54270
# Shear Modulus (GPa) = 17.52436 28.21761 22.87098
#
# Velocity S-wave (km/s) = 3.01252 3.82269 3.44153
# Velocity P-wave (km/s) = 6.33247 7.14724 6.75215
#
# Compressibility (1/GPa) = 0.01849538
#
# Stress axis : x y z
#
# Youngs Moduli (GPa) = 64.64648 93.92151 69.00277
#
# Poissons Ratio (x) = 0.27509 0.19815
# Poissons Ratio (y) = 0.18934 0.36267
# Poissons Ratio (z) = 0.18564 0.49364
#
# Static dielectric constant tensor:
#      x y z
#    x 3.658810 0.000000 0.006600 
#    y 0.000000 3.459850 0.000000 
#    z 0.006600 0.000000 3.591820 
# 
# 
# High freq. dielectric constant tensor:
#      x y z
#    x 1.763720 0.000000 0.000210 
#    y 0.000000 1.748970 0.000000 
#    z 0.000210 0.000000 1.769400 
# 
# From -- ./inp_files/105099.got.cif
#   From: 2010.06.25/outbox.cif.g09.slc.cpg/sg12_53_cif.got.tgz:105099.got - 2010.06.28 00:19:55.
