data_PCOD8114329
_publ_section_title
;
Structure prediction by ZEFSAII (Michael W. Deem and Ramdas Pophale) SiO2 
 PCOD8114329
Probable space group: C 2/M
;
_chemical_formula_sum "Si O2"
_cell_formula_units_Z 56
_cell_length_a 17.701929
_cell_length_b 26.819836
_cell_length_c 8.901280
_cell_angle_alpha 90.000000
_cell_angle_beta 43.310370
_cell_angle_gamma 90.000000
_cell_volume 2898.822839
_symmetry_space_group_name_H-M "C 2/M"
_symmetry_group_IT_number 12
_symmetry_cell_setting 'monoclinic'
loop_
_space_group_symop_operation_xyz
x,y,z
-x,y,-z
-x,-y,-z
x,-y,z
1/2+x,1/2+y,z
1/2-x,1/2+y,-z
1/2-x,1/2-y,-z
1/2+x,1/2-y,z
loop_
_atom_site_type_symbol
_atom_site_label
_atom_site_fract_x
_atom_site_fract_y
_atom_site_fract_z
Si Si1 0.106232 0.348582 0.937508
Si Si2 0.975986 0.190277 0.691098
Si Si3 0.833298 0.556464 0.666764
Si Si4 0.105851 0.297407 0.258182
Si Si5 0.200459 0.197265 0.530322
Si Si6 0.053055 0.556421 0.181255
Si Si7 0.199881 0.848144 0.847850
O O1 0.215700 0.337074 0.685393
O O2 0.113157 0.321370 0.085279
O O3 0.094093 0.407707 0.988043
O O4 0.000000 0.328922 0.000000
O O5 0.901373 0.238145 0.754645
O O6 0.000000 0.161305 0.500000
O O7 0.089725 0.208024 0.599459
O O8 0.910672 0.153378 0.893837
O O9 0.789341 0.500000 0.716154
O O10 0.878593 0.566375 0.767231
O O11 0.734396 0.594460 0.785027
O O12 0.925595 0.566543 0.406463
O O13 0.210114 0.311607 0.208669
O O14 0.000000 0.318667 0.500000
O O15 0.250000 0.250000 0.500000
O O16 0.169026 0.169339 0.727345
O O17 0.069860 0.500000 0.099930
#
# Coordination Sequence:
#
# PCOD8114329 Si02
#       7
#     8   8   8   8   8   8   8
#     4  12  22  34  57  88 120 157 198 244 297 361
#     4  11  24  40  58  84 116 156 203 247 296 350
#     4   9  18  35  62  92 119 153 196 245 303 362
#     4  11  21  37  58  85 116 154 201 245 295 354
#     4  12  25  41  57  85 124 161 201 248 299 351
#     4   9  18  34  56  87 124 153 189 246 306 361
#     4  12  22  39  64  84 116 161 202 243 297 359
#
# _framework density 19.318187000000002
#
# number of rings (size 3 to 8) (size 9 to 14) (size 15 to 20)
#    0.000    1.143    1.429    8.571    0.000    0.286 
#    0.000    0.714    0.000    3.000    0.000    0.000 
#    0.000    0.000    0.000    0.000    0.000    0.000 
#
# Total GULP energy -347254.397401 kJ/mol
# GULP energy per Si atom -12401.942764 kJ/mol
# Density = 1.927422 g / cm^3
# Si number density = 19.318187 Si / 1000 Ang^3
#
#
#
# Elastic Constant Matrix: (Units=GPa)
#
#
# Indices 1 2 3 4 5 6 
#
# 1 76.3591 20.7136 28.8406 0.0000 5.7647 0.0000
# 2 20.7136 105.4513 51.5884 0.0000 2.3378 0.0000
# 3 28.8406 51.5884 133.6502 0.0000 16.4656 0.0000
# 4 0.0000 0.0000 0.0000 30.0969 0.0000 -3.2207
# 5 5.7647 2.3378 16.4656 0.0000 33.9618 0.0000
# 6 0.0000 0.0000 0.0000 -3.2207 0.0000 23.3087
#
#
#
# Elastic Compliance Matrix: (Units=1/GPa)
#
#
# Indices 1 2 3 4 5 6 
#
# 1 0.014527 -0.001684 -0.002335 0.000000 -0.001218 0.000000
# 2 -0.001684 0.011955 -0.004451 0.000000 0.001621 0.000000
# 3 -0.002335 -0.004451 0.010228 0.000000 -0.004256 0.000000
# 4 0.000000 0.000000 0.000000 0.033725 0.000000 0.004660
# 5 -0.001218 0.001621 -0.004256 0.000000 0.031604 0.000000
# 6 0.000000 0.000000 0.000000 0.004660 0.000000 0.043546
#
#
# Mechanical properties :
#
#
# Convention : Reuss Voigt Hill
#
# Bulk Modulus (GPa) = 50.57963 57.52731 54.05347
# Shear Modulus (GPa) = 29.56566 31.76134 30.66350
#
# Velocity S-wave (km/s) = 3.91635 4.05917 3.98840
# Velocity P-wave (km/s) = 6.83298 7.19810 7.01791
#
# Compressibility (1/GPa) = 0.01977081
#
# Stress axis : x y z
#
# Youngs Moduli (GPa) = 68.83916 83.64375 97.76677
#
# Poissons Ratio (x) = 0.14089 0.22824
# Poissons Ratio (y) = 0.11595 0.43516
# Poissons Ratio (z) = 0.16071 0.37230
#
# Static dielectric constant tensor:
#      x y z
#    x 3.577180 0.000000 0.164770 
#    y 0.000000 3.578350 0.000000 
#    z 0.164770 0.000000 3.711050 
# 
# 
# High freq. dielectric constant tensor:
#      x y z
#    x 1.752090 0.000000 0.017580 
#    y 0.000000 1.738750 0.000000 
#    z 0.017580 0.000000 1.753650 
# 
# From -- ./inp_files/53186.got.cif
#   From: 2010.06.25/outbox.cif.g09.slc.cpg/sg12_27_cif.got.tgz:53186.got - 2010.06.28 00:19:55.
