data_PCOD8114188
_publ_section_title
;
Structure prediction by ZEFSAII (Michael W. Deem and Ramdas Pophale) SiO2 
 PCOD8114188
Probable space group: C 2/M
;
_chemical_formula_sum "Si O2"
_cell_formula_units_Z 56
_cell_length_a 17.789082
_cell_length_b 8.713375
_cell_length_c 20.310735
_cell_angle_alpha 90.000000
_cell_angle_beta 118.403955
_cell_angle_gamma 90.000000
_cell_volume 2769.227106
_symmetry_space_group_name_H-M "C 2/M"
_symmetry_group_IT_number 12
_symmetry_cell_setting 'monoclinic'
loop_
_space_group_symop_operation_xyz
x,y,z
-x,y,-z
-x,-y,-z
x,-y,z
1/2+x,1/2+y,z
1/2-x,1/2+y,-z
1/2-x,1/2-y,-z
1/2+x,1/2-y,z
loop_
_atom_site_type_symbol
_atom_site_label
_atom_site_fract_x
_atom_site_fract_y
_atom_site_fract_z
Si Si1 0.906690 0.321670 0.988444
Si Si2 0.109366 0.179313 0.878346
Si Si3 0.189849 0.669437 0.565841
Si Si4 0.758571 0.320472 0.718080
Si Si5 0.745841 0.679945 0.147618
Si Si6 0.569521 0.680976 0.260487
Si Si7 0.124587 0.169477 0.420774
O O1 0.895080 0.500000 0.001782
O O2 0.840241 0.272554 0.904767
O O3 0.889696 0.216988 0.044542
O O4 0.000000 0.286590 0.000000
O O5 0.181223 0.280493 0.874097
O O6 0.018597 0.226537 0.810092
O O7 0.128817 0.000000 0.875817
O O8 0.163539 0.500000 0.578556
O O9 0.195523 0.779246 0.631508
O O10 0.118701 0.726459 0.483662
O O11 0.280010 0.666303 0.567256
O O12 0.753860 0.500000 0.729329
O O13 0.724025 0.231779 0.767592
O O14 0.855991 0.272799 0.744869
O O15 0.726822 0.500000 0.138109
O O16 0.590354 0.500000 0.263538
O O17 0.564687 0.729436 0.335906
O O18 0.095757 0.000000 0.430335
#
# Coordination Sequence:
#
# PCOD8114188 Si02
#       7
#     8   8   8   8   8   8   8
#     4  11  24  42  64  90 117 145 182 227 273 324
#     4  11  23  40  61  85 115 150 187 226 274 330
#     4   9  16  27  45  73 108 144 183 228 279 330
#     4  11  21  34  55  82 112 146 187 234 281 331
#     4  12  25  41  60  82 113 150 187 228 276 330
#     4   9  19  35  56  82 113 148 186 230 279 332
#     4   8  14  26  45  73 107 142 181 225 275 328
#
# _framework density 20.222249000000001
#
# number of rings (size 3 to 8) (size 9 to 14) (size 15 to 20)
#    0.000    1.857    0.000    6.000    0.000    8.000 
#    0.000    0.000    0.000    0.857    0.000    6.000 
#    0.000    0.000    0.000    0.000    0.000    0.000 
#
# Total GULP energy -347246.085898 kJ/mol
# GULP energy per Si atom -12401.645925 kJ/mol
# Density = 2.017622 g / cm^3
# Si number density = 20.222249 Si / 1000 Ang^3
#
#
#
# Elastic Constant Matrix: (Units=GPa)
#
#
# Indices 1 2 3 4 5 6 
#
# 1 46.5256 26.2122 20.5597 0.0000 -16.6735 0.0000
# 2 26.2122 79.3538 24.3178 0.0000 -5.6980 0.0000
# 3 20.5597 24.3178 110.8178 0.0000 -14.5452 0.0000
# 4 0.0000 0.0000 0.0000 36.6935 0.0000 -6.0647
# 5 -16.6735 -5.6980 -14.5452 0.0000 12.7011 0.0000
# 6 0.0000 0.0000 0.0000 -6.0647 0.0000 21.6512
#
#
#
# Elastic Compliance Matrix: (Units=1/GPa)
#
#
# Indices 1 2 3 4 5 6 
#
# 1 0.050058 -0.012580 0.001598 0.000000 0.061901 0.000000
# 2 -0.012580 0.016779 -0.002975 0.000000 -0.012394 0.000000
# 3 0.001598 -0.002975 0.011157 0.000000 0.013541 0.000000
# 4 0.000000 0.000000 0.000000 0.028576 0.000000 0.008004
# 5 0.061901 -0.012394 0.013541 0.000000 0.169940 0.000000
# 6 0.000000 0.000000 0.000000 0.008004 0.000000 0.048429
#
#
# Mechanical properties :
#
#
# Convention : Reuss Voigt Hill
#
# Bulk Modulus (GPa) = 19.96768 42.09738 31.03253
# Shear Modulus (GPa) = 13.53009 25.24968 19.38988
#
# Velocity S-wave (km/s) = 2.58944 3.53740 3.09987
# Velocity P-wave (km/s) = 4.34003 6.12755 5.30955
#
# Compressibility (1/GPa) = 0.05008094
#
# Stress axis : x y z
#
# Youngs Moduli (GPa) = 19.97664 59.59846 89.62685
#
# Poissons Ratio (x) = 0.74977 -0.14323
# Poissons Ratio (y) = 0.25131 0.26662
# Poissons Ratio (z) = -0.03192 0.17729
#
# Static dielectric constant tensor:
#      x y z
#    x 3.272470 0.000000 0.072510 
#    y 0.000000 3.721220 0.000000 
#    z 0.072510 0.000000 4.026270 
# 
# 
# High freq. dielectric constant tensor:
#      x y z
#    x 1.748940 0.000000 -0.001330 
#    y 0.000000 1.794420 0.000000 
#    z -0.001330 0.000000 1.812080 
# 
# From -- ./inp_files/275101.got.cif
#   From: 2010.06.25/outbox.cif.g09.slc.cpg/sg12_138_cif.got.tgz:275101.got - 2010.06.28 00:19:55.
