data_PCOD8114308
_publ_section_title
;
Structure prediction by ZEFSAII (Michael W. Deem and Ramdas Pophale) SiO2 
 PCOD8114308
Probable space group: C 2/M
;
_chemical_formula_sum "Si O2"
_cell_formula_units_Z 56
_cell_length_a 14.485785
_cell_length_b 29.097357
_cell_length_c 11.706001
_cell_angle_alpha 90.000000
_cell_angle_beta 33.746736
_cell_angle_gamma 90.000000
_cell_volume 2740.981306
_symmetry_space_group_name_H-M "C 2/M"
_symmetry_group_IT_number 12
_symmetry_cell_setting 'monoclinic'
loop_
_space_group_symop_operation_xyz
x,y,z
-x,y,-z
-x,-y,-z
x,-y,z
1/2+x,1/2+y,z
1/2-x,1/2+y,-z
1/2-x,1/2-y,-z
1/2+x,1/2-y,z
loop_
_atom_site_type_symbol
_atom_site_label
_atom_site_fract_x
_atom_site_fract_y
_atom_site_fract_z
Si Si1 0.227509 0.283154 0.353638
Si Si2 0.178068 0.315239 0.777644
Si Si3 0.146208 0.949963 0.517460
Si Si4 0.130992 0.283563 0.196517
Si Si5 0.227678 0.050397 0.184696
Si Si6 0.767643 0.854424 0.909936
Si Si7 0.634154 0.356822 0.623330
O O1 0.342085 0.238018 0.238776
O O2 0.198594 0.294984 0.251972
O O3 0.317332 0.327848 0.314429
O O4 0.060380 0.267647 0.594462
O O5 0.298024 0.324219 0.763203
O O6 0.250577 0.342592 0.598834
O O7 0.000000 0.334615 0.000000
O O8 0.259732 0.942187 0.287485
O O9 0.170128 0.911926 0.592859
O O10 0.964002 0.948232 0.651675
O O11 0.183417 0.000000 0.534098
O O12 0.250000 0.250000 0.000000
O O13 0.125281 0.331587 0.134187
O O14 0.303666 0.094287 0.040548
O O15 0.301961 0.000000 0.072212
O O16 0.940074 0.850170 0.800017
#
# Coordination Sequence:
#
# PCOD8114308 Si02
#       7
#     8   8   8   8   8   8   8
#     4  11  26  41  58  83 113 157 202 239 286 351
#     4  12  24  37  56  80 117 158 196 238 287 342
#     4   8  14  28  53  84 118 148 182 235 291 342
#     4  11  23  42  63  78 113 156 199 244 288 346
#     4   8  14  28  53  86 115 146 187 232 288 348
#     4  11  21  36  61  85 117 154 190 242 295 339
#     4  11  22  35  58  91 117 149 196 240 290 349
#
# _framework density 20.430638999999999
#
# number of rings (size 3 to 8) (size 9 to 14) (size 15 to 20)
#    0.000    1.714    2.857    3.429    4.000    0.000 
#    0.000    0.000    0.000    5.143    0.000    6.000 
#    0.000    0.000    0.000    0.000    0.000    0.000 
#
# Total GULP energy -346871.334296 kJ/mol
# GULP energy per Si atom -12388.261939 kJ/mol
# Density = 2.038414 g / cm^3
# Si number density = 20.430639 Si / 1000 Ang^3
#
#
#
# Elastic Constant Matrix: (Units=GPa)
#
#
# Indices 1 2 3 4 5 6 
#
# 1 71.2376 36.3581 10.5925 0.0000 10.2627 0.0000
# 2 36.3581 149.5236 25.1718 0.0000 13.8820 0.0000
# 3 10.5925 25.1718 60.2682 -0.0001 12.9246 0.0000
# 4 0.0000 0.0000 -0.0001 8.9228 0.0000 -2.7153
# 5 10.2627 13.8820 12.9246 0.0000 22.6299 0.0000
# 6 0.0000 0.0000 0.0000 -2.7153 0.0000 27.1435
#
#
#
# Elastic Compliance Matrix: (Units=1/GPa)
#
#
# Indices 1 2 3 4 5 6 
#
# 1 0.016624 -0.003502 -0.000345 0.000000 -0.005194 0.000000
# 2 -0.003502 0.008124 -0.002335 0.000000 -0.002062 0.000000
# 3 -0.000345 -0.002335 0.019701 0.000000 -0.009662 0.000000
# 4 0.000000 0.000000 0.000000 0.115591 0.000000 0.011563
# 5 -0.005194 -0.002062 -0.009662 0.000000 0.053328 0.000000
# 6 0.000000 0.000000 0.000000 0.011563 0.000000 0.037998
#
#
# Mechanical properties :
#
#
# Convention : Reuss Voigt Hill
#
# Bulk Modulus (GPa) = 31.16878 47.25268 39.21073
# Shear Modulus (GPa) = 18.21982 25.66637 21.94310
#
# Velocity S-wave (km/s) = 2.98952 3.54823 3.28079
# Velocity P-wave (km/s) = 5.21588 6.32180 5.79528
#
# Compressibility (1/GPa) = 0.03208338
#
# Stress axis : x y z
#
# Youngs Moduli (GPa) = 60.15223 123.09151 50.75944
#
# Poissons Ratio (x) = 0.43107 0.01753
# Poissons Ratio (y) = 0.21066 0.11855
# Poissons Ratio (z) = 0.02078 0.28748
#
# Static dielectric constant tensor:
#      x y z
#    x 3.637970 0.000000 0.057440 
#    y 0.000000 4.319510 0.000000 
#    z 0.057440 0.000000 3.607580 
# 
# 
# High freq. dielectric constant tensor:
#      x y z
#    x 1.773250 0.000000 -0.004800 
#    y 0.000000 1.806170 0.000000 
#    z -0.004800 0.000000 1.777590 
# 
# From -- ./inp_files/150422.got.cif
#   From: 2010.06.25/outbox.cif.g09.slc.cpg/sg12_76_cif.got.tgz:150422.got - 2010.06.28 00:19:55.
