data_PCOD8114167
_publ_section_title
;
Structure prediction by ZEFSAII (Michael W. Deem and Ramdas Pophale) SiO2 
 PCOD8114167
Probable space group: C 2/M
;
_chemical_formula_sum "Si O2"
_cell_formula_units_Z 40
_cell_length_a 28.457231
_cell_length_b 8.605478
_cell_length_c 17.449258
_cell_angle_alpha 90.000000
_cell_angle_beta 145.217833
_cell_angle_gamma 90.000000
_cell_volume 2437.632592
_symmetry_space_group_name_H-M "C 2/M"
_symmetry_group_IT_number 12
_symmetry_cell_setting 'monoclinic'
loop_
_space_group_symop_operation_xyz
x,y,z
-x,y,-z
-x,-y,-z
x,-y,z
1/2+x,1/2+y,z
1/2-x,1/2+y,-z
1/2-x,1/2-y,-z
1/2+x,1/2-y,z
loop_
_atom_site_type_symbol
_atom_site_label
_atom_site_fract_x
_atom_site_fract_y
_atom_site_fract_z
Si Si1 0.012501 0.180932 0.630437
Si Si2 0.877874 0.319143 0.347846
Si Si3 0.704085 0.824281 0.140009
Si Si4 0.551904 0.175805 0.842668
Si Si5 0.051733 0.815737 0.996600
O O1 0.091995 0.226293 0.686628
O O2 0.029015 0.218831 0.740466
O O3 0.932538 0.273893 0.494510
O O4 0.994766 0.000000 0.597139
O O5 0.888014 0.500000 0.344301
O O6 0.783590 0.281558 0.238042
O O7 0.729509 0.000000 0.195867
O O8 0.651227 0.821706 0.989767
O O9 0.645140 0.752316 0.127712
O O10 0.509126 0.248160 0.861846
O O11 0.520643 0.000000 0.787739
O O12 0.055004 0.000000 0.996731
O O13 0.000000 0.756923 0.000000
#
# Coordination Sequence:
#
# PCOD8114167 Si02
#       5
#     8   8   8   8   8
#     4  11  21  34  52  72 102 136 171 205 246 296
#     4  11  21  34  52  72 102 136 171 205 246 296
#     4   9  19  33  51  75 102 131 168 207 247 292
#     4   9  19  33  51  75 102 131 168 207 247 292
#     4   9  17  31  52  77 102 129 163 203 251 299
#
# _framework density 16.409364
#
# number of rings (size 3 to 8) (size 9 to 14) (size 15 to 20)
#    1.200    1.000    0.000    6.000    0.000    2.400 
#    0.000    0.000    0.000    1.200    0.000    0.000 
#    0.000    0.000    0.000    0.000    0.000    0.000 
#
# Total GULP energy -247869.083854 kJ/mol
# GULP energy per Si atom -12393.454193 kJ/mol
# Density = 1.637202 g / cm^3
# Si number density = 16.409364 Si / 1000 Ang^3
#
#
#
# Elastic Constant Matrix: (Units=GPa)
#
#
# Indices 1 2 3 4 5 6 
#
# 1 101.9311 22.0774 45.9648 0.0000 -16.4780 0.0000
# 2 22.0774 85.8973 16.2348 0.0000 -2.9155 0.0000
# 3 45.9648 16.2348 54.7925 0.0000 -11.9846 0.0000
# 4 0.0000 0.0000 0.0000 27.9088 0.0000 -0.7530
# 5 -16.4780 -2.9155 -11.9846 0.0000 -3.4412 0.0000
# 6 0.0000 0.0000 0.0000 -0.7530 0.0000 28.0349
#
#
#
# Elastic Compliance Matrix: (Units=1/GPa)
#
#
# Indices 1 2 3 4 5 6 
#
# 1 0.014402 -0.001382 -0.015043 0.000000 -0.015407 0.000000
# 2 -0.001382 0.012455 -0.001926 0.000000 0.002770 0.000000
# 3 -0.015043 -0.001926 0.026991 0.000000 -0.020340 0.000000
# 4 0.000000 0.000000 0.000000 0.035857 0.000000 0.000963
# 5 -0.015407 0.002770 -0.020340 0.000000 -0.148331 0.000000
# 6 0.000000 0.000000 0.000000 0.000963 0.000000 0.035696
#
#
# Mechanical properties :
#
#
# Convention : Reuss Voigt Hill
#
# Bulk Modulus (GPa) = 58.31163 45.68611 51.99887
# Shear Modulus (GPa) = 256.59010 21.05675 138.82343
#
# Velocity S-wave (km/s) = 12.51829 3.58609 9.20781
# Velocity P-wave (km/s) = 15.63829 6.71183 12.03339
#
# Compressibility (1/GPa) = 0.01714924
#
# Stress axis : x y z
#
# Youngs Moduli (GPa) = 69.43240 80.29004 37.04896
#
# Poissons Ratio (x) = 0.11093 0.55731
# Poissons Ratio (y) = 0.09593 0.07134
# Poissons Ratio (z) = 1.04444 0.15460
#
# Static dielectric constant tensor:
#      x y z
#    x 2.961660 0.000000 -0.010310 
#    y 0.000000 3.186360 0.000000 
#    z -0.010310 0.000000 2.880280 
# 
# 
# High freq. dielectric constant tensor:
#      x y z
#    x 1.613350 0.000000 -0.001550 
#    y 0.000000 1.654880 0.000000 
#    z -0.001550 0.000000 1.609860 
# 
# From -- ./inp_files/291711.got.cif
#   From: 2010.06.25/outbox.cif.g09.slc.cpg/sg12_146_cif.got.tgz:291711.got - 2010.06.28 00:19:55.
