data_PCOD8114792
_publ_section_title
;
Structure prediction by ZEFSAII (Michael W. Deem and Ramdas Pophale) SiO2 
 PCOD8114792
Probable space group: C 2/M
;
_chemical_formula_sum "Si O2"
_cell_formula_units_Z 48
_cell_length_a 25.059402
_cell_length_b 9.977787
_cell_length_c 11.177254
_cell_angle_alpha 90.000000
_cell_angle_beta 63.626436
_cell_angle_gamma 90.000000
_cell_volume 2503.846732
_symmetry_space_group_name_H-M "C 2/M"
_symmetry_group_IT_number 12
_symmetry_cell_setting 'monoclinic'
loop_
_space_group_symop_operation_xyz
x,y,z
-x,y,-z
-x,-y,-z
x,-y,z
1/2+x,1/2+y,z
1/2-x,1/2+y,-z
1/2-x,1/2-y,-z
1/2+x,1/2-y,z
loop_
_atom_site_type_symbol
_atom_site_label
_atom_site_fract_x
_atom_site_fract_y
_atom_site_fract_z
Si Si1 0.175750 0.500000 0.961913
Si Si2 0.435158 0.150900 0.571418
Si Si3 0.382113 0.763810 0.384670
Si Si4 0.316275 0.500000 0.839739
Si Si5 0.883146 0.752126 0.855472
Si Si6 0.683304 0.000000 0.680663
Si Si7 0.496654 0.653108 0.144769
Si Si8 0.323914 0.500000 0.553225
O O1 0.245793 0.500000 0.911659
O O2 0.159032 0.500000 0.839545
O O3 0.148843 0.630866 0.048121
O O4 0.500000 0.222000 0.500000
O O5 0.404363 0.151621 0.474519
O O6 0.393718 0.225917 0.705625
O O7 0.443811 0.000000 0.609097
O O8 0.437689 0.729195 0.245231
O O9 0.349666 0.629872 0.461135
O O10 0.337953 0.862126 0.358651
O O11 0.338789 0.376823 0.897771
O O12 0.340620 0.500000 0.678131
O O13 0.945321 0.778230 0.858608
O O14 0.753901 0.000000 0.605235
O O15 0.493885 0.500000 0.191789
O O16 0.500000 0.663092 0.000000
#
# Coordination Sequence:
#
# PCOD8114792 Si02
#       8
#     4   8   8   4   8   4   8   4
#     4  11  26  44  61  90 128 172 214 252 304 371
#     4  11  22  37  63  99 127 159 195 260 323 368
#     4  12  22  42  67  92 127 161 209 258 315 371
#     4  11  24  41  66  93 125 166 212 262 309 362
#     4  12  22  42  67  92 127 161 209 258 315 371
#     4  11  26  44  61  90 128 172 214 252 304 371
#     4  11  24  40  63  94 128 163 199 252 316 379
#     4  11  24  41  66  93 125 166 212 262 309 362
#
# _framework density 19.170501999999999
#
# number of rings (size 3 to 8) (size 9 to 14) (size 15 to 20)
#    0.000    0.667    6.667    2.000    0.000    0.667 
#    0.000    4.167    3.667    0.000    0.000    0.000 
#    0.000    0.000    0.000    0.000    0.000    0.000 
#
# Total GULP energy -297655.407931 kJ/mol
# GULP energy per Si atom -12402.308664 kJ/mol
# Density = 1.912687 g / cm^3
# Si number density = 19.170502 Si / 1000 Ang^3
#
#
#
# Elastic Constant Matrix: (Units=GPa)
#
#
# Indices 1 2 3 4 5 6 
#
# 1 100.3842 48.8119 44.5293 0.0000 -4.0832 0.0000
# 2 48.8119 133.2134 48.5493 0.0000 -2.7708 0.0000
# 3 44.5293 48.5493 104.8292 0.0000 0.1595 0.0000
# 4 0.0000 0.0000 0.0000 20.2146 0.0000 20.7539
# 5 -4.0832 -2.7708 0.1595 0.0000 25.3810 0.0000
# 6 0.0000 0.0000 0.0000 20.7539 0.0000 54.1600
#
#
#
# Elastic Compliance Matrix: (Units=1/GPa)
#
#
# Indices 1 2 3 4 5 6 
#
# 1 0.013545 -0.003401 -0.004181 0.000000 0.001834 0.000000
# 2 -0.003401 0.009911 -0.003146 0.000000 0.000555 0.000000
# 3 -0.004181 -0.003146 0.012774 0.000000 -0.001096 0.000000
# 4 0.000000 0.000000 0.000000 0.081554 0.000000 -0.031251
# 5 0.001834 0.000555 -0.001096 0.000000 0.039762 0.000000
# 6 0.000000 0.000000 0.000000 -0.031251 0.000000 0.030439
#
#
# Mechanical properties :
#
#
# Convention : Reuss Voigt Hill
#
# Bulk Modulus (GPa) = 67.69077 69.13420 68.41248
# Shear Modulus (GPa) = 23.32449 33.05353 28.18901
#
# Velocity S-wave (km/s) = 3.49189 4.15684 3.83879
# Velocity P-wave (km/s) = 7.18639 7.69286 7.44394
#
# Compressibility (1/GPa) = 0.01477306
#
# Stress axis : x y z
#
# Youngs Moduli (GPa) = 73.82875 100.89637 78.28271
#
# Poissons Ratio (x) = 0.34316 0.32732
# Poissons Ratio (y) = 0.25110 0.24630
# Poissons Ratio (z) = 0.30869 0.31745
#
# Static dielectric constant tensor:
#      x y z
#    x 3.544380 0.000000 -0.008750 
#    y 0.000000 3.525590 0.000000 
#    z -0.008750 0.000000 3.638090 
# 
# 
# High freq. dielectric constant tensor:
#      x y z
#    x 1.755980 0.000000 -0.000210 
#    y 0.000000 1.758440 0.000000 
#    z -0.000210 0.000000 1.755870 
# 
# From -- ./inp_files/173015.got.cif
#   From: 2010.06.25/outbox.cif.g09.slc.cpg/sg12_87_cif.got.tgz:173015.got - 2010.06.28 00:19:55.
