data_PCOD8114351
_publ_section_title
;
Structure prediction by ZEFSAII (Michael W. Deem and Ramdas Pophale) SiO2 
 PCOD8114351
Probable space group: C 2/M
;
_chemical_formula_sum "Si O2"
_cell_formula_units_Z 64
_cell_length_a 14.263559
_cell_length_b 18.591149
_cell_length_c 14.223752
_cell_angle_alpha 90.000000
_cell_angle_beta 56.844966
_cell_angle_gamma 90.000000
_cell_volume 3157.724975
_symmetry_space_group_name_H-M "C 2/M"
_symmetry_group_IT_number 12
_symmetry_cell_setting 'monoclinic'
loop_
_space_group_symop_operation_xyz
x,y,z
-x,y,-z
-x,-y,-z
x,-y,z
1/2+x,1/2+y,z
1/2-x,1/2+y,-z
1/2-x,1/2-y,-z
1/2+x,1/2-y,z
loop_
_atom_site_type_symbol
_atom_site_label
_atom_site_fract_x
_atom_site_fract_y
_atom_site_fract_z
Si Si1 0.220334 0.159176 0.707182
Si Si2 0.449505 0.786495 0.626529
Si Si3 0.063452 0.708941 0.764702
Si Si4 0.720027 0.918454 0.696101
Si Si5 0.912084 0.134996 0.707078
Si Si6 0.860859 0.795894 0.933855
Si Si7 0.872137 0.921666 0.074988
Si Si8 0.163213 0.082512 0.559316
O O1 0.336018 0.168153 0.700163
O O2 0.164571 0.236117 0.721447
O O3 0.148327 0.103779 0.807471
O O4 0.234746 0.126036 0.596211
O O5 0.500000 0.812741 0.500000
O O6 0.527148 0.799137 0.675232
O O7 0.420874 0.702515 0.632375
O O8 0.111076 0.631844 0.772941
O O9 0.963329 0.738294 0.887357
O O10 0.809694 0.915386 0.731681
O O11 0.788935 0.892516 0.566958
O O12 0.675630 0.000000 0.712110
O O13 0.882140 0.162356 0.826532
O O14 0.029932 0.093872 0.641413
O O15 0.750000 0.750000 0.000000
O O16 0.843468 0.855861 0.022556
O O17 0.811513 0.000000 0.087393
O O18 0.000000 0.939299 0.000000
O O19 0.189284 0.000000 0.561393
#
# Coordination Sequence:
#
# PCOD8114351 Si02
#       8
#     8   8   8   8   8   8   8   8
#     4  12  22  39  64  93 124 160 206 257 307 375
#     4  11  22  36  60  93 126 161 205 253 305 364
#     4  11  23  41  62  92 122 166 209 260 303 378
#     4  11  24  40  62  92 132 175 205 245 314 384
#     4  11  21  37  61  95 127 161 209 264 308 363
#     4  11  24  42  64  91 125 164 210 263 317 366
#     4  11  22  39  63  92 121 153 201 263 322 359
#     4  11  22  38  61  95 133 165 204 258 316 371
#
# _framework density 20.267755000000001
#
# number of rings (size 3 to 8) (size 9 to 14) (size 15 to 20)
#    0.000    0.875    5.000    4.125    0.000    4.000 
#    0.000    3.125    0.000    4.125    0.000    0.000 
#    0.000    0.000    0.000    0.000    0.000    0.000 
#
# Total GULP energy -396638.464200 kJ/mol
# GULP energy per Si atom -12394.952006 kJ/mol
# Density = 2.022162 g / cm^3
# Si number density = 20.267755 Si / 1000 Ang^3
#
#
#
# Elastic Constant Matrix: (Units=GPa)
#
#
# Indices 1 2 3 4 5 6 
#
# 1 94.5475 47.9130 24.3000 0.0000 -3.5190 0.0000
# 2 47.9130 119.4137 23.0270 0.0000 -4.6132 0.0000
# 3 24.3000 23.0270 48.0972 0.0000 -5.1704 0.0000
# 4 0.0000 0.0000 0.0000 30.2114 0.0000 -3.5133
# 5 -3.5190 -4.6132 -5.1704 0.0000 19.7842 0.0000
# 6 0.0000 0.0000 0.0000 -3.5133 0.0000 29.1696
#
#
#
# Elastic Compliance Matrix: (Units=1/GPa)
#
#
# Indices 1 2 3 4 5 6 
#
# 1 0.014260 -0.004770 -0.004906 0.000000 0.000142 0.000000
# 2 -0.004770 0.010842 -0.002675 0.000000 0.000980 0.000000
# 3 -0.004906 -0.002675 0.025095 0.000000 0.005062 0.000000
# 4 0.000000 0.000000 0.000000 0.033570 0.000000 0.004043
# 5 0.000142 0.000980 0.005062 0.000000 0.052122 0.000000
# 6 0.000000 0.000000 0.000000 0.004043 0.000000 0.034769
#
#
# Mechanical properties :
#
#
# Convention : Reuss Voigt Hill
#
# Bulk Modulus (GPa) = 39.22388 50.28206 44.75297
# Shear Modulus (GPa) = 24.52679 26.95426 25.74053
#
# Velocity S-wave (km/s) = 3.48248 3.65075 3.56761
# Velocity P-wave (km/s) = 5.96365 6.52942 6.25294
#
# Compressibility (1/GPa) = 0.02549467
#
# Stress axis : x y z
#
# Youngs Moduli (GPa) = 70.12550 92.23393 39.84918
#
# Poissons Ratio (x) = 0.43998 0.19548
# Poissons Ratio (y) = 0.33452 0.10661
# Poissons Ratio (z) = 0.34400 0.24675
#
# Static dielectric constant tensor:
#      x y z
#    x 3.600750 0.000000 -0.042170 
#    y 0.000000 3.801790 0.000000 
#    z -0.042170 0.000000 3.606550 
# 
# 
# High freq. dielectric constant tensor:
#      x y z
#    x 1.787820 0.000000 0.005410 
#    y 0.000000 1.795130 0.000000 
#    z 0.005410 0.000000 1.787770 
# 
# From -- ./inp_files/216803.got.cif
#   From: 2010.06.25/outbox.cif.g09.slc.cpg/sg12_109_cif.got.tgz:216803.got - 2010.06.28 00:19:55.
