data_PCOD8114742
_publ_section_title
;
Structure prediction by ZEFSAII (Michael W. Deem and Ramdas Pophale) SiO2 
 PCOD8114742
Probable space group: C 2/M
;
_chemical_formula_sum "Si O2"
_cell_formula_units_Z 48
_cell_length_a 14.428010
_cell_length_b 9.033121
_cell_length_c 21.532926
_cell_angle_alpha 90.000000
_cell_angle_beta 71.770376
_cell_angle_gamma 90.000000
_cell_volume 2665.534128
_symmetry_space_group_name_H-M "C 2/M"
_symmetry_group_IT_number 12
_symmetry_cell_setting 'monoclinic'
loop_
_space_group_symop_operation_xyz
x,y,z
-x,y,-z
-x,-y,-z
x,-y,z
1/2+x,1/2+y,z
1/2-x,1/2+y,-z
1/2-x,1/2-y,-z
1/2+x,1/2-y,z
loop_
_atom_site_type_symbol
_atom_site_label
_atom_site_fract_x
_atom_site_fract_y
_atom_site_fract_z
Si Si1 0.608679 0.325767 0.492066
Si Si2 0.443060 0.834762 0.832276
Si Si3 0.389557 0.325335 0.254613
Si Si4 0.754898 0.824310 0.065315
Si Si5 0.790116 0.826418 0.402534
Si Si6 0.371381 0.166135 0.138619
O O1 0.500000 0.265872 0.500000
O O2 0.613388 0.500000 0.480431
O O3 0.685481 0.252470 0.428863
O O4 0.638334 0.281328 0.555977
O O5 0.496464 0.728638 0.770517
O O6 0.338208 0.773679 0.874315
O O7 0.510757 0.839768 0.880295
O O8 0.433807 0.000000 0.805828
O O9 0.384997 0.500000 0.246637
O O10 0.341754 0.273356 0.328775
O O11 0.330959 0.246789 0.210000
O O12 0.847749 0.761865 0.082717
O O13 0.760934 0.000000 0.056203
O O14 0.750000 0.750000 0.000000
O O15 0.770491 0.000000 0.406506
O O16 0.327649 0.000000 0.142796
#
# Coordination Sequence:
#
# PCOD8114742 Si02
#       6
#     8   8   8   8   8   8
#     4   9  18  33  52  75 105 138 176 216 256 306
#     4   8  19  37  54  74 106 137 169 211 259 312
#     4   9  17  33  55  76 104 138 175 218 264 308
#     4  11  22  37  56  80 108 139 174 216 263 313
#     4   9  18  33  52  75 105 137 171 216 261 307
#     4   9  19  37  55  76 104 135 173 215 261 313
#
# _framework density 18.007648
#
# number of rings (size 3 to 8) (size 9 to 14) (size 15 to 20)
#    1.000    1.833    0.000    1.000    0.000    3.667 
#    3.000    3.333    0.000    0.000    0.000    0.000 
#    0.000    0.000    0.000    0.000    0.000    0.000 
#
# Total GULP energy -297408.857642 kJ/mol
# GULP energy per Si atom -12392.035735 kJ/mol
# Density = 1.796666 g / cm^3
# Si number density = 18.007648 Si / 1000 Ang^3
#
#
#
# Elastic Constant Matrix: (Units=GPa)
#
#
# Indices 1 2 3 4 5 6 
#
# 1 61.8282 17.8949 3.1848 0.0000 -6.3373 0.0000
# 2 17.8949 69.3030 30.0440 0.0000 -4.0885 0.0000
# 3 3.1848 30.0440 61.7440 0.0000 -2.2845 0.0000
# 4 0.0000 0.0000 0.0000 31.3131 0.0000 -1.2282
# 5 -6.3373 -4.0885 -2.2845 0.0000 25.4750 0.0000
# 6 0.0000 0.0000 0.0000 -1.2282 0.0000 26.5722
#
#
#
# Elastic Compliance Matrix: (Units=1/GPa)
#
#
# Indices 1 2 3 4 5 6 
#
# 1 0.017969 -0.005164 0.001726 0.000000 0.003796 0.000000
# 2 -0.005164 0.019889 -0.009372 0.000000 0.001067 0.000000
# 3 0.001726 -0.009372 0.020696 0.000000 0.000781 0.000000
# 4 0.000000 0.000000 0.000000 0.031994 0.000000 0.001479
# 5 0.003796 0.001067 0.000781 0.000000 0.040440 0.000000
# 6 0.000000 0.000000 0.000000 0.001479 0.000000 0.037702
#
#
# Mechanical properties :
#
#
# Convention : Reuss Voigt Hill
#
# Bulk Modulus (GPa) = 30.36357 32.79140 31.57748
# Shear Modulus (GPa) = 24.35637 26.12218 25.23928
#
# Velocity S-wave (km/s) = 3.68170 3.81283 3.74784
# Velocity P-wave (km/s) = 5.91366 6.13456 6.02512
#
# Compressibility (1/GPa) = 0.03293421
#
# Stress axis : x y z
#
# Youngs Moduli (GPa) = 55.65241 50.28007 48.31869
#
# Poissons Ratio (x) = 0.25966 -0.08342
# Poissons Ratio (y) = 0.28740 0.45283
# Poissons Ratio (z) = -0.09608 0.47121
#
# Static dielectric constant tensor:
#      x y z
#    x 3.272520 0.000000 -0.026940 
#    y 0.000000 3.287130 0.000000 
#    z -0.026940 0.000000 3.212640 
# 
# 
# High freq. dielectric constant tensor:
#      x y z
#    x 1.684520 0.000000 -0.001190 
#    y 0.000000 1.702070 0.000000 
#    z -0.001190 0.000000 1.683660 
# 
# From -- ./inp_files/337548.got.cif
#   From: 2010.06.25/outbox.cif.g09.slc.cpg/sg12_169_cif.got.tgz:337548.got - 2010.06.28 00:19:55.
