data_PCOD8114032
_publ_section_title
;
Structure prediction by ZEFSAII (Michael W. Deem and Ramdas Pophale) SiO2 
 PCOD8114032
Probable space group: C 2/M
;
_chemical_formula_sum "Si O2"
_cell_formula_units_Z 56
_cell_length_a 16.457283
_cell_length_b 21.023855
_cell_length_c 13.576693
_cell_angle_alpha 90.000000
_cell_angle_beta 144.921712
_cell_angle_gamma 90.000000
_cell_volume 2699.616287
_symmetry_space_group_name_H-M "C 2/M"
_symmetry_group_IT_number 12
_symmetry_cell_setting 'monoclinic'
loop_
_space_group_symop_operation_xyz
x,y,z
-x,y,-z
-x,-y,-z
x,-y,z
1/2+x,1/2+y,z
1/2-x,1/2+y,-z
1/2-x,1/2-y,-z
1/2+x,1/2-y,z
loop_
_atom_site_type_symbol
_atom_site_label
_atom_site_fract_x
_atom_site_fract_y
_atom_site_fract_z
Si Si1 0.790796 0.253359 0.154507
Si Si2 0.211726 0.678452 0.432010
Si Si3 0.935702 0.657591 0.037831
Si Si4 0.513585 0.651860 0.403311
Si Si5 0.288521 0.570710 0.080455
Si Si6 0.826920 0.398005 0.234088
Si Si7 0.652782 0.927891 0.528730
O O1 0.804652 0.322881 0.210595
O O2 0.942372 0.221247 0.324064
O O3 0.750000 0.250000 0.000000
O O4 0.666056 0.217006 0.089475
O O5 0.250000 0.750000 0.500000
O O6 0.321829 0.655829 0.458584
O O7 0.222876 0.626826 0.531089
O O8 0.055304 0.679191 0.232687
O O9 0.845453 0.603323 0.001085
O O10 0.000000 0.631063 0.000000
O O11 0.500000 0.624843 0.500000
O O12 0.434877 0.604956 0.250463
O O13 0.296228 0.500000 0.129413
O O14 0.273090 0.570543 0.947056
O O15 0.782051 0.422822 0.296922
O O16 0.986199 0.416722 0.367577
O O17 0.682298 0.000000 0.518079
#
# Coordination Sequence:
#
# PCOD8114032 Si02
#       7
#     8   8   8   8   8   8   8
#     4  11  20  41  65  95 128 169 216 270 335 389
#     4  12  25  41  65 103 135 171 222 276 335 388
#     4  11  24  41  64  95 131 166 218 279 332 388
#     4  11  25  42  65  94 134 173 214 271 335 395
#     4  11  23  44  68  91 126 178 226 266 321 403
#     4  11  21  39  68  97 128 174 221 267 332 404
#     4  11  24  41  66 100 136 173 221 280 338 399
#
# _framework density 20.743689
#
# number of rings (size 3 to 8) (size 9 to 14) (size 15 to 20)
#    0.000    0.857    4.286    5.143    6.000    1.143 
#    0.000    2.143    0.000    1.714    0.000    0.000 
#    0.000    0.000    0.000    0.000    0.000    0.000 
#
# Total GULP energy -347250.772194 kJ/mol
# GULP energy per Si atom -12401.813293 kJ/mol
# Density = 2.069648 g / cm^3
# Si number density = 20.743689 Si / 1000 Ang^3
#
#
#
# Elastic Constant Matrix: (Units=GPa)
#
#
# Indices 1 2 3 4 5 6 
#
# 1 91.3319 28.7672 11.6606 0.0000 -4.5989 0.0000
# 2 28.7672 157.8471 20.6000 0.0000 5.1630 0.0000
# 3 11.6606 20.6000 61.8679 0.0000 -4.6397 0.0000
# 4 0.0000 0.0000 0.0000 -122.8741 0.0000 -95.6864
# 5 -4.5989 5.1630 -4.6397 0.0000 38.4213 0.0000
# 6 0.0000 0.0000 0.0000 -95.6864 0.0000 -36.0207
#
#
#
# Elastic Compliance Matrix: (Units=1/GPa)
#
#
# Indices 1 2 3 4 5 6 
#
# 1 0.011846 -0.002020 -0.001447 0.000000 0.001515 0.000000
# 2 -0.002020 0.007020 -0.002064 0.000000 -0.001434 0.000000
# 3 -0.001447 -0.002064 0.017288 0.000000 0.002192 0.000000
# 4 0.000000 0.000000 0.000000 0.007616 0.000000 -0.020230
# 5 0.001515 -0.001434 0.002192 0.000000 0.026666 0.000000
# 6 0.000000 0.000000 0.000000 -0.020230 0.000000 0.025978
#
#
# Mechanical properties :
#
#
# Convention : Reuss Voigt Hill
#
# Bulk Modulus (GPa) = 39.85244 48.12251 43.98747
# Shear Modulus (GPa) = 43.16345 -7.42676 17.86834
#
# Velocity S-wave (km/s) = 4.56653 -1.89421 2.93812
# Velocity P-wave (km/s) = 6.85987 4.29709 5.72375
#
# Compressibility (1/GPa) = 0.02509257
#
# Stress axis : x y z
#
# Youngs Moduli (GPa) = 84.41530 142.45757 57.84419
#
# Poissons Ratio (x) = 0.28772 0.08368
# Poissons Ratio (y) = 0.17049 0.11940
# Poissons Ratio (z) = 0.12212 0.29406
#
# Static dielectric constant tensor:
#      x y z
#    x 3.914050 0.000000 -0.001620 
#    y 0.000000 3.997740 0.000000 
#    z -0.001620 0.000000 4.026390 
# 
# 
# High freq. dielectric constant tensor:
#      x y z
#    x 1.802530 0.000000 -0.011000 
#    y 0.000000 1.815050 0.000000 
#    z -0.011000 0.000000 1.820000 
# 
# From -- ./inp_files/227657.got.cif
#   From: 2010.06.25/outbox.cif.g09.slc.cpg/sg12_114_cif.got.tgz:227657.got - 2010.06.28 00:19:55.
