data_PCOD8114806
_publ_section_title
;
Structure prediction by ZEFSAII (Michael W. Deem and Ramdas Pophale) SiO2 
 PCOD8114806
Probable space group: C 2/M
;
_chemical_formula_sum "Si O2"
_cell_formula_units_Z 56
_cell_length_a 17.732770
_cell_length_b 18.222009
_cell_length_c 9.426034
_cell_angle_alpha 90.000000
_cell_angle_beta 108.248688
_cell_angle_gamma 90.000000
_cell_volume 2892.618487
_symmetry_space_group_name_H-M "C 2/M"
_symmetry_group_IT_number 12
_symmetry_cell_setting 'monoclinic'
loop_
_space_group_symop_operation_xyz
x,y,z
-x,y,-z
-x,-y,-z
x,-y,z
1/2+x,1/2+y,z
1/2-x,1/2+y,-z
1/2-x,1/2-y,-z
1/2+x,1/2-y,z
loop_
_atom_site_type_symbol
_atom_site_label
_atom_site_fract_x
_atom_site_fract_y
_atom_site_fract_z
Si Si1 0.721252 0.679492 0.573671
Si Si2 0.565001 0.585668 0.418861
Si Si3 0.472428 0.668882 0.142930
Si Si4 0.368087 0.919215 0.702685
Si Si5 0.343693 0.919424 0.017657
Si Si6 0.707742 0.316307 0.895836
Si Si7 0.987999 0.330564 0.161434
O O1 0.750000 0.750000 0.500000
O O2 0.640542 0.640026 0.473891
O O3 0.790278 0.619926 0.598238
O O4 0.709472 0.702675 0.729994
O O5 0.500000 0.602764 0.500000
O O6 0.591746 0.500000 0.437947
O O7 0.518630 0.603353 0.247227
O O8 0.378022 0.662918 0.096881
O O9 0.493758 0.747896 0.223192
O O10 0.500000 0.663658 0.000000
O O11 0.372443 0.925021 0.873882
O O12 0.446921 0.874246 0.708450
O O13 0.371172 0.000000 0.635682
O O14 0.254848 0.889653 0.963594
O O15 0.344643 0.000000 0.088918
O O16 0.401784 0.866137 0.141419
O O17 0.750000 0.250000 0.000000
O O18 0.000000 0.330249 0.000000
#
# Coordination Sequence:
#
# PCOD8114806 Si02
#       7
#     8   8   8   8   8   8   8
#     4  11  23  39  64  91 121 158 207 252 313 369
#     4  11  24  43  63  90 127 170 218 264 309 374
#     4  11  23  39  64  87 123 161 207 258 315 369
#     4   9  17  30  52  82 114 147 188 238 292 354
#     4   9  17  29  51  80 114 150 188 241 297 354
#     4  11  22  38  58  91 122 158 202 253 307 369
#     4   9  16  29  51  84 116 147 188 238 297 361
#
# _framework density 19.359622000000002
#
# number of rings (size 3 to 8) (size 9 to 14) (size 15 to 20)
#    0.000    1.857    2.857    1.714    4.000    3.143 
#    0.000    0.000    0.000    0.000    0.000    1.000 
#    0.000    0.000    0.000    0.000    0.000    0.000 
#
# Total GULP energy -347030.989428 kJ/mol
# GULP energy per Si atom -12393.963908 kJ/mol
# Density = 1.931556 g / cm^3
# Si number density = 19.359622 Si / 1000 Ang^3
#
#
#
# Elastic Constant Matrix: (Units=GPa)
#
#
# Indices 1 2 3 4 5 6 
#
# 1 141.0558 50.0177 45.5733 0.0000 17.7615 0.0000
# 2 50.0177 108.3013 31.4867 0.0000 2.6873 0.0000
# 3 45.5733 31.4867 64.1111 0.0000 8.5598 0.0000
# 4 0.0000 0.0000 0.0000 275.2790 0.0000 75.3465
# 5 17.7615 2.6873 8.5598 0.0000 28.2461 0.0000
# 6 0.0000 0.0000 0.0000 75.3465 0.0000 49.3982
#
#
#
# Elastic Compliance Matrix: (Units=1/GPa)
#
#
# Indices 1 2 3 4 5 6 
#
# 1 0.010526 -0.003210 -0.005276 0.000000 -0.004715 0.000000
# 2 -0.003210 0.011761 -0.003766 0.000000 0.002041 0.000000
# 3 -0.005276 -0.003766 0.021581 0.000000 -0.002864 0.000000
# 4 0.000000 0.000000 0.000000 0.006236 0.000000 -0.009512
# 5 -0.004715 0.002041 -0.002864 0.000000 0.039041 0.000000
# 6 0.000000 0.000000 0.000000 -0.009512 0.000000 0.034752
#
#
# Mechanical properties :
#
#
# Convention : Reuss Voigt Hill
#
# Bulk Modulus (GPa) = 51.64953 63.06927 57.35940
# Shear Modulus (GPa) = 32.28788 83.01070 57.64929
#
# Velocity S-wave (km/s) = 4.08829 6.55525 5.46285
# Velocity P-wave (km/s) = 7.00160 9.48386 8.33565
#
# Compressibility (1/GPa) = 0.01936126
#
# Stress axis : x y z
#
# Youngs Moduli (GPa) = 95.00157 85.03018 46.33775
#
# Poissons Ratio (x) = 0.27298 0.24449
# Poissons Ratio (y) = 0.30499 0.17452
# Poissons Ratio (z) = 0.50126 0.32025
#
# Static dielectric constant tensor:
#      x y z
#    x 3.684030 0.000000 0.208820 
#    y 0.000000 3.860720 0.000000 
#    z 0.208820 0.000000 3.204330 
# 
# 
# High freq. dielectric constant tensor:
#      x y z
#    x 1.760990 0.000000 0.027020 
#    y 0.000000 1.765900 0.000000 
#    z 0.027020 0.000000 1.718640 
# 
# From -- ./inp_files/76002.got.cif
#   From: 2010.06.25/outbox.cif.g09.slc.cpg/sg12_39_cif.got.tgz:76002.got - 2010.06.28 00:19:55.
