data_PCOD8114089
_publ_section_title
;
Structure prediction by ZEFSAII (Michael W. Deem and Ramdas Pophale) SiO2 
 PCOD8114089
Probable space group: C 2/M
;
_chemical_formula_sum "Si O2"
_cell_formula_units_Z 40
_cell_length_a 12.262497
_cell_length_b 19.640846
_cell_length_c 7.720936
_cell_angle_alpha 90.000000
_cell_angle_beta 84.439964
_cell_angle_gamma 90.000000
_cell_volume 1850.806331
_symmetry_space_group_name_H-M "C 2/M"
_symmetry_group_IT_number 12
_symmetry_cell_setting 'monoclinic'
loop_
_space_group_symop_operation_xyz
x,y,z
-x,y,-z
-x,-y,-z
x,-y,z
1/2+x,1/2+y,z
1/2-x,1/2+y,-z
1/2-x,1/2-y,-z
1/2+x,1/2-y,z
loop_
_atom_site_type_symbol
_atom_site_label
_atom_site_fract_x
_atom_site_fract_y
_atom_site_fract_z
Si Si1 0.266570 0.000000 0.116855
Si Si2 0.347448 0.109604 0.863839
Si Si3 0.011196 0.500000 0.704127
Si Si4 0.732104 0.642662 0.534868
Si Si5 0.912118 0.266450 0.374822
Si Si6 0.000000 0.288858 0.000000
Si Si7 0.128961 0.000000 0.442188
O O1 0.364596 0.000000 0.245075
O O2 0.149918 0.000000 0.232783
O O3 0.266727 0.934688 0.993762
O O4 0.282195 0.142849 0.717804
O O5 0.391379 0.169146 0.976309
O O6 0.452278 0.066791 0.784742
O O7 0.000000 0.500000 0.500000
O O8 0.822102 0.671842 0.383685
O O9 0.632869 0.695468 0.545815
O O10 0.689450 0.566975 0.504565
O O11 0.000000 0.293041 0.500000
O O12 0.965496 0.248551 0.179358
O O13 0.000000 0.000000 0.500000
#
# Coordination Sequence:
#
# PCOD8114089 Si02
#       7
#     4   8   4   8   8   4   4
#     4  11  21  40  62 103 136 173 223 284 350 407
#     4  11  21  38  63 105 140 168 224 280 349 414
#     4  11  21  31  62  99 139 175 209 282 346 405
#     4  11  25  46  70  97 139 188 227 277 353 407
#     4  11  25  47  71 103 139 179 231 293 342 411
#     4  12  22  39  70 101 136 174 228 286 344 400
#     4  12  26  47  70  95 135 190 233 280 340 417
#
# _framework density 21.612203999999998
#
# number of rings (size 3 to 8) (size 9 to 14) (size 15 to 20)
#    0.000    0.800    4.000    4.800    2.800    0.800 
#    7.200    1.500    0.000    0.000    0.000    0.000 
#    0.000    0.000    0.000    0.000    0.000    0.000 
#
# Total GULP energy -247928.195665 kJ/mol
# GULP energy per Si atom -12396.409783 kJ/mol
# Density = 2.156301 g / cm^3
# Si number density = 21.612204 Si / 1000 Ang^3
#
#
#
# Elastic Constant Matrix: (Units=GPa)
#
#
# Indices 1 2 3 4 5 6 
#
# 1 83.1920 34.6518 38.6228 0.0000 -21.2360 0.0000
# 2 34.6518 105.1878 17.6387 0.0000 -11.7172 0.0000
# 3 38.6228 17.6387 144.0169 0.0000 -24.1026 0.0000
# 4 0.0000 0.0000 0.0000 -329.7412 0.0000 74.0845
# 5 -21.2360 -11.7172 -24.1026 0.0000 39.2141 0.0000
# 6 0.0000 0.0000 0.0000 74.0845 0.0000 6.5749
#
#
#
# Elastic Compliance Matrix: (Units=1/GPa)
#
#
# Indices 1 2 3 4 5 6 
#
# 1 0.016722 -0.004351 -0.002958 0.000000 0.005937 0.000000
# 2 -0.004351 0.011049 -0.000031 0.000000 0.000926 0.000000
# 3 -0.002958 -0.000031 0.008328 0.000000 0.003507 0.000000
# 4 0.000000 0.000000 0.000000 -0.000859 0.000000 0.009676
# 5 0.005937 0.000926 0.003507 0.000000 0.031149 0.000000
# 6 0.000000 0.000000 0.000000 0.009676 0.000000 0.043067
#
#
# Mechanical properties :
#
#
# Convention : Reuss Voigt Hill
#
# Bulk Modulus (GPa) = 46.69173 57.13590 51.91382
# Shear Modulus (GPa) = 38.08821 -40.69153 -1.30166
#
# Velocity S-wave (km/s) = 4.20259 -4.34384 -0.77691
# Velocity P-wave (km/s) = 6.72311 1.15573 4.82369
#
# Compressibility (1/GPa) = 0.02141707
#
# Stress axis : x y z
#
# Youngs Moduli (GPa) = 59.80300 90.50930 120.08107
#
# Poissons Ratio (x) = 0.39382 0.35518
# Poissons Ratio (y) = 0.26021 0.00377
# Poissons Ratio (z) = 0.17689 0.00284
#
# Static dielectric constant tensor:
#      x y z
#    x 3.779520 0.000000 -0.083610 
#    y 0.000000 3.827510 0.000000 
#    z -0.083610 0.000000 4.131100 
# 
# 
# High freq. dielectric constant tensor:
#      x y z
#    x 1.833210 0.000000 -0.003580 
#    y 0.000000 1.845890 0.000000 
#    z -0.003580 0.000000 1.863000 
# 
# From -- ./inp_files/48670.got.cif
#   From: 2010.06.25/outbox.cif.g09.slc.cpg/sg12_25_cif.got.tgz:48670.got - 2010.06.28 00:19:55.
