data_PCOD8114106
_publ_section_title
;
Structure prediction by ZEFSAII (Michael W. Deem and Ramdas Pophale) SiO2 
 PCOD8114106
Probable space group: C 2/M
;
_chemical_formula_sum "Si O2"
_cell_formula_units_Z 56
_cell_length_a 11.361657
_cell_length_b 18.689825
_cell_length_c 15.011418
_cell_angle_alpha 90.000000
_cell_angle_beta 69.053733
_cell_angle_gamma 90.000000
_cell_volume 2976.983925
_symmetry_space_group_name_H-M "C 2/M"
_symmetry_group_IT_number 12
_symmetry_cell_setting 'monoclinic'
loop_
_space_group_symop_operation_xyz
x,y,z
-x,y,-z
-x,-y,-z
x,-y,z
1/2+x,1/2+y,z
1/2-x,1/2+y,-z
1/2-x,1/2-y,-z
1/2+x,1/2-y,z
loop_
_atom_site_type_symbol
_atom_site_label
_atom_site_fract_x
_atom_site_fract_y
_atom_site_fract_z
Si Si1 0.290132 0.672552 0.878975
Si Si2 0.253631 0.417611 0.255002
Si Si3 0.962100 0.305877 0.108318
Si Si4 0.103957 0.726443 0.553251
Si Si5 0.980525 0.422617 0.402143
Si Si6 0.953335 0.812534 0.259861
Si Si7 0.777542 0.659654 0.911274
O O1 0.162682 0.644090 0.865798
O O2 0.411498 0.648528 0.790122
O O3 0.269230 0.758352 0.882789
O O4 0.301979 0.645381 0.977281
O O5 0.288806 0.500000 0.257985
O O6 0.344615 0.371774 0.293723
O O7 0.276109 0.394524 0.147035
O O8 0.111502 0.400570 0.320959
O O9 0.934607 0.240180 0.181745
O O10 0.073967 0.356600 0.112991
O O11 0.000000 0.274427 0.000000
O O12 0.250000 0.750000 0.500000
O O13 0.114263 0.644055 0.585331
O O14 0.043444 0.773224 0.647073
O O15 0.000000 0.731930 0.500000
O O16 0.931456 0.500000 0.376736
O O17 0.000000 0.434642 0.500000
#
# Coordination Sequence:
#
# PCOD8114106 Si02
#       7
#     8   8   8   8   8   8   8
#     4   9  17  29  52  78 111 142 183 238 290 346
#     4  11  22  36  55  82 117 153 198 243 295 354
#     4   9  17  29  53  82 108 141 187 245 285 344
#     4  11  24  39  60  93 125 153 198 255 304 347
#     4   9  18  35  58  82 112 150 191 234 285 348
#     4  11  21  32  56  79 116 151 191 243 299 346
#     4   9  17  31  49  79 110 142 189 235 285 343
#
# _framework density 18.810984000000001
#
# number of rings (size 3 to 8) (size 9 to 14) (size 15 to 20)
#    0.000    2.143    1.429    4.286    2.000    0.000 
#    0.000    1.429    0.000    6.429    0.000    0.000 
#    0.000    0.000    0.000    0.000    0.000    0.000 
#
# Total GULP energy -346876.972653 kJ/mol
# GULP energy per Si atom -12388.463309 kJ/mol
# Density = 1.876817 g / cm^3
# Si number density = 18.810984 Si / 1000 Ang^3
#
#
#
# Elastic Constant Matrix: (Units=GPa)
#
#
# Indices 1 2 3 4 5 6 
#
# 1 91.8313 37.3645 31.3634 0.0000 -7.5903 0.0000
# 2 37.3645 96.5200 34.6357 0.0000 -5.1178 0.0000
# 3 31.3634 34.6357 98.0036 0.0000 -6.7542 0.0000
# 4 0.0000 0.0000 0.0000 27.1145 0.0000 -4.2321
# 5 -7.5903 -5.1178 -6.7542 0.0000 32.6738 0.0000
# 6 0.0000 0.0000 0.0000 -4.2321 0.0000 26.1638
#
#
#
# Elastic Compliance Matrix: (Units=1/GPa)
#
#
# Indices 1 2 3 4 5 6 
#
# 1 0.013709 -0.004211 -0.002764 0.000000 0.001954 0.000000
# 2 -0.004211 0.013192 -0.003286 0.000000 0.000409 0.000000
# 3 -0.002764 -0.003286 0.012346 0.000000 0.001395 0.000000
# 4 0.000000 0.000000 0.000000 0.037836 0.000000 0.006120
# 5 0.001954 0.000409 0.001395 0.000000 0.031412 0.000000
# 6 0.000000 0.000000 0.000000 0.006120 0.000000 0.039211
#
#
# Mechanical properties :
#
#
# Convention : Reuss Voigt Hill
#
# Bulk Modulus (GPa) = 53.41080 54.78688 54.09884
# Shear Modulus (GPa) = 28.65843 29.38984 29.02413
#
# Velocity S-wave (km/s) = 3.90743 3.95698 3.93228
# Velocity P-wave (km/s) = 6.98659 7.07567 7.03127
#
# Compressibility (1/GPa) = 0.01872281
#
# Stress axis : x y z
#
# Youngs Moduli (GPa) = 72.94717 75.80499 80.99904
#
# Poissons Ratio (x) = 0.31924 0.22389
# Poissons Ratio (y) = 0.30721 0.26618
# Poissons Ratio (z) = 0.20163 0.24911
#
# Static dielectric constant tensor:
#      x y z
#    x 3.899420 0.000000 -0.102170 
#    y 0.000000 3.294190 0.000000 
#    z -0.102170 0.000000 3.699970 
# 
# 
# High freq. dielectric constant tensor:
#      x y z
#    x 1.730050 0.000000 -0.011540 
#    y 0.000000 1.684370 0.000000 
#    z -0.011540 0.000000 1.739790 
# 
# From -- ./inp_files/206101.got.cif
#   From: 2010.06.25/outbox.cif.g09.slc.cpg/sg12_104_cif.got.tgz:206101.got - 2010.06.28 00:19:55.
