data_PCOD8114958
_publ_section_title
;
Structure prediction by ZEFSAII (Michael W. Deem and Ramdas Pophale) SiO2 
 PCOD8114958
Probable space group: C 2/M
;
_chemical_formula_sum "Si O2"
_cell_formula_units_Z 48
_cell_length_a 9.562824
_cell_length_b 24.978375
_cell_length_c 13.844699
_cell_angle_alpha 90.000000
_cell_angle_beta 135.749177
_cell_angle_gamma 90.000000
_cell_volume 2307.625309
_symmetry_space_group_name_H-M "C 2/M"
_symmetry_group_IT_number 12
_symmetry_cell_setting 'monoclinic'
loop_
_space_group_symop_operation_xyz
x,y,z
-x,y,-z
-x,-y,-z
x,-y,z
1/2+x,1/2+y,z
1/2-x,1/2+y,-z
1/2-x,1/2-y,-z
1/2+x,1/2-y,z
loop_
_atom_site_type_symbol
_atom_site_label
_atom_site_fract_x
_atom_site_fract_y
_atom_site_fract_z
Si Si1 0.043352 0.127812 0.262445
Si Si2 0.854724 0.802798 0.018749
Si Si3 0.193372 0.559667 0.161271
Si Si4 0.818080 0.806407 0.487763
Si Si5 0.182388 0.937705 0.162660
Si Si6 0.500599 0.125248 0.224304
O O1 0.981235 0.180668 0.174355
O O2 0.870497 0.083921 0.186713
O O3 0.125804 0.148939 0.404795
O O4 0.195221 0.095778 0.268515
O O5 0.750000 0.750000 0.000000
O O6 0.686808 0.846781 0.918240
O O7 0.000000 0.792925 0.000000
O O8 0.250594 0.500000 0.226076
O O9 0.162925 0.600633 0.233148
O O10 0.000000 0.556130 0.000000
O O11 0.750000 0.750000 0.500000
O O12 0.616823 0.830138 0.342325
O O13 0.000000 0.798569 0.500000
O O14 0.402474 0.925779 0.229250
O O15 0.157095 0.000000 0.171720
O O16 0.000000 0.918545 0.000000
#
# Coordination Sequence:
#
# PCOD8114958 Si02
#       6
#     8   8   8   8   8   8
#     4  12  23  45  67 100 137 175 224 281 334 397
#     4  12  26  42  67 100 132 170 227 286 337 398
#     4  11  22  39  70 105 135 177 221 271 340 403
#     4  12  30  48  69  96 136 184 229 282 343 404
#     4  11  22  43  74 107 139 177 223 277 338 401
#     4  12  23  45  67 100 137 175 224 281 334 397
#
# _framework density 20.800605000000001
#
# number of rings (size 3 to 8) (size 9 to 14) (size 15 to 20)
#    0.000    0.333    6.667    2.000    4.667    5.333 
#    0.000    5.000    0.000    0.000    0.000    0.000 
#    0.000    0.000    0.000    0.000    0.000    0.000 
#
# Total GULP energy -297483.484644 kJ/mol
# GULP energy per Si atom -12395.145193 kJ/mol
# Density = 2.075326 g / cm^3
# Si number density = 20.800605 Si / 1000 Ang^3
#
#
#
# Elastic Constant Matrix: (Units=GPa)
#
#
# Indices 1 2 3 4 5 6 
#
# 1 94.1432 41.6148 25.4913 0.0000 -8.2214 0.0000
# 2 41.6148 123.7918 21.7064 0.0000 -5.9455 0.0000
# 3 25.4913 21.7064 49.3547 0.0000 -4.5591 0.0000
# 4 0.0000 0.0000 0.0000 25.6271 0.0000 3.1723
# 5 -8.2214 -5.9455 -4.5591 0.0000 29.5623 0.0000
# 6 0.0000 0.0000 0.0000 3.1723 0.0000 63.3853
#
#
#
# Elastic Compliance Matrix: (Units=1/GPa)
#
#
# Indices 1 2 3 4 5 6 
#
# 1 0.013872 -0.003612 -0.005363 0.000000 0.002304 0.000000
# 2 -0.003612 0.009735 -0.002361 0.000000 0.000589 0.000000
# 3 -0.005363 -0.002361 0.024234 0.000000 0.001771 0.000000
# 4 0.000000 0.000000 0.000000 0.039264 0.000000 -0.001965
# 5 0.002304 0.000589 0.001771 0.000000 0.034859 0.000000
# 6 0.000000 0.000000 0.000000 -0.001965 0.000000 0.015875
#
#
# Mechanical properties :
#
#
# Convention : Reuss Voigt Hill
#
# Bulk Modulus (GPa) = 39.73468 49.43496 44.58482
# Shear Modulus (GPa) = 29.60293 35.61344 32.60819
#
# Velocity S-wave (km/s) = 3.77659 4.14228 3.96366
# Velocity P-wave (km/s) = 6.17746 6.83343 6.51371
#
# Compressibility (1/GPa) = 0.02516693
#
# Stress axis : x y z
#
# Youngs Moduli (GPa) = 72.08572 102.72476 41.26487
#
# Poissons Ratio (x) = 0.37107 0.22132
# Poissons Ratio (y) = 0.26040 0.09744
# Poissons Ratio (z) = 0.38662 0.24256
#
# Static dielectric constant tensor:
#      x y z
#    x 3.914600 0.000000 -0.062510 
#    y 0.000000 4.003290 0.000000 
#    z -0.062510 0.000000 3.603110 
# 
# 
# High freq. dielectric constant tensor:
#      x y z
#    x 1.834220 0.000000 0.001680 
#    y 0.000000 1.834200 0.000000 
#    z 0.001680 0.000000 1.792580 
# 
# From -- ./inp_files/200230.got.cif
#   From: 2010.06.25/outbox.cif.g09.slc.cpg/sg12_101_cif.got.tgz:200230.got - 2010.06.28 00:19:55.
