data_PCOD8114340
_publ_section_title
;
Structure prediction by ZEFSAII (Michael W. Deem and Ramdas Pophale) SiO2 
 PCOD8114340
Probable space group: C 2/M
;
_chemical_formula_sum "Si O2"
_cell_formula_units_Z 56
_cell_length_a 20.115275
_cell_length_b 8.525781
_cell_length_c 19.110007
_cell_angle_alpha 90.000000
_cell_angle_beta 120.131076
_cell_angle_gamma 90.000000
_cell_volume 2834.500177
_symmetry_space_group_name_H-M "C 2/M"
_symmetry_group_IT_number 12
_symmetry_cell_setting 'monoclinic'
loop_
_space_group_symop_operation_xyz
x,y,z
-x,y,-z
-x,-y,-z
x,-y,z
1/2+x,1/2+y,z
1/2-x,1/2+y,-z
1/2-x,1/2-y,-z
1/2+x,1/2-y,z
loop_
_atom_site_type_symbol
_atom_site_label
_atom_site_fract_x
_atom_site_fract_y
_atom_site_fract_z
Si Si1 0.548608 0.183180 0.850389
Si Si2 0.179908 0.813548 0.008673
Si Si3 0.831194 0.684750 0.566959
Si Si4 0.719116 0.313428 0.184171
Si Si5 0.382591 0.684155 0.741647
Si Si6 0.887972 0.316252 0.265439
Si Si7 0.019769 0.312714 0.433607
O O1 0.470518 0.279465 0.804315
O O2 0.598450 0.220341 0.808334
O O3 0.529331 0.000000 0.847310
O O4 0.598533 0.242589 0.941803
O O5 0.188607 0.755247 0.093040
O O6 0.178636 0.000000 0.001862
O O7 0.250000 0.750000 0.000000
O O8 0.827287 0.500000 0.561027
O O9 0.750000 0.750000 0.500000
O O10 0.852090 0.731918 0.656489
O O11 0.897132 0.748001 0.548803
O O12 0.721025 0.500000 0.184774
O O13 0.665820 0.250022 0.218226
O O14 0.805068 0.246266 0.242409
O O15 0.370737 0.500000 0.725561
O O16 0.888600 0.500000 0.280015
O O17 0.955177 0.240688 0.347899
O O18 0.018906 0.500000 0.431953
O O19 0.000000 0.247825 0.500000
#
# Coordination Sequence:
#
# PCOD8114340 Si02
#       7
#     8   8   8   8   8   8   8
#     4  11  21  38  62  86 119 159 196 243 301 356
#     4  11  21  37  60  89 120 153 201 252 301 354
#     4  11  23  40  61  88 121 157 194 242 300 356
#     4   9  20  36  58  86 117 156 200 245 292 356
#     4  11  23  40  62  88 118 157 202 243 292 357
#     4   9  16  32  57  83 111 149 196 240 283 343
#     4   9  18  32  57  88 113 145 195 240 280 344
#
# _framework density 19.75657
#
# number of rings (size 3 to 8) (size 9 to 14) (size 15 to 20)
#    0.000    1.857    2.857    1.714    2.000    0.571 
#    0.000    5.714    0.000    3.429    0.000    0.000 
#    0.000    0.000    0.000    0.000    0.000    0.000 
#
# Total GULP energy -347195.761974 kJ/mol
# GULP energy per Si atom -12399.848642 kJ/mol
# Density = 1.971160 g / cm^3
# Si number density = 19.756570 Si / 1000 Ang^3
#
#
#
# Elastic Constant Matrix: (Units=GPa)
#
#
# Indices 1 2 3 4 5 6 
#
# 1 89.1118 24.3032 72.2157 0.0000 10.4613 0.0000
# 2 24.3032 33.6007 18.4915 0.0000 -4.0907 0.0000
# 3 72.2157 18.4915 154.5245 0.0000 11.0103 0.0000
# 4 0.0000 0.0000 0.0000 30.0624 0.0000 4.3220
# 5 10.4613 -4.0907 11.0103 0.0000 43.5904 0.0000
# 6 0.0000 0.0000 0.0000 4.3220 0.0000 25.3404
#
#
#
# Elastic Compliance Matrix: (Units=1/GPa)
#
#
# Indices 1 2 3 4 5 6 
#
# 1 0.021732 -0.011560 -0.008477 0.000000 -0.004159 0.000000
# 2 -0.011560 0.038718 0.000319 0.000000 0.006327 0.000000
# 3 -0.008477 0.000319 0.010436 0.000000 -0.000572 0.000000
# 4 0.000000 0.000000 0.000000 0.034100 0.000000 -0.005816
# 5 -0.004159 0.006327 -0.000572 0.000000 0.024677 0.000000
# 6 0.000000 0.000000 0.000000 -0.005816 0.000000 0.040455
#
#
# Mechanical properties :
#
#
# Convention : Reuss Voigt Hill
#
# Bulk Modulus (GPa) = 31.79765 56.36196 44.07980
# Shear Modulus (GPa) = 22.72334 30.61375 26.66854
#
# Velocity S-wave (km/s) = 3.39509 3.94070 3.67803
# Velocity P-wave (km/s) = 5.61235 7.02108 6.35587
#
# Compressibility (1/GPa) = 0.03144887
#
# Stress axis : x y z
#
# Youngs Moduli (GPa) = 46.01414 25.82786 95.82580
#
# Poissons Ratio (x) = 0.29858 0.81229
# Poissons Ratio (y) = 0.53194 -0.03052
# Poissons Ratio (z) = 0.39005 -0.00823
#
# Static dielectric constant tensor:
#      x y z
#    x 3.743170 0.000000 0.112960 
#    y 0.000000 3.265840 0.000000 
#    z 0.112960 0.000000 3.793340 
# 
# 
# High freq. dielectric constant tensor:
#      x y z
#    x 1.782120 0.000000 0.006470 
#    y 0.000000 1.735470 0.000000 
#    z 0.006470 0.000000 1.785080 
# 
# From -- ./inp_files/281628.got.cif
#   From: 2010.06.25/outbox.cif.g09.slc.cpg/sg12_141_cif.got.tgz:281628.got - 2010.06.28 00:19:55.
