data_PCOD8114746
_publ_section_title
;
Structure prediction by ZEFSAII (Michael W. Deem and Ramdas Pophale) SiO2 
 PCOD8114746
Probable space group: C 2/M
;
_chemical_formula_sum "Si O2"
_cell_formula_units_Z 56
_cell_length_a 13.870469
_cell_length_b 27.249186
_cell_length_c 8.547787
_cell_angle_alpha 90.000000
_cell_angle_beta 115.969946
_cell_angle_gamma 90.000000
_cell_volume 2904.488037
_symmetry_space_group_name_H-M "C 2/M"
_symmetry_group_IT_number 12
_symmetry_cell_setting 'monoclinic'
loop_
_space_group_symop_operation_xyz
x,y,z
-x,y,-z
-x,-y,-z
x,-y,z
1/2+x,1/2+y,z
1/2-x,1/2+y,-z
1/2-x,1/2-y,-z
1/2+x,1/2-y,z
loop_
_atom_site_type_symbol
_atom_site_label
_atom_site_fract_x
_atom_site_fract_y
_atom_site_fract_z
Si Si1 0.458440 0.107669 0.646138
Si Si2 0.467220 0.305009 0.300337
Si Si3 0.402516 0.627713 0.826183
Si Si4 0.960651 0.298505 0.143555
Si Si5 0.342326 0.053792 0.111494
Si Si6 0.264597 0.649389 0.014838
Si Si7 0.242849 0.554674 0.599796
O O1 0.500000 0.114586 0.500000
O O2 0.458823 0.160625 0.729848
O O3 0.534379 0.071314 0.799504
O O4 0.339473 0.085029 0.567827
O O5 0.500000 0.312788 0.500000
O O6 0.556973 0.328981 0.254936
O O7 0.461742 0.247987 0.256947
O O8 0.352327 0.331320 0.198392
O O9 0.355730 0.583476 0.687737
O O10 0.500000 0.606266 0.000000
O O11 0.310506 0.651072 0.870603
O O12 0.838959 0.316717 0.052106
O O13 0.000000 0.283107 0.000000
O O14 0.305557 0.050156 0.263232
O O15 0.333498 0.000000 0.025284
O O16 0.268333 0.093050 0.966456
O O17 0.261576 0.500000 0.543786
#
# Coordination Sequence:
#
# PCOD8114746 Si02
#       7
#     8   8   8   8   8   8   8
#     4   9  17  30  50  80 112 137 173 221 265 313
#     4  11  23  38  56  78 105 138 181 227 269 311
#     4   9  19  36  55  77 108 143 183 222 257 308
#     4  11  22  37  57  80 109 142 176 214 268 329
#     4   8  14  27  52  81 106 138 177 217 260 310
#     4   9  19  37  57  78 109 143 177 218 261 315
#     4   9  16  28  51  81 109 137 174 221 265 304
#
# _framework density 19.280507
#
# number of rings (size 3 to 8) (size 9 to 14) (size 15 to 20)
#    0.000    2.571    0.000    3.429    0.000    3.143 
#    0.000    4.286    0.000   15.857    0.000    0.000 
#    0.000    0.000    0.000    0.000    0.000    0.000 
#
# Total GULP energy -347154.330253 kJ/mol
# GULP energy per Si atom -12398.368938 kJ/mol
# Density = 1.923662 g / cm^3
# Si number density = 19.280507 Si / 1000 Ang^3
#
#
#
# Elastic Constant Matrix: (Units=GPa)
#
#
# Indices 1 2 3 4 5 6 
#
# 1 79.4869 39.2661 41.2064 0.0000 23.6367 0.0000
# 2 39.2661 158.9146 69.4458 0.0000 30.4004 0.0000
# 3 41.2064 69.4458 96.6165 0.0000 19.5466 0.0000
# 4 0.0000 0.0000 0.0000 23.2773 0.0000 3.2268
# 5 23.6367 30.4004 19.5466 0.0000 22.9513 0.0000
# 6 0.0000 0.0000 0.0000 3.2268 0.0000 22.6739
#
#
#
# Elastic Compliance Matrix: (Units=1/GPa)
#
#
# Indices 1 2 3 4 5 6 
#
# 1 0.020219 0.000750 -0.005737 0.000000 -0.016930 0.000000
# 2 0.000750 0.010562 -0.005950 0.000000 -0.009695 0.000000
# 3 -0.005737 -0.005950 0.017258 0.000000 -0.000907 0.000000
# 4 0.000000 0.000000 0.000000 0.043825 0.000000 -0.006237
# 5 -0.016930 -0.009695 -0.000907 0.000000 0.074620 0.000000
# 6 0.000000 0.000000 0.000000 -0.006237 0.000000 0.044991
#
#
# Mechanical properties :
#
#
# Convention : Reuss Voigt Hill
#
# Bulk Modulus (GPa) = 38.22109 70.53940 54.38024
# Shear Modulus (GPa) = 20.65504 26.12050 23.38777
#
# Velocity S-wave (km/s) = 3.27661 3.68470 3.48663
# Velocity P-wave (km/s) = 5.84651 7.40054 6.66894
#
# Compressibility (1/GPa) = 0.02616357
#
# Stress axis : x y z
#
# Youngs Moduli (GPa) = 49.45920 94.67533 57.94522
#
# Poissons Ratio (x) = -0.07100 0.33244
# Poissons Ratio (y) = -0.03709 0.34480
# Poissons Ratio (z) = 0.28375 0.56336
#
# Static dielectric constant tensor:
#      x y z
#    x 3.420710 0.000000 0.235590 
#    y 0.000000 3.806850 0.000000 
#    z 0.235590 0.000000 3.417340 
# 
# 
# High freq. dielectric constant tensor:
#      x y z
#    x 1.734780 0.000000 0.018650 
#    y 0.000000 1.758500 0.000000 
#    z 0.018650 0.000000 1.732090 
# 
# From -- ./inp_files/67057.got.cif
#   From: 2010.06.25/outbox.cif.g09.slc.cpg/sg12_34_cif.got.tgz:67057.got - 2010.06.28 00:19:55.
