data_PCOD8114198
_publ_section_title
;
Structure prediction by ZEFSAII (Michael W. Deem and Ramdas Pophale) SiO2 
 PCOD8114198
Probable space group: C 2/M
;
_chemical_formula_sum "Si O2"
_cell_formula_units_Z 40
_cell_length_a 29.286595
_cell_length_b 8.471018
_cell_length_c 24.494754
_cell_angle_alpha 90.000000
_cell_angle_beta 161.468160
_cell_angle_gamma 90.000000
_cell_volume 1931.410760
_symmetry_space_group_name_H-M "C 2/M"
_symmetry_group_IT_number 12
_symmetry_cell_setting 'monoclinic'
loop_
_space_group_symop_operation_xyz
x,y,z
-x,y,-z
-x,-y,-z
x,-y,z
1/2+x,1/2+y,z
1/2-x,1/2+y,-z
1/2-x,1/2-y,-z
1/2+x,1/2-y,z
loop_
_atom_site_type_symbol
_atom_site_label
_atom_site_fract_x
_atom_site_fract_y
_atom_site_fract_z
Si Si1 0.637183 0.170819 0.623922
Si Si2 0.341744 0.185407 0.153477
Si Si3 0.313958 0.816865 0.917354
Si Si4 0.051046 0.183126 0.119554
Si Si5 0.364311 0.681438 0.484921
O O1 0.500000 0.115979 0.500000
O O2 0.746218 0.269229 0.783133
O O3 0.579807 0.290055 0.512871
O O4 0.706451 0.000000 0.682409
O O5 0.257590 0.223362 0.113956
O O6 0.501936 0.258180 0.327231
O O7 0.360076 0.000000 0.170073
O O8 0.250000 0.250000 0.000000
O O9 0.296501 0.000000 0.911135
O O10 0.478151 0.773120 0.088752
O O11 0.218612 0.217003 0.320929
O O12 0.016710 0.000000 0.087678
O O13 0.000000 0.238920 0.000000
O O14 0.332366 0.500000 0.462288
#
# Coordination Sequence:
#
# PCOD8114198 Si02
#       5
#     8   8   8   8   8
#     4  11  21  34  57  90 128 167 207 257 318 378
#     4  12  26  47  70  93 124 166 218 268 318 372
#     4  12  24  39  63  95 130 167 211 262 318 378
#     4  11  23  39  62  93 135 176 210 253 319 387
#     4  12  24  39  63  95 130 167 211 262 318 378
#
# _framework density 20.710249999999998
#
# number of rings (size 3 to 8) (size 9 to 14) (size 15 to 20)
#    0.000    0.400    4.000    6.600    0.000    1.600 
#    0.000    1.000    0.000    0.000    0.000    0.000 
#    0.000    0.000    0.000    0.000    0.000    0.000 
#
# Total GULP energy -247762.812692 kJ/mol
# GULP energy per Si atom -12388.140635 kJ/mol
# Density = 2.066311 g / cm^3
# Si number density = 20.710250 Si / 1000 Ang^3
#
#
#
# Elastic Constant Matrix: (Units=GPa)
#
#
# Indices 1 2 3 4 5 6 
#
# 1 43.4134 11.7616 27.5235 -0.0001 5.8161 0.0001
# 2 11.7616 119.8772 26.3708 -0.0003 -0.7652 0.0000
# 3 27.5235 26.3708 141.9305 0.0000 -1.2266 0.0002
# 4 -0.0001 -0.0003 0.0000 35.7459 -0.0002 -0.3057
# 5 5.8161 -0.7652 -1.2266 -0.0002 31.5812 0.0001
# 6 0.0001 0.0000 0.0002 -0.3057 0.0001 32.1980
#
#
#
# Elastic Compliance Matrix: (Units=1/GPa)
#
#
# Indices 1 2 3 4 5 6 
#
# 1 0.027383 -0.001608 -0.005057 0.000000 -0.005278 0.000000
# 2 -0.001608 0.008792 -0.001318 0.000000 0.000458 0.000000
# 3 -0.005057 -0.001318 0.008282 0.000000 0.001221 0.000000
# 4 0.000000 0.000000 0.000000 0.027978 0.000000 0.000266
# 5 -0.005278 0.000458 0.001221 0.000000 0.032695 0.000000
# 6 0.000000 0.000000 0.000000 0.000266 0.000000 0.031060
#
#
# Mechanical properties :
#
#
# Convention : Reuss Voigt Hill
#
# Bulk Modulus (GPa) = 35.09788 48.50368 41.80078
# Shear Modulus (GPa) = 30.93036 35.87602 33.40319
#
# Velocity S-wave (km/s) = 3.86875 4.16659 4.02043
# Velocity P-wave (km/s) = 6.07785 6.82775 6.46368
#
# Compressibility (1/GPa) = 0.02849175
#
# Stress axis : x y z
#
# Youngs Moduli (GPa) = 36.51866 113.73384 120.74666
#
# Poissons Ratio (x) = 0.18287 0.61063
# Poissons Ratio (y) = 0.05872 0.15913
# Poissons Ratio (z) = 0.18468 0.14989
#
# Static dielectric constant tensor:
#      x y z
#    x 6.158010 -0.000020 2.421990 
#    y -0.000020 3.780170 -0.000020 
#    z 2.421990 -0.000020 6.033380 
# 
# 
# High freq. dielectric constant tensor:
#      x y z
#    x 1.790790 0.000000 0.026200 
#    y 0.000000 1.825660 0.000000 
#    z 0.026200 0.000000 1.817630 
# 
# From -- ./inp_files/353125.got.cif
#   From: 2010.06.25/outbox.cif.g09.slc.cpg/sg12_177_cif.got.tgz:353125.got - 2010.06.28 00:19:55.
