data_PCOD8114333
_publ_section_title
;
Structure prediction by ZEFSAII (Michael W. Deem and Ramdas Pophale) SiO2 
 PCOD8114333
Probable space group: C 2/M
;
_chemical_formula_sum "Si O2"
_cell_formula_units_Z 56
_cell_length_a 9.903280
_cell_length_b 24.830363
_cell_length_c 14.562088
_cell_angle_alpha 90.000000
_cell_angle_beta 123.367982
_cell_angle_gamma 90.000000
_cell_volume 2990.563627
_symmetry_space_group_name_H-M "C 2/M"
_symmetry_group_IT_number 12
_symmetry_cell_setting 'monoclinic'
loop_
_space_group_symop_operation_xyz
x,y,z
-x,y,-z
-x,-y,-z
x,-y,z
1/2+x,1/2+y,z
1/2-x,1/2+y,-z
1/2-x,1/2-y,-z
1/2+x,1/2-y,z
loop_
_atom_site_type_symbol
_atom_site_label
_atom_site_fract_x
_atom_site_fract_y
_atom_site_fract_z
Si Si1 0.004815 0.157464 0.245480
Si Si2 0.862143 0.808274 0.381572
Si Si3 0.141909 0.684801 0.618378
Si Si4 0.958519 0.560730 0.128043
Si Si5 0.562080 0.748391 0.920580
Si Si6 0.485918 0.838347 0.748865
Si Si7 0.270328 0.561103 0.123546
O O1 0.195873 0.149870 0.338092
O O2 0.915928 0.186851 0.296234
O O3 0.993586 0.194267 0.150994
O O4 0.922851 0.099850 0.196204
O O5 0.820743 0.746718 0.392447
O O6 0.703635 0.842967 0.345550
O O7 0.000000 0.831302 0.500000
O O8 0.088168 0.684688 0.703640
O O9 0.000000 0.661578 0.500000
O O10 0.959885 0.500000 0.167142
O O11 0.942942 0.602338 0.205479
O O12 0.126673 0.573811 0.140322
O O13 0.803720 0.569083 0.005116
O O14 0.499101 0.800568 0.843113
O O15 0.500000 0.749480 0.000000
O O16 0.750000 0.750000 0.000000
O O17 0.332443 0.500000 0.159472
#
# Coordination Sequence:
#
# PCOD8114333 Si02
#       7
#     8   8   8   8   8   8   8
#     4  12  21  38  58  85 118 152 189 237 292 336
#     4  11  21  37  59  83 112 151 200 239 279 341
#     4  11  23  39  57  84 118 153 196 239 286 346
#     4   9  19  36  60  87 114 150 195 234 277 339
#     4  12  24  34  51  84 122 150 179 224 286 346
#     4  12  21  37  59  84 117 153 189 234 290 339
#     4   9  19  36  60  87 114 151 194 233 277 342
#
# _framework density 18.725567999999999
#
# number of rings (size 3 to 8) (size 9 to 14) (size 15 to 20)
#    0.000    1.143    4.286    4.286    2.000    2.286 
#    0.000    0.714    0.000    7.286    0.000    0.000 
#    0.000    0.000    0.000    0.000    0.000    0.000 
#
# Total GULP energy -347262.947274 kJ/mol
# GULP energy per Si atom -12402.248117 kJ/mol
# Density = 1.868295 g / cm^3
# Si number density = 18.725568 Si / 1000 Ang^3
#
#
#
# Elastic Constant Matrix: (Units=GPa)
#
#
# Indices 1 2 3 4 5 6 
#
# 1 86.4979 21.3327 27.9346 0.0000 16.2954 0.0000
# 2 21.3327 103.1691 47.7777 0.0000 12.5962 0.0000
# 3 27.9346 47.7777 83.2263 0.0000 20.2103 0.0000
# 4 0.0000 0.0000 0.0000 26.4097 0.0000 6.7982
# 5 16.2954 12.5962 20.2103 0.0000 42.3480 0.0000
# 6 0.0000 0.0000 0.0000 6.7982 0.0000 24.2275
#
#
#
# Elastic Compliance Matrix: (Units=1/GPa)
#
#
# Indices 1 2 3 4 5 6 
#
# 1 0.013446 -0.000896 -0.003175 0.000000 -0.003392 0.000000
# 2 -0.000896 0.013267 -0.007285 0.000000 -0.000125 0.000000
# 3 -0.003175 -0.007285 0.018596 0.000000 -0.005486 0.000000
# 4 0.000000 0.000000 0.000000 0.040813 0.000000 -0.011452
# 5 -0.003392 -0.000125 -0.005486 0.000000 0.027574 0.000000
# 6 0.000000 0.000000 0.000000 -0.011452 0.000000 0.044489
#
#
# Mechanical properties :
#
#
# Convention : Reuss Voigt Hill
#
# Bulk Modulus (GPa) = 44.25451 51.88703 48.07077
# Shear Modulus (GPa) = 26.53506 30.32025 28.42766
#
# Velocity S-wave (km/s) = 3.76846 4.02828 3.90053
# Velocity P-wave (km/s) = 6.52836 7.02890 6.78325
#
# Compressibility (1/GPa) = 0.02259657
#
# Stress axis : x y z
#
# Youngs Moduli (GPa) = 74.36922 75.37446 53.77610
#
# Poissons Ratio (x) = 0.06752 0.17075
# Poissons Ratio (y) = 0.06662 0.39178
# Poissons Ratio (z) = 0.23614 0.54913
#
# Static dielectric constant tensor:
#      x y z
#    x 3.345280 0.000000 0.156730 
#    y 0.000000 3.294640 0.000000 
#    z 0.156730 0.000000 3.632290 
# 
# 
# High freq. dielectric constant tensor:
#      x y z
#    x 1.724820 0.000000 0.009910 
#    y 0.000000 1.704130 0.000000 
#    z 0.009910 0.000000 1.733600 
# 
# From -- ./inp_files/185129.got.cif
#   From: 2010.06.25/outbox.cif.g09.slc.cpg/sg12_93_cif.got.tgz:185129.got - 2010.06.28 00:19:55.
