data_PCOD8114875
_publ_section_title
;
Structure prediction by ZEFSAII (Michael W. Deem and Ramdas Pophale) SiO2 
 PCOD8114875
Probable space group: C 2/M
;
_chemical_formula_sum "Si O2"
_cell_formula_units_Z 48
_cell_length_a 9.166983
_cell_length_b 14.822560
_cell_length_c 18.380112
_cell_angle_alpha 90.000000
_cell_angle_beta 99.162168
_cell_angle_gamma 90.000000
_cell_volume 2465.592224
_symmetry_space_group_name_H-M "C 2/M"
_symmetry_group_IT_number 12
_symmetry_cell_setting 'monoclinic'
loop_
_space_group_symop_operation_xyz
x,y,z
-x,y,-z
-x,-y,-z
x,-y,z
1/2+x,1/2+y,z
1/2-x,1/2+y,-z
1/2-x,1/2-y,-z
1/2+x,1/2-y,z
loop_
_atom_site_type_symbol
_atom_site_label
_atom_site_fract_x
_atom_site_fract_y
_atom_site_fract_z
Si Si1 0.168323 0.500000 0.429198
Si Si2 0.840297 0.346880 0.680271
Si Si3 0.601462 0.394657 0.162643
Si Si4 0.690892 0.162413 0.693461
Si Si5 0.228213 0.100589 0.825307
Si Si6 0.319143 0.000000 0.408125
Si Si7 0.136972 0.740864 0.054449
O O1 0.215110 0.410126 0.389846
O O2 0.244973 0.500000 0.514773
O O3 0.993929 0.500000 0.424096
O O4 0.752000 0.254445 0.664949
O O5 0.796697 0.395856 0.751013
O O6 0.015986 0.331192 0.692263
O O7 0.623444 0.500000 0.145688
O O8 0.734200 0.359479 0.223515
O O9 0.446069 0.376011 0.190885
O O10 0.604534 0.338186 0.088186
O O11 0.738465 0.087191 0.639164
O O12 0.315405 0.170362 0.881273
O O13 0.250617 0.000000 0.858585
O O14 0.250000 0.750000 0.000000
O O15 0.000000 0.700879 0.000000
#
# Coordination Sequence:
#
# PCOD8114875 Si02
#       7
#     4   8   8   8   8   4   8
#     4   9  20  40  63  93 131 167 203 262 306 366
#     4  11  22  38  64  95 125 166 212 253 308 370
#     4  11  24  42  66  91 124 166 208 256 313 376
#     4  11  22  38  64  95 124 167 212 253 307 373
#     4  11  24  42  65  92 125 163 208 259 313 372
#     4   9  20  40  63  93 131 165 209 253 314 365
#     4  12  26  44  63  91 125 162 206 261 318 367
#
# _framework density 19.467938
#
# number of rings (size 3 to 8) (size 9 to 14) (size 15 to 20)
#    0.000    1.167    5.000    1.000    2.333    2.000 
#    0.000    0.000    0.000    7.000    0.000    0.000 
#    0.000    0.000    0.000    0.000    0.000    0.000 
#
# Total GULP energy -297616.275983 kJ/mol
# GULP energy per Si atom -12400.678166 kJ/mol
# Density = 1.942363 g / cm^3
# Si number density = 19.467938 Si / 1000 Ang^3
#
#
#
# Elastic Constant Matrix: (Units=GPa)
#
#
# Indices 1 2 3 4 5 6 
#
# 1 102.7175 37.8179 32.5822 0.0000 -13.6633 0.0000
# 2 37.8179 138.8190 44.0318 0.0000 -12.5928 0.0000
# 3 32.5822 44.0318 114.9529 0.0000 -17.7901 0.0000
# 4 0.0000 0.0000 0.0000 19.0158 0.0000 1.8880
# 5 -13.6633 -12.5928 -17.7901 0.0000 26.8380 0.0000
# 6 0.0000 0.0000 0.0000 1.8880 0.0000 28.4673
#
#
#
# Elastic Compliance Matrix: (Units=1/GPa)
#
#
# Indices 1 2 3 4 5 6 
#
# 1 0.011641 -0.002247 -0.001877 0.000000 0.003628 0.000000
# 2 -0.002247 0.008728 -0.002507 0.000000 0.001290 0.000000
# 3 -0.001877 -0.002507 0.010989 0.000000 0.005152 0.000000
# 4 0.000000 0.000000 0.000000 0.052936 0.000000 -0.003511
# 5 0.003628 0.001290 0.005152 0.000000 0.043128 0.000000
# 6 0.000000 0.000000 0.000000 -0.003511 0.000000 0.035361
#
#
# Mechanical properties :
#
#
# Convention : Reuss Voigt Hill
#
# Bulk Modulus (GPa) = 55.26166 65.03924 60.15045
# Shear Modulus (GPa) = 27.46107 31.00140 29.23124
#
# Velocity S-wave (km/s) = 3.75984 3.99486 3.87913
# Velocity P-wave (km/s) = 6.87722 7.39996 7.14338
#
# Compressibility (1/GPa) = 0.01809573
#
# Stress axis : x y z
#
# Youngs Moduli (GPa) = 85.90569 114.57686 91.00103
#
# Poissons Ratio (x) = 0.25741 0.17085
# Poissons Ratio (y) = 0.19300 0.22811
# Poissons Ratio (z) = 0.16128 0.28721
#
# Static dielectric constant tensor:
#      x y z
#    x 3.548220 0.000000 -0.076360 
#    y 0.000000 3.784670 0.000000 
#    z -0.076360 0.000000 3.595050 
# 
# 
# High freq. dielectric constant tensor:
#      x y z
#    x 1.757520 0.000000 -0.005650 
#    y 0.000000 1.773660 0.000000 
#    z -0.005650 0.000000 1.758410 
# 
# From -- ./inp_files/255807.got.cif
#   From: 2010.06.25/outbox.cif.g09.slc.cpg/sg12_128_cif.got.tgz:255807.got - 2010.06.28 00:19:55.
