data_PCOD8114605
_publ_section_title
;
Structure prediction by ZEFSAII (Michael W. Deem and Ramdas Pophale) SiO2 
 PCOD8114605
Probable space group: C 2/M
;
_chemical_formula_sum "Si O2"
_cell_formula_units_Z 48
_cell_length_a 28.063953
_cell_length_b 8.966318
_cell_length_c 11.546404
_cell_angle_alpha 90.000000
_cell_angle_beta 101.917717
_cell_angle_gamma 90.000000
_cell_volume 2842.799480
_symmetry_space_group_name_H-M "C 2/M"
_symmetry_group_IT_number 12
_symmetry_cell_setting 'monoclinic'
loop_
_space_group_symop_operation_xyz
x,y,z
-x,y,-z
-x,-y,-z
x,-y,z
1/2+x,1/2+y,z
1/2-x,1/2+y,-z
1/2-x,1/2-y,-z
1/2+x,1/2-y,z
loop_
_atom_site_type_symbol
_atom_site_label
_atom_site_fract_x
_atom_site_fract_y
_atom_site_fract_z
Si Si1 0.678216 0.676029 0.418845
Si Si2 0.207656 0.323157 0.904766
Si Si3 0.405888 0.321820 0.787314
Si Si4 0.278032 0.825281 0.351380
Si Si5 0.990765 0.162832 0.130696
Si Si6 0.386419 0.321408 0.036896
O O1 0.675776 0.500000 0.431007
O O2 0.629892 0.737678 0.330690
O O3 0.681453 0.746989 0.547806
O O4 0.724348 0.724975 0.364646
O O5 0.210515 0.500000 0.920372
O O6 0.214814 0.272941 0.776063
O O7 0.155805 0.263437 0.918429
O O8 0.250000 0.250000 0.000000
O O9 0.409601 0.500000 0.787795
O O10 0.460873 0.254439 0.793504
O O11 0.384539 0.273698 0.901196
O O12 0.285311 0.000000 0.368587
O O13 0.937571 0.238347 0.119801
O O14 0.987249 0.000000 0.187187
O O15 0.000000 0.143080 0.000000
O O16 0.380993 0.500000 0.046990
#
# Coordination Sequence:
#
# PCOD8114605 Si02
#       6
#     8   8   8   8   8   8
#     4   9  16  28  48  68  86 112 148 188 222 258
#     4  11  22  34  48  66  91 121 150 181 220 268
#     4   8  13  24  45  72  96 117 147 186 226 264
#     4   9  19  33  45  62  90 119 145 179 225 268
#     4   7  11  21  41  68  93 118 147 180 220 264
#     4   9  16  28  47  70  96 122 148 181 222 267
#
# _framework density 16.884764000000001
#
# number of rings (size 3 to 8) (size 9 to 14) (size 15 to 20)
#    0.000    3.167    0.000    3.500    0.000    4.000 
#    0.000    4.167    0.000    6.500    0.000    7.000 
#    0.000    0.000    0.000    0.000    0.000    0.000 
#
# Total GULP energy -297335.697745 kJ/mol
# GULP energy per Si atom -12388.987406 kJ/mol
# Density = 1.684633 g / cm^3
# Si number density = 16.884764 Si / 1000 Ang^3
#
#
#
# Elastic Constant Matrix: (Units=GPa)
#
#
# Indices 1 2 3 4 5 6 
#
# 1 141.2522 32.1282 82.7385 0.0000 21.5773 0.0000
# 2 32.1282 27.3542 34.6399 0.0000 2.2464 0.0000
# 3 82.7385 34.6399 135.6969 0.0000 20.6261 0.0000
# 4 0.0000 0.0000 0.0000 22.9072 0.0000 -1.9398
# 5 21.5773 2.2464 20.6261 0.0000 32.0332 0.0000
# 6 0.0000 0.0000 0.0000 -1.9398 0.0000 18.6444
#
#
#
# Elastic Compliance Matrix: (Units=1/GPa)
#
#
# Indices 1 2 3 4 5 6 
#
# 1 0.012476 -0.008191 -0.004795 0.000000 -0.004742 0.000000
# 2 -0.008191 0.060335 -0.011753 0.000000 0.008854 0.000000
# 3 -0.004795 -0.011753 0.014052 0.000000 -0.004994 0.000000
# 4 0.000000 0.000000 0.000000 0.044042 0.000000 0.004582
# 5 -0.004742 0.008854 -0.004994 0.000000 0.037006 0.000000
# 6 0.000000 0.000000 0.000000 0.004582 0.000000 0.054112
#
#
# Mechanical properties :
#
#
# Convention : Reuss Voigt Hill
#
# Bulk Modulus (GPa) = 26.74958 67.03516 46.89237
# Shear Modulus (GPa) = 17.60780 25.03674 21.32227
#
# Velocity S-wave (km/s) = 3.23278 3.85489 3.55746
# Velocity P-wave (km/s) = 5.45997 7.72019 6.68628
#
# Compressibility (1/GPa) = 0.03738376
#
# Stress axis : x y z
#
# Youngs Moduli (GPa) = 80.15584 16.57409 71.16189
#
# Poissons Ratio (x) = 0.13577 0.34122
# Poissons Ratio (y) = 0.65659 0.83639
# Poissons Ratio (z) = 0.38435 0.19480
#
# Static dielectric constant tensor:
#      x y z
#    x 3.552190 0.000000 0.298420 
#    y 0.000000 2.807630 0.000000 
#    z 0.298420 0.000000 3.177760 
# 
# 
# High freq. dielectric constant tensor:
#      x y z
#    x 1.658750 0.000000 0.021580 
#    y 0.000000 1.612200 0.000000 
#    z 0.021580 0.000000 1.634280 
# 
# From -- ./inp_files/179156.got.cif
#   From: 2010.06.25/outbox.cif.g09.slc.cpg/sg12_90_cif.got.tgz:179156.got - 2010.06.28 00:19:55.
