data_PCOD8114112
_publ_section_title
;
Structure prediction by ZEFSAII (Michael W. Deem and Ramdas Pophale) SiO2 
 PCOD8114112
Probable space group: C 2/M
;
_chemical_formula_sum "Si O2"
_cell_formula_units_Z 56
_cell_length_a 18.902887
_cell_length_b 9.100261
_cell_length_c 18.726353
_cell_angle_alpha 90.000000
_cell_angle_beta 102.225819
_cell_angle_gamma 90.000000
_cell_volume 3148.271880
_symmetry_space_group_name_H-M "C 2/M"
_symmetry_group_IT_number 12
_symmetry_cell_setting 'monoclinic'
loop_
_space_group_symop_operation_xyz
x,y,z
-x,y,-z
-x,-y,-z
x,-y,z
1/2+x,1/2+y,z
1/2-x,1/2+y,-z
1/2-x,1/2-y,-z
1/2+x,1/2-y,z
loop_
_atom_site_type_symbol
_atom_site_label
_atom_site_fract_x
_atom_site_fract_y
_atom_site_fract_z
Si Si1 0.758298 0.664241 0.707177
Si Si2 0.706302 0.663618 0.155691
Si Si3 0.628260 0.165140 0.859013
Si Si4 0.716779 0.824544 0.561822
Si Si5 0.174681 0.171990 0.996787
Si Si6 0.593424 0.662017 0.721444
Si Si7 0.068983 0.171857 0.561800
O O1 0.784642 0.500000 0.693280
O O2 0.808825 0.726067 0.782074
O O3 0.763671 0.768983 0.639505
O O4 0.676840 0.662324 0.717079
O O5 0.691118 0.500000 0.181023
O O6 0.788666 0.674556 0.146540
O O7 0.654313 0.697974 0.076209
O O8 0.578647 0.228931 0.784259
O O9 0.602885 0.000000 0.868254
O O10 0.616250 0.257560 0.929774
O O11 0.750000 0.750000 0.500000
O O12 0.633848 0.774232 0.549538
O O13 0.721345 0.000000 0.558218
O O14 0.182748 0.000000 0.981694
O O15 0.250000 0.250000 0.000000
O O16 0.570142 0.500000 0.742096
O O17 0.549305 0.707719 0.640560
O O18 0.000000 0.211434 0.500000
O O19 0.091489 0.000000 0.559325
#
# Coordination Sequence:
#
# PCOD8114112 Si02
#       7
#     8   8   8   8   8   8   8
#     4   9  16  26  40  57  77 104 139 176 216 261
#     4   8  14  22  31  46  68  96 130 168 209 252
#     4   9  15  21  30  45  67  96 131 169 206 246
#     4  11  21  33  49  68  92 120 153 190 228 271
#     4   9  15  21  29  42  63  92 128 167 205 247
#     4   8  14  24  38  55  76 104 136 170 210 257
#     4   9  18  33  51  70  92 118 150 188 230 275
#
# _framework density 17.787535999999999
#
# number of rings (size 3 to 8) (size 9 to 14) (size 15 to 20)
#    0.000    3.000    0.000    4.286    0.000    7.714 
#    0.000    0.000    0.000    0.000    0.000    0.000 
#    0.000    0.000    0.000    1.286    0.000   27.143 
#
# Total GULP energy -346946.468735 kJ/mol
# GULP energy per Si atom -12390.945312 kJ/mol
# Density = 1.774705 g / cm^3
# Si number density = 17.787536 Si / 1000 Ang^3
#
#
#
# Elastic Constant Matrix: (Units=GPa)
#
#
# Indices 1 2 3 4 5 6 
#
# 1 13.4907 21.9728 29.2249 0.0000 6.0196 0.0000
# 2 21.9728 153.6357 94.2490 0.0000 9.0602 0.0000
# 3 29.2249 94.2490 175.9370 0.0000 27.5461 0.0000
# 4 0.0000 0.0000 0.0000 37.3594 0.0000 1.6789
# 5 6.0196 9.0602 27.5461 0.0000 17.3797 0.0000
# 6 0.0000 0.0000 0.0000 1.6789 0.0000 10.2674
#
#
#
# Elastic Compliance Matrix: (Units=1/GPa)
#
#
# Indices 1 2 3 4 5 6 
#
# 1 0.125043 -0.008629 -0.013396 0.000000 -0.017579 0.000000
# 2 -0.008629 0.010530 -0.005075 0.000000 0.005544 0.000000
# 3 -0.013396 -0.005075 0.012619 0.000000 -0.012714 0.000000
# 4 0.000000 0.000000 0.000000 0.026965 0.000000 -0.004409
# 5 -0.017579 0.005544 -0.012714 0.000000 0.080889 0.000000
# 6 0.000000 0.000000 0.000000 -0.004409 0.000000 0.098117
#
#
# Mechanical properties :
#
#
# Convention : Reuss Voigt Hill
#
# Bulk Modulus (GPa) = 10.63935 70.43966 40.53951
# Shear Modulus (GPa) = 11.37156 26.17571 18.77364
#
# Velocity S-wave (km/s) = 2.53118 3.84027 3.25227
# Velocity P-wave (km/s) = 3.81272 7.70390 6.07812
#
# Compressibility (1/GPa) = 0.09399066
#
# Stress axis : x y z
#
# Youngs Moduli (GPa) = 7.99724 94.97081 79.24852
#
# Poissons Ratio (x) = 0.81950 1.06162
# Poissons Ratio (y) = 0.06901 0.40221
# Poissons Ratio (z) = 0.10713 0.48200
#
# Static dielectric constant tensor:
#      x y z
#    x 2.530570 0.000000 0.345240 
#    y 0.000000 3.481440 0.000000 
#    z 0.345240 0.000000 4.084510 
# 
# 
# High freq. dielectric constant tensor:
#      x y z
#    x 1.587790 0.000000 0.023050 
#    y 0.000000 1.698670 0.000000 
#    z 0.023050 0.000000 1.714530 
# 
# From -- ./inp_files/287051.got.cif
#   From: 2010.06.25/outbox.cif.g09.slc.cpg/sg12_144_cif.got.tgz:287051.got - 2010.06.28 00:19:55.
