data_PCOD8114917
_publ_section_title
;
Structure prediction by ZEFSAII (Michael W. Deem and Ramdas Pophale) SiO2 
 PCOD8114917
Probable space group: C 2/M
;
_chemical_formula_sum "Si O2"
_cell_formula_units_Z 40
_cell_length_a 14.017273
_cell_length_b 8.405374
_cell_length_c 16.165471
_cell_angle_alpha 90.000000
_cell_angle_beta 66.947953
_cell_angle_gamma 90.000000
_cell_volume 1752.537618
_symmetry_space_group_name_H-M "C 2/M"
_symmetry_group_IT_number 12
_symmetry_cell_setting 'monoclinic'
loop_
_space_group_symop_operation_xyz
x,y,z
-x,y,-z
-x,-y,-z
x,-y,z
1/2+x,1/2+y,z
1/2-x,1/2+y,-z
1/2-x,1/2-y,-z
1/2+x,1/2-y,z
loop_
_atom_site_type_symbol
_atom_site_label
_atom_site_fract_x
_atom_site_fract_y
_atom_site_fract_z
Si Si1 0.580544 0.180783 0.079899
Si Si2 0.827160 0.685289 0.712110
Si Si3 0.980469 0.182031 0.260295
Si Si4 0.775610 0.686809 0.104295
Si Si5 0.771608 0.314330 0.402407
O O1 0.494555 0.286778 0.156281
O O2 0.691676 0.203544 0.086526
O O3 0.542651 0.000000 0.101691
O O4 0.607763 0.219722 0.973289
O O5 0.806148 0.500000 0.707071
O O6 0.937941 0.711468 0.716903
O O7 0.732002 0.762282 0.797372
O O8 0.826224 0.772285 0.623015
O O9 0.867078 0.222850 0.329092
O O10 0.005313 0.000000 0.270829
O O11 0.748301 0.500000 0.103030
O O12 0.793972 0.500000 0.398904
O O13 0.750000 0.250000 0.500000
#
# Coordination Sequence:
#
# PCOD8114917 Si02
#       5
#     8   8   8   8   8
#     4   9  16  28  50  82 119 159 200 242 290 345
#     4  11  22  39  63  92 124 161 202 245 297 355
#     4  11  22  39  63  92 124 161 202 245 297 355
#     4   9  16  28  50  82 119 159 200 242 290 345
#     4  12  26  46  67  90 119 152 196 251 307 361
#
# _framework density 22.824045999999999
#
# number of rings (size 3 to 8) (size 9 to 14) (size 15 to 20)
#    0.000    1.600    0.000    9.000    0.000    3.200 
#    0.000    5.000    0.000    6.000    0.000    0.000 
#    0.000    0.000    0.000    0.000    0.000    0.000 
#
# Total GULP energy -247913.814381 kJ/mol
# GULP energy per Si atom -12395.690719 kJ/mol
# Density = 2.277210 g / cm^3
# Si number density = 22.824046 Si / 1000 Ang^3
#
#
#
# Elastic Constant Matrix: (Units=GPa)
#
#
# Indices 1 2 3 4 5 6 
#
# 1 14.2972 4.1502 9.5208 0.0000 -2.2478 0.0000
# 2 4.1502 110.2842 40.1584 0.0000 3.4743 0.0000
# 3 9.5208 40.1584 119.2806 0.0000 8.4127 0.0000
# 4 0.0000 0.0000 0.0000 42.4729 0.0000 -0.2198
# 5 -2.2478 3.4743 8.4127 0.0000 40.1900 0.0000
# 6 0.0000 0.0000 0.0000 -0.2198 0.0000 27.7301
#
#
#
# Elastic Compliance Matrix: (Units=1/GPa)
#
#
# Indices 1 2 3 4 5 6 
#
# 1 0.075121 -0.000770 -0.006128 0.000000 0.005551 0.000000
# 2 -0.000770 0.010343 -0.003405 0.000000 -0.000224 0.000000
# 3 -0.006128 -0.003405 0.010173 0.000000 -0.002178 0.000000
# 4 0.000000 0.000000 0.000000 0.023545 0.000000 0.000187
# 5 0.005551 -0.000224 -0.002178 0.000000 0.025668 0.000000
# 6 0.000000 0.000000 0.000000 0.000187 0.000000 0.036063
#
#
# Mechanical properties :
#
#
# Convention : Reuss Voigt Hill
#
# Bulk Modulus (GPa) = 13.32804 39.05790 26.19297
# Shear Modulus (GPa) = 22.07212 34.74745 28.40978
#
# Velocity S-wave (km/s) = 3.11313 3.90603 3.53190
# Velocity P-wave (km/s) = 4.33292 6.12312 5.30409
#
# Compressibility (1/GPa) = 0.07502980
#
# Stress axis : x y z
#
# Youngs Moduli (GPa) = 13.31191 96.67975 98.30226
#
# Poissons Ratio (x) = 0.07447 0.60242
# Poissons Ratio (y) = 0.01025 0.33472
# Poissons Ratio (z) = 0.08158 0.32920
#
# Static dielectric constant tensor:
#      x y z
#    x 3.698190 0.000000 0.081270 
#    y 0.000000 4.015290 0.000000 
#    z 0.081270 0.000000 4.650270 
# 
# 
# High freq. dielectric constant tensor:
#      x y z
#    x 1.880730 0.000000 0.003420 
#    y 0.000000 1.905770 0.000000 
#    z 0.003420 0.000000 1.912900 
# 
# From -- ./inp_files/266941.got.cif
#   From: 2010.06.25/outbox.cif.g09.slc.cpg/sg12_134_cif.got.tgz:266941.got - 2010.06.28 00:19:55.
