data_PCOD8114686
_publ_section_title
;
Structure prediction by ZEFSAII (Michael W. Deem and Ramdas Pophale) SiO2 
 PCOD8114686
Probable space group: C 2/M
;
_chemical_formula_sum "Si O2"
_cell_formula_units_Z 40
_cell_length_a 8.787552
_cell_length_b 27.654866
_cell_length_c 11.788943
_cell_angle_alpha 90.000000
_cell_angle_beta 135.370463
_cell_angle_gamma 90.000000
_cell_volume 2012.672165
_symmetry_space_group_name_H-M "C 2/M"
_symmetry_group_IT_number 12
_symmetry_cell_setting 'monoclinic'
loop_
_space_group_symop_operation_xyz
x,y,z
-x,y,-z
-x,-y,-z
x,-y,z
1/2+x,1/2+y,z
1/2-x,1/2+y,-z
1/2-x,1/2-y,-z
1/2+x,1/2-y,z
loop_
_atom_site_type_symbol
_atom_site_label
_atom_site_fract_x
_atom_site_fract_y
_atom_site_fract_z
Si Si1 0.962894 0.142226 0.848876
Si Si2 0.265734 0.552170 0.819973
Si Si3 0.944469 0.229250 0.676784
Si Si4 0.078426 0.401399 0.925902
Si Si5 0.886589 0.697046 0.822694
O O1 0.783330 0.098223 0.744928
O O2 0.873321 0.184986 0.722143
O O3 0.000000 0.158350 0.000000
O O4 0.193319 0.124464 0.923514
O O5 0.208804 0.500000 0.731641
O O6 0.092361 0.561420 0.828832
O O7 0.500000 0.548469 0.000000
O O8 0.750000 0.250000 0.500000
O O9 0.016334 0.273337 0.795627
O O10 0.135751 0.213161 0.694246
O O11 0.905464 0.359636 0.802671
O O12 0.000000 0.428240 0.000000
O O13 0.000000 0.709543 0.000000
#
# Coordination Sequence:
#
# PCOD8114686 Si02
#       5
#     8   8   8   8   8
#     4   9  18  33  55  75 109 155 193 223 280 339
#     4   8  16  29  51  81 112 142 185 238 281 324
#     4  12  24  36  51  81 113 148 192 240 281 324
#     4   9  16  30  51  77 106 145 191 225 277 327
#     4  11  22  36  55  75 107 155 193 221 276 346
#
# _framework density 19.874077
#
# number of rings (size 3 to 8) (size 9 to 14) (size 15 to 20)
#    0.000    2.600    4.000    1.800    5.600    0.400 
#    0.000    0.000    0.000    0.000    0.000    2.800 
#    0.000    3.200    0.000    0.000    0.000    0.200 
#
# Total GULP energy -247761.816266 kJ/mol
# GULP energy per Si atom -12388.090813 kJ/mol
# Density = 1.982884 g / cm^3
# Si number density = 19.874077 Si / 1000 Ang^3
#
#
#
# Elastic Constant Matrix: (Units=GPa)
#
#
# Indices 1 2 3 4 5 6 
#
# 1 110.6095 31.4219 12.7963 0.0000 7.7924 0.0000
# 2 31.4219 111.7606 24.4047 0.0000 -6.5634 0.0000
# 3 12.7963 24.4047 55.6745 0.0000 2.2184 0.0000
# 4 0.0000 0.0000 0.0000 4.9520 0.0000 -6.4357
# 5 7.7924 -6.5634 2.2184 0.0000 21.1776 0.0000
# 6 0.0000 0.0000 0.0000 -6.4357 0.0000 11.7682
#
#
#
# Elastic Compliance Matrix: (Units=1/GPa)
#
#
# Indices 1 2 3 4 5 6 
#
# 1 0.010315 -0.002980 -0.000880 0.000000 -0.004627 0.000000
# 2 -0.002980 0.011026 -0.004347 0.000000 0.004969 0.000000
# 3 -0.000880 -0.004347 0.020194 0.000000 -0.003139 0.000000
# 4 0.000000 0.000000 0.000000 0.698117 0.000000 0.381783
# 5 -0.004627 0.004969 -0.003139 0.000000 0.050791 0.000000
# 6 0.000000 0.000000 0.000000 0.381783 0.000000 0.293762
#
#
# Mechanical properties :
#
#
# Convention : Reuss Voigt Hill
#
# Bulk Modulus (GPa) = 39.80471 46.14339 42.97405
# Shear Modulus (GPa) = 4.50859 21.54099 13.02479
#
# Velocity S-wave (km/s) = 1.50781 3.29580 2.56279
# Velocity P-wave (km/s) = 4.80659 6.14421 5.51609
#
# Compressibility (1/GPa) = 0.02512266
#
# Stress axis : x y z
#
# Youngs Moduli (GPa) = 96.94565 90.69170 49.51910
#
# Poissons Ratio (x) = 0.27022 0.04360
# Poissons Ratio (y) = 0.28886 0.21524
# Poissons Ratio (z) = 0.08535 0.39419
#
# Static dielectric constant tensor:
#      x y z
#    x 4.109810 0.000000 -0.063800 
#    y 0.000000 4.242720 0.000000 
#    z -0.063800 0.000000 2.981590 
# 
# 
# High freq. dielectric constant tensor:
#      x y z
#    x 1.795880 0.000000 -0.000440 
#    y 0.000000 1.773790 0.000000 
#    z -0.000440 0.000000 1.705050 
# 
# From -- ./inp_files/125001.got.cif
#   From: 2010.06.25/outbox.cif.g09.slc.cpg/sg12_63_cif.got.tgz:125001.got - 2010.06.28 00:19:55.
