data_PCOD8114950
_publ_section_title
;
Structure prediction by ZEFSAII (Michael W. Deem and Ramdas Pophale) SiO2 
 PCOD8114950
Probable space group: C 2/M
;
_chemical_formula_sum "Si O2"
_cell_formula_units_Z 40
_cell_length_a 8.965999
_cell_length_b 15.358767
_cell_length_c 15.321514
_cell_angle_alpha 90.000000
_cell_angle_beta 64.288768
_cell_angle_gamma 90.000000
_cell_volume 1900.980453
_symmetry_space_group_name_H-M "C 2/M"
_symmetry_group_IT_number 12
_symmetry_cell_setting 'monoclinic'
loop_
_space_group_symop_operation_xyz
x,y,z
-x,y,-z
-x,-y,-z
x,-y,z
1/2+x,1/2+y,z
1/2-x,1/2+y,-z
1/2-x,1/2-y,-z
1/2+x,1/2-y,z
loop_
_atom_site_type_symbol
_atom_site_label
_atom_site_fract_x
_atom_site_fract_y
_atom_site_fract_z
Si Si1 0.497562 0.342931 0.598453
Si Si2 0.292547 0.901934 0.213738
Si Si3 0.628325 0.096280 0.220311
Si Si4 0.822553 0.755734 0.074911
Si Si5 0.644144 0.845206 0.403233
O O1 0.500000 0.383849 0.500000
O O2 0.383182 0.398732 0.692025
O O3 0.414816 0.248565 0.615257
O O4 0.683317 0.338761 0.588702
O O5 0.438873 0.879329 0.244930
O O6 0.304722 0.835556 0.130151
O O7 0.312284 0.000000 0.171581
O O8 0.749367 0.167083 0.150267
O O9 0.658792 0.093315 0.316023
O O10 0.671341 0.000000 0.173118
O O11 0.750000 0.750000 0.000000
O O12 0.000000 0.783932 0.000000
O O13 0.500000 0.885722 0.500000
#
# Coordination Sequence:
#
# PCOD8114950 Si02
#       5
#     8   8   8   8   8
#     4  11  22  39  67 100 136 180 223 268 328 396
#     4  11  25  45  70 100 136 177 224 273 334 403
#     4  11  25  45  69 101 137 175 222 277 335 398
#     4  12  26  46  72  97 129 174 225 281 338 394
#     4  11  22  39  67 100 137 179 222 269 329 396
#
# _framework density 21.041775000000001
#
# number of rings (size 3 to 8) (size 9 to 14) (size 15 to 20)
#    0.000    0.800    4.000    4.800    2.800    3.200 
#    0.000    0.000    0.000    0.000    0.000    0.000 
#    0.000    0.000    0.000    0.000    0.000    0.000 
#
# Total GULP energy -247907.061447 kJ/mol
# GULP energy per Si atom -12395.353072 kJ/mol
# Density = 2.099388 g / cm^3
# Si number density = 21.041775 Si / 1000 Ang^3
#
#
#
# Elastic Constant Matrix: (Units=GPa)
#
#
# Indices 1 2 3 4 5 6 
#
# 1 195.4370 50.6088 69.9996 0.0000 0.8941 0.0000
# 2 50.6088 119.7560 62.1870 0.0000 -3.0153 0.0000
# 3 69.9996 62.1870 142.8079 0.0000 -0.6926 0.0000
# 4 0.0000 0.0000 0.0000 -0.0971 0.0000 2.7084
# 5 0.8941 -3.0153 -0.6926 0.0000 49.9672 0.0000
# 6 0.0000 0.0000 0.0000 2.7084 0.0000 21.2072
#
#
#
# Elastic Compliance Matrix: (Units=1/GPa)
#
#
# Indices 1 2 3 4 5 6 
#
# 1 0.006382 -0.001393 -0.002523 0.000000 -0.000233 0.000000
# 2 -0.001393 0.011111 -0.004153 0.000000 0.000638 0.000000
# 3 -0.002523 -0.004153 0.010047 0.000000 -0.000066 0.000000
# 4 0.000000 0.000000 0.000000 -2.257216 0.000000 0.288271
# 5 -0.000233 0.000638 -0.000066 0.000000 0.020055 0.000000
# 6 0.000000 0.000000 0.000000 0.288271 0.000000 0.010338
#
#
# Mechanical properties :
#
#
# Convention : Reuss Voigt Hill
#
# Bulk Modulus (GPa) = 87.69137 91.51016 89.60076
# Shear Modulus (GPa) = -2.29427 32.56249 15.13411
#
# Velocity S-wave (km/s) = -1.04533 3.93812 2.68478
# Velocity P-wave (km/s) = 6.34889 8.01639 7.23087
#
# Compressibility (1/GPa) = 0.01140363
#
# Stress axis : x y z
#
# Youngs Moduli (GPa) = 156.68793 89.99734 99.53139
#
# Poissons Ratio (x) = 0.12535 0.25111
# Poissons Ratio (y) = 0.21824 0.41333
# Poissons Ratio (z) = 0.39531 0.37374
#
# Static dielectric constant tensor:
#      x y z
#    x 3.987280 0.000000 0.008940 
#    y 0.000000 3.704010 0.000000 
#    z 0.008940 0.000000 4.014690 
# 
# 
# High freq. dielectric constant tensor:
#      x y z
#    x 1.842600 0.000000 0.000830 
#    y 0.000000 1.819850 0.000000 
#    z 0.000830 0.000000 1.831520 
# 
# From -- ./inp_files/194415.got.cif
#   From: 2010.06.25/outbox.cif.g09.slc.cpg/sg12_98_cif.got.tgz:194415.got - 2010.06.28 00:19:55.
