data_PCOD8114925
_publ_section_title
;
Structure prediction by ZEFSAII (Michael W. Deem and Ramdas Pophale) SiO2 
 PCOD8114925
Probable space group: C 2/M
;
_chemical_formula_sum "Si O2"
_cell_formula_units_Z 40
_cell_length_a 13.619976
_cell_length_b 13.353506
_cell_length_c 11.983664
_cell_angle_alpha 90.000000
_cell_angle_beta 115.083273
_cell_angle_gamma 90.000000
_cell_volume 1973.977018
_symmetry_space_group_name_H-M "C 2/M"
_symmetry_group_IT_number 12
_symmetry_cell_setting 'monoclinic'
loop_
_space_group_symop_operation_xyz
x,y,z
-x,y,-z
-x,-y,-z
x,-y,z
1/2+x,1/2+y,z
1/2-x,1/2+y,-z
1/2-x,1/2-y,-z
1/2+x,1/2-y,z
loop_
_atom_site_type_symbol
_atom_site_label
_atom_site_fract_x
_atom_site_fract_y
_atom_site_fract_z
Si Si1 0.878399 0.232600 0.443557
Si Si2 0.307693 0.385346 0.626547
Si Si3 0.906719 0.392640 0.866435
Si Si4 0.833061 0.115014 0.202459
Si Si5 0.985538 0.810536 0.860391
O O1 0.801219 0.328287 0.389173
O O2 0.858943 0.172107 0.547254
O O3 0.862300 0.152616 0.338714
O O4 0.000000 0.274923 0.500000
O O5 0.279048 0.500000 0.582978
O O6 0.396294 0.387073 0.769383
O O7 0.895296 0.500000 0.795318
O O8 0.795184 0.369819 0.878595
O O9 0.938541 0.299839 0.802754
O O10 0.000000 0.404517 0.000000
O O11 0.897258 0.176193 0.138864
O O12 0.868559 0.000000 0.209892
O O13 0.000000 0.823111 0.000000
#
# Coordination Sequence:
#
# PCOD8114925 Si02
#       5
#     8   8   8   8   8
#     4  11  23  42  65  89 122 161 208 257 302 361
#     4  11  24  42  64  93 125 160 204 256 311 361
#     4   9  20  40  62  86 121 164 207 248 299 365
#     4  11  22  39  64  92 120 163 211 250 303 367
#     4  11  23  39  65  93 129 159 203 255 307 361
#
# _framework density 20.263660999999999
#
# number of rings (size 3 to 8) (size 9 to 14) (size 15 to 20)
#    0.000    1.400    4.000    1.200    0.000    6.000 
#    0.000    1.000    0.000    0.000    0.000    0.000 
#    0.000    0.000    0.000    0.000    0.000    0.000 
#
# Total GULP energy -247932.385516 kJ/mol
# GULP energy per Si atom -12396.619276 kJ/mol
# Density = 2.021754 g / cm^3
# Si number density = 20.263661 Si / 1000 Ang^3
#
#
#
# Elastic Constant Matrix: (Units=GPa)
#
#
# Indices 1 2 3 4 5 6 
#
# 1 172.0389 67.9125 50.7196 0.0000 15.1319 0.0000
# 2 67.9125 130.2465 18.3666 0.0000 -2.0305 0.0000
# 3 50.7196 18.3666 95.5301 0.0000 1.8361 0.0000
# 4 0.0000 0.0000 0.0000 24.4633 0.0000 9.4999
# 5 15.1319 -2.0305 1.8361 0.0000 35.5805 0.0000
# 6 0.0000 0.0000 0.0000 9.4999 0.0000 33.0830
#
#
#
# Elastic Compliance Matrix: (Units=1/GPa)
#
#
# Indices 1 2 3 4 5 6 
#
# 1 0.008939 -0.004175 -0.003870 0.000000 -0.003840 0.000000
# 2 -0.004175 0.009852 0.000278 0.000000 0.002324 0.000000
# 3 -0.003870 0.000278 0.012449 0.000000 0.001019 0.000000
# 4 0.000000 0.000000 0.000000 0.046008 0.000000 -0.013211
# 5 -0.003840 0.002324 0.001019 0.000000 0.029819 0.000000
# 6 0.000000 0.000000 0.000000 -0.013211 0.000000 0.034021
#
#
# Mechanical properties :
#
#
# Convention : Reuss Voigt Hill
#
# Bulk Modulus (GPa) = 63.66689 74.64588 69.15638
# Shear Modulus (GPa) = 30.89138 36.01316 33.45227
#
# Velocity S-wave (km/s) = 3.90868 4.22029 4.06747
# Velocity P-wave (km/s) = 7.20124 7.78878 7.50077
#
# Compressibility (1/GPa) = 0.01570675
#
# Stress axis : x y z
#
# Youngs Moduli (GPa) = 111.86323 101.50357 80.32544
#
# Poissons Ratio (x) = 0.42382 0.31083
# Poissons Ratio (y) = 0.46707 -0.02233
# Poissons Ratio (z) = 0.43287 -0.02822
#
# Static dielectric constant tensor:
#      x y z
#    x 4.064330 0.000000 0.139830 
#    y 0.000000 4.354290 0.000000 
#    z 0.139830 0.000000 3.518180 
# 
# 
# High freq. dielectric constant tensor:
#      x y z
#    x 1.801400 0.000000 0.021320 
#    y 0.000000 1.799360 0.000000 
#    z 0.021320 0.000000 1.780100 
# 
# From -- ./inp_files/129826.got.cif
#   From: 2010.06.25/outbox.cif.g09.slc.cpg/sg12_65_cif.got.tgz:129826.got - 2010.06.28 00:19:55.
