data_PCOD8114142
_publ_section_title
;
Structure prediction by ZEFSAII (Michael W. Deem and Ramdas Pophale) SiO2 
 PCOD8114142
Probable space group: C 2/M
;
_chemical_formula_sum "Si O2"
_cell_formula_units_Z 56
_cell_length_a 18.390336
_cell_length_b 8.718291
_cell_length_c 22.767695
_cell_angle_alpha 90.000000
_cell_angle_beta 53.947297
_cell_angle_gamma 90.000000
_cell_volume 2951.258243
_symmetry_space_group_name_H-M "C 2/M"
_symmetry_group_IT_number 12
_symmetry_cell_setting 'monoclinic'
loop_
_space_group_symop_operation_xyz
x,y,z
-x,y,-z
-x,-y,-z
x,-y,z
1/2+x,1/2+y,z
1/2-x,1/2+y,-z
1/2-x,1/2-y,-z
1/2+x,1/2-y,z
loop_
_atom_site_type_symbol
_atom_site_label
_atom_site_fract_x
_atom_site_fract_y
_atom_site_fract_z
Si Si1 0.281156 0.329233 0.848075
Si Si2 0.597103 0.678712 0.427481
Si Si3 0.324277 0.683480 0.007195
Si Si4 0.442937 0.318251 0.301050
Si Si5 0.247281 0.681721 0.436968
Si Si6 0.050154 0.169477 0.145866
Si Si7 0.098136 0.680014 0.301436
O O1 0.253309 0.500000 0.841858
O O2 0.192842 0.248488 0.919171
O O3 0.360795 0.334112 0.856907
O O4 0.314037 0.236997 0.775482
O O5 0.500000 0.713482 0.500000
O O6 0.610015 0.500000 0.407275
O O7 0.668283 0.733506 0.441206
O O8 0.611901 0.775946 0.362114
O O9 0.319115 0.500000 0.010435
O O10 0.250000 0.750000 0.000000
O O11 0.420420 0.739327 0.931921
O O12 0.459913 0.500000 0.293806
O O13 0.340067 0.275948 0.360344
O O14 0.473291 0.248066 0.222358
O O15 0.504705 0.251057 0.323191
O O16 0.231074 0.500000 0.446693
O O17 0.250000 0.750000 0.500000
O O18 0.014165 0.000000 0.149865
O O19 0.091456 0.500000 0.297678
#
# Coordination Sequence:
#
# PCOD8114142 Si02
#       7
#     8   8   8   8   8   8   8
#     4   9  16  27  42  63  97 137 172 210 258 309
#     4  11  24  41  59  78 104 139 175 213 261 314
#     4   9  14  21  36  61  93 130 171 213 257 305
#     4   9  18  34  53  75 106 142 175 210 261 316
#     4  11  23  38  58  82 108 138 173 214 258 310
#     4   7  12  23  40  62  92 130 168 206 249 300
#     4  11  21  33  53  80 107 136 175 220 262 310
#
# _framework density 18.974957
#
# number of rings (size 3 to 8) (size 9 to 14) (size 15 to 20)
#    0.000    2.429    0.000    5.571    0.000    5.714 
#    0.000    0.714    0.000    0.000    0.000    1.000 
#    0.000    8.000    0.000    0.000    0.000    0.000 
#
# Total GULP energy -346894.370776 kJ/mol
# GULP energy per Si atom -12389.084671 kJ/mol
# Density = 1.893177 g / cm^3
# Si number density = 18.974957 Si / 1000 Ang^3
#
#
#
# Elastic Constant Matrix: (Units=GPa)
#
#
# Indices 1 2 3 4 5 6 
#
# 1 67.0507 23.0393 50.1454 0.0000 -5.4445 0.0002
# 2 23.0393 77.3459 53.0307 -0.0001 -6.2246 0.0003
# 3 50.1454 53.0307 166.1088 0.0000 -18.3793 0.0000
# 4 0.0000 -0.0001 0.0000 34.3261 0.0000 2.6539
# 5 -5.4445 -6.2246 -18.3793 0.0000 19.6582 0.0000
# 6 0.0002 0.0003 0.0000 2.6539 0.0000 10.2196
#
#
#
# Elastic Compliance Matrix: (Units=1/GPa)
#
#
# Indices 1 2 3 4 5 6 
#
# 1 0.019572 -0.002278 -0.005199 0.000000 -0.000161 0.000000
# 2 -0.002278 0.016819 -0.004643 0.000000 0.000354 -0.000001
# 3 -0.005199 -0.004643 0.009759 0.000000 0.006215 0.000000
# 4 0.000000 0.000000 0.000000 0.029729 0.000000 -0.007720
# 5 -0.000161 0.000354 0.006215 0.000000 0.056747 0.000000
# 6 0.000000 -0.000001 0.000000 -0.007720 0.000000 0.099856
#
#
# Mechanical properties :
#
#
# Convention : Reuss Voigt Hill
#
# Bulk Modulus (GPa) = 45.63978 62.54844 54.09411
# Shear Modulus (GPa) = 18.93754 25.12679 22.03217
#
# Velocity S-wave (km/s) = 3.16259 3.64291 3.41122
# Velocity P-wave (km/s) = 6.11889 7.12248 6.63967
#
# Compressibility (1/GPa) = 0.02191071
#
# Stress axis : x y z
#
# Youngs Moduli (GPa) = 51.09346 59.45582 102.46550
#
# Poissons Ratio (x) = 0.13547 0.53271
# Poissons Ratio (y) = 0.11641 0.47570
# Poissons Ratio (z) = 0.26563 0.27603
#
# Static dielectric constant tensor:
#      x y z
#    x 2.968570 0.000000 -0.224890 
#    y 0.000000 3.545190 0.000000 
#    z -0.224890 0.000000 4.296320 
# 
# 
# High freq. dielectric constant tensor:
#      x y z
#    x 1.676720 0.000000 -0.010370 
#    y 0.000000 1.732360 0.000000 
#    z -0.010370 0.000000 1.773370 
# 
# From -- ./inp_files/313674.got.cif
#   From: 2010.06.25/outbox.cif.g09.slc.cpg/sg12_157_cif.got.tgz:313674.got - 2010.06.28 00:19:55.
