data_PCOD8114085
_publ_section_title
;
Structure prediction by ZEFSAII (Michael W. Deem and Ramdas Pophale) SiO2 
 PCOD8114085
Probable space group: C 2/M
;
_chemical_formula_sum "Si O2"
_cell_formula_units_Z 56
_cell_length_a 12.634918
_cell_length_b 18.845117
_cell_length_c 16.558469
_cell_angle_alpha 90.000000
_cell_angle_beta 52.480005
_cell_angle_gamma 90.000000
_cell_volume 3127.099946
_symmetry_space_group_name_H-M "C 2/M"
_symmetry_group_IT_number 12
_symmetry_cell_setting 'monoclinic'
loop_
_space_group_symop_operation_xyz
x,y,z
-x,y,-z
-x,-y,-z
x,-y,z
1/2+x,1/2+y,z
1/2-x,1/2+y,-z
1/2-x,1/2-y,-z
1/2+x,1/2-y,z
loop_
_atom_site_type_symbol
_atom_site_label
_atom_site_fract_x
_atom_site_fract_y
_atom_site_fract_z
Si Si1 0.509788 0.579929 0.363556
Si Si2 0.857765 0.683221 0.085125
Si Si3 0.059731 0.920648 0.057039
Si Si4 0.576987 0.829527 0.765589
Si Si5 0.284492 0.420521 0.587075
Si Si6 0.063434 0.186364 0.195388
Si Si7 0.135458 0.578430 0.057801
O O1 0.512530 0.500000 0.325209
O O2 0.615244 0.584951 0.385574
O O3 0.362732 0.596654 0.467736
O O4 0.548438 0.637909 0.280392
O O5 0.841791 0.671861 0.187886
O O6 0.717384 0.716621 0.118296
O O7 0.870866 0.609253 0.030224
O O8 0.000000 0.725357 0.000000
O O9 0.018349 0.861729 0.141185
O O10 0.006970 0.000000 0.105003
O O11 0.217569 0.923217 0.975143
O O12 0.000000 0.895722 0.000000
O O13 0.665718 0.864302 0.654031
O O14 0.537533 0.751632 0.753704
O O15 0.445108 0.875295 0.840425
O O16 0.224387 0.500000 0.610875
O O17 0.073479 0.500000 0.082202
#
# Coordination Sequence:
#
# PCOD8114085 Si02
#       7
#     8   8   8   8   8   8   8
#     4   9  18  35  58  79 100 131 172 219 262 310
#     4   9  20  34  47  70 103 140 175 210 252 302
#     4   9  19  35  52  72  99 138 184 221 248 292
#     4  11  21  31  49  78 109 137 167 210 268 312
#     4   9  18  34  57  80 102 130 169 218 267 311
#     4  11  21  33  52  77 108 139 173 213 260 323
#     4   9  19  33  50  73 101 139 181 218 258 306
#
# _framework density 17.907965999999998
#
# number of rings (size 3 to 8) (size 9 to 14) (size 15 to 20)
#    0.000    2.429    1.429    1.714    0.000   12.286 
#    0.000    0.000    0.000    0.000    0.000    0.000 
#    0.000    8.000    0.000    0.000    0.000    0.000 
#
# Total GULP energy -346966.413553 kJ/mol
# GULP energy per Si atom -12391.657627 kJ/mol
# Density = 1.786721 g / cm^3
# Si number density = 17.907966 Si / 1000 Ang^3
#
#
#
# Elastic Constant Matrix: (Units=GPa)
#
#
# Indices 1 2 3 4 5 6 
#
# 1 72.3337 29.4109 22.9711 0.0000 -1.8012 0.0001
# 2 29.4109 101.6541 43.4171 0.0000 -12.0956 0.0000
# 3 22.9711 43.4171 73.8844 -0.0001 -8.8483 0.0001
# 4 0.0000 0.0000 -0.0001 23.9458 0.0001 -8.1992
# 5 -1.8012 -12.0956 -8.8483 0.0001 17.9018 -0.0001
# 6 0.0001 0.0000 0.0001 -8.1992 -0.0001 14.6245
#
#
#
# Elastic Compliance Matrix: (Units=1/GPa)
#
#
# Indices 1 2 3 4 5 6 
#
# 1 0.016256 -0.003614 -0.003217 0.000000 -0.002397 0.000000
# 2 -0.003614 0.014443 -0.006631 0.000000 0.006118 0.000000
# 3 -0.003217 -0.006631 0.018980 0.000000 0.004577 0.000000
# 4 0.000000 0.000000 0.000000 0.051682 0.000000 0.028976
# 5 -0.002397 0.006118 0.004577 0.000000 0.062015 0.000000
# 6 0.000000 0.000000 0.000000 0.028976 0.000000 0.084624
#
#
# Mechanical properties :
#
#
# Convention : Reuss Voigt Hill
#
# Bulk Modulus (GPa) = 43.94842 48.83004 46.38923
# Shear Modulus (GPa) = 17.69850 21.43262 19.56556
#
# Velocity S-wave (km/s) = 3.14714 3.46326 3.30898
# Velocity P-wave (km/s) = 6.14821 6.58169 6.36864
#
# Compressibility (1/GPa) = 0.02275394
#
# Stress axis : x y z
#
# Youngs Moduli (GPa) = 61.51388 69.23756 52.68808
#
# Poissons Ratio (x) = 0.25025 0.16951
# Poissons Ratio (y) = 0.22234 0.34937
# Poissons Ratio (z) = 0.19791 0.45911
#
# Static dielectric constant tensor:
#      x y z
#    x 3.281580 0.000000 -0.201070 
#    y 0.000000 3.315940 0.000000 
#    z -0.201070 0.000000 3.468460 
# 
# 
# High freq. dielectric constant tensor:
#      x y z
#    x 1.679880 0.000000 -0.007750 
#    y 0.000000 1.687960 0.000000 
#    z -0.007750 0.000000 1.682050 
# 
# From -- ./inp_files/264210.got.cif
#   From: 2010.06.25/outbox.cif.g09.slc.cpg/sg12_133_cif.got.tgz:264210.got - 2010.06.28 00:19:55.
