data_PCOD8114353
_publ_section_title
;
Structure prediction by ZEFSAII (Michael W. Deem and Ramdas Pophale) SiO2 
 PCOD8114353
Probable space group: C 2/M
;
_chemical_formula_sum "Si O2"
_cell_formula_units_Z 32
_cell_length_a 27.635056
_cell_length_b 7.878582
_cell_length_c 15.639519
_cell_angle_alpha 90.000000
_cell_angle_beta 27.984962
_cell_angle_gamma 90.000000
_cell_volume 1597.815563
_symmetry_space_group_name_H-M "C 2/M"
_symmetry_group_IT_number 12
_symmetry_cell_setting 'monoclinic'
loop_
_space_group_symop_operation_xyz
x,y,z
-x,y,-z
-x,-y,-z
x,-y,z
1/2+x,1/2+y,z
1/2-x,1/2+y,-z
1/2-x,1/2-y,-z
1/2+x,1/2-y,z
loop_
_atom_site_type_symbol
_atom_site_label
_atom_site_fract_x
_atom_site_fract_y
_atom_site_fract_z
Si Si1 0.495058 0.811832 0.245040
Si Si2 0.938367 0.805805 0.514234
Si Si3 0.564697 0.500000 0.768768
Si Si4 0.785047 0.809714 0.145498
Si Si5 0.344411 0.500000 0.200248
O O1 0.470865 0.805922 0.383043
O O2 0.428470 0.669384 0.299336
O O3 0.462964 0.000000 0.262230
O O4 0.617196 0.791286 0.042196
O O5 0.816582 0.790919 0.722556
O O6 0.000000 0.736462 0.500000
O O7 0.967930 0.000000 0.449831
O O8 0.658230 0.500000 0.692579
O O9 0.460158 0.500000 0.984070
O O10 0.785674 0.000000 0.103768
O O11 0.790777 0.832115 0.241428
#
# Coordination Sequence:
#
# PCOD8114353 Si02
#       5
#     8   8   4   8   4
#     4  11  21  37  62  87 119 159 193 238 294 344
#     4  11  23  39  59  85 119 156 196 246 294 346
#     4   9  16  38  59  86 119 151 194 247 278 348
#     4   9  19  38  60  84 119 151 194 243 285 344
#     4   7  16  34  63  80 117 155 186 245 294 326
#
# _framework density 20.027342000000001
#
# number of rings (size 3 to 8) (size 9 to 14) (size 15 to 20)
#    0.750    1.500    2.500    1.500    0.000    3.000 
#    0.000   12.500    0.000    0.000    0.000    0.000 
#    0.000    0.000    0.000    0.000    0.000    0.000 
#
# Total GULP energy -198269.800077 kJ/mol
# GULP energy per Si atom -12391.862505 kJ/mol
# Density = 1.998176 g / cm^3
# Si number density = 20.027342 Si / 1000 Ang^3
#
#
#
# Elastic Constant Matrix: (Units=GPa)
#
#
# Indices 1 2 3 4 5 6 
#
# 1 86.7916 25.9877 12.5817 0.0003 1.4215 -0.0001
# 2 25.9877 119.9454 12.9836 0.0005 8.7626 -0.0003
# 3 12.5817 12.9836 36.4025 0.0005 3.8445 -0.0002
# 4 0.0003 0.0005 0.0005 24.9250 -0.0001 -0.0939
# 5 1.4215 8.7626 3.8445 -0.0001 25.3681 0.0000
# 6 -0.0001 -0.0003 -0.0002 -0.0939 0.0000 12.9947
#
#
#
# Elastic Compliance Matrix: (Units=1/GPa)
#
#
# Indices 1 2 3 4 5 6 
#
# 1 0.012761 -0.002422 -0.003617 0.000000 0.000670 0.000000
# 2 -0.002422 0.009299 -0.002190 0.000000 -0.002745 0.000000
# 3 -0.003617 -0.002190 0.029879 0.000000 -0.003569 0.000000
# 4 0.000000 0.000000 0.000000 0.040121 0.000000 0.000290
# 5 0.000670 -0.002745 -0.003569 0.000000 0.040871 0.000000
# 6 0.000000 0.000000 0.000000 0.000290 0.000000 0.076957
#
#
# Mechanical properties :
#
#
# Convention : Reuss Voigt Hill
#
# Bulk Modulus (GPa) = 28.18451 38.47171 33.32811
# Shear Modulus (GPa) = 20.99313 25.42997 23.21155
#
# Velocity S-wave (km/s) = 3.24114 3.56724 3.40809
# Velocity P-wave (km/s) = 5.30191 6.01816 5.67135
#
# Compressibility (1/GPa) = 0.03548048
#
# Stress axis : x y z
#
# Youngs Moduli (GPa) = 78.36682 107.53320 33.46852
#
# Poissons Ratio (x) = 0.26046 0.12106
# Poissons Ratio (y) = 0.18981 0.07329
# Poissons Ratio (z) = 0.28347 0.23548
#
# Static dielectric constant tensor:
#      x y z
#    x 3.937270 0.000000 -0.124730 
#    y 0.000000 3.490650 0.000000 
#    z -0.124730 0.000000 3.359020 
# 
# 
# High freq. dielectric constant tensor:
#      x y z
#    x 1.770720 0.000000 -0.006070 
#    y 0.000000 1.775470 0.000000 
#    z -0.006070 0.000000 1.766620 
# 
# From -- ./inp_files/243443.got.cif
#   From: 2010.06.25/outbox.cif.g09.slc.cpg/sg12_122_cif.got.tgz:243443.got - 2010.06.28 00:19:55.
