data_PCOD8114770
_publ_section_title
;
Structure prediction by ZEFSAII (Michael W. Deem and Ramdas Pophale) SiO2 
 PCOD8114770
Probable space group: C 2/M
;
_chemical_formula_sum "Si O2"
_cell_formula_units_Z 40
_cell_length_a 23.160338
_cell_length_b 7.768247
_cell_length_c 16.418896
_cell_angle_alpha 90.000000
_cell_angle_beta 134.981764
_cell_angle_gamma 90.000000
_cell_volume 2089.464783
_symmetry_space_group_name_H-M "C 2/M"
_symmetry_group_IT_number 12
_symmetry_cell_setting 'monoclinic'
loop_
_space_group_symop_operation_xyz
x,y,z
-x,y,-z
-x,-y,-z
x,-y,z
1/2+x,1/2+y,z
1/2-x,1/2+y,-z
1/2-x,1/2-y,-z
1/2+x,1/2-y,z
loop_
_atom_site_type_symbol
_atom_site_label
_atom_site_fract_x
_atom_site_fract_y
_atom_site_fract_z
Si Si1 0.199057 0.690954 0.873152
Si Si2 0.431684 0.702205 0.493521
Si Si3 0.136325 0.000000 0.140349
Si Si4 0.005542 0.000000 0.872020
Si Si5 0.761905 0.804517 0.258556
Si Si6 0.529085 0.310130 0.741473
O O1 0.226344 0.500000 0.873619
O O2 0.216399 0.815625 0.815271
O O3 0.104731 0.683836 0.805713
O O4 0.250000 0.750000 0.000000
O O5 0.500000 0.780315 0.500000
O O6 0.426212 0.500000 0.473804
O O7 0.341196 0.773459 0.384344
O O8 0.454583 0.753260 0.609553
O O9 0.073209 0.000000 0.151155
O O10 0.187629 0.825031 0.200832
O O11 0.088864 0.000000 0.006993
O O12 0.003323 0.829320 0.811137
O O13 0.738904 0.000000 0.263662
O O14 0.556629 0.500000 0.736705
#
# Coordination Sequence:
#
# PCOD8114770 Si02
#       6
#     8   8   4   4   8   8
#     4  12  22  33  52  89 127 153 193 245 299 363
#     4   9  16  31  56  84 116 157 190 231 300 369
#     4  11  22  44  59  92 114 160 213 246 298 353
#     4   9  22  40  67  76 120 164 201 254 296 355
#     4  11  22  37  60  90 121 159 195 247 301 355
#     4   9  18  36  58  80 110 160 196 235 302 351
#
# _framework density 19.143657000000001
#
# number of rings (size 3 to 8) (size 9 to 14) (size 15 to 20)
#    0.600    1.200    3.000    3.000    0.000    0.000 
#    1.800    5.500    0.000    0.000    0.000    0.000 
#    0.000    0.000    0.000    0.000    0.000    0.000 
#
# Total GULP energy -247866.155264 kJ/mol
# GULP energy per Si atom -12393.307763 kJ/mol
# Density = 1.910009 g / cm^3
# Si number density = 19.143657 Si / 1000 Ang^3
#
#
#
# Elastic Constant Matrix: (Units=GPa)
#
#
# Indices 1 2 3 4 5 6 
#
# 1 85.1477 22.2813 50.7470 0.0000 7.7504 0.0000
# 2 22.2813 72.2536 31.9898 0.0000 10.9922 0.0000
# 3 50.7470 31.9898 173.9724 0.0000 6.9659 0.0000
# 4 0.0000 0.0000 0.0000 17.0077 0.0000 7.5507
# 5 7.7504 10.9922 6.9659 0.0000 27.9395 0.0000
# 6 0.0000 0.0000 0.0000 7.5507 0.0000 23.0309
#
#
#
# Elastic Compliance Matrix: (Units=1/GPa)
#
#
# Indices 1 2 3 4 5 6 
#
# 1 0.014867 -0.002584 -0.003775 0.000000 -0.002166 0.000000
# 2 -0.002584 0.016332 -0.002041 0.000000 -0.005200 0.000000
# 3 -0.003775 -0.002041 0.007223 0.000000 0.000049 0.000000
# 4 0.000000 0.000000 0.000000 0.068813 0.000000 -0.022560
# 5 -0.002166 -0.005200 0.000049 0.000000 0.038426 0.000000
# 6 0.000000 0.000000 0.000000 -0.022560 0.000000 0.050816
#
#
# Mechanical properties :
#
#
# Convention : Reuss Voigt Hill
#
# Bulk Modulus (GPa) = 46.24959 60.15665 53.20312
# Shear Modulus (GPa) = 22.67741 28.68601 25.68171
#
# Velocity S-wave (km/s) = 3.44552 3.87519 3.66666
# Velocity P-wave (km/s) = 6.32776 7.17739 6.76592
#
# Compressibility (1/GPa) = 0.02162181
#
# Stress axis : x y z
#
# Youngs Moduli (GPa) = 67.26115 61.23062 138.45612
#
# Poissons Ratio (x) = 0.15821 0.52266
# Poissons Ratio (y) = 0.17379 0.28261
# Poissons Ratio (z) = 0.25390 0.12498
#
# Static dielectric constant tensor:
#      x y z
#    x 2.809770 0.000000 -0.437230 
#    y 0.000000 3.156090 0.000000 
#    z -0.437230 0.000000 3.333490 
# 
# 
# High freq. dielectric constant tensor:
#      x y z
#    x 1.707310 0.000000 -0.004320 
#    y 0.000000 1.721330 0.000000 
#    z -0.004320 0.000000 1.768910 
# 
# From -- ./inp_files/287993.got.cif
#   From: 2010.06.25/outbox.cif.g09.slc.cpg/sg12_144_cif.got.tgz:287993.got - 2010.06.28 00:19:55.
