data_PCOD8114737
_publ_section_title
;
Structure prediction by ZEFSAII (Michael W. Deem and Ramdas Pophale) SiO2 
 PCOD8114737
Probable space group: C 2/M
;
_chemical_formula_sum "Si O2"
_cell_formula_units_Z 56
_cell_length_a 14.393863
_cell_length_b 8.468892
_cell_length_c 24.453135
_cell_angle_alpha 90.000000
_cell_angle_beta 75.523342
_cell_angle_gamma 90.000000
_cell_volume 2886.195962
_symmetry_space_group_name_H-M "C 2/M"
_symmetry_group_IT_number 12
_symmetry_cell_setting 'monoclinic'
loop_
_space_group_symop_operation_xyz
x,y,z
-x,y,-z
-x,-y,-z
x,-y,z
1/2+x,1/2+y,z
1/2-x,1/2+y,-z
1/2-x,1/2-y,-z
1/2+x,1/2-y,z
loop_
_atom_site_type_symbol
_atom_site_label
_atom_site_fract_x
_atom_site_fract_y
_atom_site_fract_z
Si Si1 0.958827 0.812799 0.563093
Si Si2 0.432229 0.686788 0.345922
Si Si3 0.691936 0.815037 0.137238
Si Si4 0.876168 0.685403 0.066274
Si Si5 0.919822 0.815807 0.946520
Si Si6 0.219743 0.687106 0.355531
Si Si7 0.110496 0.313570 0.265038
O O1 0.851503 0.746736 0.586587
O O2 0.000000 0.747025 0.500000
O O3 0.028401 0.751505 0.601412
O O4 0.953646 0.000000 0.563497
O O5 0.428056 0.500000 0.345682
O O6 0.326085 0.757076 0.350633
O O7 0.503886 0.743621 0.287709
O O8 0.804376 0.774466 0.118016
O O9 0.640818 0.712663 0.098509
O O10 0.652493 0.756571 0.201249
O O11 0.673575 0.000000 0.130807
O O12 0.855049 0.500000 0.068716
O O13 0.982260 0.717914 0.072701
O O14 0.861024 0.754378 0.007631
O O15 0.942835 0.000000 0.950228
O O16 0.223045 0.500000 0.356398
O O17 0.180999 0.749129 0.302616
O O18 0.103222 0.500000 0.268796
#
# Coordination Sequence:
#
# PCOD8114737 Si02
#       7
#     8   8   8   8   8   8   8
#     4   9  18  32  49  74 107 138 170 211 257 306
#     4   9  18  33  53  74 101 137 174 213 258 309
#     4  11  22  37  55  79 109 141 177 220 270 323
#     4  11  22  38  58  82 110 141 176 218 268 323
#     4  11  22  38  58  81 108 141 178 219 267 320
#     4   9  18  34  53  74 100 134 173 212 257 305
#     4   9  20  36  53  74 102 133 170 216 260 306
#
# _framework density 19.402702000000001
#
# number of rings (size 3 to 8) (size 9 to 14) (size 15 to 20)
#    0.000    2.143    0.000    4.286    0.000    3.714 
#    0.000    1.429    0.000    0.000    0.000    0.000 
#    0.000    0.000    0.000    0.000    0.000    0.000 
#
# Total GULP energy -347263.861342 kJ/mol
# GULP energy per Si atom -12402.280762 kJ/mol
# Density = 1.935854 g / cm^3
# Si number density = 19.402702 Si / 1000 Ang^3
#
#
#
# Elastic Constant Matrix: (Units=GPa)
#
#
# Indices 1 2 3 4 5 6 
#
# 1 128.0598 15.2093 58.9472 0.0000 -26.7994 0.0000
# 2 15.2093 40.1244 27.1683 0.0000 -0.6358 0.0000
# 3 58.9472 27.1683 124.9637 0.0000 -35.3086 0.0000
# 4 0.0000 0.0000 0.0000 23.6279 0.0000 -7.8734
# 5 -26.7994 -0.6358 -35.3086 0.0000 23.4522 0.0000
# 6 0.0000 0.0000 0.0000 -7.8734 0.0000 27.9010
#
#
#
# Elastic Compliance Matrix: (Units=1/GPa)
#
#
# Indices 1 2 3 4 5 6 
#
# 1 0.011028 -0.002778 -0.001842 0.000000 0.009753 0.000000
# 2 -0.002778 0.033445 -0.011489 0.000000 -0.019565 0.000000
# 3 -0.001842 -0.011489 0.018598 0.000000 0.025583 0.000000
# 4 0.000000 0.000000 0.000000 0.046716 0.000000 0.013183
# 5 0.009753 -0.019565 0.025583 0.000000 0.091770 0.000000
# 6 0.000000 0.000000 0.000000 0.013183 0.000000 0.039561
#
#
# Mechanical properties :
#
#
# Convention : Reuss Voigt Hill
#
# Bulk Modulus (GPa) = 32.41329 55.08863 43.75096
# Shear Modulus (GPa) = 17.62926 27.78441 22.70684
#
# Velocity S-wave (km/s) = 3.01757 3.78827 3.42467
# Velocity P-wave (km/s) = 5.37427 6.89844 6.18350
#
# Compressibility (1/GPa) = 0.03085154
#
# Stress axis : x y z
#
# Youngs Moduli (GPa) = 90.67967 29.90022 53.77030
#
# Poissons Ratio (x) = 0.08307 0.09907
# Poissons Ratio (y) = 0.25192 0.61775
# Poissons Ratio (z) = 0.16707 0.34352
#
# Static dielectric constant tensor:
#      x y z
#    x 3.690080 0.000000 -0.026850 
#    y 0.000000 3.368120 0.000000 
#    z -0.026850 0.000000 3.684020 
# 
# 
# High freq. dielectric constant tensor:
#      x y z
#    x 1.760020 0.000000 -0.008220 
#    y 0.000000 1.749660 0.000000 
#    z -0.008220 0.000000 1.752830 
# 
# From -- ./inp_files/337859.got.cif
#   From: 2010.06.25/outbox.cif.g09.slc.cpg/sg12_169_cif.got.tgz:337859.got - 2010.06.28 00:19:55.
