data_PCOD8114438
_publ_section_title
;
Structure prediction by ZEFSAII (Michael W. Deem and Ramdas Pophale) SiO2 
 PCOD8114438
Probable space group: C 2/M
;
_chemical_formula_sum "Si O2"
_cell_formula_units_Z 56
_cell_length_a 11.460949
_cell_length_b 17.132926
_cell_length_c 13.633790
_cell_angle_alpha 90.000000
_cell_angle_beta 97.628368
_cell_angle_gamma 90.000000
_cell_volume 2653.432700
_symmetry_space_group_name_H-M "C 2/M"
_symmetry_group_IT_number 12
_symmetry_cell_setting 'monoclinic'
loop_
_space_group_symop_operation_xyz
x,y,z
-x,y,-z
-x,-y,-z
x,-y,z
1/2+x,1/2+y,z
1/2-x,1/2+y,-z
1/2-x,1/2-y,-z
1/2+x,1/2-y,z
loop_
_atom_site_type_symbol
_atom_site_label
_atom_site_fract_x
_atom_site_fract_y
_atom_site_fract_z
Si Si1 0.590895 0.655192 0.876257
Si Si2 0.158409 0.687804 0.778834
Si Si3 0.164654 0.192431 0.365013
Si Si4 0.340472 0.405899 0.916989
Si Si5 0.767251 0.088085 0.458066
Si Si6 0.947581 0.088702 0.318276
Si Si7 0.959613 0.653583 0.604069
O O1 0.609300 0.746456 0.848173
O O2 0.454589 0.637484 0.886155
O O3 0.630226 0.602923 0.787581
O O4 0.674246 0.627691 0.974300
O O5 0.252732 0.724667 0.713121
O O6 0.222407 0.618489 0.845883
O O7 0.054739 0.649285 0.701954
O O8 0.244930 0.145338 0.450815
O O9 0.096823 0.261131 0.410914
O O10 0.067275 0.134421 0.312033
O O11 0.356120 0.500000 0.917052
O O12 0.877122 0.118021 0.405523
O O13 0.646451 0.093491 0.382106
O O14 0.789746 0.000000 0.495440
O O15 0.982053 0.000000 0.335910
O O16 0.000000 0.629046 0.500000
#
# Coordination Sequence:
#
# PCOD8114438 Si02
#       7
#     8   8   8   8   8   8   8
#     4  11  22  41  66 100 132 170 221 283 342 398
#     4  12  24  41  65 102 135 179 217 276 336 406
#     4  12  23  40  64  93 130 168 228 270 330 391
#     4  11  24  44  71 100 135 175 226 286 343 403
#     4  11  25  41  61  91 132 180 225 272 327 395
#     4  11  21  38  65  95 130 169 220 284 338 389
#     4  12  24  40  61  90 132 179 217 261 325 400
#
# _framework density 21.104738000000001
#
# number of rings (size 3 to 8) (size 9 to 14) (size 15 to 20)
#    0.000    0.571    4.286    5.143    0.000    2.571 
#    0.000    0.000    0.000    0.000    0.000   11.000 
#    0.000    0.000    0.000    0.000    0.000    0.000 
#
# Total GULP energy -347043.478456 kJ/mol
# GULP energy per Si atom -12394.409945 kJ/mol
# Density = 2.105670 g / cm^3
# Si number density = 21.104738 Si / 1000 Ang^3
#
#
#
# Elastic Constant Matrix: (Units=GPa)
#
#
# Indices 1 2 3 4 5 6 
#
# 1 95.0587 39.1728 43.3664 0.0000 18.1261 0.0000
# 2 39.1728 79.6866 47.3662 0.0000 0.9794 0.0000
# 3 43.3664 47.3662 115.2271 0.0000 19.3703 0.0000
# 4 0.0000 0.0000 0.0000 37.4958 0.0000 5.1261
# 5 18.1261 0.9794 19.3703 0.0000 35.1011 0.0000
# 6 0.0000 0.0000 0.0000 5.1261 0.0000 37.6723
#
#
#
# Elastic Compliance Matrix: (Units=1/GPa)
#
#
# Indices 1 2 3 4 5 6 
#
# 1 0.015276 -0.006175 -0.002109 0.000000 -0.006552 0.000000
# 2 -0.006175 0.019537 -0.006780 0.000000 0.006385 0.000000
# 3 -0.002109 -0.006780 0.013276 0.000000 -0.006048 0.000000
# 4 0.000000 0.000000 0.000000 0.027175 0.000000 -0.003698
# 5 -0.006552 0.006385 -0.006048 0.000000 0.035032 0.000000
# 6 0.000000 0.000000 0.000000 -0.003698 0.000000 0.027048
#
#
# Mechanical properties :
#
#
# Convention : Reuss Voigt Hill
#
# Bulk Modulus (GPa) = 55.68115 61.08700 58.38407
# Shear Modulus (GPa) = 28.82505 32.72496 30.77500
#
# Velocity S-wave (km/s) = 3.69969 3.94204 3.82279
# Velocity P-wave (km/s) = 6.68512 7.05174 6.87088
#
# Compressibility (1/GPa) = 0.01795940
#
# Stress axis : x y z
#
# Youngs Moduli (GPa) = 65.46085 51.18619 75.32269
#
# Poissons Ratio (x) = 0.31609 0.15889
# Poissons Ratio (y) = 0.40424 0.51070
# Poissons Ratio (z) = 0.13808 0.34705
#
# Static dielectric constant tensor:
#      x y z
#    x 3.895610 0.000000 0.129640 
#    y 0.000000 3.705460 0.000000 
#    z 0.129640 0.000000 4.210480 
# 
# 
# High freq. dielectric constant tensor:
#      x y z
#    x 1.824650 0.000000 0.006570 
#    y 0.000000 1.817810 0.000000 
#    z 0.006570 0.000000 1.837400 
# 
# From -- ./inp_files/204988.got.cif
#   From: 2010.06.25/outbox.cif.g09.slc.cpg/sg12_103_cif.got.tgz:204988.got - 2010.06.28 00:19:55.
