data_PCOD8114114
_publ_section_title
;
Structure prediction by ZEFSAII (Michael W. Deem and Ramdas Pophale) SiO2 
 PCOD8114114
Probable space group: C 2/M
;
_chemical_formula_sum "Si O2"
_cell_formula_units_Z 64
_cell_length_a 18.891037
_cell_length_b 9.038102
_cell_length_c 25.619537
_cell_angle_alpha 90.000000
_cell_angle_beta 125.432180
_cell_angle_gamma 90.000000
_cell_volume 3564.154883
_symmetry_space_group_name_H-M "C 2/M"
_symmetry_group_IT_number 12
_symmetry_cell_setting 'monoclinic'
loop_
_space_group_symop_operation_xyz
x,y,z
-x,y,-z
-x,-y,-z
x,-y,z
1/2+x,1/2+y,z
1/2-x,1/2+y,-z
1/2-x,1/2-y,-z
1/2+x,1/2-y,z
loop_
_atom_site_type_symbol
_atom_site_label
_atom_site_fract_x
_atom_site_fract_y
_atom_site_fract_z
Si Si1 0.522622 0.167392 0.309091
Si Si2 0.883365 0.166972 0.565302
Si Si3 0.161027 0.323403 0.945152
Si Si4 0.986765 0.826925 0.054297
Si Si5 0.710358 0.833540 0.559830
Si Si6 0.106522 0.837046 0.194341
Si Si7 0.430572 0.333160 0.184303
Si Si8 0.696619 0.165268 0.315705
O O1 0.540706 0.245452 0.372202
O O2 0.446008 0.255482 0.246808
O O3 0.609242 0.168860 0.311784
O O4 0.491810 0.000000 0.306130
O O5 0.796751 0.168422 0.562438
O O6 0.865411 0.244092 0.502066
O O7 0.914735 0.000000 0.568644
O O8 0.168581 0.500000 0.946623
O O9 0.089296 0.275814 0.956591
O O10 0.138122 0.263349 0.877712
O O11 0.250000 0.250000 0.000000
O O12 0.077052 0.789937 0.123348
O O13 0.962476 0.000000 0.052477
O O14 0.000000 0.787292 0.000000
O O15 0.729208 0.760577 0.624051
O O16 0.677797 0.000000 0.555069
O O17 0.177525 0.727306 0.249445
O O18 0.020345 0.838487 0.192036
O O19 0.148737 0.000000 0.211959
O O20 0.395120 0.500000 0.177671
O O21 0.732310 0.000000 0.324942
#
# Coordination Sequence:
#
# PCOD8114114 Si02
#       8
#     8   8   8   8   8   8   8   8
#     4   9  15  22  32  47  66  90 122 160 202 246
#     4   9  15  21  28  39  57  83 116 155 198 242
#     4  11  21  33  49  69  93 120 152 189 229 273
#     4   9  18  33  51  70  93 120 150 186 229 275
#     4   9  15  21  28  38  55  81 115 156 199 242
#     4   8  14  24  38  55  75 100 130 165 206 252
#     4   9  16  27  41  57  77 102 134 172 214 257
#     4   9  15  21  30  44  63  88 120 159 200 242
#
# _framework density 17.956571
#
# number of rings (size 3 to 8) (size 9 to 14) (size 15 to 20)
#    0.000    2.875    0.000    3.750    0.000    9.250 
#    0.000    0.000    0.000    0.000    0.000    0.000 
#    0.000    0.000    0.000    0.000    0.000    1.250 
#
# Total GULP energy -396675.272783 kJ/mol
# GULP energy per Si atom -12396.102274 kJ/mol
# Density = 1.791570 g / cm^3
# Si number density = 17.956571 Si / 1000 Ang^3
#
#
#
# Elastic Constant Matrix: (Units=GPa)
#
#
# Indices 1 2 3 4 5 6 
#
# 1 9.1916 17.7695 22.4582 0.0000 -0.7440 0.0000
# 2 17.7695 175.9858 98.7891 0.0000 -2.3156 0.0000
# 3 22.4582 98.7891 191.9617 0.0000 -11.0725 0.0000
# 4 0.0000 0.0000 0.0000 40.1074 0.0000 0.9837
# 5 -0.7440 -2.3156 -11.0725 0.0000 12.0406 0.0000
# 6 0.0000 0.0000 0.0000 0.9837 0.0000 8.9170
#
#
#
# Elastic Compliance Matrix: (Units=1/GPa)
#
#
# Indices 1 2 3 4 5 6 
#
# 1 0.160185 -0.007804 -0.015038 0.000000 -0.005431 0.000000
# 2 -0.007804 0.008435 -0.003551 0.000000 -0.002125 0.000000
# 3 -0.015038 -0.003551 0.009190 0.000000 0.006839 0.000000
# 4 0.000000 0.000000 0.000000 0.025001 0.000000 -0.002758
# 5 -0.005431 -0.002125 0.006839 0.000000 0.088597 0.000000
# 6 0.000000 0.000000 0.000000 -0.002758 0.000000 0.112450
#
#
# Mechanical properties :
#
#
# Convention : Reuss Voigt Hill
#
# Bulk Modulus (GPa) = 7.99834 72.79695 40.39764
# Shear Modulus (GPa) = 10.03373 28.08783 19.06078
#
# Velocity S-wave (km/s) = 2.36641 3.95930 3.26159
# Velocity P-wave (km/s) = 3.45405 7.84410 6.06055
#
# Compressibility (1/GPa) = 0.12502600
#
# Stress axis : x y z
#
# Youngs Moduli (GPa) = 6.24278 118.54691 108.80860
#
# Poissons Ratio (x) = 0.92517 1.63621
# Poissons Ratio (y) = 0.04872 0.38634
# Poissons Ratio (z) = 0.09388 0.42092
#
# Static dielectric constant tensor:
#      x y z
#    x 2.459410 0.000000 -0.111180 
#    y 0.000000 3.542950 0.000000 
#    z -0.111180 0.000000 3.732290 
# 
# 
# High freq. dielectric constant tensor:
#      x y z
#    x 1.590110 0.000000 -0.007040 
#    y 0.000000 1.710470 0.000000 
#    z -0.007040 0.000000 1.720290 
# 
# From -- ./inp_files/323366.got.cif
#   From: 2010.06.25/outbox.cif.g09.slc.cpg/sg12_162_cif.got.tgz:323366.got - 2010.06.28 00:19:55.
