data_PCOD8114174
_publ_section_title
;
Structure prediction by ZEFSAII (Michael W. Deem and Ramdas Pophale) SiO2 
 PCOD8114174
Probable space group: C 2/M
;
_chemical_formula_sum "Si O2"
_cell_formula_units_Z 64
_cell_length_a 31.425400
_cell_length_b 18.672510
_cell_length_c 9.963314
_cell_angle_alpha 90.000000
_cell_angle_beta 143.174191
_cell_angle_gamma 90.000000
_cell_volume 3504.230329
_symmetry_space_group_name_H-M "C 2/M"
_symmetry_group_IT_number 12
_symmetry_cell_setting 'monoclinic'
loop_
_space_group_symop_operation_xyz
x,y,z
-x,y,-z
-x,-y,-z
x,-y,z
1/2+x,1/2+y,z
1/2-x,1/2+y,-z
1/2-x,1/2-y,-z
1/2+x,1/2-y,z
loop_
_atom_site_type_symbol
_atom_site_label
_atom_site_fract_x
_atom_site_fract_y
_atom_site_fract_z
Si Si1 0.149600 0.084068 0.362246
Si Si2 0.913117 0.149987 0.052498
Si Si3 0.152148 0.917577 0.857870
Si Si4 0.303110 0.919011 0.853665
Si Si5 0.692005 0.918928 0.819269
Si Si6 0.576718 0.351455 0.424054
Si Si7 0.582040 0.194409 0.860350
Si Si8 0.578751 0.196529 0.540307
O O1 0.230791 0.103568 0.598349
O O2 0.096923 0.129624 0.322864
O O3 0.134901 0.000000 0.344689
O O4 0.135397 0.107418 0.174238
O O5 0.890752 0.129373 0.145473
O O6 0.902322 0.235318 0.011304
O O7 0.994875 0.129312 0.239930
O O8 0.124181 0.900982 0.638915
O O9 0.138394 0.000000 0.855370
O O10 0.235959 0.899975 0.077861
O O11 0.324528 0.000000 0.870613
O O12 0.291858 0.910134 0.983179
O O13 0.366013 0.868306 0.959362
O O14 0.630558 0.865267 0.615734
O O15 0.667281 0.000000 0.725371
O O16 0.592836 0.268087 0.491300
O O17 0.594122 0.213290 0.734705
O O18 0.501468 0.168532 0.681138
#
# Coordination Sequence:
#
# PCOD8114174 Si02
#       8
#     8   8   8   8   8   8   8   8
#     4  11  23  38  54  77 108 143 182 220 260 312
#     4  11  23  36  52  78 109 140 178 222 264 310
#     4  11  21  34  53  78 106 139 179 221 265 313
#     4   9  18  34  55  78 107 142 176 215 263 316
#     4   9  18  33  54  81 109 137 175 218 262 317
#     4  11  21  36  55  77 105 141 180 219 264 314
#     4   9  18  34  54  80 110 136 174 220 264 317
#     4   9  18  33  55  81 108 138 172 219 268 313
#
# _framework density 18.263641
#
# number of rings (size 3 to 8) (size 9 to 14) (size 15 to 20)
#    0.000    2.000    2.500    1.500    0.000    5.500 
#    0.000    2.500    0.000    0.000    0.000    0.000 
#    0.000    8.000    0.000    0.000    0.000    0.000 
#
# Total GULP energy -396900.785749 kJ/mol
# GULP energy per Si atom -12403.149555 kJ/mol
# Density = 1.822207 g / cm^3
# Si number density = 18.263641 Si / 1000 Ang^3
#
#
#
# Elastic Constant Matrix: (Units=GPa)
#
#
# Indices 1 2 3 4 5 6 
#
# 1 53.1564 37.3234 29.2297 0.0000 16.5045 0.0000
# 2 37.3234 95.7171 50.8048 0.0000 27.5785 0.0000
# 3 29.2297 50.8048 69.3617 0.0000 19.9060 0.0000
# 4 0.0000 0.0000 0.0000 29.0556 0.0000 6.8507
# 5 16.5045 27.5785 19.9060 0.0000 29.0400 0.0000
# 6 0.0000 0.0000 0.0000 6.8507 0.0000 26.5124
#
#
#
# Elastic Compliance Matrix: (Units=1/GPa)
#
#
# Indices 1 2 3 4 5 6 
#
# 1 0.028182 -0.006263 -0.005477 0.000000 -0.006315 0.000000
# 2 -0.006263 0.020899 -0.009952 0.000000 -0.009466 0.000000
# 3 -0.005477 -0.009952 0.025407 0.000000 -0.004852 0.000000
# 4 0.000000 0.000000 0.000000 0.036650 0.000000 -0.009470
# 5 -0.006315 -0.009466 -0.004852 0.000000 0.050340 0.000000
# 6 0.000000 0.000000 0.000000 -0.009470 0.000000 0.040165
#
#
# Mechanical properties :
#
#
# Convention : Reuss Voigt Hill
#
# Bulk Modulus (GPa) = 32.14835 50.32788 41.23811
# Shear Modulus (GPa) = 19.57752 23.64677 21.61215
#
# Velocity S-wave (km/s) = 3.27760 3.60216 3.44371
# Velocity P-wave (km/s) = 5.65368 6.70201 6.20004
#
# Compressibility (1/GPa) = 0.03110579
#
# Stress axis : x y z
#
# Youngs Moduli (GPa) = 35.48359 47.84828 39.35922
#
# Poissons Ratio (x) = 0.29966 0.21555
# Poissons Ratio (y) = 0.22222 0.39171
# Poissons Ratio (z) = 0.19433 0.47619
#
# Static dielectric constant tensor:
#      x y z
#    x 3.228880 0.000000 0.180400 
#    y 0.000000 3.400820 0.000000 
#    z 0.180400 0.000000 3.264410 
# 
# 
# High freq. dielectric constant tensor:
#      x y z
#    x 1.696870 0.000000 0.018600 
#    y 0.000000 1.712630 0.000000 
#    z 0.018600 0.000000 1.697310 
# 
# From -- ./inp_files/112847.got.cif
#   From: 2010.06.25/outbox.cif.g09.slc.cpg/sg12_57_cif.got.tgz:112847.got - 2010.06.28 00:19:55.
