data_PCOD8114718
_publ_section_title
;
Structure prediction by ZEFSAII (Michael W. Deem and Ramdas Pophale) SiO2 
 PCOD8114718
Probable space group: C 2/M
;
_chemical_formula_sum "Si O2"
_cell_formula_units_Z 48
_cell_length_a 22.768374
_cell_length_b 9.125304
_cell_length_c 11.979117
_cell_angle_alpha 90.000000
_cell_angle_beta 104.352727
_cell_angle_gamma 90.000000
_cell_volume 2411.198271
_symmetry_space_group_name_H-M "C 2/M"
_symmetry_group_IT_number 12
_symmetry_cell_setting 'monoclinic'
loop_
_space_group_symop_operation_xyz
x,y,z
-x,y,-z
-x,-y,-z
x,-y,z
1/2+x,1/2+y,z
1/2-x,1/2+y,-z
1/2-x,1/2-y,-z
1/2+x,1/2-y,z
loop_
_atom_site_type_symbol
_atom_site_label
_atom_site_fract_x
_atom_site_fract_y
_atom_site_fract_z
Si Si1 0.626370 0.170160 0.551255
Si Si2 0.878742 0.670704 0.697917
Si Si3 0.482921 0.673519 0.866235
Si Si4 0.756627 0.834209 0.668835
Si Si5 0.918636 0.673778 0.238432
Si Si6 0.287097 0.837787 0.106056
O O1 0.595312 0.196386 0.416182
O O2 0.694995 0.234575 0.586427
O O3 0.583376 0.226383 0.631977
O O4 0.637294 0.000000 0.583041
O O5 0.881532 0.500000 0.731179
O O6 0.809954 0.723852 0.662973
O O7 0.916936 0.762195 0.805813
O O8 0.481255 0.500000 0.853077
O O9 0.529315 0.739440 0.799668
O O10 0.500000 0.720744 0.000000
O O11 0.750328 0.835535 0.798343
O O12 0.770762 0.000000 0.632857
O O13 0.931017 0.500000 0.233696
O O14 0.855072 0.722999 0.153988
O O15 0.292759 0.000000 0.060563
O O16 0.250000 0.750000 0.000000
#
# Coordination Sequence:
#
# PCOD8114718 Si02
#       6
#     8   8   8   8   8   8
#     4   8  17  36  61  88 118 149 182 228 286 338
#     4  11  22  36  59  88 115 150 193 233 277 334
#     4  11  26  44  58  77 111 153 192 236 290 338
#     4   9  18  35  56  83 121 155 182 223 282 337
#     4   9  19  39  62  83 110 146 189 234 278 332
#     4   9  19  33  54  82 112 148 185 227 278 328
#
# _framework density 19.907115000000001
#
# number of rings (size 3 to 8) (size 9 to 14) (size 15 to 20)
#    0.000    2.500    0.000    3.500    2.333    3.333 
#    0.000    8.333    0.000    0.000    0.000    0.000 
#    0.000    0.000    0.000    0.000    0.000    0.000 
#
# Total GULP energy -297499.320605 kJ/mol
# GULP energy per Si atom -12395.805025 kJ/mol
# Density = 1.986181 g / cm^3
# Si number density = 19.907115 Si / 1000 Ang^3
#
#
#
# Elastic Constant Matrix: (Units=GPa)
#
#
# Indices 1 2 3 4 5 6 
#
# 1 80.9566 27.8497 26.1885 0.0000 -12.5490 0.0000
# 2 27.8497 63.7744 40.0916 0.0000 0.6405 0.0000
# 3 26.1885 40.0916 108.2618 0.0000 5.8848 0.0000
# 4 0.0000 0.0000 0.0000 25.6068 0.0000 1.9845
# 5 -12.5490 0.6405 5.8848 0.0000 15.5600 0.0000
# 6 0.0000 0.0000 0.0000 1.9845 0.0000 35.4776
#
#
#
# Elastic Compliance Matrix: (Units=1/GPa)
#
#
# Indices 1 2 3 4 5 6 
#
# 1 0.017836 -0.006122 -0.002903 0.000000 0.015735 0.000000
# 2 -0.006122 0.022605 -0.006709 0.000000 -0.003331 0.000000
# 3 -0.002903 -0.006709 0.012799 0.000000 -0.006905 0.000000
# 4 0.000000 0.000000 0.000000 0.039222 0.000000 -0.002194
# 5 0.015735 -0.003331 -0.006905 0.000000 0.079706 0.000000
# 6 0.000000 0.000000 0.000000 -0.002194 0.000000 0.028310
#
#
# Mechanical properties :
#
#
# Convention : Reuss Voigt Hill
#
# Bulk Modulus (GPa) = 45.93017 49.02804 47.47911
# Shear Modulus (GPa) = 20.90272 25.91975 23.41124
#
# Velocity S-wave (km/s) = 3.24390 3.61229 3.43304
# Velocity P-wave (km/s) = 6.09532 6.48691 6.29416
#
# Compressibility (1/GPa) = 0.02177218
#
# Stress axis : x y z
#
# Youngs Moduli (GPa) = 56.06500 44.23829 78.13173
#
# Poissons Ratio (x) = 0.27084 0.22680
# Poissons Ratio (y) = 0.34324 0.52419
# Poissons Ratio (z) = 0.16274 0.29680
#
# Static dielectric constant tensor:
#      x y z
#    x 3.582300 0.000000 -0.070420 
#    y 0.000000 3.438660 0.000000 
#    z -0.070420 0.000000 3.768040 
# 
# 
# High freq. dielectric constant tensor:
#      x y z
#    x 1.775020 0.000000 -0.001660 
#    y 0.000000 1.753290 0.000000 
#    z -0.001660 0.000000 1.787470 
# 
# From -- ./inp_files/173080.got.cif
#   From: 2010.06.25/outbox.cif.g09.slc.cpg/sg12_87_cif.got.tgz:173080.got - 2010.06.28 00:19:55.
