data_PCOD8114412
_publ_section_title
;
Structure prediction by ZEFSAII (Michael W. Deem and Ramdas Pophale) SiO2 
 PCOD8114412
Probable space group: C 2/M
;
_chemical_formula_sum "Si O2"
_cell_formula_units_Z 48
_cell_length_a 15.970905
_cell_length_b 27.957621
_cell_length_c 9.879536
_cell_angle_alpha 90.000000
_cell_angle_beta 34.343684
_cell_angle_gamma 90.000000
_cell_volume 2488.658403
_symmetry_space_group_name_H-M "C 2/M"
_symmetry_group_IT_number 12
_symmetry_cell_setting 'monoclinic'
loop_
_space_group_symop_operation_xyz
x,y,z
-x,y,-z
-x,-y,-z
x,-y,z
1/2+x,1/2+y,z
1/2-x,1/2+y,-z
1/2-x,1/2-y,-z
1/2+x,1/2-y,z
loop_
_atom_site_type_symbol
_atom_site_label
_atom_site_fract_x
_atom_site_fract_y
_atom_site_fract_z
Si Si1 0.168915 0.266673 0.742991
Si Si2 0.439773 0.125382 0.716408
Si Si3 0.627332 0.873547 0.732315
Si Si4 0.370486 0.553412 0.478375
Si Si5 0.810292 0.946747 0.874267
Si Si6 0.843251 0.271100 0.753870
O O1 0.250000 0.250000 0.500000
O O2 0.183050 0.324285 0.727688
O O3 0.246536 0.235599 0.752174
O O4 0.000000 0.252506 0.000000
O O5 0.500000 0.099834 0.500000
O O6 0.564888 0.134859 0.663967
O O7 0.369230 0.174617 0.760760
O O8 0.315371 0.091812 0.940660
O O9 0.765882 0.909673 0.537816
O O10 0.500000 0.895651 0.000000
O O11 0.339519 0.500000 0.462291
O O12 0.544829 0.566799 0.228768
O O13 0.343548 0.554223 0.672601
O O14 0.756282 0.000000 0.987813
O O15 0.000000 0.246455 0.500000
O O16 0.750000 0.250000 0.000000
#
# Coordination Sequence:
#
# PCOD8114412 Si02
#       6
#     8   8   8   8   8   8
#     4  11  23  40  59  85 118 154 201 249 293 350
#     4  11  23  40  58  85 125 158 192 241 300 355
#     4  11  21  38  61  89 115 153 203 246 287 346
#     4   9  19  36  61  92 119 146 195 254 291 338
#     4   9  19  37  60  89 121 152 192 242 296 352
#     4  11  23  40  59  85 118 158 198 246 299 352
#
# _framework density 19.287499
#
# number of rings (size 3 to 8) (size 9 to 14) (size 15 to 20)
#    0.000    1.667    1.667    6.000    0.000    4.000 
#    0.000    0.833    0.000    2.000    0.000    0.000 
#    0.000    0.000    0.000    0.000    0.000    0.000 
#
# Total GULP energy -297319.770690 kJ/mol
# GULP energy per Si atom -12388.323779 kJ/mol
# Density = 1.924360 g / cm^3
# Si number density = 19.287499 Si / 1000 Ang^3
#
#
#
# Elastic Constant Matrix: (Units=GPa)
#
#
# Indices 1 2 3 4 5 6 
#
# 1 136.8958 61.7643 24.8442 0.0000 -6.0780 0.0000
# 2 61.7643 92.4626 23.2584 0.0000 -19.8915 0.0000
# 3 24.8442 23.2584 98.8850 0.0000 -4.3916 0.0000
# 4 0.0000 0.0000 0.0000 14.2926 0.0000 -2.8815
# 5 -6.0780 -19.8915 -4.3916 0.0000 35.5043 0.0000
# 6 0.0000 0.0000 0.0000 -2.8815 0.0000 31.5881
#
#
#
# Elastic Compliance Matrix: (Units=1/GPa)
#
#
# Indices 1 2 3 4 5 6 
#
# 1 0.010745 -0.007440 -0.001059 0.000000 -0.002460 0.000000
# 2 -0.007440 0.018153 -0.002016 0.000000 0.008647 0.000000
# 3 -0.001059 -0.002016 0.010854 0.000000 0.000032 0.000000
# 4 0.000000 0.000000 0.000000 0.071277 0.000000 0.006502
# 5 -0.002460 0.008647 0.000032 0.000000 0.032593 0.000000
# 6 0.000000 0.000000 0.000000 0.006502 0.000000 0.032251
#
#
# Mechanical properties :
#
#
# Convention : Reuss Voigt Hill
#
# Bulk Modulus (GPa) = 53.41569 60.88638 57.15103
# Shear Modulus (GPa) = 24.61318 30.83542 27.72430
#
# Velocity S-wave (km/s) = 3.57616 4.00274 3.79545
# Velocity P-wave (km/s) = 6.69376 7.28004 6.99305
#
# Compressibility (1/GPa) = 0.01872109
#
# Stress axis : x y z
#
# Youngs Moduli (GPa) = 93.06990 55.08851 92.12835
#
# Poissons Ratio (x) = 0.40987 0.09754
# Poissons Ratio (y) = 0.69246 0.18576
# Poissons Ratio (z) = 0.09854 0.11107
#
# Static dielectric constant tensor:
#      x y z
#    x 3.758470 0.000000 0.048270 
#    y 0.000000 3.570140 0.000000 
#    z 0.048270 0.000000 2.201630 
# 
# 
# High freq. dielectric constant tensor:
#      x y z
#    x 1.752410 0.000000 -0.007920 
#    y 0.000000 1.745510 0.000000 
#    z -0.007920 0.000000 1.755440 
# 
# From -- ./inp_files/52423.got.cif
#   From: 2010.06.25/outbox.cif.g09.slc.cpg/sg12_27_cif.got.tgz:52423.got - 2010.06.28 00:19:55.
