data_PCOD8114140
_publ_section_title
;
Structure prediction by ZEFSAII (Michael W. Deem and Ramdas Pophale) SiO2 
 PCOD8114140
Probable space group: C 2/M
;
_chemical_formula_sum "Si O2"
_cell_formula_units_Z 64
_cell_length_a 24.590332
_cell_length_b 8.666213
_cell_length_c 16.330083
_cell_angle_alpha 90.000000
_cell_angle_beta 91.823422
_cell_angle_gamma 90.000000
_cell_volume 3478.261076
_symmetry_space_group_name_H-M "C 2/M"
_symmetry_group_IT_number 12
_symmetry_cell_setting 'monoclinic'
loop_
_space_group_symop_operation_xyz
x,y,z
-x,y,-z
-x,-y,-z
x,-y,z
1/2+x,1/2+y,z
1/2-x,1/2+y,-z
1/2-x,1/2-y,-z
1/2+x,1/2-y,z
loop_
_atom_site_type_symbol
_atom_site_label
_atom_site_fract_x
_atom_site_fract_y
_atom_site_fract_z
Si Si1 0.789001 0.318704 0.759225
Si Si2 0.056690 0.317406 0.968221
Si Si3 0.384593 0.181442 0.871410
Si Si4 0.304717 0.819406 0.465751
Si Si5 0.673152 0.682427 0.707236
Si Si6 0.568621 0.817709 0.786353
Si Si7 0.370178 0.178815 0.626701
Si Si8 0.957917 0.181069 0.734825
O O1 0.783810 0.500000 0.749052
O O2 0.822636 0.273076 0.843130
O O3 0.727537 0.254524 0.756500
O O4 0.821753 0.254831 0.682041
O O5 0.052208 0.500000 0.961256
O O6 0.069215 0.249136 0.879132
O O7 0.104687 0.269427 0.034035
O O8 0.000000 0.249672 0.000000
O O9 0.427810 0.263491 0.815203
O O10 0.394279 0.000000 0.859662
O O11 0.250000 0.750000 0.500000
O O12 0.322203 0.725017 0.387386
O O13 0.354039 0.795103 0.532072
O O14 0.296197 0.000000 0.446033
O O15 0.665004 0.500000 0.715920
O O16 0.623476 0.770237 0.744762
O O17 0.518040 0.751447 0.733505
O O18 0.563928 0.000000 0.787337
O O19 0.425679 0.267778 0.651421
O O20 0.379841 0.000000 0.647599
O O21 0.963230 0.000000 0.736596
#
# Coordination Sequence:
#
# PCOD8114140 Si02
#       8
#     8   8   8   8   8   8   8   8
#     4   8  15  30  53  78 107 145 180 216 269 326
#     4   9  16  30  56  84 105 137 190 238 271 321
#     4   9  16  32  56  80 107 143 186 229 272 327
#     4  11  21  36  59  87 115 147 188 231 276 323
#     4  11  22  38  55  80 116 151 187 229 280 334
#     4  11  22  38  57  79 109 149 191 229 278 340
#     4   9  18  35  57  81 109 145 184 224 271 326
#     4  11  21  33  52  83 114 143 178 228 284 329
#
# _framework density 18.399999999999999
#
# number of rings (size 3 to 8) (size 9 to 14) (size 15 to 20)
#    0.000    2.125    2.500    3.000    0.000    1.000 
#    0.000    3.750    0.000    3.750    0.000    0.000 
#    0.000    0.000    0.000    0.000    0.000    0.000 
#
# Total GULP energy -396697.873368 kJ/mol
# GULP energy per Si atom -12396.808543 kJ/mol
# Density = 1.835812 g / cm^3
# Si number density = 18.400000 Si / 1000 Ang^3
#
#
#
# Elastic Constant Matrix: (Units=GPa)
#
#
# Indices 1 2 3 4 5 6 
#
# 1 135.1018 28.3004 56.2951 0.0000 19.8785 0.0000
# 2 28.3004 61.1308 19.2294 0.0000 9.9130 0.0000
# 3 56.2951 19.2294 94.9124 0.0000 16.0534 0.0000
# 4 0.0000 0.0000 0.0000 16.9863 0.0000 -1.0186
# 5 19.8785 9.9130 16.0534 0.0000 32.0437 0.0000
# 6 0.0000 0.0000 0.0000 -1.0186 0.0000 27.5471
#
#
#
# Elastic Compliance Matrix: (Units=1/GPa)
#
#
# Indices 1 2 3 4 5 6 
#
# 1 0.010609 -0.002769 -0.005204 0.000000 -0.003118 0.000000
# 2 -0.002769 0.018669 -0.001588 0.000000 -0.003262 0.000000
# 3 -0.005204 -0.001588 0.014548 0.000000 -0.003569 0.000000
# 4 0.000000 0.000000 0.000000 0.059002 0.000000 0.002182
# 5 -0.003118 -0.003262 -0.003569 0.000000 0.035938 0.000000
# 6 0.000000 0.000000 0.000000 0.002182 0.000000 0.036382
#
#
# Mechanical properties :
#
#
# Convention : Reuss Voigt Hill
#
# Bulk Modulus (GPa) = 40.48058 55.42165 47.95111
# Shear Modulus (GPa) = 24.69067 27.80342 26.24704
#
# Velocity S-wave (km/s) = 3.66715 3.89145 3.78096
# Velocity P-wave (km/s) = 6.32287 7.09768 6.72145
#
# Compressibility (1/GPa) = 0.02470320
#
# Stress axis : x y z
#
# Youngs Moduli (GPa) = 94.25883 53.56536 68.73706
#
# Poissons Ratio (x) = 0.14831 0.35773
# Poissons Ratio (y) = 0.26099 0.10918
# Poissons Ratio (z) = 0.49055 0.08508
#
# Static dielectric constant tensor:
#      x y z
#    x 3.405660 0.000000 0.687670 
#    y 0.000000 3.186720 0.000000 
#    z 0.687670 0.000000 1.848840 
# 
# 
# High freq. dielectric constant tensor:
#      x y z
#    x 1.706240 0.000000 0.026910 
#    y 0.000000 1.694590 0.000000 
#    z 0.026910 0.000000 1.711700 
# 
# From -- ./inp_files/287781.got.cif
#   From: 2010.06.25/outbox.cif.g09.slc.cpg/sg12_144_cif.got.tgz:287781.got - 2010.06.28 00:19:55.
