data_PCOD8114727
_publ_section_title
;
Structure prediction by ZEFSAII (Michael W. Deem and Ramdas Pophale) SiO2 
 PCOD8114727
Probable space group: C 2/M
;
_chemical_formula_sum "Si O2"
_cell_formula_units_Z 40
_cell_length_a 21.500303
_cell_length_b 8.917745
_cell_length_c 10.782259
_cell_angle_alpha 90.000000
_cell_angle_beta 121.270072
_cell_angle_gamma 90.000000
_cell_volume 1767.007440
_symmetry_space_group_name_H-M "C 2/M"
_symmetry_group_IT_number 12
_symmetry_cell_setting 'monoclinic'
loop_
_space_group_symop_operation_xyz
x,y,z
-x,y,-z
-x,-y,-z
x,-y,z
1/2+x,1/2+y,z
1/2-x,1/2+y,-z
1/2-x,1/2-y,-z
1/2+x,1/2-y,z
loop_
_atom_site_type_symbol
_atom_site_label
_atom_site_fract_x
_atom_site_fract_y
_atom_site_fract_z
Si Si1 0.094514 0.175894 0.339846
Si Si2 0.915608 0.675860 0.419996
Si Si3 0.832962 0.672110 0.811626
Si Si4 0.203753 0.173007 0.845899
Si Si5 0.035766 0.664370 0.903606
O O1 0.119087 0.253908 0.492113
O O2 0.149737 0.226004 0.289000
O O3 0.010430 0.219813 0.225651
O O4 0.100177 0.000000 0.362249
O O5 0.902885 0.500000 0.408122
O O6 0.873589 0.744680 0.256987
O O7 0.000000 0.720205 0.500000
O O8 0.852687 0.500000 0.798108
O O9 0.749405 0.688735 0.764719
O O10 0.881942 0.720724 0.983317
O O11 0.190123 0.000000 0.865997
O O12 0.250000 0.250000 0.000000
O O13 0.035296 0.500000 0.836171
O O14 0.000000 0.648766 0.000000
#
# Coordination Sequence:
#
# PCOD8114727 Si02
#       5
#     8   8   8   8   8
#     4  11  22  36  61  97 131 164 211 273 328 376
#     4  11  26  47  69  92 126 176 224 266 325 394
#     4   9  20  39  63  91 128 173 214 256 316 391
#     4  11  25  45  69  99 133 171 217 268 325 387
#     4   8  15  31  55  85 123 167 208 247 303 379
#
# _framework density 22.637143999999999
#
# number of rings (size 3 to 8) (size 9 to 14) (size 15 to 20)
#    0.000    2.000    0.000    4.200    2.800    7.600 
#    0.000    0.000    0.000    0.000    0.000    0.000 
#    0.000    0.000    0.000    0.000    0.000    0.000 
#
# Total GULP energy -247994.114151 kJ/mol
# GULP energy per Si atom -12399.705708 kJ/mol
# Density = 2.258562 g / cm^3
# Si number density = 22.637144 Si / 1000 Ang^3
#
#
#
# Elastic Constant Matrix: (Units=GPa)
#
#
# Indices 1 2 3 4 5 6 
#
# 1 59.8516 43.8773 29.5089 0.0000 19.6749 0.0000
# 2 43.8773 150.6228 69.9567 0.0000 8.7595 0.0000
# 3 29.5089 69.9567 136.5354 0.0000 12.5438 0.0000
# 4 0.0000 0.0000 0.0000 37.7492 0.0000 3.4360
# 5 19.6749 8.7595 12.5438 0.0000 35.2016 0.0000
# 6 0.0000 0.0000 0.0000 3.4360 0.0000 23.2099
#
#
#
# Elastic Compliance Matrix: (Units=1/GPa)
#
#
# Indices 1 2 3 4 5 6 
#
# 1 0.026056 -0.006273 -0.001264 0.000000 -0.012552 0.000000
# 2 -0.006273 0.010235 -0.004111 0.000000 0.002424 0.000000
# 3 -0.001264 -0.004111 0.009868 0.000000 -0.001787 0.000000
# 4 0.000000 0.000000 0.000000 0.026852 0.000000 -0.003975
# 5 -0.012552 0.002424 -0.001787 0.000000 0.035457 0.000000
# 6 0.000000 0.000000 0.000000 -0.003975 0.000000 0.043674
#
#
# Mechanical properties :
#
#
# Convention : Reuss Voigt Hill
#
# Bulk Modulus (GPa) = 43.73990 70.41062 57.07526
# Shear Modulus (GPa) = 27.31355 32.80993 30.06174
#
# Velocity S-wave (km/s) = 3.47736 3.81121 3.64810
# Velocity P-wave (km/s) = 5.95708 7.10905 6.55841
#
# Compressibility (1/GPa) = 0.02286242
#
# Stress axis : x y z
#
# Youngs Moduli (GPa) = 38.37834 97.70491 101.33981
#
# Poissons Ratio (x) = 0.61294 0.12810
# Poissons Ratio (y) = 0.24076 0.41660
# Poissons Ratio (z) = 0.04851 0.40166
#
# Static dielectric constant tensor:
#      x y z
#    x 4.386930 0.000000 0.354890 
#    y 0.000000 3.881490 0.000000 
#    z 0.354890 0.000000 4.288950 
# 
# 
# High freq. dielectric constant tensor:
#      x y z
#    x 1.894460 0.000000 0.003250 
#    y 0.000000 1.881290 0.000000 
#    z 0.003250 0.000000 1.895280 
# 
# From -- ./inp_files/172566.got.cif
#   From: 2010.06.25/outbox.cif.g09.slc.cpg/sg12_87_cif.got.tgz:172566.got - 2010.06.28 00:19:55.
