data_PCOD8114318
_publ_section_title
;
Structure prediction by ZEFSAII (Michael W. Deem and Ramdas Pophale) SiO2 
 PCOD8114318
Probable space group: C 2/M
;
_chemical_formula_sum "Si O2"
_cell_formula_units_Z 40
_cell_length_a 19.731000
_cell_length_b 14.227881
_cell_length_c 16.731359
_cell_angle_alpha 90.000000
_cell_angle_beta 157.921160
_cell_angle_gamma 90.000000
_cell_volume 1765.517946
_symmetry_space_group_name_H-M "C 2/M"
_symmetry_group_IT_number 12
_symmetry_cell_setting 'monoclinic'
loop_
_space_group_symop_operation_xyz
x,y,z
-x,y,-z
-x,-y,-z
x,-y,z
1/2+x,1/2+y,z
1/2-x,1/2+y,-z
1/2-x,1/2-y,-z
1/2+x,1/2-y,z
loop_
_atom_site_type_symbol
_atom_site_label
_atom_site_fract_x
_atom_site_fract_y
_atom_site_fract_z
Si Si1 0.602645 0.602873 0.873840
Si Si2 0.332859 0.107191 0.974526
Si Si3 0.255774 0.796530 0.182403
Si Si4 0.624747 0.106971 0.540895
Si Si5 0.215508 0.641294 0.460728
O O1 0.676276 0.500000 0.978383
O O2 0.729440 0.640496 0.941627
O O3 0.394752 0.595293 0.618431
O O4 0.606215 0.669732 0.955340
O O5 0.267181 0.182667 0.835819
O O6 0.280367 0.000000 0.892218
O O7 0.547028 0.111940 0.222288
O O8 0.227693 0.843971 0.238812
O O9 0.447071 0.829151 0.355174
O O10 0.691902 0.103856 0.524429
O O11 0.589151 0.000000 0.530115
O O12 0.250000 0.750000 0.500000
#
# Coordination Sequence:
#
# PCOD8114318 Si02
#       5
#     8   8   8   8   8
#     4  11  21  36  63  94 123 161 208 256 313 376
#     4  11  23  42  65  92 127 167 212 264 310 368
#     4  11  21  39  62  94 127 168 207 253 319 377
#     4  11  23  40  65  96 131 165 204 264 321 371
#     4  12  23  40  64  94 128 162 209 257 313 375
#
# _framework density 22.656241000000001
#
# number of rings (size 3 to 8) (size 9 to 14) (size 15 to 20)
#    0.000    0.800    4.000    6.000    0.000    0.800 
#    0.000    4.000    0.000    4.800    0.000    0.000 
#    0.000    0.000    0.000    0.000    0.000    0.000 
#
# Total GULP energy -247935.794286 kJ/mol
# GULP energy per Si atom -12396.789714 kJ/mol
# Density = 2.260467 g / cm^3
# Si number density = 22.656241 Si / 1000 Ang^3
#
#
#
# Elastic Constant Matrix: (Units=GPa)
#
#
# Indices 1 2 3 4 5 6 
#
# 1 24.9569 14.9335 19.7523 0.0125 -3.5787 -0.0014
# 2 14.9335 173.8133 34.3620 0.0295 -21.1635 0.0114
# 3 19.7523 34.3620 109.2473 0.0335 7.8210 0.0162
# 4 0.0125 0.0295 0.0335 33.1423 0.0193 -3.1530
# 5 -3.5787 -21.1635 7.8210 0.0193 28.4137 0.0057
# 6 -0.0014 0.0114 0.0162 -3.1530 0.0057 26.5728
#
#
#
# Elastic Compliance Matrix: (Units=1/GPa)
#
#
# Indices 1 2 3 4 5 6 
#
# 1 0.049140 -0.001542 -0.008937 -0.000012 0.007501 0.000006
# 2 -0.001542 0.007043 -0.002344 -0.000007 0.005697 -0.000004
# 3 -0.008937 -0.002344 0.011948 -0.000004 -0.006160 -0.000006
# 4 -0.000012 -0.000007 -0.000004 0.030517 -0.000027 0.003621
# 5 0.007501 0.005697 -0.006160 -0.000027 0.042078 -0.000010
# 6 0.000006 -0.000004 -0.000006 0.003621 -0.000010 0.038062
#
#
# Mechanical properties :
#
#
# Convention : Reuss Voigt Hill
#
# Bulk Modulus (GPa) = 23.53773 49.56813 36.55293
# Shear Modulus (GPa) = 22.87327 33.55708 28.21517
#
# Velocity S-wave (km/s) = 3.18084 3.85273 3.53279
# Velocity P-wave (km/s) = 4.88896 6.45889 5.72797
#
# Compressibility (1/GPa) = 0.04248498
#
# Stress axis : x y z
#
# Youngs Moduli (GPa) = 20.34994 141.98737 83.69819
#
# Poissons Ratio (x) = 0.21894 0.74798
# Poissons Ratio (y) = 0.03138 0.19621
# Poissons Ratio (z) = 0.18186 0.33286
#
# Static dielectric constant tensor:
#      x y z
#    x 4.035670 0.000000 0.273460 
#    y 0.000000 4.281290 0.000000 
#    z 0.273460 0.000000 4.709380 
# 
# 
# High freq. dielectric constant tensor:
#      x y z
#    x 1.857030 0.000000 0.013230 
#    y 0.000000 1.914240 0.000000 
#    z 0.013230 0.000000 1.890790 
# 
# From -- ./inp_files/284425.got.cif
#   From: 2010.06.25/outbox.cif.g09.slc.cpg/sg12_143_cif.got.tgz:284425.got - 2010.06.28 00:19:55.
