data_PCOD8114483
_publ_section_title
;
Structure prediction by ZEFSAII (Michael W. Deem and Ramdas Pophale) SiO2 
 PCOD8114483
Probable space group: C 2/M
;
_chemical_formula_sum "Si O2"
_cell_formula_units_Z 56
_cell_length_a 9.720791
_cell_length_b 27.910927
_cell_length_c 11.559306
_cell_angle_alpha 90.000000
_cell_angle_beta 115.642749
_cell_angle_gamma 90.000000
_cell_volume 2827.340560
_symmetry_space_group_name_H-M "C 2/M"
_symmetry_group_IT_number 12
_symmetry_cell_setting 'monoclinic'
loop_
_space_group_symop_operation_xyz
x,y,z
-x,y,-z
-x,-y,-z
x,-y,z
1/2+x,1/2+y,z
1/2-x,1/2+y,-z
1/2-x,1/2-y,-z
1/2+x,1/2-y,z
loop_
_atom_site_type_symbol
_atom_site_label
_atom_site_fract_x
_atom_site_fract_y
_atom_site_fract_z
Si Si1 0.299086 0.101829 0.660352
Si Si2 0.183926 0.500000 0.643408
Si Si3 0.436870 0.343788 0.267370
Si Si4 0.428215 0.752970 0.588402
Si Si5 0.390909 0.000000 0.650945
Si Si6 0.261737 0.395206 0.632410
Si Si7 0.665422 0.701113 0.000214
Si Si8 0.578639 0.159995 0.748493
O O1 0.161747 0.123723 0.682887
O O2 0.271254 0.112215 0.515130
O O3 0.458722 0.123833 0.763881
O O4 0.309914 0.044823 0.682890
O O5 0.114751 0.500000 0.489820
O O6 0.275614 0.450085 0.681205
O O7 0.075681 0.500000 0.719837
O O8 0.501030 0.298274 0.358802
O O9 0.575906 0.374884 0.272628
O O10 0.343351 0.328202 0.121384
O O11 0.500000 0.774319 0.500000
O O12 0.250000 0.750000 0.500000
O O13 0.479115 0.790971 0.703508
O O14 0.129775 0.364924 0.647650
O O15 0.500000 0.710501 0.000000
O O16 0.750000 0.750000 0.000000
O O17 0.770534 0.669506 0.122393
#
# Coordination Sequence:
#
# PCOD8114483 Si02
#       8
#     8   4   8   8   4   8   8   8
#     4  11  23  38  67 100 131 165 209 265 334 383
#     4   9  18  35  65  94 130 167 206 257 323 397
#     4  12  25  42  61  91 134 168 216 264 314 384
#     4  12  24  37  58  92 129 161 198 255 324 379
#     4   9  18  37  61  98 131 162 206 261 322 399
#     4  11  21  40  64  99 130 167 209 261 326 387
#     4  12  28  47  65  87 126 178 231 261 309 375
#     4  12  23  40  67  91 128 174 216 262 309 386
#
# _framework density 19.806597
#
# number of rings (size 3 to 8) (size 9 to 14) (size 15 to 20)
#    0.000    0.714    4.286    5.143    2.000    0.571 
#    0.000    2.143    0.000    5.143    0.000    0.000 
#    0.000    0.000    0.000    0.000    0.000    0.000 
#
# Total GULP energy -347033.016593 kJ/mol
# GULP energy per Si atom -12394.036307 kJ/mol
# Density = 1.976152 g / cm^3
# Si number density = 19.806597 Si / 1000 Ang^3
#
#
#
# Elastic Constant Matrix: (Units=GPa)
#
#
# Indices 1 2 3 4 5 6 
#
# 1 88.4252 48.1874 8.9326 0.0000 12.2976 0.0000
# 2 48.1874 154.9966 31.5451 0.0000 7.4086 0.0000
# 3 8.9326 31.5451 74.4013 0.0000 13.2138 0.0000
# 4 0.0000 0.0000 0.0000 -20.0474 0.0000 -22.3713
# 5 12.2976 7.4086 13.2138 0.0000 31.5004 0.0000
# 6 0.0000 0.0000 0.0000 -22.3713 0.0000 12.9023
#
#
#
# Elastic Compliance Matrix: (Units=1/GPa)
#
#
# Indices 1 2 3 4 5 6 
#
# 1 0.014306 -0.004422 0.001042 0.000000 -0.004982 0.000000
# 2 -0.004422 0.008433 -0.003240 0.000000 0.001102 0.000000
# 3 0.001042 -0.003240 0.015804 0.000000 -0.006274 0.000000
# 4 0.000000 0.000000 0.000000 -0.016996 0.000000 -0.029470
# 5 -0.004982 0.001102 -0.006274 0.000000 0.036063 0.000000
# 6 0.000000 0.000000 0.000000 -0.029470 0.000000 0.026408
#
#
# Mechanical properties :
#
#
# Convention : Reuss Voigt Hill
#
# Bulk Modulus (GPa) = 39.52112 55.01704 47.26908
# Shear Modulus (GPa) = 47.30676 20.14825 33.72751
#
# Velocity S-wave (km/s) = 4.89246 3.19290 4.13103
# Velocity P-wave (km/s) = 7.20498 6.43663 6.83162
#
# Compressibility (1/GPa) = 0.02530293
#
# Stress axis : x y z
#
# Youngs Moduli (GPa) = 69.89975 118.57852 63.27628
#
# Poissons Ratio (x) = 0.52431 -0.06593
# Poissons Ratio (y) = 0.30907 0.20504
# Poissons Ratio (z) = -0.07283 0.38425
#
# Static dielectric constant tensor:
#      x y z
#    x 3.498570 0.000000 0.227630 
#    y 0.000000 3.854020 0.000000 
#    z 0.227630 0.000000 3.399490 
# 
# 
# High freq. dielectric constant tensor:
#      x y z
#    x 1.783660 0.000000 0.009690 
#    y 0.000000 1.786380 0.000000 
#    z 0.009690 0.000000 1.743530 
# 
# From -- ./inp_files/125886.got.cif
#   From: 2010.06.25/outbox.cif.g09.slc.cpg/sg12_63_cif.got.tgz:125886.got - 2010.06.28 00:19:55.
