data_PCOD8114292
_publ_section_title
;
Structure prediction by ZEFSAII (Michael W. Deem and Ramdas Pophale) SiO2 
 PCOD8114292
Probable space group: C 2/M
;
_chemical_formula_sum "Si O2"
_cell_formula_units_Z 40
_cell_length_a 24.637378
_cell_length_b 8.679965
_cell_length_c 9.736046
_cell_angle_alpha 90.000000
_cell_angle_beta 77.365028
_cell_angle_gamma 90.000000
_cell_volume 2031.648244
_symmetry_space_group_name_H-M "C 2/M"
_symmetry_group_IT_number 12
_symmetry_cell_setting 'monoclinic'
loop_
_space_group_symop_operation_xyz
x,y,z
-x,y,-z
-x,-y,-z
x,-y,z
1/2+x,1/2+y,z
1/2-x,1/2+y,-z
1/2-x,1/2-y,-z
1/2+x,1/2-y,z
loop_
_atom_site_type_symbol
_atom_site_label
_atom_site_fract_x
_atom_site_fract_y
_atom_site_fract_z
Si Si1 0.911082 0.682619 0.901514
Si Si2 0.992429 0.316390 0.349021
Si Si3 0.769554 0.682785 0.347915
Si Si4 0.291064 0.182490 0.866822
Si Si5 0.393241 0.816811 0.215807
O O1 0.915943 0.500000 0.902035
O O2 0.853028 0.735416 0.868933
O O3 0.959616 0.750393 0.777717
O O4 0.915403 0.745361 0.055914
O O5 0.995541 0.500000 0.351966
O O6 0.933693 0.261124 0.316606
O O7 0.000000 0.250796 0.500000
O O8 0.769510 0.500000 0.349935
O O9 0.750000 0.750000 0.500000
O O10 0.723682 0.744780 0.269633
O O11 0.831123 0.746184 0.277114
O O12 0.285535 0.000000 0.865780
O O13 0.250000 0.250000 0.000000
O O14 0.391779 0.000000 0.211661
#
# Coordination Sequence:
#
# PCOD8114292 Si02
#       5
#     8   8   8   8   8
#     4   9  17  30  49  75 107 142 179 225 277 326
#     4   9  17  27  45  74 106 139 178 228 282 323
#     4  11  23  38  56  83 116 151 188 230 282 335
#     4  11  21  36  58  85 116 149 187 231 277 333
#     4   9  17  31  49  73 107 142 180 227 276 328
#
# _framework density 19.688445999999999
#
# number of rings (size 3 to 8) (size 9 to 14) (size 15 to 20)
#    0.000    2.200    2.000    1.800    2.800    2.400 
#    0.000    0.000    0.000    0.000    0.000    8.400 
#    0.000    0.000    0.000    0.000    0.000    0.000 
#
# Total GULP energy -247943.820865 kJ/mol
# GULP energy per Si atom -12397.191043 kJ/mol
# Density = 1.964363 g / cm^3
# Si number density = 19.688446 Si / 1000 Ang^3
#
#
#
# Elastic Constant Matrix: (Units=GPa)
#
#
# Indices 1 2 3 4 5 6 
#
# 1 128.7780 15.8057 70.6521 0.0000 14.7495 0.0000
# 2 15.8057 28.4641 11.4939 0.0000 4.2210 0.0000
# 3 70.6521 11.4939 177.8508 0.0000 17.5521 0.0000
# 4 0.0000 0.0000 0.0000 24.9431 0.0000 1.7010
# 5 14.7495 4.2210 17.5521 0.0000 42.6212 0.0000
# 6 0.0000 0.0000 0.0000 1.7010 0.0000 21.0922
#
#
#
# Elastic Compliance Matrix: (Units=1/GPa)
#
#
# Indices 1 2 3 4 5 6 
#
# 1 0.010515 -0.004075 -0.003747 0.000000 -0.001692 0.000000
# 2 -0.004075 0.037958 -0.000628 0.000000 -0.002090 0.000000
# 3 -0.003747 -0.000628 0.007315 0.000000 -0.001654 0.000000
# 4 0.000000 0.000000 0.000000 0.040313 0.000000 -0.003251
# 5 -0.001692 -0.002090 -0.001654 0.000000 0.024936 0.000000
# 6 0.000000 0.000000 0.000000 -0.003251 0.000000 0.047673
#
#
# Mechanical properties :
#
#
# Convention : Reuss Voigt Hill
#
# Bulk Modulus (GPa) = 25.71436 58.99959 42.35697
# Shear Modulus (GPa) = 25.17973 33.54071 29.36022
#
# Velocity S-wave (km/s) = 3.58006 4.13191 3.86585
# Velocity P-wave (km/s) = 5.49346 7.26604 6.44102
#
# Compressibility (1/GPa) = 0.03888878
#
# Stress axis : x y z
#
# Youngs Moduli (GPa) = 95.10377 26.34465 136.70777
#
# Poissons Ratio (x) = 0.10735 0.51220
# Poissons Ratio (y) = 0.38754 0.08586
# Poissons Ratio (z) = 0.35633 0.01655
#
# Static dielectric constant tensor:
#      x y z
#    x 3.728850 0.000000 0.020280 
#    y 0.000000 3.017020 0.000000 
#    z 0.020280 0.000000 4.003070 
# 
# 
# High freq. dielectric constant tensor:
#      x y z
#    x 1.783230 0.000000 0.004750 
#    y 0.000000 1.703850 0.000000 
#    z 0.004750 0.000000 1.785830 
# 
# From -- ./inp_files/92778.got.cif
#   From: 2010.06.25/outbox.cif.g09.slc.cpg/sg12_47_cif.got.tgz:92778.got - 2010.06.28 00:19:55.
