data_PCOD8114374
_publ_section_title
;
Structure prediction by ZEFSAII (Michael W. Deem and Ramdas Pophale) SiO2 
 PCOD8114374
Probable space group: C 2/M
;
_chemical_formula_sum "Si O2"
_cell_formula_units_Z 40
_cell_length_a 9.864467
_cell_length_b 25.813381
_cell_length_c 12.569755
_cell_angle_alpha 90.000000
_cell_angle_beta 35.671218
_cell_angle_gamma 90.000000
_cell_volume 1866.435960
_symmetry_space_group_name_H-M "C 2/M"
_symmetry_group_IT_number 12
_symmetry_cell_setting 'monoclinic'
loop_
_space_group_symop_operation_xyz
x,y,z
-x,y,-z
-x,-y,-z
x,-y,z
1/2+x,1/2+y,z
1/2-x,1/2+y,-z
1/2-x,1/2-y,-z
1/2+x,1/2-y,z
loop_
_atom_site_type_symbol
_atom_site_label
_atom_site_fract_x
_atom_site_fract_y
_atom_site_fract_z
Si Si1 0.255273 0.558562 0.715764
Si Si2 0.694147 0.559129 0.792596
Si Si3 0.318065 0.699161 0.020329
Si Si4 0.508092 0.384068 0.259162
Si Si5 0.442668 0.124902 0.333942
O O1 0.500000 0.556106 0.500000
O O2 0.169292 0.500000 0.795669
O O3 0.278491 0.592588 0.808796
O O4 0.066285 0.587631 0.763692
O O5 0.761677 0.500000 0.768946
O O6 0.599075 0.566759 0.734473
O O7 0.922893 0.593562 0.660436
O O8 0.500000 0.578672 0.000000
O O9 0.420781 0.659130 0.870098
O O10 0.500000 0.710591 0.000000
O O11 0.250000 0.750000 0.000000
O O12 0.078705 0.677524 0.221450
O O13 0.313318 0.359783 0.461759
#
# Coordination Sequence:
#
# PCOD8114374 Si02
#       5
#     8   8   8   8   8
#     4   9  20  37  61  98 136 171 210 245 295 374
#     4  11  21  37  63  97 133 171 211 250 307 383
#     4  12  28  48  67  94 122 158 217 276 329 386
#     4  11  22  42  67  93 130 168 208 260 314 373
#     4  11  22  42  67  93 130 168 208 260 314 373
#
# _framework density 21.431218999999999
#
# number of rings (size 3 to 8) (size 9 to 14) (size 15 to 20)
#    0.000    1.200    4.000    1.800    2.800    4.000 
#    0.000    1.000    0.000    0.000    0.000    0.000 
#    0.000    0.000    0.000    0.000    0.000    0.000 
#
# Total GULP energy -248045.020450 kJ/mol
# GULP energy per Si atom -12402.251023 kJ/mol
# Density = 2.138244 g / cm^3
# Si number density = 21.431219 Si / 1000 Ang^3
#
#
#
# Elastic Constant Matrix: (Units=GPa)
#
#
# Indices 1 2 3 4 5 6 
#
# 1 140.9778 54.0835 8.6330 0.0000 14.7463 0.0000
# 2 54.0835 111.3407 22.9905 0.0000 7.1243 0.0000
# 3 8.6330 22.9905 59.6322 0.0000 11.5062 0.0000
# 4 0.0000 0.0000 0.0000 9.2247 0.0000 5.0636
# 5 14.7463 7.1243 11.5062 0.0000 27.7147 0.0000
# 6 0.0000 0.0000 0.0000 5.0636 0.0000 43.5810
#
#
#
# Elastic Compliance Matrix: (Units=1/GPa)
#
#
# Indices 1 2 3 4 5 6 
#
# 1 0.009161 -0.004426 0.001197 0.000000 -0.004233 0.000000
# 2 -0.004426 0.011924 -0.004152 0.000000 0.001014 0.000000
# 3 0.001197 -0.004152 0.019691 0.000000 -0.007745 0.000000
# 4 0.000000 0.000000 0.000000 0.115790 0.000000 -0.013453
# 5 -0.004233 0.001014 -0.007745 0.000000 0.041289 0.000000
# 6 0.000000 0.000000 0.000000 -0.013453 0.000000 0.024509
#
#
# Mechanical properties :
#
#
# Convention : Reuss Voigt Hill
#
# Bulk Modulus (GPa) = 38.44084 53.70718 46.07401
# Shear Modulus (GPa) = 20.34197 31.18700 25.76448
#
# Velocity S-wave (km/s) = 3.08421 3.81886 3.47103
# Velocity P-wave (km/s) = 5.53705 6.67530 6.13264
#
# Compressibility (1/GPa) = 0.02601400
#
# Stress axis : x y z
#
# Youngs Moduli (GPa) = 109.16033 83.86517 50.78396
#
# Poissons Ratio (x) = 0.37120 -0.06079
# Poissons Ratio (y) = 0.48316 0.21085
# Poissons Ratio (z) = -0.13067 0.34820
#
# Static dielectric constant tensor:
#      x y z
#    x 4.138880 0.000000 0.064250 
#    y 0.000000 3.765050 0.000000 
#    z 0.064250 0.000000 3.856800 
# 
# 
# High freq. dielectric constant tensor:
#      x y z
#    x 1.858070 0.000000 0.005130 
#    y 0.000000 1.820330 0.000000 
#    z 0.005130 0.000000 1.842880 
# 
# From -- ./inp_files/40302.got.cif
#   From: 2010.06.25/outbox.cif.g09.slc.cpg/sg12_21_cif.got.tgz:40302.got - 2010.06.28 00:19:55.
