data_PCOD8114898
_publ_section_title
;
Structure prediction by ZEFSAII (Michael W. Deem and Ramdas Pophale) SiO2 
 PCOD8114898
Probable space group: C 2/M
;
_chemical_formula_sum "Si O2"
_cell_formula_units_Z 40
_cell_length_a 14.265517
_cell_length_b 8.266449
_cell_length_c 27.355889
_cell_angle_alpha 90.000000
_cell_angle_beta 36.969577
_cell_angle_gamma 90.000000
_cell_volume 1940.055594
_symmetry_space_group_name_H-M "C 2/M"
_symmetry_group_IT_number 12
_symmetry_cell_setting 'monoclinic'
loop_
_space_group_symop_operation_xyz
x,y,z
-x,y,-z
-x,-y,-z
x,-y,z
1/2+x,1/2+y,z
1/2-x,1/2+y,-z
1/2-x,1/2-y,-z
1/2+x,1/2-y,z
loop_
_atom_site_type_symbol
_atom_site_label
_atom_site_fract_x
_atom_site_fract_y
_atom_site_fract_z
Si Si1 0.734801 0.312297 0.926159
Si Si2 0.321305 0.312963 0.621383
Si Si3 0.153308 0.687372 0.494642
Si Si4 0.926670 0.187424 0.201974
Si Si5 0.066132 0.312526 0.904696
O O1 0.767338 0.500000 0.924089
O O2 0.665387 0.294414 0.900815
O O3 0.892103 0.211511 0.863207
O O4 0.614929 0.240035 0.015974
O O5 0.357040 0.500000 0.614987
O O6 0.469191 0.213479 0.580004
O O7 0.291457 0.282139 0.576567
O O8 0.167382 0.261028 0.713867
O O9 0.187655 0.500000 0.472186
O O10 0.250000 0.750000 0.500000
O O11 0.873909 0.278953 0.174741
O O12 0.888379 0.000000 0.212102
O O13 0.085813 0.500000 0.910022
#
# Coordination Sequence:
#
# PCOD8114898 Si02
#       5
#     8   8   8   8   8
#     4  11  22  39  60  86 117 156 200 246 294 349
#     4  11  23  41  62  91 122 153 194 243 291 349
#     4  11  22  41  66  92 120 157 194 235 288 348
#     4  12  24  40  60  87 120 157 196 244 296 348
#     4  11  22  39  60  86 117 156 200 246 294 349
#
# _framework density 20.617965000000002
#
# number of rings (size 3 to 8) (size 9 to 14) (size 15 to 20)
#    0.000    0.800    0.000   12.000    0.000    1.600 
#    0.000    8.000    0.000    0.000    0.000    0.000 
#    0.000    0.000    0.000    0.000    0.000    0.000 
#
# Total GULP energy -248153.665169 kJ/mol
# GULP energy per Si atom -12407.683258 kJ/mol
# Density = 2.057104 g / cm^3
# Si number density = 20.617965 Si / 1000 Ang^3
#
#
#
# Elastic Constant Matrix: (Units=GPa)
#
#
# Indices 1 2 3 4 5 6 
#
# 1 91.1781 6.5726 33.7230 0.0000 6.2043 0.0004
# 2 6.5726 111.7053 16.0846 0.0003 4.9795 0.0007
# 3 33.7230 16.0846 84.7492 0.0001 21.1901 -0.0001
# 4 0.0000 0.0003 0.0001 34.5902 0.0000 0.6712
# 5 6.2043 4.9795 21.1901 0.0000 17.0451 0.0000
# 6 0.0004 0.0007 -0.0001 0.6712 0.0000 36.1147
#
#
#
# Elastic Compliance Matrix: (Units=1/GPa)
#
#
# Indices 1 2 3 4 5 6 
#
# 1 0.012931 -0.000042 -0.005751 0.000000 0.002455 0.000000
# 2 -0.000042 0.009210 -0.001542 0.000000 -0.000759 0.000000
# 3 -0.005751 -0.001542 0.019944 0.000000 -0.022250 0.000000
# 4 0.000000 0.000000 0.000000 0.028920 0.000000 -0.000538
# 5 0.002455 -0.000759 -0.022250 0.000000 0.085656 0.000000
# 6 0.000000 0.000000 0.000000 -0.000538 0.000000 0.027700
#
#
# Mechanical properties :
#
#
# Convention : Reuss Voigt Hill
#
# Bulk Modulus (GPa) = 36.47630 44.48812 40.48221
# Shear Modulus (GPa) = 24.01889 32.96682 28.49286
#
# Velocity S-wave (km/s) = 3.41684 4.00301 3.72148
# Velocity P-wave (km/s) = 5.77029 6.55665 6.17600
#
# Compressibility (1/GPa) = 0.02741506
#
# Stress axis : x y z
#
# Youngs Moduli (GPa) = 77.33559 108.57285 50.14077
#
# Poissons Ratio (x) = 0.00458 0.28837
# Poissons Ratio (y) = 0.00326 0.07729
# Poissons Ratio (z) = 0.44478 0.16737
#
# Static dielectric constant tensor:
#      x y z
#    x 3.591740 0.000000 0.119590 
#    y 0.000000 3.891650 0.000000 
#    z 0.119590 0.000000 3.745440 
# 
# 
# High freq. dielectric constant tensor:
#      x y z
#    x 1.811800 0.000000 0.006640 
#    y 0.000000 1.826810 0.000000 
#    z 0.006640 0.000000 1.802100 
# 
# From -- ./inp_files/375239.got.cif
#   From: 2010.06.25/outbox.cif.g09.slc.cpg/sg12_188_cif.got.tgz:375239.got - 2010.06.28 00:19:55.
