data_PCOD8114936
_publ_section_title
;
Structure prediction by ZEFSAII (Michael W. Deem and Ramdas Pophale) SiO2 
 PCOD8114936
Probable space group: C 2/M
;
_chemical_formula_sum "Si O2"
_cell_formula_units_Z 48
_cell_length_a 11.759369
_cell_length_b 23.814836
_cell_length_c 9.588342
_cell_angle_alpha 90.000000
_cell_angle_beta 111.358727
_cell_angle_gamma 90.000000
_cell_volume 2500.767515
_symmetry_space_group_name_H-M "C 2/M"
_symmetry_group_IT_number 12
_symmetry_cell_setting 'monoclinic'
loop_
_space_group_symop_operation_xyz
x,y,z
-x,y,-z
-x,-y,-z
x,-y,z
1/2+x,1/2+y,z
1/2-x,1/2+y,-z
1/2-x,1/2-y,-z
1/2+x,1/2-y,z
loop_
_atom_site_type_symbol
_atom_site_label
_atom_site_fract_x
_atom_site_fract_y
_atom_site_fract_z
Si Si1 0.931996 0.500000 0.257498
Si Si2 0.737842 0.691435 0.916238
Si Si3 0.816017 0.500000 0.508491
Si Si4 0.518756 0.303493 0.347146
Si Si5 0.737384 0.619775 0.435659
Si Si6 0.647081 0.119649 0.815224
Si Si7 0.398670 0.812712 0.723775
O O1 0.881678 0.500000 0.390200
O O2 0.885068 0.555600 0.157588
O O3 0.079400 0.500000 0.326021
O O4 0.609256 0.685596 0.783459
O O5 0.847419 0.684292 0.856483
O O6 0.750000 0.750000 0.000000
O O7 0.748536 0.641358 0.033680
O O8 0.733173 0.555442 0.487235
O O9 0.500000 0.289295 0.500000
O O10 0.598557 0.359570 0.361111
O O11 0.591165 0.252362 0.310735
O O12 0.807530 0.624526 0.321839
O O13 0.806956 0.657891 0.577234
O O14 0.529753 0.158767 0.777627
#
# Coordination Sequence:
#
# PCOD8114936 Si02
#       7
#     4   8   4   8   8   8   8
#     4   9  18  36  63  92 126 156 201 258 308 359
#     4  12  26  42  59  90 131 165 201 250 312 369
#     4   9  18  36  63  95 118 159 209 253 300 358
#     4  12  25  41  63  89 126 167 205 245 306 376
#     4  11  22  40  66  91 123 161 210 254 298 368
#     4  11  22  39  65  95 123 158 205 259 312 355
#     4  12  23  39  64  92 125 159 205 255 305 370
#
# _framework density 19.194108
#
# number of rings (size 3 to 8) (size 9 to 14) (size 15 to 20)
#    0.000    0.833    5.000    3.500    0.000    2.000 
#    0.000    3.750    0.000    3.000    0.000    0.000 
#    0.000    0.000    0.000    0.000    0.000    0.000 
#
# Total GULP energy -297700.446207 kJ/mol
# GULP energy per Si atom -12404.185259 kJ/mol
# Density = 1.915042 g / cm^3
# Si number density = 19.194108 Si / 1000 Ang^3
#
#
#
# Elastic Constant Matrix: (Units=GPa)
#
#
# Indices 1 2 3 4 5 6 
#
# 1 62.1402 25.1333 23.9346 0.0000 8.1717 0.0000
# 2 25.1333 136.7827 43.4661 0.0000 12.7985 0.0000
# 3 23.9346 43.4661 103.9166 0.0000 13.0185 0.0000
# 4 0.0000 0.0000 0.0000 36.1802 0.0000 10.4240
# 5 8.1717 12.7985 13.0185 0.0000 41.9106 0.0000
# 6 0.0000 0.0000 0.0000 10.4240 0.0000 37.2995
#
#
#
# Elastic Compliance Matrix: (Units=1/GPa)
#
#
# Indices 1 2 3 4 5 6 
#
# 1 0.018434 -0.002229 -0.003068 0.000000 -0.001961 0.000000
# 2 -0.002229 0.008798 -0.003001 0.000000 -0.001320 0.000000
# 3 -0.003068 -0.003001 0.011857 0.000000 -0.002168 0.000000
# 4 0.000000 0.000000 0.000000 0.030060 0.000000 -0.008401
# 5 -0.001961 -0.001320 -0.002168 0.000000 0.025319 0.000000
# 6 0.000000 0.000000 0.000000 -0.008401 0.000000 0.029158
#
#
# Mechanical properties :
#
#
# Convention : Reuss Voigt Hill
#
# Bulk Modulus (GPa) = 44.45972 54.21195 49.33584
# Shear Modulus (GPa) = 33.84841 37.09842 35.47342
#
# Velocity S-wave (km/s) = 4.20394 4.40113 4.30366
# Velocity P-wave (km/s) = 6.83942 7.35745 7.10315
#
# Compressibility (1/GPa) = 0.02249227
#
# Stress axis : x y z
#
# Youngs Moduli (GPa) = 54.24891 113.66766 84.34076
#
# Poissons Ratio (x) = 0.25334 0.25874
# Poissons Ratio (y) = 0.12091 0.25312
# Poissons Ratio (z) = 0.16643 0.34114
#
# Static dielectric constant tensor:
#      x y z
#    x 3.534740 0.000000 0.093490 
#    y 0.000000 3.840540 0.000000 
#    z 0.093490 0.000000 3.705200 
# 
# 
# High freq. dielectric constant tensor:
#      x y z
#    x 1.741640 0.000000 0.002680 
#    y 0.000000 1.753150 0.000000 
#    z 0.002680 0.000000 1.750780 
# 
# From -- ./inp_files/51368.got.cif
#   From: 2010.06.25/outbox.cif.g09.slc.cpg/sg12_26_cif.got.tgz:51368.got - 2010.06.28 00:19:55.
