data_PCOD8114753
_publ_section_title
;
Structure prediction by ZEFSAII (Michael W. Deem and Ramdas Pophale) SiO2 
 PCOD8114753
Probable space group: C 2/M
;
_chemical_formula_sum "Si O2"
_cell_formula_units_Z 64
_cell_length_a 30.529214
_cell_length_b 13.553264
_cell_length_c 11.956622
_cell_angle_alpha 90.000000
_cell_angle_beta 140.799047
_cell_angle_gamma 90.000000
_cell_volume 3126.900712
_symmetry_space_group_name_H-M "C 2/M"
_symmetry_group_IT_number 12
_symmetry_cell_setting 'monoclinic'
loop_
_space_group_symop_operation_xyz
x,y,z
-x,y,-z
-x,-y,-z
x,-y,z
1/2+x,1/2+y,z
1/2-x,1/2+y,-z
1/2-x,1/2-y,-z
1/2+x,1/2-y,z
loop_
_atom_site_type_symbol
_atom_site_label
_atom_site_fract_x
_atom_site_fract_y
_atom_site_fract_z
Si Si1 0.788355 0.616984 0.031885
Si Si2 0.510295 0.609404 0.151771
Si Si3 0.281738 0.390575 0.893338
Si Si4 0.716109 0.115389 0.230622
Si Si5 0.621921 0.720750 0.082749
Si Si6 0.866376 0.609506 0.514029
Si Si7 0.929320 0.383181 0.409611
Si Si8 0.850828 0.198788 0.611316
O O1 0.790993 0.500000 0.058646
O O2 0.764764 0.640894 0.859633
O O3 0.731712 0.658169 0.009793
O O4 0.865299 0.659078 0.209521
O O5 0.494257 0.500000 0.169292
O O6 0.589934 0.636442 0.336184
O O7 0.500000 0.608764 0.000000
O O8 0.458355 0.693011 0.098592
O O9 0.313622 0.500000 0.966429
O O10 0.334722 0.325213 0.931243
O O11 0.209212 0.394549 0.687402
O O12 0.641183 0.162636 0.115488
O O13 0.775582 0.164535 0.422901
O O14 0.710683 0.000000 0.243404
O O15 0.645646 0.678238 0.249586
O O16 0.886249 0.500000 0.598838
O O17 0.919783 0.643636 0.522096
O O18 0.866262 0.686140 0.616534
O O19 0.932326 0.500000 0.402665
O O20 0.000000 0.335590 0.500000
#
# Coordination Sequence:
#
# PCOD8114753 Si02
#       8
#     8   8   8   8   8   8   8   8
#     4   8  17  33  51  78 113 145 183 232 288 343
#     4   9  20  39  61  80 107 149 192 237 280 327
#     4   9  17  33  57  82 109 139 186 242 282 323
#     4  11  23  37  56  84 120 156 182 231 302 350
#     4  11  22  37  57  87 108 145 202 245 272 334
#     4   9  18  32  53  82 113 147 184 234 289 328
#     4   8  14  28  51  77 107 145 190 234 271 326
#     4  11  22  39  56  84 119 150 195 235 282 354
#
# _framework density 20.467549000000002
#
# number of rings (size 3 to 8) (size 9 to 14) (size 15 to 20)
#    0.000    2.500    1.250    2.625    0.000    3.500 
#    0.000    1.875    0.000    2.250    0.000    3.500 
#    0.000    0.000    0.000    0.000    0.000    0.000 
#
# Total GULP energy -396582.286140 kJ/mol
# GULP energy per Si atom -12393.196442 kJ/mol
# Density = 2.042096 g / cm^3
# Si number density = 20.467549 Si / 1000 Ang^3
#
#
#
# Elastic Constant Matrix: (Units=GPa)
#
#
# Indices 1 2 3 4 5 6 
#
# 1 89.4292 33.6056 11.5235 0.0000 15.1133 0.0000
# 2 33.6056 84.5797 14.2481 0.0000 10.8024 0.0000
# 3 11.5235 14.2481 32.0753 0.0000 4.4438 0.0000
# 4 0.0000 0.0000 0.0000 20.3187 0.0000 3.4251
# 5 15.1133 10.8024 4.4438 0.0000 28.8471 0.0000
# 6 0.0000 0.0000 0.0000 3.4251 0.0000 29.4276
#
#
#
# Elastic Compliance Matrix: (Units=1/GPa)
#
#
# Indices 1 2 3 4 5 6 
#
# 1 0.014080 -0.004525 -0.002311 0.000000 -0.005326 0.000000
# 2 -0.004525 0.014701 -0.004568 0.000000 -0.002431 0.000000
# 3 -0.002311 -0.004568 0.034365 0.000000 -0.002373 0.000000
# 4 0.000000 0.000000 0.000000 0.050201 0.000000 -0.005843
# 5 -0.005326 -0.002431 -0.002373 0.000000 0.038732 0.000000
# 6 0.000000 0.000000 0.000000 -0.005843 0.000000 0.034662
#
#
# Mechanical properties :
#
#
# Convention : Reuss Voigt Hill
#
# Bulk Modulus (GPa) = 24.78992 36.09320 30.44156
# Shear Modulus (GPa) = 22.42220 25.49915 23.96067
#
# Velocity S-wave (km/s) = 3.31342 3.53347 3.42521
# Velocity P-wave (km/s) = 5.17460 5.85831 5.52704
#
# Compressibility (1/GPa) = 0.04033898
#
# Stress axis : x y z
#
# Youngs Moduli (GPa) = 71.02130 68.02267 29.09979
#
# Poissons Ratio (x) = 0.30780 0.06724
# Poissons Ratio (y) = 0.32137 0.13292
# Poissons Ratio (z) = 0.16410 0.31072
#
# Static dielectric constant tensor:
#      x y z
#    x 4.135400 0.000000 0.124610 
#    y 0.000000 3.901390 0.000000 
#    z 0.124610 0.000000 3.480920 
# 
# 
# High freq. dielectric constant tensor:
#      x y z
#    x 1.805320 0.000000 0.002400 
#    y 0.000000 1.793210 0.000000 
#    z 0.002400 0.000000 1.767740 
# 
# From -- ./inp_files/189495.got.cif
#   From: 2010.06.25/outbox.cif.g09.slc.cpg/sg12_95_cif.got.tgz:189495.got - 2010.06.28 00:19:55.
