data_PCOD8114677
_publ_section_title
;
Structure prediction by ZEFSAII (Michael W. Deem and Ramdas Pophale) SiO2 
 PCOD8114677
Probable space group: C 2/M
;
_chemical_formula_sum "Si O2"
_cell_formula_units_Z 64
_cell_length_a 14.865108
_cell_length_b 9.116260
_cell_length_c 24.962239
_cell_angle_alpha 90.000000
_cell_angle_beta 74.430314
_cell_angle_gamma 90.000000
_cell_volume 3258.607055
_symmetry_space_group_name_H-M "C 2/M"
_symmetry_group_IT_number 12
_symmetry_cell_setting 'monoclinic'
loop_
_space_group_symop_operation_xyz
x,y,z
-x,y,-z
-x,-y,-z
x,-y,z
1/2+x,1/2+y,z
1/2-x,1/2+y,-z
1/2-x,1/2-y,-z
1/2+x,1/2-y,z
loop_
_atom_site_type_symbol
_atom_site_label
_atom_site_fract_x
_atom_site_fract_y
_atom_site_fract_z
Si Si1 0.877854 0.826023 0.570881
Si Si2 0.038828 0.326066 0.161777
Si Si3 0.800037 0.824704 0.362730
Si Si4 0.586840 0.672945 0.553068
Si Si5 0.848673 0.674792 0.247958
Si Si6 0.270417 0.825417 0.817604
Si Si7 0.815664 0.838623 0.060193
Si Si8 0.112298 0.338162 0.041558
O O1 0.805176 0.735022 0.617961
O O2 0.870285 0.772614 0.510208
O O3 0.979286 0.779205 0.576758
O O4 0.859964 0.000000 0.579767
O O5 0.045609 0.500000 0.155516
O O6 0.123940 0.274667 0.186194
O O7 0.050419 0.262969 0.099045
O O8 0.942051 0.273637 0.202429
O O9 0.853268 0.766315 0.407148
O O10 0.852722 0.750765 0.304866
O O11 0.800999 0.000000 0.356977
O O12 0.590049 0.500000 0.551298
O O13 0.841863 0.500000 0.254886
O O14 0.759785 0.736853 0.230179
O O15 0.202359 0.775775 0.877288
O O16 0.264369 0.000000 0.808668
O O17 0.717938 0.844364 0.045164
O O18 0.858407 0.000000 0.058120
O O19 0.891780 0.746274 0.014489
O O20 0.074579 0.500000 0.035171
#
# Coordination Sequence:
#
# PCOD8114677 Si02
#       8
#     8   8   8   8   8   8   8   8
#     4   9  17  35  60  85 111 142 176 211 253 303
#     4   8  17  35  56  74  99 136 174 214 264 314
#     4  11  22  36  53  78 110 143 176 215 261 306
#     4   8  17  34  58  84 113 144 173 209 257 307
#     4  11  23  38  54  75 101 135 182 226 259 303
#     4   9  18  36  57  75 101 137 171 212 267 318
#     4   8  14  25  45  73 101 127 158 201 257 315
#     4   8  13  25  47  72  96 126 164 205 251 308
#
# _framework density 19.640294000000001
#
# number of rings (size 3 to 8) (size 9 to 14) (size 15 to 20)
#    0.000    3.000    0.000    3.375    0.000    1.500 
#    0.000   10.625    0.000    3.750    0.000    0.000 
#    0.000    0.000    0.000    0.000    0.000    0.000 
#
# Total GULP energy -396640.960293 kJ/mol
# GULP energy per Si atom -12395.030009 kJ/mol
# Density = 1.959559 g / cm^3
# Si number density = 19.640294 Si / 1000 Ang^3
#
#
#
# Elastic Constant Matrix: (Units=GPa)
#
#
# Indices 1 2 3 4 5 6 
#
# 1 54.2603 17.0701 25.2686 0.0000 -7.7491 0.0000
# 2 17.0701 57.3128 30.6791 0.0000 -4.4496 0.0000
# 3 25.2686 30.6791 90.5108 0.0000 -11.7240 0.0000
# 4 0.0000 0.0000 0.0000 32.9140 0.0000 -1.0899
# 5 -7.7491 -4.4496 -11.7240 0.0000 30.2773 0.0000
# 6 0.0000 0.0000 0.0000 -1.0899 0.0000 19.2520
#
#
#
# Elastic Compliance Matrix: (Units=1/GPa)
#
#
# Indices 1 2 3 4 5 6 
#
# 1 0.022225 -0.003995 -0.004411 0.000000 0.003393 0.000000
# 2 -0.003995 0.022037 -0.006388 0.000000 -0.000257 0.000000
# 3 -0.004411 -0.006388 0.014926 0.000000 0.003712 0.000000
# 4 0.000000 0.000000 0.000000 0.030439 0.000000 0.001723
# 5 0.003393 -0.000257 0.003712 0.000000 0.035296 0.000000
# 6 0.000000 0.000000 0.000000 0.001723 0.000000 0.052040
#
#
# Mechanical properties :
#
#
# Convention : Reuss Voigt Hill
#
# Bulk Modulus (GPa) = 33.78277 38.67992 36.23135
# Shear Modulus (GPa) = 23.10340 25.09307 24.09823
#
# Velocity S-wave (km/s) = 3.43348 3.57828 3.50663
# Velocity P-wave (km/s) = 5.74077 6.06704 5.90616
#
# Compressibility (1/GPa) = 0.02960089
#
# Stress axis : x y z
#
# Youngs Moduli (GPa) = 44.99378 45.37771 66.99786
#
# Poissons Ratio (x) = 0.18128 0.29554
# Poissons Ratio (y) = 0.17974 0.42796
# Poissons Ratio (z) = 0.19848 0.28986
#
# Static dielectric constant tensor:
#      x y z
#    x 3.546960 0.000000 0.088490 
#    y 0.000000 3.335390 0.000000 
#    z 0.088490 0.000000 3.841770 
# 
# 
# High freq. dielectric constant tensor:
#      x y z
#    x 1.757020 0.000000 -0.001020 
#    y 0.000000 1.734590 0.000000 
#    z -0.001020 0.000000 1.771110 
# 
# From -- ./inp_files/359773.got.cif
#   From: 2010.06.25/outbox.cif.g09.slc.cpg/sg12_180_cif.got.tgz:359773.got - 2010.06.28 00:19:55.
