data_PCOD8114532
_publ_section_title
;
Structure prediction by ZEFSAII (Michael W. Deem and Ramdas Pophale) SiO2 
 PCOD8114532
Probable space group: C 2/M
;
_chemical_formula_sum "Si O2"
_cell_formula_units_Z 48
_cell_length_a 17.674827
_cell_length_b 13.632678
_cell_length_c 8.932244
_cell_angle_alpha 90.000000
_cell_angle_beta 82.904473
_cell_angle_gamma 90.000000
_cell_volume 2135.787879
_symmetry_space_group_name_H-M "C 2/M"
_symmetry_group_IT_number 12
_symmetry_cell_setting 'monoclinic'
loop_
_space_group_symop_operation_xyz
x,y,z
-x,y,-z
-x,-y,-z
x,-y,z
1/2+x,1/2+y,z
1/2-x,1/2+y,-z
1/2-x,1/2-y,-z
1/2+x,1/2-y,z
loop_
_atom_site_type_symbol
_atom_site_label
_atom_site_fract_x
_atom_site_fract_y
_atom_site_fract_z
Si Si1 0.329008 0.308708 0.226535
Si Si2 0.896195 0.000000 0.373608
Si Si3 0.922713 0.000000 0.699812
Si Si4 0.170418 0.607861 0.294271
Si Si5 0.475409 0.139140 0.844485
Si Si6 0.932201 0.846790 0.929607
Si Si7 0.620305 0.890275 0.634297
O O1 0.362681 0.398985 0.315423
O O2 0.237784 0.317085 0.240457
O O3 0.342099 0.198905 0.283839
O O4 0.362992 0.314108 0.052088
O O5 0.877532 0.000000 0.555281
O O6 0.986554 0.000000 0.336302
O O7 0.895927 0.093647 0.802130
O O8 0.207271 0.500000 0.299330
O O9 0.109853 0.606077 0.174192
O O10 0.127960 0.637367 0.458095
O O11 0.478976 0.256393 0.848184
O O12 0.531667 0.102645 0.700910
O O13 0.500000 0.094869 0.000000
O O14 0.000000 0.906774 0.000000
O O15 0.656161 0.000000 0.656302
#
# Coordination Sequence:
#
# PCOD8114532 Si02
#       7
#     8   4   4   8   8   8   8
#     4  12  23  47  71 101 146 187 227 291 361 420
#     4  11  23  38  71 102 143 183 236 291 342 417
#     4  11  22  37  66 111 134 184 242 284 339 425
#     4  11  26  44  71 101 138 189 230 290 361 415
#     4  11  23  46  71 100 135 179 242 292 344 413
#     4  11  21  41  67 100 138 190 230 286 357 411
#     4  11  24  45  72 103 140 185 238 292 346 414
#
# _framework density 22.474143000000002
#
# number of rings (size 3 to 8) (size 9 to 14) (size 15 to 20)
#    0.000    0.833    5.833    2.250    2.333    3.333 
#    0.000    0.000    0.000    0.000    0.000    0.000 
#    0.000    0.000    0.000    0.000    0.000    0.000 
#
# Total GULP energy -297485.443877 kJ/mol
# GULP energy per Si atom -12395.226828 kJ/mol
# Density = 2.242299 g / cm^3
# Si number density = 22.474143 Si / 1000 Ang^3
#
#
#
# Elastic Constant Matrix: (Units=GPa)
#
#
# Indices 1 2 3 4 5 6 
#
# 1 120.2037 31.4487 41.4970 0.0000 -7.6018 0.0000
# 2 31.4487 145.1213 48.5696 0.0000 4.6413 0.0000
# 3 41.4970 48.5696 131.4390 0.0000 -10.5324 0.0000
# 4 0.0000 0.0000 0.0000 47.7293 0.0000 -37.1065
# 5 -7.6018 4.6413 -10.5324 0.0000 26.9855 0.0000
# 6 0.0000 0.0000 0.0000 -37.1065 0.0000 70.3461
#
#
#
# Elastic Compliance Matrix: (Units=1/GPa)
#
#
# Indices 1 2 3 4 5 6 
#
# 1 0.009621 -0.001354 -0.002375 0.000000 0.002016 0.000000
# 2 -0.001354 0.008230 -0.002847 0.000000 -0.002908 0.000000
# 3 -0.002375 -0.002847 0.009699 0.000000 0.003606 0.000000
# 4 0.000000 0.000000 0.000000 0.035516 0.000000 0.018734
# 5 0.002016 -0.002908 0.003606 0.000000 0.039532 0.000000
# 6 0.000000 0.000000 0.000000 0.018734 0.000000 0.024097
#
#
# Mechanical properties :
#
#
# Convention : Reuss Voigt Hill
#
# Bulk Modulus (GPa) = 69.45862 71.08829 70.27346
# Shear Modulus (GPa) = 34.56663 47.36210 40.96436
#
# Velocity S-wave (km/s) = 3.92607 4.59563 4.27398
# Velocity P-wave (km/s) = 7.17810 7.73689 7.46273
#
# Compressibility (1/GPa) = 0.01439706
#
# Stress axis : x y z
#
# Youngs Moduli (GPa) = 103.93793 121.50661 103.10465
#
# Poissons Ratio (x) = 0.16457 0.24492
# Poissons Ratio (y) = 0.14077 0.29350
# Poissons Ratio (z) = 0.24690 0.34588
#
# Static dielectric constant tensor:
#      x y z
#    x 3.822510 0.000000 -0.123570 
#    y 0.000000 4.198790 0.000000 
#    z -0.123570 0.000000 4.269040 
# 
# 
# High freq. dielectric constant tensor:
#      x y z
#    x 1.869130 0.000000 -0.013860 
#    y 0.000000 1.899500 0.000000 
#    z -0.013860 0.000000 1.888150 
# 
# From -- ./inp_files/73660.got.cif
#   From: 2010.06.25/outbox.cif.g09.slc.cpg/sg12_37_cif.got.tgz:73660.got - 2010.06.28 00:19:55.
