data_PCOD8114744
_publ_section_title
;
Structure prediction by ZEFSAII (Michael W. Deem and Ramdas Pophale) SiO2 
 PCOD8114744
Probable space group: C 2/M
;
_chemical_formula_sum "Si O2"
_cell_formula_units_Z 48
_cell_length_a 14.981972
_cell_length_b 8.388722
_cell_length_c 26.635466
_cell_angle_alpha 90.000000
_cell_angle_beta 134.876180
_cell_angle_gamma 90.000000
_cell_volume 2372.174313
_symmetry_space_group_name_H-M "C 2/M"
_symmetry_group_IT_number 12
_symmetry_cell_setting 'monoclinic'
loop_
_space_group_symop_operation_xyz
x,y,z
-x,y,-z
-x,-y,-z
x,-y,z
1/2+x,1/2+y,z
1/2-x,1/2+y,-z
1/2-x,1/2-y,-z
1/2+x,1/2-y,z
loop_
_atom_site_type_symbol
_atom_site_label
_atom_site_fract_x
_atom_site_fract_y
_atom_site_fract_z
Si Si1 0.122031 0.184872 0.926185
Si Si2 0.804084 0.311701 0.429686
Si Si3 0.978945 0.813577 0.678392
Si Si4 0.155793 0.317085 0.832495
Si Si5 0.076352 0.314207 0.079384
Si Si6 0.017716 0.688862 0.587727
O O1 0.122678 0.207899 0.866860
O O2 0.004161 0.277573 0.903037
O O3 0.109302 0.000000 0.934209
O O4 0.250000 0.250000 0.000000
O O5 0.802425 0.500000 0.432175
O O6 0.663196 0.243841 0.377385
O O7 0.865610 0.260724 0.401273
O O8 0.888722 0.250781 0.509894
O O9 0.055998 0.715881 0.749642
O O10 0.037651 0.782573 0.647175
O O11 0.984585 0.000000 0.693644
O O12 0.148126 0.500000 0.846136
O O13 0.294125 0.281332 0.866173
O O14 0.108385 0.500000 0.089242
O O15 0.000000 0.258147 0.000000
O O16 0.015474 0.500000 0.596611
#
# Coordination Sequence:
#
# PCOD8114744 Si02
#       6
#     8   8   8   8   8   8
#     4  12  24  41  66  94 123 157 198 247 301 362
#     4   8  17  34  59  85 115 156 199 244 296 359
#     4  11  22  37  56  84 122 158 196 248 309 364
#     4  12  26  43  62  88 122 164 209 254 307 363
#     4  11  23  41  67  94 121 153 196 250 305 363
#     4   9  17  35  60  86 114 153 204 247 293 359
#
# _framework density 20.234598999999999
#
# number of rings (size 3 to 8) (size 9 to 14) (size 15 to 20)
#    0.000    1.500    1.667    5.500    0.000    2.000 
#    0.000    9.167    0.000    0.000    0.000    0.000 
#    0.000    0.000    0.000    0.000    0.000    0.000 
#
# Total GULP energy -297712.108271 kJ/mol
# GULP energy per Si atom -12404.671178 kJ/mol
# Density = 2.018854 g / cm^3
# Si number density = 20.234599 Si / 1000 Ang^3
#
#
#
# Elastic Constant Matrix: (Units=GPa)
#
#
# Indices 1 2 3 4 5 6 
#
# 1 110.1105 4.4702 39.2052 0.0000 -9.1505 0.0000
# 2 4.4702 62.0954 15.9159 0.0000 2.2954 0.0000
# 3 39.2052 15.9159 96.6027 0.0000 -13.5462 0.0000
# 4 0.0000 0.0000 0.0000 16.9571 0.0000 -4.7149
# 5 -9.1505 2.2954 -13.5462 0.0000 28.0230 0.0000
# 6 0.0000 0.0000 0.0000 -4.7149 0.0000 33.5924
#
#
#
# Elastic Compliance Matrix: (Units=1/GPa)
#
#
# Indices 1 2 3 4 5 6 
#
# 1 0.010677 0.000247 -0.004171 0.000000 0.001450 0.000000
# 2 0.000247 0.017045 -0.003318 0.000000 -0.002919 0.000000
# 3 -0.004171 -0.003318 0.013342 0.000000 0.005360 0.000000
# 4 0.000000 0.000000 0.000000 0.061367 0.000000 0.008613
# 5 0.001450 -0.002919 0.005360 0.000000 0.038989 0.000000
# 6 0.000000 0.000000 0.000000 0.008613 0.000000 0.030978
#
#
# Mechanical properties :
#
#
# Convention : Reuss Voigt Hill
#
# Bulk Modulus (GPa) = 37.62040 43.11014 40.36527
# Shear Modulus (GPa) = 25.54391 29.66231 27.60311
#
# Velocity S-wave (km/s) = 3.55686 3.83289 3.69745
# Velocity P-wave (km/s) = 5.95826 6.39839 6.18224
#
# Compressibility (1/GPa) = 0.02658133
#
# Stress axis : x y z
#
# Youngs Moduli (GPa) = 93.65730 58.66896 74.94892
#
# Poissons Ratio (x) = -0.01447 0.31258
# Poissons Ratio (y) = -0.02310 0.24866
# Poissons Ratio (z) = 0.39060 0.19465
#
# Static dielectric constant tensor:
#      x y z
#    x 4.000420 0.000000 0.041910 
#    y 0.000000 3.529060 0.000000 
#    z 0.041910 0.000000 3.849180 
# 
# 
# High freq. dielectric constant tensor:
#      x y z
#    x 1.802570 0.000000 0.001080 
#    y 0.000000 1.780570 0.000000 
#    z 0.001080 0.000000 1.787920 
# 
# From -- ./inp_files/375157.got.cif
#   From: 2010.06.25/outbox.cif.g09.slc.cpg/sg12_188_cif.got.tgz:375157.got - 2010.06.28 00:19:55.
