data_PCOD8114306
_publ_section_title
;
Structure prediction by ZEFSAII (Michael W. Deem and Ramdas Pophale) SiO2 
 PCOD8114306
Probable space group: C 2/M
;
_chemical_formula_sum "Si O2"
_cell_formula_units_Z 56
_cell_length_a 20.374853
_cell_length_b 8.363821
_cell_length_c 22.076354
_cell_angle_alpha 90.000000
_cell_angle_beta 48.019495
_cell_angle_gamma 90.000000
_cell_volume 2796.617224
_symmetry_space_group_name_H-M "C 2/M"
_symmetry_group_IT_number 12
_symmetry_cell_setting 'monoclinic'
loop_
_space_group_symop_operation_xyz
x,y,z
-x,y,-z
-x,-y,-z
x,-y,z
1/2+x,1/2+y,z
1/2-x,1/2+y,-z
1/2-x,1/2-y,-z
1/2+x,1/2-y,z
loop_
_atom_site_type_symbol
_atom_site_label
_atom_site_fract_x
_atom_site_fract_y
_atom_site_fract_z
Si Si1 0.570134 0.687305 0.243843
Si Si2 0.689923 0.685584 0.732578
Si Si3 0.498763 0.816316 0.837017
Si Si4 0.077389 0.815052 0.996564
Si Si5 0.493007 0.186945 0.596559
Si Si6 0.133886 0.186598 0.423924
Si Si7 0.263974 0.815983 0.168011
O O1 0.557760 0.500000 0.239880
O O2 0.547691 0.783671 0.197721
O O3 0.504125 0.745788 0.337293
O O4 0.669369 0.733663 0.200645
O O5 0.676850 0.500000 0.727165
O O6 0.601636 0.776867 0.768934
O O7 0.766059 0.754937 0.642546
O O8 0.712485 0.707970 0.789068
O O9 0.451320 0.709094 0.916732
O O10 0.486811 0.000000 0.862525
O O11 0.098314 0.000000 0.972034
O O12 0.164834 0.713215 0.928720
O O13 0.000000 0.754591 0.000000
O O14 0.415938 0.279637 0.608377
O O15 0.587448 0.218630 0.507322
O O16 0.471315 0.000000 0.608758
O O17 0.130179 0.000000 0.440517
O O18 0.264433 0.000000 0.188499
#
# Coordination Sequence:
#
# PCOD8114306 Si02
#       7
#     8   8   8   8   8   8   8
#     4  11  24  43  64  91 129 167 207 255 314 373
#     4  12  23  39  63  93 126 162 208 258 311 368
#     4  12  26  43  65  91 125 166 209 255 314 376
#     4  11  23  40  64  93 125 162 207 257 311 366
#     4  11  21  36  60  92 127 164 207 256 311 365
#     4  11  21  36  60  92 126 163 209 258 308 361
#     4  11  23  39  65  94 123 162 208 257 309 368
#
# _framework density 20.024191999999999
#
# number of rings (size 3 to 8) (size 9 to 14) (size 15 to 20)
#    0.000    0.714    2.857    7.286    0.000    2.857 
#    0.000    0.714    0.000    0.000    0.000    0.000 
#    0.000    0.000    0.000    0.000    0.000    0.000 
#
# Total GULP energy -347444.171331 kJ/mol
# GULP energy per Si atom -12408.720405 kJ/mol
# Density = 1.997862 g / cm^3
# Si number density = 20.024192 Si / 1000 Ang^3
#
#
#
# Elastic Constant Matrix: (Units=GPa)
#
#
# Indices 1 2 3 4 5 6 
#
# 1 88.0902 22.6676 36.3584 -0.0001 0.3279 0.0000
# 2 22.6676 82.6131 7.6215 0.0000 -2.5728 0.0001
# 3 36.3584 7.6215 105.6804 -0.0001 -6.0263 0.0000
# 4 -0.0001 0.0000 -0.0001 37.2846 0.0000 -0.2919
# 5 0.3279 -2.5728 -6.0263 0.0000 34.4513 -0.0001
# 6 0.0000 0.0001 0.0000 -0.2919 -0.0001 28.7624
#
#
#
# Elastic Compliance Matrix: (Units=1/GPa)
#
#
# Indices 1 2 3 4 5 6 
#
# 1 0.014198 -0.003500 -0.004702 0.000000 -0.001219 0.000000
# 2 -0.003500 0.013068 0.000322 0.000000 0.001066 0.000000
# 3 -0.004702 0.000322 0.011172 0.000000 0.002023 0.000000
# 4 0.000000 0.000000 0.000000 0.026823 0.000000 0.000272
# 5 -0.001219 0.001066 0.002023 0.000000 0.029472 0.000000
# 6 0.000000 0.000000 0.000000 0.000272 0.000000 0.034770
#
#
# Mechanical properties :
#
#
# Convention : Reuss Voigt Hill
#
# Bulk Modulus (GPa) = 44.09176 45.51985 44.80581
# Shear Modulus (GPa) = 32.71798 34.08209 33.40003
#
# Velocity S-wave (km/s) = 4.04657 4.13006 4.08853
# Velocity P-wave (km/s) = 6.62571 6.74722 6.68674
#
# Compressibility (1/GPa) = 0.02267997
#
# Stress axis : x y z
#
# Youngs Moduli (GPa) = 70.43403 76.52077 89.50801
#
# Poissons Ratio (x) = 0.26781 0.42084
# Poissons Ratio (y) = 0.24650 -0.02885
# Poissons Ratio (z) = 0.33116 -0.02467
#
# Static dielectric constant tensor:
#      x y z
#    x 3.529600 0.000000 -0.172510 
#    y 0.000000 3.676380 0.000000 
#    z -0.172510 0.000000 3.816070 
# 
# 
# High freq. dielectric constant tensor:
#      x y z
#    x 1.760790 0.000000 -0.009970 
#    y 0.000000 1.797550 0.000000 
#    z -0.009970 0.000000 1.795840 
# 
# From -- ./inp_files/319650.got.cif
#   From: 2010.06.25/outbox.cif.g09.slc.cpg/sg12_160_cif.got.tgz:319650.got - 2010.06.28 00:19:55.
