data_PCOD8114150
_publ_section_title
;
Structure prediction by ZEFSAII (Michael W. Deem and Ramdas Pophale) SiO2 
 PCOD8114150
Probable space group: C 2/M
;
_chemical_formula_sum "Si O2"
_cell_formula_units_Z 48
_cell_length_a 17.811760
_cell_length_b 8.878326
_cell_length_c 31.437426
_cell_angle_alpha 90.000000
_cell_angle_beta 151.258880
_cell_angle_gamma 90.000000
_cell_volume 2390.546122
_symmetry_space_group_name_H-M "C 2/M"
_symmetry_group_IT_number 12
_symmetry_cell_setting 'monoclinic'
loop_
_space_group_symop_operation_xyz
x,y,z
-x,y,-z
-x,-y,-z
x,-y,z
1/2+x,1/2+y,z
1/2-x,1/2+y,-z
1/2-x,1/2-y,-z
1/2+x,1/2-y,z
loop_
_atom_site_type_symbol
_atom_site_label
_atom_site_fract_x
_atom_site_fract_y
_atom_site_fract_z
Si Si1 0.858814 0.822653 0.696851
Si Si2 0.652634 0.323074 0.666153
Si Si3 0.795163 0.827161 0.816080
Si Si4 0.898257 0.334094 0.491703
Si Si5 0.215542 0.821853 0.864120
Si Si6 0.347319 0.672910 0.011495
O O1 0.782328 0.732915 0.697562
O O2 0.774060 0.782476 0.609657
O O3 0.036684 0.771574 0.781308
O O4 0.840681 0.000000 0.697672
O O5 0.666118 0.500000 0.678068
O O6 0.678782 0.246797 0.724537
O O7 0.476696 0.281625 0.563610
O O8 0.782419 0.740063 0.853727
O O9 0.747418 0.000000 0.799333
O O10 0.971253 0.813582 0.886252
O O11 0.891497 0.500000 0.509672
O O12 0.000000 0.342423 0.500000
O O13 0.319094 0.754448 0.953002
O O14 0.232162 0.000000 0.872859
O O15 0.295235 0.500000 0.981742
O O16 0.250000 0.750000 0.000000
#
# Coordination Sequence:
#
# PCOD8114150 Si02
#       6
#     8   8   8   8   8   8
#     4   9  19  36  57  82 113 149 186 226 277 334
#     4  11  21  33  55  86 114 143 188 238 278 323
#     4  11  24  41  58  79 113 153 188 224 275 336
#     4   8  15  31  54  78 109 148 185 225 277 330
#     4  11  23  39  60  86 115 146 184 230 278 330
#     4  11  24  41  62  87 113 145 186 229 274 328
#
# _framework density 20.079094000000001
#
# number of rings (size 3 to 8) (size 9 to 14) (size 15 to 20)
#    0.000    1.833    0.000    5.500    0.000   13.000 
#    0.000    0.833    0.000    0.000    0.000    0.000 
#    0.000    0.000    0.000    0.000    0.000    0.000 
#
# Total GULP energy -297645.464814 kJ/mol
# GULP energy per Si atom -12401.894367 kJ/mol
# Density = 2.003339 g / cm^3
# Si number density = 20.079094 Si / 1000 Ang^3
#
#
#
# Elastic Constant Matrix: (Units=GPa)
#
#
# Indices 1 2 3 4 5 6 
#
# 1 58.8952 27.2596 12.7610 -0.0001 -23.7308 0.0001
# 2 27.2596 104.6165 39.2253 -0.0001 -11.4955 0.0003
# 3 12.7610 39.2253 96.3402 0.0000 -22.5797 0.0001
# 4 -0.0001 -0.0001 0.0000 30.4858 0.0000 -4.8136
# 5 -23.7308 -11.4955 -22.5797 0.0000 29.6273 0.0000
# 6 0.0001 0.0003 0.0001 -4.8136 0.0000 32.1302
#
#
#
# Elastic Compliance Matrix: (Units=1/GPa)
#
#
# Indices 1 2 3 4 5 6 
#
# 1 0.028605 -0.006503 0.004428 0.000000 0.023763 0.000000
# 2 -0.006503 0.012787 -0.005360 0.000000 -0.004332 0.000000
# 3 0.004428 -0.005360 0.014999 0.000000 0.012898 0.000000
# 4 0.000000 0.000000 0.000000 0.033597 0.000000 0.005033
# 5 0.023763 -0.004332 0.012898 0.000000 0.060935 0.000000
# 6 0.000000 0.000000 0.000000 0.005033 0.000000 0.031877
#
#
# Mechanical properties :
#
#
# Convention : Reuss Voigt Hill
#
# Bulk Modulus (GPa) = 24.08429 46.48266 35.28347
# Shear Modulus (GPa) = 23.63961 30.48907 27.06434
#
# Velocity S-wave (km/s) = 3.43494 3.90096 3.67534
# Velocity P-wave (km/s) = 5.26806 6.59469 5.96835
#
# Compressibility (1/GPa) = 0.04152085
#
# Stress axis : x y z
#
# Youngs Moduli (GPa) = 34.95944 78.20547 66.67231
#
# Poissons Ratio (x) = 0.50853 -0.29524
# Poissons Ratio (y) = 0.22733 0.35738
# Poissons Ratio (z) = -0.15481 0.41920
#
# Static dielectric constant tensor:
#      x y z
#    x 3.345930 0.000000 0.050800 
#    y 0.000000 3.688290 0.000000 
#    z 0.050800 0.000000 4.085860 
# 
# 
# High freq. dielectric constant tensor:
#      x y z
#    x 1.760960 0.000000 -0.005010 
#    y 0.000000 1.787250 0.000000 
#    z -0.005010 0.000000 1.803460 
# 
# From -- ./inp_files/274609.got.cif
#   From: 2010.06.25/outbox.cif.g09.slc.cpg/sg12_138_cif.got.tgz:274609.got - 2010.06.28 00:19:55.
