data_PCOD8114707
_publ_section_title
;
Structure prediction by ZEFSAII (Michael W. Deem and Ramdas Pophale) SiO2 
 PCOD8114707
Probable space group: C 2/M
;
_chemical_formula_sum "Si O2"
_cell_formula_units_Z 56
_cell_length_a 29.106867
_cell_length_b 8.612594
_cell_length_c 11.716520
_cell_angle_alpha 90.000000
_cell_angle_beta 69.913217
_cell_angle_gamma 90.000000
_cell_volume 2758.505827
_symmetry_space_group_name_H-M "C 2/M"
_symmetry_group_IT_number 12
_symmetry_cell_setting 'monoclinic'
loop_
_space_group_symop_operation_xyz
x,y,z
-x,y,-z
-x,-y,-z
x,-y,z
1/2+x,1/2+y,z
1/2-x,1/2+y,-z
1/2-x,1/2-y,-z
1/2+x,1/2-y,z
loop_
_atom_site_type_symbol
_atom_site_label
_atom_site_fract_x
_atom_site_fract_y
_atom_site_fract_z
Si Si1 0.204767 0.818369 0.471137
Si Si2 0.665325 0.819688 0.881830
Si Si3 0.040168 0.320322 0.624077
Si Si4 0.883496 0.821131 0.287125
Si Si5 0.848367 0.180392 0.871284
Si Si6 0.068273 0.680068 0.347370
Si Si7 0.271319 0.181847 0.782406
O O1 0.250000 0.750000 0.500000
O O2 0.156143 0.782677 0.582589
O O3 0.199479 0.731739 0.355550
O O4 0.213157 0.000000 0.442821
O O5 0.626618 0.780586 0.816122
O O6 0.714525 0.722578 0.818907
O O7 0.678416 0.000000 0.867676
O O8 0.640713 0.774854 0.022733
O O9 0.052162 0.500000 0.633576
O O10 0.063778 0.221622 0.706079
O O11 0.061915 0.267237 0.483653
O O12 0.982206 0.290955 0.676859
O O13 0.882363 0.000000 0.251914
O O14 0.890062 0.215277 0.743627
O O15 0.795276 0.229989 0.869030
O O16 0.847161 0.000000 0.901670
O O17 0.083434 0.500000 0.327042
O O18 0.277344 0.000000 0.796457
#
# Coordination Sequence:
#
# PCOD8114707 Si02
#       7
#     8   8   8   8   8   8   8
#     4  11  22  36  57  86 121 158 195 241 293 347
#     4  12  25  42  62  83 115 158 203 247 296 354
#     4   9  19  37  64  93 122 156 193 240 294 352
#     4  11  23  38  58  88 124 158 197 243 296 353
#     4  12  25  41  61  87 119 155 199 246 298 353
#     4   9  19  39  64  92 122 153 196 243 293 348
#     4  12  24  40  61  87 120 157 201 248 295 351
#
# _framework density 20.300846
#
# number of rings (size 3 to 8) (size 9 to 14) (size 15 to 20)
#    0.000    1.143    1.429    6.857    0.000    5.143 
#    0.000    2.143    0.000    4.286    0.000    0.000 
#    0.000    0.000    0.000    0.000    0.000    0.000 
#
# Total GULP energy -347399.786732 kJ/mol
# GULP energy per Si atom -12407.135240 kJ/mol
# Density = 2.025464 g / cm^3
# Si number density = 20.300846 Si / 1000 Ang^3
#
#
#
# Elastic Constant Matrix: (Units=GPa)
#
#
# Indices 1 2 3 4 5 6 
#
# 1 96.4049 24.2133 23.0615 0.0000 18.9112 0.0000
# 2 24.2133 84.3879 22.9109 0.0000 6.7018 0.0000
# 3 23.0615 22.9109 72.6587 0.0000 14.9665 0.0000
# 4 0.0000 0.0000 0.0000 31.4195 0.0000 2.9146
# 5 18.9112 6.7018 14.9665 0.0000 27.8922 0.0000
# 6 0.0000 0.0000 0.0000 2.9146 0.0000 33.9435
#
#
#
# Elastic Compliance Matrix: (Units=1/GPa)
#
#
# Indices 1 2 3 4 5 6 
#
# 1 0.012861 -0.002640 -0.001781 0.000000 -0.007130 0.000000
# 2 -0.002640 0.013528 -0.003515 0.000000 0.000426 0.000000
# 3 -0.001781 -0.003515 0.016880 0.000000 -0.007005 0.000000
# 4 0.000000 0.000000 0.000000 0.032083 0.000000 -0.002755
# 5 -0.007130 0.000426 -0.007005 0.000000 0.044343 0.000000
# 6 0.000000 0.000000 0.000000 -0.002755 0.000000 0.029697
#
#
# Mechanical properties :
#
#
# Convention : Reuss Voigt Hill
#
# Bulk Modulus (GPa) = 36.50252 43.75809 40.13030
# Shear Modulus (GPa) = 28.67027 30.86875 29.76951
#
# Velocity S-wave (km/s) = 3.76209 3.90367 3.83354
# Velocity P-wave (km/s) = 6.07379 6.47455 6.27737
#
# Compressibility (1/GPa) = 0.02739537
#
# Stress axis : x y z
#
# Youngs Moduli (GPa) = 77.75643 73.91946 59.24292
#
# Poissons Ratio (x) = 0.19518 0.10550
# Poissons Ratio (y) = 0.20531 0.20827
# Poissons Ratio (z) = 0.13846 0.25986
#
# Static dielectric constant tensor:
#      x y z
#    x 3.651520 0.000000 0.076960 
#    y 0.000000 3.645760 0.000000 
#    z 0.076960 0.000000 3.773920 
# 
# 
# High freq. dielectric constant tensor:
#      x y z
#    x 1.794700 0.000000 0.011390 
#    y 0.000000 1.798250 0.000000 
#    z 0.011390 0.000000 1.788060 
# 
# From -- ./inp_files/180719.got.cif
#   From: 2010.06.25/outbox.cif.g09.slc.cpg/sg12_91_cif.got.tgz:180719.got - 2010.06.28 00:19:55.
