data_PCOD8114827
_publ_section_title
;
Structure prediction by ZEFSAII (Michael W. Deem and Ramdas Pophale) SiO2 
 PCOD8114827
Probable space group: C 2/M
;
_chemical_formula_sum "Si O2"
_cell_formula_units_Z 64
_cell_length_a 18.378503
_cell_length_b 19.148053
_cell_length_c 14.878182
_cell_angle_alpha 90.000000
_cell_angle_beta 39.683577
_cell_angle_gamma 90.000000
_cell_volume 3343.317820
_symmetry_space_group_name_H-M "C 2/M"
_symmetry_group_IT_number 12
_symmetry_cell_setting 'monoclinic'
loop_
_space_group_symop_operation_xyz
x,y,z
-x,y,-z
-x,-y,-z
x,-y,z
1/2+x,1/2+y,z
1/2-x,1/2+y,-z
1/2-x,1/2-y,-z
1/2+x,1/2-y,z
loop_
_atom_site_type_symbol
_atom_site_label
_atom_site_fract_x
_atom_site_fract_y
_atom_site_fract_z
Si Si1 0.278953 0.783957 0.110482
Si Si2 0.579877 0.785932 0.199348
Si Si3 0.507332 0.077837 0.348154
Si Si4 0.340887 0.420571 0.725914
Si Si5 0.685554 0.077513 0.338381
Si Si6 0.621268 0.686925 0.844618
Si Si7 0.138860 0.204173 0.618487
Si Si8 0.095883 0.079152 0.537114
O O1 0.169307 0.736830 0.190878
O O2 0.247862 0.865780 0.147524
O O3 0.332654 0.757960 0.153072
O O4 0.372917 0.772509 0.944656
O O5 0.546987 0.867526 0.235487
O O6 0.467682 0.741542 0.326734
O O7 0.600269 0.078047 0.337093
O O8 0.384686 0.100939 0.505783
O O9 0.499114 0.000000 0.313561
O O10 0.295253 0.500000 0.781641
O O11 0.355600 0.402751 0.607152
O O12 0.459613 0.412317 0.665621
O O13 0.791569 0.125747 0.215745
O O14 0.734067 0.000000 0.307378
O O15 0.610771 0.696312 0.749134
O O16 0.500000 0.664945 0.000000
O O17 0.250000 0.250000 0.500000
O O18 0.153505 0.129283 0.556175
O O19 0.128247 0.000000 0.532864
#
# Coordination Sequence:
#
# PCOD8114827 Si02
#       8
#     8   8   8   8   8   8   8   8
#     4  11  22  39  61  84 122 158 202 247 296 360
#     4  11  22  38  60  86 117 161 203 250 292 352
#     4   9  18  36  62  88 114 146 200 258 296 345
#     4   9  18  36  65  92 115 149 198 254 303 345
#     4   9  19  37  59  85 116 154 199 243 295 359
#     4  12  24  40  58  84 127 164 194 242 304 358
#     4  12  24  39  59  92 124 158 203 247 297 361
#     4   9  19  38  61  90 122 152 199 254 297 349
#
# _framework density 19.142661
#
# number of rings (size 3 to 8) (size 9 to 14) (size 15 to 20)
#    0.000    1.750    3.750    3.000    0.000    1.250 
#    0.000    0.625    0.000    1.125    0.000    0.000 
#    0.000    0.000    0.000    0.000    0.000    0.000 
#
# Total GULP energy -396798.743001 kJ/mol
# GULP energy per Si atom -12399.960719 kJ/mol
# Density = 1.909909 g / cm^3
# Si number density = 19.142661 Si / 1000 Ang^3
#
#
#
# Elastic Constant Matrix: (Units=GPa)
#
#
# Indices 1 2 3 4 5 6 
#
# 1 69.4774 36.1443 32.0520 0.0000 4.9498 0.0000
# 2 36.1443 123.7435 47.1587 0.0000 -5.6523 0.0000
# 3 32.0520 47.1587 90.5026 0.0000 -15.2274 0.0000
# 4 0.0000 0.0000 0.0000 30.3444 0.0000 3.7247
# 5 4.9498 -5.6523 -15.2274 0.0000 29.9800 0.0000
# 6 0.0000 0.0000 0.0000 3.7247 0.0000 32.1265
#
#
#
# Elastic Compliance Matrix: (Units=1/GPa)
#
#
# Indices 1 2 3 4 5 6 
#
# 1 0.019710 -0.003700 -0.006251 0.000000 -0.007127 0.000000
# 2 -0.003700 0.010798 -0.004232 0.000000 0.000497 0.000000
# 3 -0.006251 -0.004232 0.016957 0.000000 0.008847 0.000000
# 4 0.000000 0.000000 0.000000 0.033431 0.000000 -0.003876
# 5 -0.007127 0.000497 0.008847 0.000000 0.039120 0.000000
# 6 0.000000 0.000000 0.000000 -0.003876 0.000000 0.031576
#
#
# Mechanical properties :
#
#
# Convention : Reuss Voigt Hill
#
# Bulk Modulus (GPa) = 52.36444 57.15929 54.76187
# Shear Modulus (GPa) = 26.83483 29.71475 28.27479
#
# Velocity S-wave (km/s) = 3.74817 3.94417 3.84742
# Velocity P-wave (km/s) = 6.79308 7.11804 6.95746
#
# Compressibility (1/GPa) = 0.01909693
#
# Stress axis : x y z
#
# Youngs Moduli (GPa) = 50.73613 92.61252 58.97158
#
# Poissons Ratio (x) = 0.34268 0.36866
# Poissons Ratio (y) = 0.18773 0.24959
# Poissons Ratio (z) = 0.31717 0.39197
#
# Static dielectric constant tensor:
#      x y z
#    x 4.792150 0.000000 1.052580 
#    y 0.000000 3.754940 0.000000 
#    z 1.052580 0.000000 4.383430 
# 
# 
# High freq. dielectric constant tensor:
#      x y z
#    x 1.733280 0.000000 -0.003930 
#    y 0.000000 1.751830 0.000000 
#    z -0.003930 0.000000 1.737960 
# 
# From -- ./inp_files/226850.got.cif
#   From: 2010.06.25/outbox.cif.g09.slc.cpg/sg12_114_cif.got.tgz:226850.got - 2010.06.28 00:19:55.
