data_PCOD8114752
_publ_section_title
;
Structure prediction by ZEFSAII (Michael W. Deem and Ramdas Pophale) SiO2 
 PCOD8114752
Probable space group: C 2/M
;
_chemical_formula_sum "Si O2"
_cell_formula_units_Z 56
_cell_length_a 15.131882
_cell_length_b 8.645297
_cell_length_c 26.058915
_cell_angle_alpha 90.000000
_cell_angle_beta 126.432579
_cell_angle_gamma 90.000000
_cell_volume 2742.746073
_symmetry_space_group_name_H-M "C 2/M"
_symmetry_group_IT_number 12
_symmetry_cell_setting 'monoclinic'
loop_
_space_group_symop_operation_xyz
x,y,z
-x,y,-z
-x,-y,-z
x,-y,z
1/2+x,1/2+y,z
1/2-x,1/2+y,-z
1/2-x,1/2-y,-z
1/2+x,1/2-y,z
loop_
_atom_site_type_symbol
_atom_site_label
_atom_site_fract_x
_atom_site_fract_y
_atom_site_fract_z
Si Si1 0.457170 0.317096 0.063031
Si Si2 0.596054 0.682744 0.842587
Si Si3 0.642984 0.177457 0.487786
Si Si4 0.462747 0.182046 0.705840
Si Si5 0.727232 0.823101 0.627680
Si Si6 0.328339 0.683195 0.920450
Si Si7 0.443448 0.681067 0.361000
O O1 0.451981 0.500000 0.061466
O O2 0.426660 0.250264 0.108181
O O3 0.580194 0.266714 0.089688
O O4 0.369091 0.258847 0.990544
O O5 0.581081 0.500000 0.834857
O O6 0.507207 0.760487 0.775429
O O7 0.717895 0.728638 0.867173
O O8 0.750000 0.250000 0.500000
O O9 0.649011 0.188649 0.551197
O O10 0.537762 0.271630 0.433236
O O11 0.631722 0.000000 0.465729
O O12 0.345069 0.255847 0.653724
O O13 0.544932 0.232283 0.689075
O O14 0.450707 0.000000 0.702581
O O15 0.673979 0.726808 0.655694
O O16 0.740216 0.000000 0.649775
O O17 0.307544 0.500000 0.912387
O O18 0.448235 0.500000 0.352137
#
# Coordination Sequence:
#
# PCOD8114752 Si02
#       7
#     8   8   8   8   8   8   8
#     4   8  17  34  59  86 117 155 193 239 293 356
#     4  11  22  37  57  85 120 156 196 246 305 359
#     4  11  22  38  65  95 127 161 200 249 305 361
#     4  12  26  44  63  85 118 163 211 258 306 361
#     4  11  24  43  66  93 124 160 202 250 305 367
#     4   9  17  35  60  87 116 153 199 239 289 356
#     4  12  25  42  65  93 124 160 203 253 307 366
#
# _framework density 20.417494000000001
#
# number of rings (size 3 to 8) (size 9 to 14) (size 15 to 20)
#    0.000    1.429    1.429    5.571    0.000    4.571 
#    0.000    7.857    0.000    0.000    0.000    0.000 
#    0.000    0.000    0.000    0.000    0.000    0.000 
#
# Total GULP energy -347328.838716 kJ/mol
# GULP energy per Si atom -12404.601383 kJ/mol
# Density = 2.037102 g / cm^3
# Si number density = 20.417494 Si / 1000 Ang^3
#
#
#
# Elastic Constant Matrix: (Units=GPa)
#
#
# Indices 1 2 3 4 5 6 
#
# 1 81.7587 10.8131 15.8505 0.0000 -5.8148 0.0000
# 2 10.8131 68.7389 32.9495 0.0000 8.0583 0.0000
# 3 15.8505 32.9495 75.3466 0.0000 -3.4863 0.0000
# 4 0.0000 0.0000 0.0000 31.9940 0.0000 2.8127
# 5 -5.8148 8.0583 -3.4863 0.0000 21.0623 0.0000
# 6 0.0000 0.0000 0.0000 2.8127 0.0000 31.7865
#
#
#
# Elastic Compliance Matrix: (Units=1/GPa)
#
#
# Indices 1 2 3 4 5 6 
#
# 1 0.013086 -0.001628 -0.001859 0.000000 0.003928 0.000000
# 2 -0.001628 0.020228 -0.008951 0.000000 -0.009670 0.000000
# 3 -0.001859 -0.008951 0.017849 0.000000 0.005866 0.000000
# 4 0.000000 0.000000 0.000000 0.031501 0.000000 -0.002787
# 5 0.003928 -0.009670 0.005866 0.000000 0.053233 0.000000
# 6 0.000000 0.000000 0.000000 -0.002787 0.000000 0.031707
#
#
# Mechanical properties :
#
#
# Convention : Reuss Voigt Hill
#
# Bulk Modulus (GPa) = 38.04139 38.34115 38.19127
# Shear Modulus (GPa) = 24.84574 28.05066 26.44820
#
# Velocity S-wave (km/s) = 3.49217 3.71058 3.60303
# Velocity P-wave (km/s) = 5.91038 6.09731 6.00457
#
# Compressibility (1/GPa) = 0.02628716
#
# Stress axis : x y z
#
# Youngs Moduli (GPa) = 76.41635 49.43643 56.02620
#
# Poissons Ratio (x) = 0.08047 0.10417
# Poissons Ratio (y) = 0.12439 0.50148
# Poissons Ratio (z) = 0.14208 0.44250
#
# Static dielectric constant tensor:
#      x y z
#    x 3.796730 0.000000 -0.153420 
#    y 0.000000 3.603560 0.000000 
#    z -0.153420 0.000000 3.805300 
# 
# 
# High freq. dielectric constant tensor:
#      x y z
#    x 1.809320 0.000000 -0.003650 
#    y 0.000000 1.792180 0.000000 
#    z -0.003650 0.000000 1.795070 
# 
# From -- ./inp_files/360018.got.cif
#   From: 2010.06.25/outbox.cif.g09.slc.cpg/sg12_181_cif.got.tgz:360018.got - 2010.06.28 00:19:55.
