data_PCOD8114565
_publ_section_title
;
Structure prediction by ZEFSAII (Michael W. Deem and Ramdas Pophale) SiO2 
 PCOD8114565
Probable space group: C 2/M
;
_chemical_formula_sum "Si O2"
_cell_formula_units_Z 44
_cell_length_a 16.157667
_cell_length_b 16.668047
_cell_length_c 18.436885
_cell_angle_alpha 90.000000
_cell_angle_beta 155.011191
_cell_angle_gamma 90.000000
_cell_volume 2097.573651
_symmetry_space_group_name_H-M "C 2/M"
_symmetry_group_IT_number 12
_symmetry_cell_setting 'monoclinic'
loop_
_space_group_symop_operation_xyz
x,y,z
-x,y,-z
-x,-y,-z
x,-y,z
1/2+x,1/2+y,z
1/2-x,1/2+y,-z
1/2-x,1/2-y,-z
1/2+x,1/2-y,z
loop_
_atom_site_type_symbol
_atom_site_label
_atom_site_fract_x
_atom_site_fract_y
_atom_site_fract_z
Si Si1 0.957013 0.000000 0.620325
Si Si2 0.223355 0.835361 0.179169
Si Si3 0.586170 0.500000 0.885912
Si Si4 0.318950 0.000000 0.801144
Si Si5 0.500000 0.740944 0.500000
Si Si6 0.776851 0.500000 0.293285
Si Si7 0.229474 0.625440 0.361930
Si Si8 0.318679 0.830902 0.094132
O O1 0.816346 0.924706 0.497330
O O2 0.048378 0.000000 0.771086
O O3 0.119880 0.000000 0.687472
O O4 0.331077 0.793242 0.330597
O O5 0.324715 0.813293 0.184165
O O6 0.236758 0.928840 0.206081
O O7 0.000000 0.805319 0.000000
O O8 0.380935 0.500000 0.766381
O O9 0.701774 0.415935 0.991231
O O10 0.322402 0.077738 0.752916
O O11 0.500000 0.000000 0.000000
O O12 0.395377 0.690267 0.478713
O O13 0.000000 0.500000 0.500000
O O14 0.035165 0.663998 0.236861
O O15 0.250000 0.750000 0.000000
#
# Coordination Sequence:
#
# PCOD8114565 Si02
#       8
#     4   8   4   4   4   4   8   8
#     4  11  23  43  70 102 142 188 232 297 368 450
#     4  12  26  49  73 102 148 194 248 308 370 441
#     4  12  27  49  72 111 147 193 251 309 374 439
#     4  11  21  42  71  99 134 193 238 287 370 448
#     4  12  26  44  74 106 148 194 244 310 370 446
#     4  12  26  47  77 104 142 200 255 303 375 440
#     4  11  24  44  67 103 145 185 239 302 371 440
#     4  12  28  47  74 109 146 192 249 309 371 442
#
# _framework density 20.976617000000001
#
# number of rings (size 3 to 8) (size 9 to 14) (size 15 to 20)
#    0.000    0.364    4.545    4.636    5.091    2.909 
#    0.000    0.000    0.000    0.000    0.000    0.000 
#    0.000    0.000    0.000    0.000    0.000    0.000 
#
# Total GULP energy -272734.374097 kJ/mol
# GULP energy per Si atom -12397.017004 kJ/mol
# Density = 2.092887 g / cm^3
# Si number density = 20.976617 Si / 1000 Ang^3
#
#
#
# Elastic Constant Matrix: (Units=GPa)
#
#
# Indices 1 2 3 4 5 6 
#
# 1 113.2578 17.7186 18.9412 0.0593 18.7111 -0.0716
# 2 17.7186 116.7191 30.8262 0.4454 7.8338 -0.4379
# 3 18.9412 30.8262 117.1214 0.3229 13.3422 -0.2717
# 4 0.0593 0.4454 0.3229 53.0056 0.0457 -30.8576
# 5 18.7111 7.8338 13.3422 0.0457 55.5989 0.0008
# 6 -0.0716 -0.4379 -0.2717 -30.8576 0.0008 110.5068
#
#
#
# Elastic Compliance Matrix: (Units=1/GPa)
#
#
# Indices 1 2 3 4 5 6 
#
# 1 0.009622 -0.001014 -0.000963 0.000007 -0.002864 0.000002
# 2 -0.001014 0.009344 -0.002245 -0.000054 -0.000436 0.000016
# 3 -0.000963 -0.002245 0.009471 -0.000034 -0.001632 0.000004
# 4 0.000007 -0.000054 -0.000034 0.022529 -0.000005 0.006291
# 5 -0.002864 -0.000436 -0.001632 -0.000005 0.019403 -0.000009
# 6 0.000002 0.000016 0.000004 0.006291 -0.000009 0.010806
#
#
# Mechanical properties :
#
#
# Convention : Reuss Voigt Hill
#
# Bulk Modulus (GPa) = 50.01941 53.56338 51.79140
# Shear Modulus (GPa) = 51.92958 62.46308 57.19633
#
# Velocity S-wave (km/s) = 4.98093 5.46279 5.22742
# Velocity P-wave (km/s) = 7.54829 8.08577 7.82165
#
# Compressibility (1/GPa) = 0.01999224
#
# Stress axis : x y z
#
# Youngs Moduli (GPa) = 103.92499 107.01911 105.58632
#
# Poissons Ratio (x) = 0.10854 0.10167
# Poissons Ratio (y) = 0.10540 0.23709
# Poissons Ratio (z) = 0.10007 0.24031
#
# Static dielectric constant tensor:
#      x y z
#    x 3.917510 -0.000250 0.146230 
#    y -0.000250 4.158010 0.000380 
#    z 0.146230 0.000380 3.834740 
# 
# 
# High freq. dielectric constant tensor:
#      x y z
#    x 1.835480 -0.000010 0.005630 
#    y -0.000010 1.834490 -0.000030 
#    z 0.005630 -0.000030 1.837350 
# 
# From -- ./inp_files/271537.got.cif
#   From: 2010.06.25/outbox.cif.g09.slc.cpg/sg12_136_cif.got.tgz:271537.got - 2010.06.28 00:19:55.
