data_PCOD8114259
_publ_section_title
;
Structure prediction by ZEFSAII (Michael W. Deem and Ramdas Pophale) SiO2 
 PCOD8114259
Probable space group: C 2/M
;
_chemical_formula_sum "Si O2"
_cell_formula_units_Z 48
_cell_length_a 19.438453
_cell_length_b 25.867158
_cell_length_c 9.014406
_cell_angle_alpha 90.000000
_cell_angle_beta 149.648274
_cell_angle_gamma 90.000000
_cell_volume 2290.354684
_symmetry_space_group_name_H-M "C 2/M"
_symmetry_group_IT_number 12
_symmetry_cell_setting 'monoclinic'
loop_
_space_group_symop_operation_xyz
x,y,z
-x,y,-z
-x,-y,-z
x,-y,z
1/2+x,1/2+y,z
1/2-x,1/2+y,-z
1/2-x,1/2-y,-z
1/2+x,1/2-y,z
loop_
_atom_site_type_symbol
_atom_site_label
_atom_site_fract_x
_atom_site_fract_y
_atom_site_fract_z
Si Si1 0.138191 0.711696 0.847173
Si Si2 0.647915 0.214480 0.215488
Si Si3 0.914054 0.559537 0.641338
Si Si4 0.345372 0.096584 0.223369
Si Si5 0.881247 0.057763 0.380804
Si Si6 0.691835 0.901518 0.262603
O O1 0.184663 0.653124 0.899964
O O2 0.000000 0.723345 0.500000
O O3 0.250000 0.750000 0.000000
O O4 0.133586 0.723462 0.013008
O O5 0.750000 0.250000 0.500000
O O6 0.695750 0.156116 0.333526
O O7 0.500000 0.225932 0.000000
O O8 0.936429 0.500000 0.637884
O O9 0.816961 0.591261 0.346948
O O10 0.834809 0.560082 0.650120
O O11 0.060656 0.589581 0.911607
O O12 0.500000 0.077989 0.500000
O O13 0.251937 0.055064 0.968496
O O14 0.836250 0.087507 0.448141
O O15 0.000000 0.084707 0.500000
O O16 0.928099 0.000000 0.511305
#
# Coordination Sequence:
#
# PCOD8114259 Si02
#       6
#     8   8   8   8   8   8
#     4  11  24  43  68  96 132 179 227 287 345 412
#     4  12  25  45  70  99 136 181 230 294 356 413
#     4  11  21  35  68 103 133 170 222 285 340 401
#     4  11  22  39  64  97 131 167 227 281 329 402
#     4  11  23  41  64  94 137 180 218 270 345 421
#     4  11  21  41  65  94 137 172 225 277 343 411
#
# _framework density 20.957452
#
# number of rings (size 3 to 8) (size 9 to 14) (size 15 to 20)
#    0.000    0.833    5.000    4.500    2.333    1.333 
#    3.000    0.833    0.000    3.000    0.000    0.000 
#    0.000    0.000    0.000    0.000    0.000    0.000 
#
# Total GULP energy -297407.898698 kJ/mol
# GULP energy per Si atom -12391.995779 kJ/mol
# Density = 2.090975 g / cm^3
# Si number density = 20.957452 Si / 1000 Ang^3
#
#
#
# Elastic Constant Matrix: (Units=GPa)
#
#
# Indices 1 2 3 4 5 6 
#
# 1 142.2670 46.7571 40.3871 0.0000 8.7184 0.0000
# 2 46.7571 113.7213 46.8544 0.0000 3.3577 0.0000
# 3 40.3871 46.8544 80.3164 0.0000 -13.0985 0.0000
# 4 0.0000 0.0000 0.0000 31.5739 0.0000 -3.1675
# 5 8.7184 3.3577 -13.0985 0.0000 44.2609 0.0000
# 6 0.0000 0.0000 0.0000 -3.1675 0.0000 32.4237
#
#
#
# Elastic Compliance Matrix: (Units=1/GPa)
#
#
# Indices 1 2 3 4 5 6 
#
# 1 0.008930 -0.002053 -0.003734 0.000000 -0.002708 0.000000
# 2 -0.002053 0.012446 -0.006637 0.000000 -0.002504 0.000000
# 3 -0.003734 -0.006637 0.019335 0.000000 0.006961 0.000000
# 4 0.000000 0.000000 0.000000 0.031985 0.000000 0.003125
# 5 -0.002708 -0.002504 0.006961 0.000000 0.025377 0.000000
# 6 0.000000 0.000000 0.000000 0.003125 0.000000 0.031147
#
#
# Mechanical properties :
#
#
# Convention : Reuss Voigt Hill
#
# Bulk Modulus (GPa) = 63.03882 67.14466 65.09174
# Shear Modulus (GPa) = 31.37637 35.13879 33.25758
#
# Velocity S-wave (km/s) = 3.87350 4.09916 3.98792
# Velocity P-wave (km/s) = 7.08167 7.38324 7.23403
#
# Compressibility (1/GPa) = 0.01586324
#
# Stress axis : x y z
#
# Youngs Moduli (GPa) = 111.98360 80.34864 51.71844
#
# Poissons Ratio (x) = 0.16495 0.19314
# Poissons Ratio (y) = 0.22990 0.34323
# Poissons Ratio (z) = 0.41820 0.53323
#
# Static dielectric constant tensor:
#      x y z
#    x 4.111060 0.000000 -0.202400 
#    y 0.000000 3.645890 0.000000 
#    z -0.202400 0.000000 3.632970 
# 
# 
# High freq. dielectric constant tensor:
#      x y z
#    x 1.842520 0.000000 -0.019140 
#    y 0.000000 1.815880 0.000000 
#    z -0.019140 0.000000 1.801640 
# 
# From -- ./inp_files/91259.got.cif
#   From: 2010.06.25/outbox.cif.g09.slc.cpg/sg12_46_cif.got.tgz:91259.got - 2010.06.28 00:19:55.
