data_PCOD8114037
_publ_section_title
;
Structure prediction by ZEFSAII (Michael W. Deem and Ramdas Pophale) SiO2 
 PCOD8114037
Probable space group: C 2/M
;
_chemical_formula_sum "Si O2"
_cell_formula_units_Z 64
_cell_length_a 18.860770
_cell_length_b 17.421628
_cell_length_c 15.159408
_cell_angle_alpha 90.000000
_cell_angle_beta 141.238593
_cell_angle_gamma 90.000000
_cell_volume 3118.597628
_symmetry_space_group_name_H-M "C 2/M"
_symmetry_group_IT_number 12
_symmetry_cell_setting 'monoclinic'
loop_
_space_group_symop_operation_xyz
x,y,z
-x,y,-z
-x,-y,-z
x,-y,z
1/2+x,1/2+y,z
1/2-x,1/2+y,-z
1/2-x,1/2-y,-z
1/2+x,1/2-y,z
loop_
_atom_site_type_symbol
_atom_site_label
_atom_site_fract_x
_atom_site_fract_y
_atom_site_fract_z
Si Si1 0.365110 0.734143 0.865194
Si Si2 0.785250 0.915771 0.705562
Si Si3 0.523042 0.705646 0.352029
Si Si4 0.761298 0.806617 0.090902
Si Si5 0.041168 0.637666 0.444716
Si Si6 0.080631 0.589388 0.849707
Si Si7 0.312037 0.587837 0.539735
Si Si8 0.391176 0.188009 0.715545
O O1 0.320357 0.646940 0.812019
O O2 0.305618 0.772567 0.890491
O O3 0.331385 0.782433 0.745966
O O4 0.500000 0.733020 0.000000
O O5 0.657996 0.906439 0.545727
O O6 0.857849 0.911360 0.685365
O O7 0.800107 0.000000 0.763932
O O8 0.392868 0.681439 0.238681
O O9 0.556703 0.769711 0.457348
O O10 0.593717 0.626949 0.431981
O O11 0.556813 0.740855 0.289202
O O12 0.750000 0.750000 0.000000
O O13 0.706139 0.885869 0.002390
O O14 0.950316 0.615121 0.280618
O O15 0.000000 0.611597 0.500000
O O16 0.069336 0.500000 0.848617
O O17 0.994737 0.629997 0.835141
O O18 0.289310 0.500000 0.485991
O O19 0.199974 0.640402 0.428439
#
# Coordination Sequence:
#
# PCOD8114037 Si02
#       8
#     8   8   8   8   8   8   8   8
#     4  12  24  42  68  91 124 173 223 267 309 385
#     4  11  23  37  60  97 133 161 207 267 325 382
#     4  11  21  39  67  89 132 174 213 261 315 388
#     4  12  24  45  62  92 129 173 220 257 316 386
#     4  11  22  39  64  96 128 165 213 262 321 389
#     4  11  23  41  67  94 129 165 209 271 328 373
#     4  11  22  39  65  98 132 165 208 266 330 381
#     4  11  20  41  67  96 121 170 219 266 315 380
#
# _framework density 20.522044999999999
#
# number of rings (size 3 to 8) (size 9 to 14) (size 15 to 20)
#    0.000    0.750    7.500    2.625    0.000    1.750 
#    0.000    1.875    0.000    2.625    0.000    0.000 
#    0.000    0.000    0.000    0.000    0.000    0.000 
#
# Total GULP energy -396630.715362 kJ/mol
# GULP energy per Si atom -12394.709855 kJ/mol
# Density = 2.047534 g / cm^3
# Si number density = 20.522045 Si / 1000 Ang^3
#
#
#
# Elastic Constant Matrix: (Units=GPa)
#
#
# Indices 1 2 3 4 5 6 
#
# 1 108.6025 40.6364 31.1552 0.0000 0.0948 0.0000
# 2 40.6364 126.0237 31.6161 0.0000 1.8101 0.0000
# 3 31.1552 31.6161 50.6941 0.0000 12.9571 0.0000
# 4 0.0000 0.0000 0.0000 29.7891 0.0000 1.4753
# 5 0.0948 1.8101 12.9571 0.0000 37.6572 0.0000
# 6 0.0000 0.0000 0.0000 1.4753 0.0000 12.6030
#
#
#
# Elastic Compliance Matrix: (Units=1/GPa)
#
#
# Indices 1 2 3 4 5 6 
#
# 1 0.011914 -0.002240 -0.006518 0.000000 0.002320 0.000000
# 2 -0.002240 0.009930 -0.005149 0.000000 0.001300 0.000000
# 3 -0.006518 -0.005149 0.029467 0.000000 -0.009875 0.000000
# 4 0.000000 0.000000 0.000000 0.033765 0.000000 -0.003952
# 5 0.002320 0.001300 -0.009875 0.000000 0.029885 0.000000
# 6 0.000000 0.000000 0.000000 -0.003952 0.000000 0.079809
#
#
# Mechanical properties :
#
#
# Convention : Reuss Voigt Hill
#
# Bulk Modulus (GPa) = 42.55729 54.68175 48.61952
# Shear Modulus (GPa) = 21.69987 28.13737 24.91862
#
# Velocity S-wave (km/s) = 3.25529 3.70683 3.48837
# Velocity P-wave (km/s) = 5.90860 6.70999 6.32201
#
# Compressibility (1/GPa) = 0.02349773
#
# Stress axis : x y z
#
# Youngs Moduli (GPa) = 83.93640 100.70210 33.93591
#
# Poissons Ratio (x) = 0.22554 0.22120
# Poissons Ratio (y) = 0.18799 0.17474
# Poissons Ratio (z) = 0.54711 0.51851
#
# Static dielectric constant tensor:
#      x y z
#    x 1.589990 0.000000 -6.617100 
#    y 0.000000 4.269620 0.000000 
#    z -6.617100 0.000000 -16.046690 
# 
# 
# High freq. dielectric constant tensor:
#      x y z
#    x 1.798370 0.000000 0.010580 
#    y 0.000000 1.800010 0.000000 
#    z 0.010580 0.000000 1.789120 
# 
# From -- ./inp_files/226889.got.cif
#   From: 2010.06.25/outbox.cif.g09.slc.cpg/sg12_114_cif.got.tgz:226889.got - 2010.06.28 00:19:55.
