data_PCOD8114007
_publ_section_title
;
Structure prediction by ZEFSAII (Michael W. Deem and Ramdas Pophale) SiO2 
 PCOD8114007
Probable space group: C 2/M
;
_chemical_formula_sum "Si O2"
_cell_formula_units_Z 56
_cell_length_a 14.283316
_cell_length_b 19.175737
_cell_length_c 11.534846
_cell_angle_alpha 90.000000
_cell_angle_beta 61.357327
_cell_angle_gamma 90.000000
_cell_volume 2772.697523
_symmetry_space_group_name_H-M "C 2/M"
_symmetry_group_IT_number 12
_symmetry_cell_setting 'monoclinic'
loop_
_space_group_symop_operation_xyz
x,y,z
-x,y,-z
-x,-y,-z
x,-y,z
1/2+x,1/2+y,z
1/2-x,1/2+y,-z
1/2-x,1/2-y,-z
1/2+x,1/2-y,z
loop_
_atom_site_type_symbol
_atom_site_label
_atom_site_fract_x
_atom_site_fract_y
_atom_site_fract_z
Si Si1 0.149363 0.824013 0.602262
Si Si2 0.094185 0.826076 0.033934
Si Si3 0.951104 0.081909 0.734862
Si Si4 0.448489 0.079004 0.154182
Si Si5 0.267952 0.209725 0.758529
Si Si6 0.772201 0.860136 0.690655
Si Si7 0.019206 0.289971 0.250694
O O1 0.230650 0.825582 0.661411
O O2 0.219647 0.833497 0.446261
O O3 0.070431 0.889115 0.659135
O O4 0.083334 0.751253 0.638209
O O5 0.206649 0.824192 0.902661
O O6 0.105578 0.890429 0.115400
O O7 0.069638 0.754534 0.115966
O O8 0.000000 0.840925 0.000000
O O9 0.885017 0.107628 0.662297
O O10 0.957159 0.000000 0.733425
O O11 0.319790 0.083613 0.229623
O O12 0.489121 0.133339 0.225448
O O13 0.479995 0.000000 0.170991
O O14 0.500000 0.097706 0.000000
O O15 0.240601 0.291671 0.781784
O O16 0.394791 0.199520 0.697947
#
# Coordination Sequence:
#
# PCOD8114007 Si02
#       7
#     8   8   8   8   8   8   8
#     4  11  24  43  65 100 128 168 214 270 323 380
#     4  11  20  40  63  93 130 171 217 271 323 374
#     4  11  25  42  65  97 132 170 214 268 331 387
#     4  11  25  43  63  93 132 172 214 262 316 376
#     4  12  22  38  66  97 126 165 217 270 322 376
#     4  12  23  42  70  95 127 164 221 271 322 378
#     4  11  22  38  65  95 129 166 217 268 316 381
#
# _framework density 20.196937999999999
#
# number of rings (size 3 to 8) (size 9 to 14) (size 15 to 20)
#    0.000    0.714    7.143    3.000    2.000    2.000 
#    0.000    0.714    0.000    0.857    0.000    0.000 
#    0.000    0.000    0.000    0.000    0.000    0.000 
#
# Total GULP energy -347267.536341 kJ/mol
# GULP energy per Si atom -12402.412012 kJ/mol
# Density = 2.015097 g / cm^3
# Si number density = 20.196938 Si / 1000 Ang^3
#
#
#
# Elastic Constant Matrix: (Units=GPa)
#
#
# Indices 1 2 3 4 5 6 
#
# 1 124.6646 34.1283 38.2452 0.0000 15.9350 0.0000
# 2 34.1283 123.6583 40.4516 0.0000 8.0344 0.0000
# 3 38.2452 40.4516 102.4595 0.0000 -5.3673 0.0000
# 4 0.0000 0.0000 0.0000 12.2050 0.0000 1.1776
# 5 15.9350 8.0344 -5.3673 0.0000 21.9199 0.0000
# 6 0.0000 0.0000 0.0000 1.1776 0.0000 30.3702
#
#
#
# Elastic Compliance Matrix: (Units=1/GPa)
#
#
# Indices 1 2 3 4 5 6 
#
# 1 0.010591 -0.001092 -0.003955 0.000000 -0.008267 0.000000
# 2 -0.001092 0.009829 -0.003667 0.000000 -0.003707 0.000000
# 3 -0.003955 -0.003667 0.013073 0.000000 0.007420 0.000000
# 4 0.000000 0.000000 0.000000 0.082241 0.000000 -0.003189
# 5 -0.008267 -0.003707 0.007420 0.000000 0.054806 0.000000
# 6 0.000000 0.000000 0.000000 -0.003189 0.000000 0.033051
#
#
# Mechanical properties :
#
#
# Convention : Reuss Voigt Hill
#
# Bulk Modulus (GPa) = 62.25165 64.04805 63.14985
# Shear Modulus (GPa) = 22.08750 28.76285 25.42518
#
# Velocity S-wave (km/s) = 3.31056 3.77784 3.55189
# Velocity P-wave (km/s) = 6.74554 7.12812 6.93947
#
# Compressibility (1/GPa) = 0.01606383
#
# Stress axis : x y z
#
# Youngs Moduli (GPa) = 94.42378 101.74465 76.49514
#
# Poissons Ratio (x) = 0.11110 0.30255
# Poissons Ratio (y) = 0.10310 0.28050
# Poissons Ratio (z) = 0.37346 0.37309
#
# Static dielectric constant tensor:
#      x y z
#    x 3.893790 0.000000 0.059560 
#    y 0.000000 3.502530 0.000000 
#    z 0.059560 0.000000 3.694260 
# 
# 
# High freq. dielectric constant tensor:
#      x y z
#    x 1.798600 0.000000 -0.001700 
#    y 0.000000 1.771240 0.000000 
#    z -0.001700 0.000000 1.790000 
# 
# From -- ./inp_files/146023.got.cif
#   From: 2010.06.25/outbox.cif.g09.slc.cpg/sg12_74_cif.got.tgz:146023.got - 2010.06.28 00:19:55.
