data_PCOD8114450
_publ_section_title
;
Structure prediction by ZEFSAII (Michael W. Deem and Ramdas Pophale) SiO2 
 PCOD8114450
Probable space group: C 2/M
;
_chemical_formula_sum "Si O2"
_cell_formula_units_Z 48
_cell_length_a 8.881442
_cell_length_b 28.330475
_cell_length_c 13.318728
_cell_angle_alpha 90.000000
_cell_angle_beta 42.381256
_cell_angle_gamma 90.000000
_cell_volume 2258.911113
_symmetry_space_group_name_H-M "C 2/M"
_symmetry_group_IT_number 12
_symmetry_cell_setting 'monoclinic'
loop_
_space_group_symop_operation_xyz
x,y,z
-x,y,-z
-x,-y,-z
x,-y,z
1/2+x,1/2+y,z
1/2-x,1/2+y,-z
1/2-x,1/2-y,-z
1/2+x,1/2-y,z
loop_
_atom_site_type_symbol
_atom_site_label
_atom_site_fract_x
_atom_site_fract_y
_atom_site_fract_z
Si Si1 0.065827 0.710830 0.083597
Si Si2 0.257319 0.875460 0.880963
Si Si3 0.757367 0.365923 0.656986
Si Si4 0.743789 0.266167 0.614648
Si Si5 0.353803 0.054287 0.299463
Si Si6 0.554730 0.445078 0.636199
O O1 0.182211 0.663542 0.066097
O O2 0.857659 0.727996 0.256404
O O3 0.250000 0.750000 0.000000
O O4 0.000000 0.703611 0.000000
O O5 0.303639 0.854305 0.749779
O O6 0.412358 0.919809 0.829341
O O7 0.000000 0.891515 0.000000
O O8 0.633821 0.318512 0.676554
O O9 0.597288 0.410799 0.710532
O O10 0.000000 0.379551 0.500000
O O11 0.750000 0.250000 0.500000
O O12 0.000000 0.276673 0.500000
O O13 0.230630 0.068967 0.462899
O O14 0.193287 0.064743 0.283732
O O15 0.414816 0.000000 0.273727
O O16 0.581224 0.500000 0.654918
#
# Coordination Sequence:
#
# PCOD8114450 Si02
#       6
#     8   8   8   8   8   8
#     4  12  25  46  69  93 130 184 228 267 332 412
#     4  12  26  42  64  94 133 172 222 271 326 400
#     4  11  21  39  62  96 130 167 215 271 329 393
#     4  11  24  40  61  94 130 162 214 282 327 369
#     4   9  20  40  64  96 131 169 217 272 333 395
#     4   9  19  38  67  97 129 168 217 269 329 406
#
# _framework density 21.249175999999999
#
# number of rings (size 3 to 8) (size 9 to 14) (size 15 to 20)
#    0.000    1.333    1.667    6.500    0.000    5.333 
#    0.000    0.000    0.000    2.500    0.000    0.000 
#    0.000    0.000    0.000    0.000    0.000    0.000 
#
# Total GULP energy -297369.669083 kJ/mol
# GULP energy per Si atom -12390.402878 kJ/mol
# Density = 2.120081 g / cm^3
# Si number density = 21.249176 Si / 1000 Ang^3
#
#
#
# Elastic Constant Matrix: (Units=GPa)
#
#
# Indices 1 2 3 4 5 6 
#
# 1 145.5027 78.1283 43.6155 0.0000 13.4975 0.0000
# 2 78.1283 112.2995 34.5727 0.0000 -9.5562 0.0000
# 3 43.6155 34.5727 96.5497 0.0000 -5.5259 0.0000
# 4 0.0000 0.0000 0.0000 50.8386 0.0000 -26.5920
# 5 13.4975 -9.5562 -5.5259 0.0000 46.2841 0.0000
# 6 0.0000 0.0000 0.0000 -26.5920 0.0000 71.5286
#
#
#
# Elastic Compliance Matrix: (Units=1/GPa)
#
#
# Indices 1 2 3 4 5 6 
#
# 1 0.012950 -0.008550 -0.003127 0.000000 -0.005915 0.000000
# 2 -0.008550 0.015780 -0.001469 0.000000 0.005576 0.000000
# 3 -0.003127 -0.001469 0.012416 0.000000 0.002091 0.000000
# 4 0.000000 0.000000 0.000000 0.024418 0.000000 0.009078
# 5 -0.005915 0.005576 0.002091 0.000000 0.024732 0.000000
# 6 0.000000 0.000000 0.000000 0.009078 0.000000 0.017355
#
#
# Mechanical properties :
#
#
# Convention : Reuss Voigt Hill
#
# Bulk Modulus (GPa) = 67.32422 74.10944 70.71683
# Shear Modulus (GPa) = 35.99893 46.93264 41.46578
#
# Velocity S-wave (km/s) = 4.12045 4.70476 4.42227
# Velocity P-wave (km/s) = 7.37492 8.02902 7.70891
#
# Compressibility (1/GPa) = 0.01485350
#
# Stress axis : x y z
#
# Youngs Moduli (GPa) = 77.22206 63.37212 80.54414
#
# Poissons Ratio (x) = 0.54183 0.25185
# Poissons Ratio (y) = 0.66025 0.11832
# Poissons Ratio (z) = 0.24146 0.09309
#
# Static dielectric constant tensor:
#      x y z
#    x 3.670820 0.000000 -0.237220 
#    y 0.000000 3.296660 0.000000 
#    z -0.237220 0.000000 3.578560 
# 
# 
# High freq. dielectric constant tensor:
#      x y z
#    x 1.843420 0.000000 -0.003090 
#    y 0.000000 1.836210 0.000000 
#    z -0.003090 0.000000 1.827100 
# 
# From -- ./inp_files/200140.got.cif
#   From: 2010.06.25/outbox.cif.g09.slc.cpg/sg12_101_cif.got.tgz:200140.got - 2010.06.28 00:19:55.
