data_PCOD8114109
_publ_section_title
;
Structure prediction by ZEFSAII (Michael W. Deem and Ramdas Pophale) SiO2 
 PCOD8114109
Probable space group: C 2/M
;
_chemical_formula_sum "Si O2"
_cell_formula_units_Z 56
_cell_length_a 23.848117
_cell_length_b 9.499272
_cell_length_c 25.135543
_cell_angle_alpha 90.000000
_cell_angle_beta 39.157571
_cell_angle_gamma 90.000000
_cell_volume 3595.632325
_symmetry_space_group_name_H-M "C 2/M"
_symmetry_group_IT_number 12
_symmetry_cell_setting 'monoclinic'
loop_
_space_group_symop_operation_xyz
x,y,z
-x,y,-z
-x,-y,-z
x,-y,z
1/2+x,1/2+y,z
1/2-x,1/2+y,-z
1/2-x,1/2-y,-z
1/2+x,1/2-y,z
loop_
_atom_site_type_symbol
_atom_site_label
_atom_site_fract_x
_atom_site_fract_y
_atom_site_fract_z
Si Si1 0.382298 0.656676 0.901999
Si Si2 0.612241 0.839561 0.363742
Si Si3 0.513182 0.334305 0.271302
Si Si4 0.665724 0.332101 0.540635
Si Si5 0.593288 0.162139 0.497843
Si Si6 0.170090 0.833736 0.228834
Si Si7 0.711315 0.844128 0.952807
O O1 0.406418 0.500000 0.903575
O O2 0.461422 0.721937 0.806734
O O3 0.294615 0.655144 0.930762
O O4 0.367280 0.746962 0.966413
O O5 0.510198 0.800130 0.427842
O O6 0.635237 0.815331 0.408631
O O7 0.676813 0.742259 0.280865
O O8 0.630150 0.000000 0.334571
O O9 0.529799 0.500000 0.257311
O O10 0.413033 0.295328 0.360079
O O11 0.580830 0.274666 0.265864
O O12 0.682057 0.500000 0.524817
O O13 0.750000 0.250000 0.500000
O O14 0.642292 0.271504 0.500151
O O15 0.607671 0.000000 0.505748
O O16 0.255355 0.793026 0.129862
O O17 0.165598 0.000000 0.241503
O O18 0.671103 0.000000 0.977872
#
# Coordination Sequence:
#
# PCOD8114109 Si02
#       7
#     8   8   8   8   8   8   8
#     4   8  13  23  37  51  73 106 141 170 200 246
#     4   9  17  28  44  64  88 113 141 180 218 254
#     4   8  15  27  41  57  79 110 144 177 212 250
#     4  11  21  33  48  64  85 114 149 186 221 256
#     4   9  18  32  45  62  87 113 142 180 223 258
#     4   9  15  25  40  59  85 114 144 173 205 254
#     4   8  14  22  33  53  81 108 134 169 207 241
#
# _framework density 15.574452000000001
#
# number of rings (size 3 to 8) (size 9 to 14) (size 15 to 20)
#    0.000    3.143    1.429    3.000    0.000    1.143 
#    0.000    5.000    0.000    0.000    0.000    0.000 
#    0.000    1.143    0.000   12.857    0.000    7.000 
#
# Total GULP energy -346980.095820 kJ/mol
# GULP energy per Si atom -12392.146279 kJ/mol
# Density = 1.553900 g / cm^3
# Si number density = 15.574452 Si / 1000 Ang^3
#
#
#
# Elastic Constant Matrix: (Units=GPa)
#
#
# Indices 1 2 3 4 5 6 
#
# 1 48.3976 34.5870 35.9434 -0.0004 5.7033 0.0010
# 2 34.5870 72.1732 60.0215 -0.0004 13.5698 0.0023
# 3 35.9434 60.0215 127.7420 0.0002 24.5809 0.0004
# 4 -0.0004 -0.0004 0.0002 29.0962 -0.0003 6.5117
# 5 5.7033 13.5698 24.5809 -0.0003 18.9807 0.0001
# 6 0.0010 0.0023 0.0004 6.5117 0.0001 20.6747
#
#
#
# Elastic Compliance Matrix: (Units=1/GPa)
#
#
# Indices 1 2 3 4 5 6 
#
# 1 0.032394 -0.013251 -0.003780 0.000000 0.004636 0.000000
# 2 -0.013251 0.028312 -0.008585 0.000001 -0.005141 -0.000003
# 3 -0.003780 -0.008585 0.015352 -0.000001 -0.012608 0.000001
# 4 0.000000 0.000001 -0.000001 0.036975 0.000001 -0.011646
# 5 0.004636 -0.005141 -0.012608 0.000001 0.071296 0.000000
# 6 0.000000 -0.000003 0.000001 -0.011646 0.000000 0.052036
#
#
# Mechanical properties :
#
#
# Convention : Reuss Voigt Hill
#
# Bulk Modulus (GPa) = 40.28375 56.60185 48.44280
# Shear Modulus (GPa) = 16.89918 21.60104 19.25011
#
# Velocity S-wave (km/s) = 3.29759 3.72822 3.51950
# Velocity P-wave (km/s) = 6.35769 7.41313 6.90561
#
# Compressibility (1/GPa) = 0.02482391
#
# Stress axis : x y z
#
# Youngs Moduli (GPa) = 30.87037 35.32062 65.13900
#
# Poissons Ratio (x) = 0.46805 0.24625
# Poissons Ratio (y) = 0.40908 0.55921
# Poissons Ratio (z) = 0.11670 0.30322
#
# Static dielectric constant tensor:
#      x y z
#    x 2.530340 0.000000 0.206800 
#    y 0.000000 2.955920 0.000000 
#    z 0.206800 0.000000 3.237980 
# 
# 
# High freq. dielectric constant tensor:
#      x y z
#    x 1.536090 0.000000 0.025660 
#    y 0.000000 1.590470 0.000000 
#    z 0.025660 0.000000 1.605620 
# 
# From -- ./inp_files/348452.got.cif
#   From: 2010.06.25/outbox.cif.g09.slc.cpg/sg12_175_cif.got.tgz:348452.got - 2010.06.28 00:19:55.
