data_PCOD8114797
_publ_section_title
;
Structure prediction by ZEFSAII (Michael W. Deem and Ramdas Pophale) SiO2 
 PCOD8114797
Probable space group: C 2/M
;
_chemical_formula_sum "Si O2"
_cell_formula_units_Z 48
_cell_length_a 9.924922
_cell_length_b 24.805211
_cell_length_c 13.951190
_cell_angle_alpha 90.000000
_cell_angle_beta 45.343366
_cell_angle_gamma 90.000000
_cell_volume 2443.168482
_symmetry_space_group_name_H-M "C 2/M"
_symmetry_group_IT_number 12
_symmetry_cell_setting 'monoclinic'
loop_
_space_group_symop_operation_xyz
x,y,z
-x,y,-z
-x,-y,-z
x,-y,z
1/2+x,1/2+y,z
1/2-x,1/2+y,-z
1/2-x,1/2-y,-z
1/2+x,1/2-y,z
loop_
_atom_site_type_symbol
_atom_site_label
_atom_site_fract_x
_atom_site_fract_y
_atom_site_fract_z
Si Si1 0.143544 0.562111 0.010224
Si Si2 0.998447 0.376449 0.747656
Si Si3 0.170018 0.563405 0.489548
Si Si4 0.478805 0.624839 0.769181
Si Si5 0.158118 0.688084 0.837589
Si Si6 0.343801 0.688776 0.158643
O O1 0.178689 0.500000 0.976255
O O2 0.058406 0.573354 0.156989
O O3 0.345983 0.590677 0.906086
O O4 0.000000 0.584432 0.000000
O O5 0.824988 0.352119 0.776128
O O6 0.142976 0.401494 0.599111
O O7 0.077411 0.328159 0.774195
O O8 0.184879 0.500000 0.506361
O O9 0.369021 0.583676 0.349206
O O10 0.000000 0.573929 0.500000
O O11 0.344813 0.651717 0.756531
O O12 0.572454 0.673638 0.780180
O O13 0.225658 0.749804 0.801418
O O14 0.000000 0.680210 0.000000
O O15 0.500000 0.681304 0.000000
#
# Coordination Sequence:
#
# PCOD8114797 Si02
#       6
#     8   8   8   8   8   8
#     4  11  22  39  64  96 129 160 213 275 320 369
#     4  12  21  43  63  94 126 171 211 257 322 374
#     4  11  26  45  64  90 131 172 211 267 322 367
#     4  12  21  43  63  94 126 171 211 257 322 374
#     4  11  22  41  66  99 133 163 205 267 326 373
#     4  11  22  37  68  99 127 165 213 265 318 379
#
# _framework density 19.646619000000001
#
# number of rings (size 3 to 8) (size 9 to 14) (size 15 to 20)
#    0.000    0.667    6.667    2.000    0.000    3.333 
#    0.000    6.667    0.000    0.000    0.000    0.000 
#    0.000    0.000    0.000    0.000    0.000    0.000 
#
# Total GULP energy -297606.813227 kJ/mol
# GULP energy per Si atom -12400.283884 kJ/mol
# Density = 1.960190 g / cm^3
# Si number density = 19.646619 Si / 1000 Ang^3
#
#
#
# Elastic Constant Matrix: (Units=GPa)
#
#
# Indices 1 2 3 4 5 6 
#
# 1 83.0521 26.7256 29.4525 0.0000 -5.7377 0.0000
# 2 26.7256 101.0280 25.6626 0.0000 -2.6503 0.0000
# 3 29.4525 25.6626 77.4524 0.0000 2.7185 0.0000
# 4 0.0000 0.0000 0.0000 34.2049 0.0000 1.1539
# 5 -5.7377 -2.6503 2.7185 0.0000 33.7732 0.0000
# 6 0.0000 0.0000 0.0000 1.1539 0.0000 25.2551
#
#
#
# Elastic Compliance Matrix: (Units=1/GPa)
#
#
# Indices 1 2 3 4 5 6 
#
# 1 0.014788 -0.002608 -0.004854 0.000000 0.002698 0.000000
# 2 -0.002608 0.011312 -0.002780 0.000000 0.000668 0.000000
# 3 -0.004854 -0.002780 0.015759 0.000000 -0.002311 0.000000
# 4 0.000000 0.000000 0.000000 0.029281 0.000000 -0.001338
# 5 0.002698 0.000668 -0.002311 0.000000 0.030306 0.000000
# 6 0.000000 0.000000 0.000000 -0.001338 0.000000 0.039657
#
#
# Mechanical properties :
#
#
# Convention : Reuss Voigt Hill
#
# Bulk Modulus (GPa) = 46.78302 47.24599 47.01450
# Shear Modulus (GPa) = 29.63655 30.62608 30.13132
#
# Velocity S-wave (km/s) = 3.88813 3.95251 3.92045
# Velocity P-wave (km/s) = 6.63481 6.70297 6.66898
#
# Compressibility (1/GPa) = 0.02137528
#
# Stress axis : x y z
#
# Youngs Moduli (GPa) = 67.62417 88.40325 63.45585
#
# Poissons Ratio (x) = 0.23057 0.30800
# Poissons Ratio (y) = 0.17637 0.17638
# Poissons Ratio (z) = 0.32823 0.24573
#
# Static dielectric constant tensor:
#      x y z
#    x 3.611440 0.000000 -0.056090 
#    y 0.000000 3.653010 0.000000 
#    z -0.056090 0.000000 3.420140 
# 
# 
# High freq. dielectric constant tensor:
#      x y z
#    x 1.771210 0.000000 -0.004990 
#    y 0.000000 1.783700 0.000000 
#    z -0.004990 0.000000 1.750170 
# 
# From -- ./inp_files/91202.got.cif
#   From: 2010.06.25/outbox.cif.g09.slc.cpg/sg12_46_cif.got.tgz:91202.got - 2010.06.28 00:19:55.
