data_PCOD8114212
_publ_section_title
;
Structure prediction by ZEFSAII (Michael W. Deem and Ramdas Pophale) SiO2 
 PCOD8114212
Probable space group: C 2/M
;
_chemical_formula_sum "Si O2"
_cell_formula_units_Z 56
_cell_length_a 14.442821
_cell_length_b 23.477363
_cell_length_c 13.956460
_cell_angle_alpha 90.000000
_cell_angle_beta 39.962882
_cell_angle_gamma 90.000000
_cell_volume 3039.545127
_symmetry_space_group_name_H-M "C 2/M"
_symmetry_group_IT_number 12
_symmetry_cell_setting 'monoclinic'
loop_
_space_group_symop_operation_xyz
x,y,z
-x,y,-z
-x,-y,-z
x,-y,z
1/2+x,1/2+y,z
1/2-x,1/2+y,-z
1/2-x,1/2-y,-z
1/2+x,1/2-y,z
loop_
_atom_site_type_symbol
_atom_site_label
_atom_site_fract_x
_atom_site_fract_y
_atom_site_fract_z
Si Si1 0.492807 0.692762 0.317801
Si Si2 0.649230 0.500000 0.279506
Si Si3 0.461705 0.849703 0.157836
Si Si4 0.435603 0.277134 0.149978
Si Si5 0.268076 0.119525 0.472010
Si Si6 0.261134 0.881124 0.148450
Si Si7 0.191005 0.000000 0.460732
Si Si8 0.630020 0.202506 0.462279
O O1 0.495387 0.693480 0.199693
O O2 0.382413 0.645481 0.445138
O O3 0.649168 0.671926 0.229206
O O4 0.433013 0.752265 0.409617
O O5 0.688874 0.442567 0.191832
O O6 0.734729 0.500000 0.313943
O O7 0.478720 0.500000 0.414931
O O8 0.497498 0.786054 0.098056
O O9 0.405560 0.854793 0.308847
O O10 0.338782 0.877718 0.189263
O O11 0.616444 0.880206 0.030088
O O12 0.260710 0.272362 0.293884
O O13 0.500000 0.306241 0.000000
O O14 0.302481 0.143830 0.549943
O O15 0.256925 0.052047 0.469193
O O16 0.500000 0.183050 0.500000
#
# Coordination Sequence:
#
# PCOD8114212 Si02
#       8
#     8   4   8   8   8   8   4   8
#     4  11  22  37  61  84 120 157 193 242 280 344
#     4  11  22  36  55  90 111 152 198 231 287 357
#     4  11  21  35  53  84 124 152 182 237 285 347
#     4  11  21  38  56  86 120 156 195 231 290 348
#     4  11  21  40  56  86 115 151 198 236 291 334
#     4  11  23  34  54  85 121 153 188 234 289 338
#     4  11  22  35  65  81 110 153 200 240 278 353
#     4  11  23  37  61  87 118 155 193 245 286 345
#
# _framework density 18.42381
#
# number of rings (size 3 to 8) (size 9 to 14) (size 15 to 20)
#    0.000    1.000    7.143    1.714    0.000    3.429 
#    0.000    0.357    0.000    0.000    0.000   12.500 
#    0.000    0.000    0.000    0.000    0.000    0.000 
#
# Total GULP energy -346893.503542 kJ/mol
# GULP energy per Si atom -12389.053698 kJ/mol
# Density = 1.838188 g / cm^3
# Si number density = 18.423810 Si / 1000 Ang^3
#
#
#
# Elastic Constant Matrix: (Units=GPa)
#
#
# Indices 1 2 3 4 5 6 
#
# 1 72.5302 35.6912 40.6251 0.0004 -16.0907 0.0004
# 2 35.6912 93.7614 32.3690 -0.0001 -0.7257 0.0006
# 3 40.6251 32.3690 114.4241 0.0031 0.5126 -0.0001
# 4 0.0004 -0.0001 0.0031 15.5766 -0.0007 0.1436
# 5 -16.0907 -0.7257 0.5126 -0.0007 27.9594 -0.0003
# 6 0.0004 0.0006 -0.0001 0.1436 -0.0003 24.4285
#
#
#
# Elastic Compliance Matrix: (Units=1/GPa)
#
#
# Indices 1 2 3 4 5 6 
#
# 1 0.023811 -0.006670 -0.006628 0.000001 0.013651 0.000000
# 2 -0.006670 0.013692 -0.001490 0.000000 -0.003456 0.000000
# 3 -0.006628 -0.001490 0.011532 -0.000002 -0.004065 0.000000
# 4 0.000001 0.000000 -0.000002 0.064202 0.000002 -0.000377
# 5 0.013651 -0.003456 -0.004065 0.000002 0.043607 0.000000
# 6 0.000000 0.000000 0.000000 -0.000377 0.000000 0.040938
#
#
# Mechanical properties :
#
#
# Convention : Reuss Voigt Hill
#
# Bulk Modulus (GPa) = 51.38886 55.34290 53.36588
# Shear Modulus (GPa) = 21.38177 25.06159 23.22168
#
# Velocity S-wave (km/s) = 3.41038 3.69220 3.55409
# Velocity P-wave (km/s) = 6.59248 6.94842 6.77279
#
# Compressibility (1/GPa) = 0.01945947
#
# Stress axis : x y z
#
# Youngs Moduli (GPa) = 41.99825 73.03612 86.71335
#
# Poissons Ratio (x) = 0.48714 0.57474
# Poissons Ratio (y) = 0.28012 0.12918
# Poissons Ratio (z) = 0.27837 0.10880
#
# Static dielectric constant tensor:
#      x y z
#    x 3.215830 0.000000 -0.050030 
#    y 0.000000 3.209860 0.000000 
#    z -0.050030 0.000000 3.617520 
# 
# 
# High freq. dielectric constant tensor:
#      x y z
#    x 1.693230 0.000000 -0.013110 
#    y 0.000000 1.696680 0.000000 
#    z -0.013110 0.000000 1.728790 
# 
# From -- ./inp_files/218264.got.cif
#   From: 2010.06.25/outbox.cif.g09.slc.cpg/sg12_110_cif.got.tgz:218264.got - 2010.06.28 00:19:55.
