data_PCOD8114890
_publ_section_title
;
Structure prediction by ZEFSAII (Michael W. Deem and Ramdas Pophale) SiO2 
 PCOD8114890
Probable space group: C 2/M
;
_chemical_formula_sum "Si O2"
_cell_formula_units_Z 56
_cell_length_a 22.466460
_cell_length_b 21.233760
_cell_length_c 16.483234
_cell_angle_alpha 90.000000
_cell_angle_beta 22.171180
_cell_angle_gamma 90.000000
_cell_volume 2967.407070
_symmetry_space_group_name_H-M "C 2/M"
_symmetry_group_IT_number 12
_symmetry_cell_setting 'monoclinic'
loop_
_space_group_symop_operation_xyz
x,y,z
-x,y,-z
-x,-y,-z
x,-y,z
1/2+x,1/2+y,z
1/2-x,1/2+y,-z
1/2-x,1/2-y,-z
1/2+x,1/2-y,z
loop_
_atom_site_type_symbol
_atom_site_label
_atom_site_fract_x
_atom_site_fract_y
_atom_site_fract_z
Si Si1 0.127685 0.929554 0.191647
Si Si2 0.257622 0.570007 0.643687
Si Si3 0.174700 0.732943 0.296394
Si Si4 0.644941 0.699926 0.084490
Si Si5 0.781416 0.368634 0.143920
Si Si6 0.870537 0.660046 0.318725
Si Si7 0.306367 0.238949 0.543578
O O1 0.184195 0.871409 0.064156
O O2 0.195841 0.920531 0.196295
O O3 0.940984 0.927424 0.431279
O O4 0.180856 0.000000 0.093794
O O5 0.191088 0.500000 0.724864
O O6 0.173700 0.605666 0.823814
O O7 0.215213 0.599035 0.609738
O O8 0.169150 0.808073 0.291069
O O9 0.215835 0.716131 0.336884
O O10 0.000000 0.706287 0.500000
O O11 0.305157 0.701468 0.073045
O O12 0.463024 0.718435 0.329100
O O13 0.750000 0.750000 0.000000
O O14 0.945606 0.348816 0.896715
O O15 0.842750 0.717968 0.291781
O O16 0.800318 0.676595 0.495711
#
# Coordination Sequence:
#
# PCOD8114890 Si02
#       7
#     8   8   8   8   8   8   8
#     4  11  23  40  61  85 122 164 200 250 307 365
#     4  11  23  38  58  86 125 166 200 240 303 376
#     4  12  22  34  64  93 120 154 199 260 304 348
#     4  12  20  38  63  92 118 154 204 251 303 354
#     4  12  21  35  58  91 121 159 200 244 302 365
#     4  11  23  37  57  81 129 162 194 243 295 361
#     4  11  22  39  56  89 126 157 198 251 305 357
#
# _framework density 18.871694999999999
#
# number of rings (size 3 to 8) (size 9 to 14) (size 15 to 20)
#    0.000    0.571    7.143    2.143    0.000    2.857 
#    0.000    0.000    0.000    1.286    0.000    2.000 
#    0.000    0.000    0.000    0.000    0.000    0.000 
#
# Total GULP energy -347177.593331 kJ/mol
# GULP energy per Si atom -12399.199762 kJ/mol
# Density = 1.882874 g / cm^3
# Si number density = 18.871695 Si / 1000 Ang^3
#
#
#
# Elastic Constant Matrix: (Units=GPa)
#
#
# Indices 1 2 3 4 5 6 
#
# 1 117.3254 37.5293 25.8048 -0.0230 18.0939 0.0120
# 2 37.5293 111.2058 13.2509 -0.0111 16.7371 0.0102
# 3 25.8048 13.2509 53.6857 -0.0157 5.3515 0.0131
# 4 -0.0230 -0.0111 -0.0157 19.4689 0.0178 2.3171
# 5 18.0939 16.7371 5.3515 0.0178 36.9180 -0.0095
# 6 0.0120 0.0102 0.0131 2.3171 -0.0095 28.1335
#
#
#
# Elastic Compliance Matrix: (Units=1/GPa)
#
#
# Indices 1 2 3 4 5 6 
#
# 1 0.010829 -0.002625 -0.004208 0.000012 -0.003507 -0.000004
# 2 -0.002625 0.010498 -0.000997 0.000006 -0.003328 -0.000004
# 3 -0.004208 -0.000997 0.020948 0.000013 -0.000522 -0.000009
# 4 0.000012 0.000006 0.000013 0.051872 -0.000036 -0.004272
# 5 -0.003507 -0.003328 -0.000522 -0.000036 0.030391 0.000016
# 6 -0.000004 -0.000004 -0.000009 -0.004272 0.000016 0.035897
#
#
# Mechanical properties :
#
#
# Convention : Reuss Voigt Hill
#
# Bulk Modulus (GPa) = 37.57410 48.37631 42.97520
# Shear Modulus (GPa) = 27.03176 30.61286 28.82231
#
# Velocity S-wave (km/s) = 3.78881 4.03197 3.91228
# Velocity P-wave (km/s) = 6.25249 6.88227 6.57493
#
# Compressibility (1/GPa) = 0.02661408
#
# Stress axis : x y z
#
# Youngs Moduli (GPa) = 92.34056 95.25526 47.73796
#
# Poissons Ratio (x) = 0.25009 0.20087
# Poissons Ratio (y) = 0.24243 0.04762
# Poissons Ratio (z) = 0.38854 0.09501
#
# Static dielectric constant tensor:
#      x y z
#    x 3.617950 -0.000080 -0.029440 
#    y -0.000080 3.583060 0.000100 
#    z -0.029440 0.000100 3.444810 
# 
# 
# High freq. dielectric constant tensor:
#      x y z
#    x 1.742460 0.000000 -0.017470 
#    y 0.000000 1.711650 0.000010 
#    z -0.017470 0.000010 1.724510 
# 
# From -- ./inp_files/89511.got.cif
#   From: 2010.06.25/outbox.cif.g09.slc.cpg/sg12_45_cif.got.tgz:89511.got - 2010.06.28 00:19:55.
