data_PCOD8114202
_publ_section_title
;
Structure prediction by ZEFSAII (Michael W. Deem and Ramdas Pophale) SiO2 
 PCOD8114202
Probable space group: C 2/M
;
_chemical_formula_sum "Si O2"
_cell_formula_units_Z 56
_cell_length_a 24.611605
_cell_length_b 8.554825
_cell_length_c 12.303360
_cell_angle_alpha 90.000000
_cell_angle_beta 103.460139
_cell_angle_gamma 90.000000
_cell_volume 2519.293350
_symmetry_space_group_name_H-M "C 2/M"
_symmetry_group_IT_number 12
_symmetry_cell_setting 'monoclinic'
loop_
_space_group_symop_operation_xyz
x,y,z
-x,y,-z
-x,-y,-z
x,-y,z
1/2+x,1/2+y,z
1/2-x,1/2+y,-z
1/2-x,1/2-y,-z
1/2+x,1/2-y,z
loop_
_atom_site_type_symbol
_atom_site_label
_atom_site_fract_x
_atom_site_fract_y
_atom_site_fract_z
Si Si1 0.255157 0.327087 0.305113
Si Si2 0.565906 0.818690 0.361167
Si Si3 0.548957 0.683068 0.736173
Si Si4 0.798940 0.173269 0.086330
Si Si5 0.135365 0.818399 0.204775
Si Si6 0.598324 0.180393 0.957950
Si Si7 0.132369 0.317827 0.608374
O O1 0.247943 0.500000 0.354131
O O2 0.280277 0.343816 0.199006
O O3 0.194852 0.247531 0.272191
O O4 0.303208 0.229749 0.390612
O O5 0.500874 0.777150 0.344959
O O6 0.590491 0.713612 0.276646
O O7 0.596441 0.775190 0.486445
O O8 0.573667 0.000000 0.335498
O O9 0.537974 0.500000 0.723964
O O10 0.550258 0.731683 0.865556
O O11 0.606272 0.723553 0.698367
O O12 0.848639 0.295072 0.094735
O O13 0.814905 0.000000 0.047942
O O14 0.750000 0.250000 0.000000
O O15 0.142965 0.000000 0.188203
O O16 0.111236 0.745286 0.083081
O O17 0.582175 0.000000 0.961245
O O18 0.130120 0.500000 0.635745
#
# Coordination Sequence:
#
# PCOD8114202 Si02
#       7
#     8   8   8   8   8   8   8
#     4  11  23  39  64  97 134 172 214 265 323 385
#     4  11  26  48  69  93 129 173 222 270 321 384
#     4  12  25  43  69 101 132 167 216 271 326 383
#     4  11  21  34  58  93 129 169 211 262 321 383
#     4  12  26  44  67  96 133 175 218 264 322 391
#     4  12  24  40  65  96 132 171 213 264 324 386
#     4  11  24  43  70 100 130 169 217 271 327 381
#
# _framework density 22.228455
#
# number of rings (size 3 to 8) (size 9 to 14) (size 15 to 20)
#    0.000    0.571    2.857    6.000    0.000    6.286 
#    0.000    2.857    0.000    0.000    0.000    0.000 
#    0.000    0.000    0.000    0.000    0.000    0.000 
#
# Total GULP energy -347144.302609 kJ/mol
# GULP energy per Si atom -12398.010807 kJ/mol
# Density = 2.217786 g / cm^3
# Si number density = 22.228455 Si / 1000 Ang^3
#
#
#
# Elastic Constant Matrix: (Units=GPa)
#
#
# Indices 1 2 3 4 5 6 
#
# 1 54.3840 15.7718 22.4198 0.0000 7.5315 0.0000
# 2 15.7718 103.5244 35.6548 0.0000 5.7334 0.0000
# 3 22.4198 35.6548 94.5921 0.0000 29.9939 0.0000
# 4 0.0000 0.0000 0.0000 30.4990 0.0000 4.9092
# 5 7.5315 5.7334 29.9939 0.0000 37.4085 0.0000
# 6 0.0000 0.0000 0.0000 4.9092 0.0000 37.7625
#
#
#
# Elastic Compliance Matrix: (Units=1/GPa)
#
#
# Indices 1 2 3 4 5 6 
#
# 1 0.020641 -0.001718 -0.004037 0.000000 -0.000656 0.000000
# 2 -0.001718 0.011382 -0.004612 0.000000 0.002300 0.000000
# 3 -0.004037 -0.004612 0.017144 0.000000 -0.012226 0.000000
# 4 0.000000 0.000000 0.000000 0.033489 0.000000 -0.004354
# 5 -0.000656 0.002300 -0.012226 0.000000 0.036314 0.000000
# 6 0.000000 0.000000 0.000000 -0.004354 0.000000 0.027047
#
#
# Mechanical properties :
#
#
# Convention : Reuss Voigt Hill
#
# Bulk Modulus (GPa) = 35.17045 44.46594 39.81819
# Shear Modulus (GPa) = 28.37211 33.04429 30.70820
#
# Velocity S-wave (km/s) = 3.57653 3.85980 3.72086
# Velocity P-wave (km/s) = 5.73690 6.31756 6.03422
#
# Compressibility (1/GPa) = 0.02843296
#
# Stress axis : x y z
#
# Youngs Moduli (GPa) = 48.44732 87.85422 58.33016
#
# Poissons Ratio (x) = 0.15094 0.23546
# Poissons Ratio (y) = 0.08323 0.26904
# Poissons Ratio (z) = 0.19557 0.40522
#
# Static dielectric constant tensor:
#      x y z
#    x 4.028300 0.000000 0.230920 
#    y 0.000000 4.877280 0.000000 
#    z 0.230920 0.000000 4.111050 
# 
# 
# High freq. dielectric constant tensor:
#      x y z
#    x 1.871630 0.000000 0.017670 
#    y 0.000000 1.885110 0.000000 
#    z 0.017670 0.000000 1.887310 
# 
# From -- ./inp_files/237910.got.cif
#   From: 2010.06.25/outbox.cif.g09.slc.cpg/sg12_119_cif.got.tgz:237910.got - 2010.06.28 00:19:55.
