data_PCOD8114336
_publ_section_title
;
Structure prediction by ZEFSAII (Michael W. Deem and Ramdas Pophale) SiO2 
 PCOD8114336
Probable space group: C 2/M
;
_chemical_formula_sum "Si O2"
_cell_formula_units_Z 56
_cell_length_a 16.437125
_cell_length_b 16.481762
_cell_length_c 11.455063
_cell_angle_alpha 90.000000
_cell_angle_beta 66.683272
_cell_angle_gamma 90.000000
_cell_volume 2849.877266
_symmetry_space_group_name_H-M "C 2/M"
_symmetry_group_IT_number 12
_symmetry_cell_setting 'monoclinic'
loop_
_space_group_symop_operation_xyz
x,y,z
-x,y,-z
-x,-y,-z
x,-y,z
1/2+x,1/2+y,z
1/2-x,1/2+y,-z
1/2-x,1/2-y,-z
1/2+x,1/2-y,z
loop_
_atom_site_type_symbol
_atom_site_label
_atom_site_fract_x
_atom_site_fract_y
_atom_site_fract_z
Si Si1 0.633184 0.644081 0.646554
Si Si2 0.865327 0.305219 0.222226
Si Si3 0.196303 0.096662 0.364145
Si Si4 0.118513 0.000000 0.815944
Si Si5 0.350128 0.775860 0.967672
Si Si6 0.973107 0.589203 0.881840
Si Si7 0.572621 0.351094 0.242654
Si Si8 0.408270 0.500000 0.913534
O O1 0.657724 0.734602 0.672877
O O2 0.691100 0.620451 0.502257
O O3 0.657993 0.580349 0.733710
O O4 0.530098 0.634935 0.673534
O O5 0.789732 0.373598 0.260461
O O6 0.953793 0.350962 0.216058
O O7 0.875265 0.261915 0.089445
O O8 0.120958 0.148558 0.340040
O O9 0.185240 0.000000 0.353251
O O10 0.012974 0.000000 0.872298
O O11 0.146771 0.000000 0.935005
O O12 0.375070 0.870079 0.925926
O O13 0.414992 0.727835 0.843903
O O14 0.250000 0.750000 0.000000
O O15 0.970956 0.500000 0.822892
O O16 0.000000 0.578779 0.000000
O O17 0.620190 0.421914 0.142788
#
# Coordination Sequence:
#
# PCOD8114336 Si02
#       8
#     8   8   8   4   8   8   8   4
#     4  11  22  38  60  85 120 164 207 247 300 363
#     4  11  22  38  63  87 122 161 204 252 301 358
#     4  12  24  39  59  89 125 162 207 254 297 361
#     4   9  18  33  55  83 117 153 197 246 300 369
#     4  11  21  38  60  91 124 150 197 257 308 362
#     4   9  19  37  62  88 117 156 198 246 303 358
#     4  11  21  37  59  87 120 159 195 252 312 360
#     4   9  18  31  55  85 113 150 192 238 309 364
#
# _framework density 19.649968999999999
#
# number of rings (size 3 to 8) (size 9 to 14) (size 15 to 20)
#    0.000    1.429    4.286    2.143    0.000    2.286 
#    1.286    0.000    0.000    0.000    0.000    1.000 
#    0.000    0.000    0.000    0.000    0.000    0.000 
#
# Total GULP energy -347102.527790 kJ/mol
# GULP energy per Si atom -12396.518850 kJ/mol
# Density = 1.960524 g / cm^3
# Si number density = 19.649969 Si / 1000 Ang^3
#
#
#
# Elastic Constant Matrix: (Units=GPa)
#
#
# Indices 1 2 3 4 5 6 
#
# 1 64.6874 27.1152 1.7421 0.0000 -7.2774 0.0000
# 2 27.1152 126.2505 26.3831 0.0000 1.1307 0.0000
# 3 1.7421 26.3831 73.9550 0.0000 11.0265 0.0000
# 4 0.0000 0.0000 0.0000 29.6882 0.0000 -4.6503
# 5 -7.2774 1.1307 11.0265 0.0000 25.1070 0.0000
# 6 0.0000 0.0000 0.0000 -4.6503 0.0000 23.1016
#
#
#
# Elastic Compliance Matrix: (Units=1/GPa)
#
#
# Indices 1 2 3 4 5 6 
#
# 1 0.017667 -0.003881 0.000191 0.000000 0.005212 0.000000
# 2 -0.003881 0.009436 -0.003257 0.000000 -0.000119 0.000000
# 3 0.000191 -0.003257 0.015675 0.000000 -0.006682 0.000000
# 4 0.000000 0.000000 0.000000 0.034780 0.000000 0.007001
# 5 0.005212 -0.000119 -0.006682 0.000000 0.044280 0.000000
# 6 0.000000 0.000000 0.000000 0.007001 0.000000 0.044696
#
#
# Mechanical properties :
#
#
# Convention : Reuss Voigt Hill
#
# Bulk Modulus (GPa) = 34.62008 41.70819 38.16414
# Shear Modulus (GPa) = 26.30794 29.55621 27.93207
#
# Velocity S-wave (km/s) = 3.66297 3.88253 3.77434
# Velocity P-wave (km/s) = 5.96208 6.43198 6.20148
#
# Compressibility (1/GPa) = 0.02888497
#
# Stress axis : x y z
#
# Youngs Moduli (GPa) = 56.60288 105.97703 63.79405
#
# Poissons Ratio (x) = 0.41130 -0.01221
# Poissons Ratio (y) = 0.21968 0.20778
# Poissons Ratio (z) = -0.01083 0.34517
#
# Static dielectric constant tensor:
#      x y z
#    x 3.263510 0.000000 -0.006680 
#    y 0.000000 3.878170 0.000000 
#    z -0.006680 0.000000 3.526260 
# 
# 
# High freq. dielectric constant tensor:
#      x y z
#    x 1.739920 0.000000 -0.005290 
#    y 0.000000 1.775400 0.000000 
#    z -0.005290 0.000000 1.757060 
# 
# From -- ./inp_files/156567.got.cif
#   From: 2010.06.25/outbox.cif.g09.slc.cpg/sg12_79_cif.got.tgz:156567.got - 2010.06.28 00:19:55.
