data_PCOD8114974
_publ_section_title
;
Structure prediction by ZEFSAII (Michael W. Deem and Ramdas Pophale) SiO2 
 PCOD8114974
Probable space group: C 2/M
;
_chemical_formula_sum "Si O2"
_cell_formula_units_Z 48
_cell_length_a 28.505699
_cell_length_b 11.831418
_cell_length_c 16.209956
_cell_angle_alpha 90.000000
_cell_angle_beta 27.652269
_cell_angle_gamma 90.000000
_cell_volume 2537.265518
_symmetry_space_group_name_H-M "C 2/M"
_symmetry_group_IT_number 12
_symmetry_cell_setting 'monoclinic'
loop_
_space_group_symop_operation_xyz
x,y,z
-x,y,-z
-x,-y,-z
x,-y,z
1/2+x,1/2+y,z
1/2-x,1/2+y,-z
1/2-x,1/2-y,-z
1/2+x,1/2-y,z
loop_
_atom_site_type_symbol
_atom_site_label
_atom_site_fract_x
_atom_site_fract_y
_atom_site_fract_z
Si Si1 0.666609 0.500000 0.257294
Si Si2 0.508600 0.500000 0.358185
Si Si3 0.347935 0.369381 0.200968
Si Si4 0.502391 0.732510 0.706482
Si Si5 0.724598 0.772213 0.944445
Si Si6 0.444478 0.632561 0.213426
Si Si7 0.825632 0.364472 0.646260
O O1 0.583360 0.500000 0.317329
O O2 0.608949 0.500000 0.434159
O O3 0.733923 0.390577 0.149593
O O4 0.531842 0.609975 0.270059
O O5 0.331771 0.500000 0.241432
O O6 0.368390 0.319767 0.261024
O O7 0.248499 0.321056 0.311422
O O8 0.441954 0.350005 0.994798
O O9 0.567304 0.713922 0.688975
O O10 0.566657 0.804833 0.539941
O O11 0.394086 0.789960 0.888740
O O12 0.779094 0.673666 0.806302
O O13 0.750000 0.750000 0.000000
O O14 0.424903 0.500000 0.265186
O O15 0.839053 0.500000 0.627210
#
# Coordination Sequence:
#
# PCOD8114974 Si02
#       7
#     4   4   8   8   8   8   8
#     4  11  24  44  60  84 121 155 205 256 294 351
#     4  11  22  40  64  86 115 151 213 255 286 347
#     4   8  16  33  56  88 122 152 195 247 293 347
#     4  12  23  38  63  93 118 161 200 244 302 355
#     4  12  26  41  64  88 117 161 199 248 307 350
#     4   9  16  30  61  92 115 152 203 246 288 349
#     4  11  25  42  59  90 128 158 196 248 301 362
#
# _framework density 18.918004
#
# number of rings (size 3 to 8) (size 9 to 14) (size 15 to 20)
#    0.000    1.500    5.833    1.000    3.500    1.333 
#    0.000    0.833    0.000    0.000    0.000    2.333 
#    0.000    0.000    0.000    0.000    0.000    0.000 
#
# Total GULP energy -297460.711609 kJ/mol
# GULP energy per Si atom -12394.196317 kJ/mol
# Density = 1.887495 g / cm^3
# Si number density = 18.918004 Si / 1000 Ang^3
#
#
#
# Elastic Constant Matrix: (Units=GPa)
#
#
# Indices 1 2 3 4 5 6 
#
# 1 91.4673 22.1908 33.2311 0.0000 7.5111 0.0000
# 2 22.1908 72.2529 31.1325 0.0000 -7.7475 0.0000
# 3 33.2311 31.1325 100.8109 0.0000 -4.4498 0.0000
# 4 0.0000 0.0000 0.0000 57.9839 0.0000 17.2432
# 5 7.5111 -7.7475 -4.4498 0.0000 25.7528 0.0000
# 6 0.0000 0.0000 0.0000 17.2432 0.0000 48.1756
#
#
#
# Elastic Compliance Matrix: (Units=1/GPa)
#
#
# Indices 1 2 3 4 5 6 
#
# 1 0.013500 -0.003133 -0.003727 0.000000 -0.005524 0.000000
# 2 -0.003133 0.017107 -0.004013 0.000000 0.005367 0.000000
# 3 -0.003727 -0.004013 0.012477 0.000000 0.002035 0.000000
# 4 0.000000 0.000000 0.000000 0.019300 0.000000 -0.006908
# 5 -0.005524 0.005367 0.002035 0.000000 0.042408 0.000000
# 6 0.000000 0.000000 0.000000 -0.006908 0.000000 0.023230
#
#
# Mechanical properties :
#
#
# Convention : Reuss Voigt Hill
#
# Bulk Modulus (GPa) = 46.86241 48.62664 47.74453
# Shear Modulus (GPa) = 31.87093 38.24756 35.05925
#
# Velocity S-wave (km/s) = 4.10895 4.50127 4.30958
# Velocity P-wave (km/s) = 6.88014 7.26464 7.07500
#
# Compressibility (1/GPa) = 0.02133906
#
# Stress axis : x y z
#
# Youngs Moduli (GPa) = 74.07144 58.45454 80.14585
#
# Poissons Ratio (x) = 0.18314 0.29867
# Poissons Ratio (y) = 0.23206 0.32166
# Poissons Ratio (z) = 0.27603 0.23460
#
# Static dielectric constant tensor:
#      x y z
#    x 3.708440 0.000000 0.083690 
#    y 0.000000 3.221700 0.000000 
#    z 0.083690 0.000000 3.449400 
# 
# 
# High freq. dielectric constant tensor:
#      x y z
#    x 1.745420 0.000000 0.003000 
#    y 0.000000 1.711780 0.000000 
#    z 0.003000 0.000000 1.734700 
# 
# From -- ./inp_files/245879.got.cif
#   From: 2010.06.25/outbox.cif.g09.slc.cpg/sg12_123_cif.got.tgz:245879.got - 2010.06.28 00:19:55.
