data_PCOD8114161
_publ_section_title
;
Structure prediction by ZEFSAII (Michael W. Deem and Ramdas Pophale) SiO2 
 PCOD8114161
Probable space group: C 2/M
;
_chemical_formula_sum "Si O2"
_cell_formula_units_Z 40
_cell_length_a 24.205138
_cell_length_b 9.174804
_cell_length_c 20.910596
_cell_angle_alpha 90.000000
_cell_angle_beta 148.815836
_cell_angle_gamma 90.000000
_cell_volume 2404.500716
_symmetry_space_group_name_H-M "C 2/M"
_symmetry_group_IT_number 12
_symmetry_cell_setting 'monoclinic'
loop_
_space_group_symop_operation_xyz
x,y,z
-x,y,-z
-x,-y,-z
x,-y,z
1/2+x,1/2+y,z
1/2-x,1/2+y,-z
1/2-x,1/2-y,-z
1/2+x,1/2-y,z
loop_
_atom_site_type_symbol
_atom_site_label
_atom_site_fract_x
_atom_site_fract_y
_atom_site_fract_z
Si Si1 0.913840 0.669709 0.505004
Si Si2 0.147348 0.671953 0.094378
Si Si3 0.079774 0.672090 0.165785
Si Si4 0.244487 0.826297 0.562211
Si Si5 0.146776 0.668119 0.697817
O O1 0.888926 0.500000 0.493994
O O2 0.860461 0.771660 0.505097
O O3 0.871509 0.716495 0.393520
O O4 0.040685 0.698829 0.633926
O O5 0.163097 0.500000 0.108446
O O6 0.128098 0.732084 0.147251
O O7 0.254995 0.743966 0.173777
O O8 0.044468 0.719537 0.949803
O O9 0.084775 0.500000 0.165834
O O10 0.150226 0.726888 0.294942
O O11 0.250000 0.750000 0.500000
O O12 0.239764 0.000000 0.549883
O O13 0.176678 0.500000 0.729934
#
# Coordination Sequence:
#
# PCOD8114161 Si02
#       5
#     8   8   8   8   8
#     4   9  18  32  47  68 100 132 159 191 238 289
#     4   9  15  28  49  71  96 125 156 194 237 290
#     4   8  16  29  46  69  97 126 157 193 239 285
#     4  11  21  34  51  71  96 129 165 200 234 279
#     4   9  17  29  47  72 102 128 152 194 246 285
#
# _framework density 16.635470999999999
#
# number of rings (size 3 to 8) (size 9 to 14) (size 15 to 20)
#    0.000    2.800    2.000    3.000    0.000    0.800 
#    0.000    6.000    0.000    1.200    0.000    0.000 
#    0.000    0.000    0.000    0.000    0.000    0.000 
#
# Total GULP energy -247893.136104 kJ/mol
# GULP energy per Si atom -12394.656805 kJ/mol
# Density = 1.659761 g / cm^3
# Si number density = 16.635471 Si / 1000 Ang^3
#
#
#
# Elastic Constant Matrix: (Units=GPa)
#
#
# Indices 1 2 3 4 5 6 
#
# 1 87.3411 43.2720 57.0792 0.0000 5.6200 0.0000
# 2 43.2720 55.3160 45.3665 0.0000 8.1518 0.0000
# 3 57.0792 45.3665 132.4282 0.0000 17.5633 0.0000
# 4 0.0000 0.0000 0.0000 22.4879 0.0000 6.0657
# 5 5.6200 8.1518 17.5633 0.0000 28.5518 0.0000
# 6 0.0000 0.0000 0.0000 6.0657 0.0000 28.5334
#
#
#
# Elastic Compliance Matrix: (Units=1/GPa)
#
#
# Indices 1 2 3 4 5 6 
#
# 1 0.020748 -0.012510 -0.004997 0.000000 0.002562 0.000000
# 2 -0.012510 0.032795 -0.005365 0.000000 -0.003601 0.000000
# 3 -0.004997 -0.005365 0.012205 0.000000 -0.004992 0.000000
# 4 0.000000 0.000000 0.000000 0.047173 0.000000 -0.010028
# 5 0.002562 -0.003601 -0.004992 0.000000 0.038619 0.000000
# 6 0.000000 0.000000 0.000000 -0.010028 0.000000 0.037178
#
#
# Mechanical properties :
#
#
# Convention : Reuss Voigt Hill
#
# Bulk Modulus (GPa) = 49.99000 62.94674 56.46837
# Shear Modulus (GPa) = 20.73570 24.53915 22.63743
#
# Velocity S-wave (km/s) = 3.53438 3.84488 3.69289
# Velocity P-wave (km/s) = 6.83895 7.59156 7.22506
#
# Compressibility (1/GPa) = 0.02000400
#
# Stress axis : x y z
#
# Youngs Moduli (GPa) = 48.19748 30.49277 81.93277
#
# Poissons Ratio (x) = 0.38146 0.40942
# Poissons Ratio (y) = 0.60294 0.43958
# Poissons Ratio (z) = 0.24084 0.16360
#
# Static dielectric constant tensor:
#      x y z
#    x 2.889640 0.000000 0.131740 
#    y 0.000000 2.905720 0.000000 
#    z 0.131740 0.000000 3.423220 
# 
# 
# High freq. dielectric constant tensor:
#      x y z
#    x 1.609140 0.000000 0.023800 
#    y 0.000000 1.625380 0.000000 
#    z 0.023800 0.000000 1.644860 
# 
# From -- ./inp_files/162377.got.cif
#   From: 2010.06.25/outbox.cif.g09.slc.cpg/sg12_82_cif.got.tgz:162377.got - 2010.06.28 00:19:55.
