data_PCOD8114409
_publ_section_title
;
Structure prediction by ZEFSAII (Michael W. Deem and Ramdas Pophale) SiO2 
 PCOD8114409
Probable space group: C 2/M
;
_chemical_formula_sum "Si O2"
_cell_formula_units_Z 64
_cell_length_a 10.012194
_cell_length_b 16.461122
_cell_length_c 33.227845
_cell_angle_alpha 90.000000
_cell_angle_beta 34.071826
_cell_angle_gamma 90.000000
_cell_volume 3068.022781
_symmetry_space_group_name_H-M "C 2/M"
_symmetry_group_IT_number 12
_symmetry_cell_setting 'monoclinic'
loop_
_space_group_symop_operation_xyz
x,y,z
-x,y,-z
-x,-y,-z
x,-y,z
1/2+x,1/2+y,z
1/2-x,1/2+y,-z
1/2-x,1/2-y,-z
1/2+x,1/2-y,z
loop_
_atom_site_type_symbol
_atom_site_label
_atom_site_fract_x
_atom_site_fract_y
_atom_site_fract_z
Si Si1 0.431867 0.403350 0.060879
Si Si2 0.540036 0.660705 0.710709
Si Si3 0.489693 0.845100 0.547460
Si Si4 0.269023 0.403302 0.937353
Si Si5 0.925608 0.651225 0.300030
Si Si6 0.083882 0.407116 0.784773
Si Si7 0.479344 0.348170 0.460938
Si Si8 0.896991 0.095019 0.218451
O O1 0.446898 0.500000 0.057846
O O2 0.606329 0.369621 0.052720
O O3 0.161016 0.374674 0.134954
O O4 0.500000 0.368487 0.000000
O O5 0.756580 0.624346 0.629832
O O6 0.591788 0.754359 0.707267
O O7 0.297473 0.650106 0.746165
O O8 0.509455 0.613875 0.760303
O O9 0.500000 0.881114 0.500000
O O10 0.495211 0.748404 0.544709
O O11 0.724672 0.879277 0.509780
O O12 0.262779 0.500000 0.940423
O O13 0.415460 0.373138 0.861724
O O14 0.000000 0.368811 0.000000
O O15 0.953762 0.597369 0.253500
O O16 0.688335 0.617904 0.380700
O O17 0.146042 0.639572 0.275035
O O18 0.136594 0.500000 0.784112
O O19 0.500000 0.385153 0.500000
O O20 0.858622 0.000000 0.222678
#
# Coordination Sequence:
#
# PCOD8114409 Si02
#       8
#     8   8   8   8   8   8   8   8
#     4   9  18  33  56  84 111 145 195 241 272 324
#     4  11  23  36  59  89 116 151 193 239 289 341
#     4   9  17  32  52  79 109 141 190 243 279 321
#     4   9  18  33  56  84 111 146 193 239 278 324
#     4  11  21  38  61  85 114 153 193 237 289 344
#     4  11  22  38  59  86 118 153 191 234 289 344
#     4   9  17  30  54  81 105 139 192 243 277 321
#     4  11  22  38  59  86 120 151 187 238 290 342
#
# _framework density 20.860340999999998
#
# number of rings (size 3 to 8) (size 9 to 14) (size 15 to 20)
#    0.000    2.000    1.250    3.000    1.750    4.000 
#    0.000    0.000    0.000   19.500    0.000    0.000 
#    0.000    0.000    0.000    0.000    0.000    0.000 
#
# Total GULP energy -396834.368850 kJ/mol
# GULP energy per Si atom -12401.074027 kJ/mol
# Density = 2.081286 g / cm^3
# Si number density = 20.860341 Si / 1000 Ang^3
#
#
#
# Elastic Constant Matrix: (Units=GPa)
#
#
# Indices 1 2 3 4 5 6 
#
# 1 145.9023 9.9809 77.9487 0.0097 -0.8566 -0.0076
# 2 9.9809 21.4756 20.7589 -0.0015 -0.2575 0.0019
# 3 77.9487 20.7589 185.5936 0.0025 -1.7426 0.0010
# 4 0.0097 -0.0015 0.0025 17.9845 0.0025 1.6808
# 5 -0.8566 -0.2575 -1.7426 0.0025 49.3762 0.0053
# 6 -0.0076 0.0019 0.0010 1.6808 0.0053 21.4859
#
#
#
# Elastic Compliance Matrix: (Units=1/GPa)
#
#
# Indices 1 2 3 4 5 6 
#
# 1 0.008843 -0.000583 -0.003649 -0.000005 0.000022 0.000004
# 2 -0.000583 0.052248 -0.005599 0.000006 0.000065 -0.000005
# 3 -0.003649 -0.005599 0.007548 0.000001 0.000174 -0.000001
# 4 -0.000005 0.000006 0.000001 0.056013 -0.000002 -0.004382
# 5 0.000022 0.000065 0.000174 -0.000002 0.020260 -0.000005
# 6 0.000004 -0.000005 -0.000001 -0.004382 -0.000005 0.046885
#
#
# Mechanical properties :
#
#
# Convention : Reuss Voigt Hill
#
# Bulk Modulus (GPa) = 20.41681 63.37205 41.89443
# Shear Modulus (GPa) = 21.95067 34.05485 28.00276
#
# Velocity S-wave (km/s) = 3.24739 4.04482 3.66784
# Velocity P-wave (km/s) = 4.88562 7.22906 6.16963
#
# Compressibility (1/GPa) = 0.04897926
#
# Stress axis : x y z
#
# Youngs Moduli (GPa) = 113.08060 19.13957 132.47794
#
# Poissons Ratio (x) = 0.01115 0.48338
# Poissons Ratio (y) = 0.06590 0.74169
# Poissons Ratio (z) = 0.41260 0.10716
#
# Static dielectric constant tensor:
#      x y z
#    x 3.834840 -0.000020 0.020670 
#    y -0.000020 3.151700 0.000020 
#    z 0.020670 0.000020 4.033450 
# 
# 
# High freq. dielectric constant tensor:
#      x y z
#    x 1.829780 0.000000 0.000430 
#    y 0.000000 1.766520 0.000000 
#    z 0.000430 0.000000 1.832800 
# 
# From -- ./inp_files/372949.got.cif
#   From: 2010.06.25/outbox.cif.g09.slc.cpg/sg12_187_cif.got.tgz:372949.got - 2010.06.28 00:19:55.
