data_PCOD8114268
_publ_section_title
;
Structure prediction by ZEFSAII (Michael W. Deem and Ramdas Pophale) SiO2 
 PCOD8114268
Probable space group: C 2/M
;
_chemical_formula_sum "Si O2"
_cell_formula_units_Z 64
_cell_length_a 27.016760
_cell_length_b 21.263943
_cell_length_c 17.984009
_cell_angle_alpha 90.000000
_cell_angle_beta 19.073188
_cell_angle_gamma 90.000000
_cell_volume 3376.084324
_symmetry_space_group_name_H-M "C 2/M"
_symmetry_group_IT_number 12
_symmetry_cell_setting 'monoclinic'
loop_
_space_group_symop_operation_xyz
x,y,z
-x,y,-z
-x,-y,-z
x,-y,z
1/2+x,1/2+y,z
1/2-x,1/2+y,-z
1/2-x,1/2-y,-z
1/2+x,1/2-y,z
loop_
_atom_site_type_symbol
_atom_site_label
_atom_site_fract_x
_atom_site_fract_y
_atom_site_fract_z
Si Si1 0.453808 0.777664 0.648998
Si Si2 0.981680 0.784192 0.211035
Si Si3 0.344764 0.664676 0.895125
Si Si4 0.726790 0.724828 0.735638
Si Si5 0.216528 0.330811 0.491189
Si Si6 0.796795 0.370418 0.245597
Si Si7 0.897343 0.426278 0.246890
Si Si8 0.519781 0.427539 0.559186
O O1 0.500000 0.765502 0.500000
O O2 0.369583 0.715031 0.794805
O O3 0.602926 0.792687 0.483667
O O4 0.330981 0.834377 0.829634
O O5 0.935327 0.712543 0.295941
O O6 0.827990 0.815226 0.400761
O O7 0.039910 0.821112 0.200893
O O8 0.113686 0.787507 0.963037
O O9 0.378484 0.597178 0.809386
O O10 0.692848 0.677078 0.715172
O O11 0.710085 0.795741 0.728485
O O12 0.164026 0.401941 0.585762
O O13 0.781646 0.409702 0.343917
O O14 0.663985 0.387017 0.377884
O O15 0.951365 0.387842 0.985227
O O16 0.928636 0.500000 0.207302
O O17 0.500000 0.416821 0.500000
O O18 0.544459 0.500000 0.543455
#
# Coordination Sequence:
#
# PCOD8114268 Si02
#       8
#     8   8   8   8   8   8   8   8
#     4  11  22  36  56  85 117 150 188 234 289 348
#     4  11  21  36  56  86 118 148 190 243 299 342
#     4  11  22  36  59  84 114 156 192 234 293 352
#     4  12  22  36  60  89 119 151 185 251 301 342
#     4  11  22  35  55  86 118 153 190 236 296 350
#     4  11  21  37  59  87 120 153 193 238 294 355
#     4  11  23  38  59  84 119 163 196 232 283 354
#     4  11  23  38  58  85 120 155 194 240 287 346
#
# _framework density 18.956873000000002
#
# number of rings (size 3 to 8) (size 9 to 14) (size 15 to 20)
#    0.000    0.875    5.000    4.500    1.750    1.000 
#    0.000    0.000    0.000    2.625    0.000    0.000 
#    0.000    0.000    0.000    0.000    0.000    0.000 
#
# Total GULP energy -396708.276573 kJ/mol
# GULP energy per Si atom -12397.133643 kJ/mol
# Density = 1.891373 g / cm^3
# Si number density = 18.956873 Si / 1000 Ang^3
#
#
#
# Elastic Constant Matrix: (Units=GPa)
#
#
# Indices 1 2 3 4 5 6 
#
# 1 86.7861 43.1792 39.1025 -0.0031 15.1114 0.0042
# 2 43.1792 63.5299 21.5334 -0.0017 5.3336 0.0014
# 3 39.1025 21.5334 84.6830 0.0011 7.6332 0.0011
# 4 -0.0031 -0.0017 0.0011 14.8455 0.0001 8.0292
# 5 15.1114 5.3336 7.6332 0.0001 37.3285 -0.0023
# 6 0.0042 0.0014 0.0011 8.0292 -0.0023 21.8404
#
#
#
# Elastic Compliance Matrix: (Units=1/GPa)
#
#
# Indices 1 2 3 4 5 6 
#
# 1 0.021209 -0.011814 -0.006283 0.000007 -0.005613 -0.000006
# 2 -0.011814 0.023900 -0.000759 0.000000 0.001523 0.000001
# 3 -0.006283 -0.000759 0.014939 -0.000003 -0.000403 0.000002
# 4 0.000007 0.000000 -0.000003 0.084078 -0.000004 -0.030909
# 5 -0.005613 0.001523 -0.000403 -0.000004 0.028926 0.000006
# 6 -0.000006 0.000001 0.000002 -0.030909 0.000006 0.057150
#
#
# Mechanical properties :
#
#
# Convention : Reuss Voigt Hill
#
# Bulk Modulus (GPa) = 44.77322 49.18102 46.97712
# Shear Modulus (GPa) = 18.15806 23.54847 20.85327
#
# Velocity S-wave (km/s) = 3.09829 3.52833 3.32028
# Velocity P-wave (km/s) = 6.03895 6.52677 6.28760
#
# Compressibility (1/GPa) = 0.02233478
#
# Stress axis : x y z
#
# Youngs Moduli (GPa) = 47.15026 41.84143 66.93699
#
# Poissons Ratio (x) = 0.49432 0.42058
# Poissons Ratio (y) = 0.55703 0.05083
# Poissons Ratio (z) = 0.29625 0.03178
#
# Static dielectric constant tensor:
#      x y z
#    x 3.838790 0.000000 -0.076450 
#    y 0.000000 3.240560 0.000020 
#    z -0.076450 0.000020 3.723050 
# 
# 
# High freq. dielectric constant tensor:
#      x y z
#    x 1.750700 0.000000 -0.000630 
#    y 0.000000 1.694750 0.000000 
#    z -0.000630 0.000000 1.745400 
# 
# From -- ./inp_files/294128.got.cif
#   From: 2010.06.25/outbox.cif.g09.slc.cpg/sg12_148_cif.got.tgz:294128.got - 2010.06.28 00:19:55.
