data_PCOD8114252
_publ_section_title
;
Structure prediction by ZEFSAII (Michael W. Deem and Ramdas Pophale) SiO2 
 PCOD8114252
Probable space group: C 2/M
;
_chemical_formula_sum "Si O2"
_cell_formula_units_Z 56
_cell_length_a 21.128904
_cell_length_b 8.848215
_cell_length_c 29.599772
_cell_angle_alpha 90.000000
_cell_angle_beta 30.342058
_cell_angle_gamma 90.000000
_cell_volume 2795.445590
_symmetry_space_group_name_H-M "C 2/M"
_symmetry_group_IT_number 12
_symmetry_cell_setting 'monoclinic'
loop_
_space_group_symop_operation_xyz
x,y,z
-x,y,-z
-x,-y,-z
x,-y,z
1/2+x,1/2+y,z
1/2-x,1/2+y,-z
1/2-x,1/2-y,-z
1/2+x,1/2-y,z
loop_
_atom_site_type_symbol
_atom_site_label
_atom_site_fract_x
_atom_site_fract_y
_atom_site_fract_z
Si Si1 0.752520 0.180441 0.048003
Si Si2 0.390201 0.329968 0.627972
Si Si3 0.104363 0.821547 0.216453
Si Si4 0.734049 0.827491 0.216729
Si Si5 0.821319 0.170283 0.572305
Si Si6 0.989594 0.825230 0.956676
Si Si7 0.174021 0.176139 0.587808
O O1 0.634566 0.239727 0.150213
O O2 0.747546 0.000000 0.047483
O O3 0.750000 0.250000 0.000000
O O4 0.880269 0.243814 0.992851
O O5 0.356050 0.500000 0.664697
O O6 0.359093 0.211488 0.685691
O O7 0.536459 0.316461 0.530347
O O8 0.312854 0.289296 0.630459
O O9 0.209481 0.774490 0.187938
O O10 0.969804 0.768114 0.319404
O O11 0.106036 0.000000 0.207212
O O12 0.874225 0.801145 0.149724
O O13 0.713724 0.000000 0.214209
O O14 0.738406 0.287756 0.595835
O O15 0.772811 0.000000 0.593307
O O16 0.954467 0.000000 0.984614
O O17 0.000000 0.749795 0.000000
O O18 0.250000 0.250000 0.500000
O O19 0.177367 0.000000 0.576312
#
# Coordination Sequence:
#
# PCOD8114252 Si02
#       7
#     8   8   8   8   8   8   8
#     4  11  23  42  66  91 124 162 202 249 304 364
#     4   9  19  36  56  82 115 150 186 236 295 347
#     4  11  24  41  59  85 121 158 197 248 303 355
#     4  11  21  35  60  89 113 147 196 242 291 351
#     4   9  19  37  58  78 111 154 193 234 288 349
#     4   9  18  37  61  84 114 151 189 235 290 344
#     4  11  24  39  58  84 118 156 197 244 297 355
#
# _framework density 20.032585000000001
#
# number of rings (size 3 to 8) (size 9 to 14) (size 15 to 20)
#    0.000    1.857    1.429    3.429    0.000    8.000 
#    0.000    9.286    0.000    0.000    0.000    0.000 
#    0.000    0.000    0.000    0.000    0.000    0.000 
#
# Total GULP energy -347159.373633 kJ/mol
# GULP energy per Si atom -12398.549058 kJ/mol
# Density = 1.998699 g / cm^3
# Si number density = 20.032585 Si / 1000 Ang^3
#
#
#
# Elastic Constant Matrix: (Units=GPa)
#
#
# Indices 1 2 3 4 5 6 
#
# 1 124.6252 38.3239 52.3057 -0.0014 2.6450 0.0038
# 2 38.3239 66.0401 48.8947 -0.0033 2.1800 0.0081
# 3 52.3057 48.8947 105.6004 0.0001 13.8563 0.0041
# 4 -0.0014 -0.0033 0.0001 28.7008 0.0002 3.5514
# 5 2.6450 2.1800 13.8563 0.0002 34.1688 0.0065
# 6 0.0038 0.0081 0.0041 3.5514 0.0065 36.2251
#
#
#
# Elastic Compliance Matrix: (Units=1/GPa)
#
#
# Indices 1 2 3 4 5 6 
#
# 1 0.010652 -0.003369 -0.003840 0.000000 0.000948 0.000000
# 2 -0.003369 0.024405 -0.009993 0.000003 0.002756 -0.000005
# 3 -0.003840 -0.009993 0.016768 -0.000002 -0.005865 0.000002
# 4 0.000000 0.000003 -0.000002 0.035270 0.000001 -0.003458
# 5 0.000948 0.002756 -0.005865 0.000001 0.031396 -0.000006
# 6 0.000000 -0.000005 0.000002 -0.003458 -0.000006 0.027944
#
#
# Mechanical properties :
#
#
# Convention : Reuss Voigt Hill
#
# Bulk Modulus (GPa) = 57.40417 63.92379 60.66398
# Shear Modulus (GPa) = 26.78862 30.26835 28.52849
#
# Velocity S-wave (km/s) = 3.66081 3.89132 3.77782
# Velocity P-wave (km/s) = 6.82542 7.22281 7.02692
#
# Compressibility (1/GPa) = 0.01742034
#
# Stress axis : x y z
#
# Youngs Moduli (GPa) = 93.88012 40.97531 59.63692
#
# Poissons Ratio (x) = 0.13806 0.22903
# Poissons Ratio (y) = 0.31632 0.59593
# Poissons Ratio (z) = 0.36053 0.40945
#
# Static dielectric constant tensor:
#      x y z
#    x 3.795670 -0.000020 -0.055150 
#    y -0.000020 3.503110 0.000010 
#    z -0.055150 0.000010 3.713350 
# 
# 
# High freq. dielectric constant tensor:
#      x y z
#    x 1.785900 0.000000 0.001590 
#    y 0.000000 1.767040 0.000000 
#    z 0.001590 0.000000 1.786680 
# 
# From -- ./inp_files/380641.got.cif
#   From: 2010.06.25/outbox.cif.g09.slc.cpg/sg12_191_cif.got.tgz:380641.got - 2010.06.28 00:19:55.
