data_PCOD8114895
_publ_section_title
;
Structure prediction by ZEFSAII (Michael W. Deem and Ramdas Pophale) SiO2 
 PCOD8114895
Probable space group: C 2/M
;
_chemical_formula_sum "Si O2"
_cell_formula_units_Z 64
_cell_length_a 10.207468
_cell_length_b 18.186453
_cell_length_c 31.833970
_cell_angle_alpha 90.000000
_cell_angle_beta 143.284143
_cell_angle_gamma 90.000000
_cell_volume 3533.026573
_symmetry_space_group_name_H-M "C 2/M"
_symmetry_group_IT_number 12
_symmetry_cell_setting 'monoclinic'
loop_
_space_group_symop_operation_xyz
x,y,z
-x,y,-z
-x,-y,-z
x,-y,z
1/2+x,1/2+y,z
1/2-x,1/2+y,-z
1/2-x,1/2-y,-z
1/2+x,1/2-y,z
loop_
_atom_site_type_symbol
_atom_site_label
_atom_site_fract_x
_atom_site_fract_y
_atom_site_fract_z
Si Si1 0.546079 0.815447 0.578384
Si Si2 0.866060 0.915705 0.705801
Si Si3 0.162932 0.084294 0.705795
Si Si4 0.654168 0.684554 0.421619
Si Si5 0.861409 0.413005 0.144997
Si Si6 0.447334 0.839872 0.078937
Si Si7 0.031771 0.829077 0.912709
Si Si8 0.363540 0.586996 0.144988
O O1 0.645820 0.874413 0.635893
O O2 0.469868 0.750001 0.587948
O O3 0.727239 0.788842 0.590896
O O4 0.337015 0.849519 0.500001
O O5 0.067828 0.895565 0.727130
O O6 0.942145 0.895608 0.772178
O O7 0.803194 0.000000 0.685916
O O8 0.418733 0.104384 0.772168
O O9 0.033638 0.125588 0.635889
O O10 0.126346 0.000000 0.685903
O O11 0.811161 0.500000 0.131377
O O12 0.882195 0.384588 0.103252
O O13 0.672149 0.368488 0.118673
O O14 0.523249 0.756793 0.109304
O O15 0.634031 0.884579 0.103238
O O16 0.238891 0.837457 0.995567
O O17 0.078826 0.868498 0.881343
O O18 0.345686 0.500000 0.131374
#
# Coordination Sequence:
#
# PCOD8114895 Si02
#       8
#     8   8   8   8   8   8   8   8
#     4   9  18  33  54  81 111 142 179 222 266 317
#     4   9  18  35  56  79 108 142 182 225 269 321
#     4   9  18  35  56  79 108 142 182 225 269 321
#     4   9  18  33  54  81 111 142 179 222 266 317
#     4  11  22  39  60  83 112 148 189 233 280 334
#     4  11  23  41  59  81 112 151 184 229 287 342
#     4  11  25  39  57  85 116 141 186 239 283 334
#     4  11  22  39  60  83 112 148 189 233 280 334
#
# _framework density 18.11478
#
# number of rings (size 3 to 8) (size 9 to 14) (size 15 to 20)
#    0.000    2.000    1.250    2.250    0.000    7.500 
#    2.250    2.500    0.000    0.000    0.000    3.500 
#    0.000    0.000    0.000    0.000    0.000    0.000 
#
# Total GULP energy -396759.957575 kJ/mol
# GULP energy per Si atom -12398.748674 kJ/mol
# Density = 1.807355 g / cm^3
# Si number density = 18.114780 Si / 1000 Ang^3
#
#
#
# Elastic Constant Matrix: (Units=GPa)
#
#
# Indices 1 2 3 4 5 6 
#
# 1 107.4052 48.7442 49.1972 0.0000 -0.4227 -0.0001
# 2 48.7442 99.9352 66.5734 0.0000 -0.2644 -0.0001
# 3 49.1972 66.5734 115.9334 0.0008 0.2271 0.0001
# 4 0.0000 0.0000 0.0008 38.6877 0.0002 -0.1171
# 5 -0.4227 -0.2644 0.2271 0.0002 43.3722 0.0000
# 6 -0.0001 -0.0001 0.0001 -0.1171 0.0000 29.7746
#
#
#
# Elastic Compliance Matrix: (Units=1/GPa)
#
#
# Indices 1 2 3 4 5 6 
#
# 1 0.012544 -0.004165 -0.002932 0.000000 0.000112 0.000000
# 2 -0.004165 0.017590 -0.008333 0.000000 0.000110 0.000000
# 3 -0.002932 -0.008333 0.014655 0.000000 -0.000156 0.000000
# 4 0.000000 0.000000 0.000000 0.025848 0.000000 0.000102
# 5 0.000112 0.000110 -0.000156 0.000000 0.023059 0.000000
# 6 0.000000 0.000000 0.000000 0.000102 0.000000 0.033586
#
#
# Mechanical properties :
#
#
# Convention : Reuss Voigt Hill
#
# Bulk Modulus (GPa) = 71.79362 72.47815 72.13589
# Shear Modulus (GPa) = 30.71515 32.95082 31.83298
#
# Velocity S-wave (km/s) = 4.12222 4.26960 4.19656
# Velocity P-wave (km/s) = 7.89782 8.02517 7.96175
#
# Compressibility (1/GPa) = 0.01392881
#
# Stress axis : x y z
#
# Youngs Moduli (GPa) = 79.71845 56.85085 68.23455
#
# Poissons Ratio (x) = 0.23680 0.20003
# Poissons Ratio (y) = 0.33205 0.56863
# Poissons Ratio (z) = 0.23370 0.47376
#
# Static dielectric constant tensor:
#      x y z
#    x 3.344660 0.000000 -0.004370 
#    y 0.000000 3.449790 0.000000 
#    z -0.004370 0.000000 3.665230 
# 
# 
# High freq. dielectric constant tensor:
#      x y z
#    x 1.700810 0.000000 -0.000220 
#    y 0.000000 1.701370 0.000000 
#    z -0.000220 0.000000 1.717520 
# 
# From -- ./inp_files/373000.got.cif
#   From: 2010.06.25/outbox.cif.g09.slc.cpg/sg12_187_cif.got.tgz:373000.got - 2010.06.28 00:19:55.
