data_PCOD8114011
_publ_section_title
;
Structure prediction by ZEFSAII (Michael W. Deem and Ramdas Pophale) SiO2 
 PCOD8114011
Probable space group: C 2/M
;
_chemical_formula_sum "Si O2"
_cell_formula_units_Z 44
_cell_length_a 24.701692
_cell_length_b 16.345563
_cell_length_c 18.449535
_cell_angle_alpha 90.000000
_cell_angle_beta 16.996743
_cell_angle_gamma 90.000000
_cell_volume 2177.542264
_symmetry_space_group_name_H-M "C 2/M"
_symmetry_group_IT_number 12
_symmetry_cell_setting 'monoclinic'
loop_
_space_group_symop_operation_xyz
x,y,z
-x,y,-z
-x,-y,-z
x,-y,z
1/2+x,1/2+y,z
1/2-x,1/2+y,-z
1/2-x,1/2-y,-z
1/2+x,1/2-y,z
loop_
_atom_site_type_symbol
_atom_site_label
_atom_site_fract_x
_atom_site_fract_y
_atom_site_fract_z
Si Si1 0.344277 0.693954 0.601918
Si Si2 0.327243 0.589991 0.999505
Si Si3 0.736741 0.662629 0.059731
Si Si4 0.296760 0.319652 0.496641
Si Si5 0.571188 0.096293 0.052222
Si Si6 0.000000 0.671184 0.500000
O O1 0.545953 0.652430 0.348284
O O2 0.295905 0.714065 0.580128
O O3 0.192288 0.634623 0.832047
O O4 0.368916 0.778210 0.613365
O O5 0.389851 0.500000 0.942597
O O6 0.258935 0.590375 0.003907
O O7 0.502245 0.649014 0.784981
O O8 0.148004 0.614545 0.272877
O O9 0.895248 0.646907 0.916055
O O10 0.750000 0.750000 0.000000
O O11 0.250000 0.250000 0.500000
O O12 0.145445 0.392170 0.687610
O O13 0.616237 0.000000 0.001955
#
# Coordination Sequence:
#
# PCOD8114011 Si02
#       6
#     8   8   8   8   8   4
#     4  11  22  39  66  92 125 165 216 259 309 385
#     4  11  24  40  64  93 125 164 210 270 317 360
#     4  11  20  40  65  91 126 170 217 256 306 385
#     4  11  25  42  66  90 128 174 214 253 316 397
#     4  12  24  39  62  99 135 165 206 267 330 383
#     4  12  21  42  69  90 120 160 228 264 311 372
#
# _framework density 20.206267
#
# number of rings (size 3 to 8) (size 9 to 14) (size 15 to 20)
#    0.000    0.727    3.636    5.182    0.000    5.818 
#    0.000    0.000    0.000    1.091    0.000    0.000 
#    0.000    0.000    0.000    0.000    0.000    0.000 
#
# Total GULP energy -272691.623594 kJ/mol
# GULP energy per Si atom -12395.073800 kJ/mol
# Density = 2.016028 g / cm^3
# Si number density = 20.206267 Si / 1000 Ang^3
#
#
#
# Elastic Constant Matrix: (Units=GPa)
#
#
# Indices 1 2 3 4 5 6 
#
# 1 1025.8018 370.7325 377.5698 0.2189 194.8872 -0.2822
# 2 370.7325 229.1925 155.4326 0.0629 81.3706 -0.1005
# 3 377.5698 155.4326 266.9399 0.0672 84.5640 -0.1270
# 4 0.2189 0.0629 0.0672 13.4081 0.0637 -7.5197
# 5 194.8872 81.3706 84.5640 0.0637 74.7812 -0.0559
# 6 -0.2822 -0.1005 -0.1270 -7.5197 -0.0559 24.9204
#
#
#
# Elastic Compliance Matrix: (Units=1/GPa)
#
#
# Indices 1 2 3 4 5 6 
#
# 1 0.003478 -0.002983 -0.002087 -0.000013 -0.003459 0.000005
# 2 -0.002983 0.011092 -0.001369 0.000018 -0.002748 0.000003
# 3 -0.002087 -0.001369 0.008259 0.000018 -0.002410 0.000013
# 4 -0.000013 0.000018 0.000018 0.089775 -0.000062 0.027089
# 5 -0.003459 -0.002748 -0.002410 -0.000062 0.028101 -0.000018
# 6 0.000005 0.000003 0.000013 0.027089 -0.000018 0.048302
#
#
# Mechanical properties :
#
#
# Convention : Reuss Voigt Hill
#
# Bulk Modulus (GPa) = 100.49245 369.93377 235.21311
# Shear Modulus (GPa) = 24.36609 63.83521 44.10065
#
# Velocity S-wave (km/s) = 3.47633 5.62675 4.67682
# Velocity P-wave (km/s) = 8.12123 15.02298 12.07569
#
# Compressibility (1/GPa) = 0.00995100
#
# Stress axis : x y z
#
# Youngs Moduli (GPa) = 287.50864 90.15500 121.07607
#
# Poissons Ratio (x) = 0.26891 0.25271
# Poissons Ratio (y) = 0.85755 0.16579
# Poissons Ratio (z) = 0.60009 0.12345
#
# Static dielectric constant tensor:
#      x y z
#    x 5.209120 -0.000080 0.093440 
#    y -0.000080 3.496990 0.000070 
#    z 0.093440 0.000070 3.884170 
# 
# 
# High freq. dielectric constant tensor:
#      x y z
#    x 1.799130 0.000000 0.003990 
#    y 0.000000 1.774590 0.000000 
#    z 0.003990 0.000000 1.805370 
# 
# From -- ./inp_files/290007.got.cif
#   From: 2010.06.25/outbox.cif.g09.slc.cpg/sg12_146_cif.got.tgz:290007.got - 2010.06.28 00:19:55.
