data_PCOD8114776
_publ_section_title
;
Structure prediction by ZEFSAII (Michael W. Deem and Ramdas Pophale) SiO2 
 PCOD8114776
Probable space group: C 2/M
;
_chemical_formula_sum "Si O2"
_cell_formula_units_Z 48
_cell_length_a 20.342778
_cell_length_b 18.942658
_cell_length_c 14.736400
_cell_angle_alpha 90.000000
_cell_angle_beta 151.717061
_cell_angle_gamma 90.000000
_cell_volume 2690.676430
_symmetry_space_group_name_H-M "C 2/M"
_symmetry_group_IT_number 12
_symmetry_cell_setting 'monoclinic'
loop_
_space_group_symop_operation_xyz
x,y,z
-x,y,-z
-x,-y,-z
x,-y,z
1/2+x,1/2+y,z
1/2-x,1/2+y,-z
1/2-x,1/2-y,-z
1/2+x,1/2-y,z
loop_
_atom_site_type_symbol
_atom_site_label
_atom_site_fract_x
_atom_site_fract_y
_atom_site_fract_z
Si Si1 0.939714 0.080598 0.146677
Si Si2 0.762855 0.079529 0.573907
Si Si3 0.275452 0.636028 0.785482
Si Si4 0.111244 0.706335 0.317816
Si Si5 0.000000 0.753648 0.000000
Si Si6 0.902119 0.220105 0.198153
Si Si7 0.500000 0.216088 0.500000
O O1 0.905715 0.135581 0.185846
O O2 0.089390 0.101129 0.288336
O O3 0.936592 0.000000 0.179754
O O4 0.824568 0.087680 0.928341
O O5 0.772615 0.087714 0.693526
O O6 0.640127 0.126349 0.382968
O O7 0.723846 0.000000 0.502069
O O8 0.380956 0.700370 0.901744
O O9 0.123776 0.665602 0.620324
O O10 0.250000 0.750000 0.500000
O O11 0.067016 0.704832 0.158933
O O12 0.992862 0.739122 0.235248
O O13 0.956124 0.232929 0.364887
O O14 0.750000 0.250000 0.000000
#
# Coordination Sequence:
#
# PCOD8114776 Si02
#       7
#     8   8   8   8   4   8   4
#     4  11  22  38  61  90 121 154 197 249 305 356
#     4  11  22  37  61  91 121 153 196 252 305 352
#     4  12  19  37  58  90 119 153 191 252 301 345
#     4  12  20  38  61  86 120 152 201 245 291 350
#     4  12  20  34  64  90 112 150 208 248 288 348
#     4  12  22  40  59  87 122 160 197 244 290 354
#     4  12  24  34  62  90 122 150 210 244 282 354
#
# _framework density 17.839379000000001
#
# number of rings (size 3 to 8) (size 9 to 14) (size 15 to 20)
#    0.000    0.333   10.000    0.500    0.000    1.333 
#    0.000    5.000    0.000    0.000    0.000    0.000 
#    0.000    0.000    0.000    0.000    0.000    0.000 
#
# Total GULP energy -297690.038206 kJ/mol
# GULP energy per Si atom -12403.751592 kJ/mol
# Density = 1.779878 g / cm^3
# Si number density = 17.839379 Si / 1000 Ang^3
#
#
#
# Elastic Constant Matrix: (Units=GPa)
#
#
# Indices 1 2 3 4 5 6 
#
# 1 80.7700 45.4313 45.3639 0.0000 -5.5402 0.0000
# 2 45.4313 113.8208 49.4423 0.0000 2.2112 0.0000
# 3 45.3639 49.4423 106.8866 0.0000 -1.6567 0.0000
# 4 0.0000 0.0000 0.0000 22.9922 0.0000 -10.6214
# 5 -5.5402 2.2112 -1.6567 0.0000 46.9605 0.0000
# 6 0.0000 0.0000 0.0000 -10.6214 0.0000 83.9687
#
#
#
# Elastic Compliance Matrix: (Units=1/GPa)
#
#
# Indices 1 2 3 4 5 6 
#
# 1 0.018427 -0.005026 -0.005462 0.000000 0.002218 0.000000
# 2 -0.005026 0.012389 -0.003618 0.000000 -0.001304 0.000000
# 3 -0.005462 -0.003618 0.013347 0.000000 -0.000003 0.000000
# 4 0.000000 0.000000 0.000000 0.046192 0.000000 0.005843
# 5 0.002218 -0.001304 -0.000003 0.000000 0.021617 0.000000
# 6 0.000000 0.000000 0.000000 0.005843 0.000000 0.012648
#
#
# Mechanical properties :
#
#
# Convention : Reuss Voigt Hill
#
# Bulk Modulus (GPa) = 62.68556 64.66135 63.67346
# Shear Modulus (GPa) = 31.61575 41.53362 36.57468
#
# Velocity S-wave (km/s) = 4.21437 4.83038 4.53285
# Velocity P-wave (km/s) = 7.67440 8.21189 7.94769
#
# Compressibility (1/GPa) = 0.01595264
#
# Stress axis : x y z
#
# Youngs Moduli (GPa) = 54.26704 80.71907 74.92274
#
# Poissons Ratio (x) = 0.40568 0.40920
# Poissons Ratio (y) = 0.27274 0.27105
# Poissons Ratio (z) = 0.29639 0.29202
#
# Static dielectric constant tensor:
#      x y z
#    x 3.167330 0.000000 -0.281710 
#    y 0.000000 3.376630 0.000000 
#    z -0.281710 0.000000 3.252460 
# 
# 
# High freq. dielectric constant tensor:
#      x y z
#    x 1.689460 0.000000 0.003390 
#    y 0.000000 1.680310 0.000000 
#    z 0.003390 0.000000 1.699890 
# 
# From -- ./inp_files/112759.got.cif
#   From: 2010.06.25/outbox.cif.g09.slc.cpg/sg12_57_cif.got.tgz:112759.got - 2010.06.28 00:19:55.
