data_PCOD8114228
_publ_section_title
;
Structure prediction by ZEFSAII (Michael W. Deem and Ramdas Pophale) SiO2 
 PCOD8114228
Probable space group: C 2/M
;
_chemical_formula_sum "Si O2"
_cell_formula_units_Z 48
_cell_length_a 12.002925
_cell_length_b 17.168251
_cell_length_c 24.263642
_cell_angle_alpha 90.000000
_cell_angle_beta 151.752803
_cell_angle_gamma 90.000000
_cell_volume 2366.378129
_symmetry_space_group_name_H-M "C 2/M"
_symmetry_group_IT_number 12
_symmetry_cell_setting 'monoclinic'
loop_
_space_group_symop_operation_xyz
x,y,z
-x,y,-z
-x,-y,-z
x,-y,z
1/2+x,1/2+y,z
1/2-x,1/2+y,-z
1/2-x,1/2-y,-z
1/2+x,1/2-y,z
loop_
_atom_site_type_symbol
_atom_site_label
_atom_site_fract_x
_atom_site_fract_y
_atom_site_fract_z
Si Si1 0.392144 0.673340 0.565165
Si Si2 0.923523 0.678788 0.769298
Si Si3 0.502850 0.906984 0.085758
Si Si4 0.638746 0.653854 0.847890
Si Si5 0.726535 0.913964 0.395430
Si Si6 0.233355 0.909575 0.383926
O O1 0.250000 0.750000 0.500000
O O2 0.648386 0.696774 0.655286
O O3 0.228665 0.614623 0.458962
O O4 0.416399 0.637339 0.636174
O O5 0.001107 0.622332 0.853026
O O6 0.942346 0.635844 0.718429
O O7 0.089115 0.754967 0.838687
O O8 0.690698 0.859486 0.130552
O O9 0.554711 0.000000 0.106325
O O10 0.247071 0.887413 0.948924
O O11 0.389773 0.611196 0.727660
O O12 0.000000 0.911460 0.500000
O O13 0.621061 0.000000 0.346715
O O14 0.500000 0.879380 0.500000
O O15 0.218574 0.000000 0.391152
#
# Coordination Sequence:
#
# PCOD8114228 Si02
#       6
#     8   8   8   8   8   8
#     4  11  21  35  56  84 124 164 201 247 307 367
#     4  11  22  37  61  90 119 157 206 254 306 362
#     4  11  23  41  67  92 121 165 211 255 307 369
#     4  11  22  39  60  94 124 155 205 261 306 361
#     4   9  19  34  54  82 117 155 200 245 296 360
#     4  11  22  37  59  88 124 163 203 251 310 370
#
# _framework density 20.284162999999999
#
# number of rings (size 3 to 8) (size 9 to 14) (size 15 to 20)
#    0.000    1.333    1.667    5.500    0.000    2.667 
#    0.000    0.000    0.000    0.000    0.000    5.833 
#    0.000    0.000    0.000    0.000    0.000    0.000 
#
# Total GULP energy -297464.054196 kJ/mol
# GULP energy per Si atom -12394.335591 kJ/mol
# Density = 2.023800 g / cm^3
# Si number density = 20.284163 Si / 1000 Ang^3
#
#
#
# Elastic Constant Matrix: (Units=GPa)
#
#
# Indices 1 2 3 4 5 6 
#
# 1 49.4259 38.5786 34.3416 0.0027 -9.3071 0.0022
# 2 38.5786 135.8183 42.5680 0.0017 -0.2453 0.0005
# 3 34.3416 42.5680 137.1630 -0.0002 -18.3376 0.0108
# 4 0.0027 0.0017 -0.0002 35.1359 -0.0029 1.8617
# 5 -9.3071 -0.2453 -18.3376 -0.0029 29.7950 0.0005
# 6 0.0022 0.0005 0.0108 1.8617 0.0005 30.2586
#
#
#
# Elastic Compliance Matrix: (Units=1/GPa)
#
#
# Indices 1 2 3 4 5 6 
#
# 1 0.030156 -0.007162 -0.004442 -0.000001 0.006627 -0.000001
# 2 -0.007162 0.009930 -0.001718 0.000000 -0.003213 0.000001
# 3 -0.004442 -0.001718 0.009533 0.000001 0.004465 -0.000003
# 4 -0.000001 0.000000 0.000001 0.028554 0.000003 -0.001757
# 5 0.006627 -0.003213 0.004465 0.000003 0.038355 -0.000003
# 6 -0.000001 0.000001 -0.000003 -0.001757 -0.000003 0.033157
#
#
# Mechanical properties :
#
#
# Convention : Reuss Voigt Hill
#
# Bulk Modulus (GPa) = 43.52363 61.48708 52.50536
# Shear Modulus (GPa) = 27.17603 32.83250 30.00427
#
# Velocity S-wave (km/s) = 3.66425 4.02758 3.85020
# Velocity P-wave (km/s) = 6.27741 7.21160 6.76066
#
# Compressibility (1/GPa) = 0.02297602
#
# Stress axis : x y z
#
# Youngs Moduli (GPa) = 33.16053 100.70787 104.90042
#
# Poissons Ratio (x) = 0.72124 0.46593
# Poissons Ratio (y) = 0.23749 0.18023
# Poissons Ratio (z) = 0.14729 0.17302
#
# Static dielectric constant tensor:
#      x y z
#    x 3.486170 -0.000010 -0.110200 
#    y -0.000010 3.763420 -0.000010 
#    z -0.110200 -0.000010 4.030370 
# 
# 
# High freq. dielectric constant tensor:
#      x y z
#    x 1.766610 0.000000 -0.023080 
#    y 0.000000 1.799780 0.000000 
#    z -0.023080 0.000000 1.805650 
# 
# From -- ./inp_files/215013.got.cif
#   From: 2010.06.25/outbox.cif.g09.slc.cpg/sg12_108_cif.got.tgz:215013.got - 2010.06.28 00:19:55.
