data_PCOD8114698
_publ_section_title
;
Structure prediction by ZEFSAII (Michael W. Deem and Ramdas Pophale) SiO2 
 PCOD8114698
Probable space group: C 2/M
;
_chemical_formula_sum "Si O2"
_cell_formula_units_Z 56
_cell_length_a 8.552755
_cell_length_b 17.868767
_cell_length_c 19.425960
_cell_angle_alpha 90.000000
_cell_angle_beta 66.508983
_cell_angle_gamma 90.000000
_cell_volume 2722.767097
_symmetry_space_group_name_H-M "C 2/M"
_symmetry_group_IT_number 12
_symmetry_cell_setting 'monoclinic'
loop_
_space_group_symop_operation_xyz
x,y,z
-x,y,-z
-x,-y,-z
x,-y,z
1/2+x,1/2+y,z
1/2-x,1/2+y,-z
1/2-x,1/2-y,-z
1/2+x,1/2-y,z
loop_
_atom_site_type_symbol
_atom_site_label
_atom_site_fract_x
_atom_site_fract_y
_atom_site_fract_z
Si Si1 0.088490 0.824524 0.767034
Si Si2 0.434762 0.587489 0.368187
Si Si3 0.076675 0.083903 0.093706
Si Si4 0.440489 0.162975 0.784470
Si Si5 0.190551 0.585820 0.646161
Si Si6 0.175744 0.667475 0.509292
Si Si7 0.270437 0.084082 0.929902
O O1 0.111089 0.866454 0.691442
O O2 0.265272 0.828843 0.775174
O O3 0.935536 0.862036 0.838203
O O4 0.045703 0.738785 0.762230
O O5 0.413161 0.500000 0.356114
O O6 0.623936 0.607966 0.358871
O O7 0.307400 0.610774 0.451002
O O8 0.899675 0.083059 0.084917
O O9 0.118368 0.000000 0.112353
O O10 0.225937 0.111863 0.015350
O O11 0.553379 0.098138 0.730392
O O12 0.406563 0.139184 0.869970
O O13 0.185010 0.500000 0.623207
O O14 0.139658 0.638772 0.592152
O O15 0.250000 0.750000 0.500000
O O16 0.000000 0.668754 0.500000
O O17 0.345576 0.000000 0.919919
#
# Coordination Sequence:
#
# PCOD8114698 Si02
#       7
#     8   8   8   8   8   8   8
#     4  11  22  36  56  83 116 153 194 238 286 340
#     4  11  24  42  63  87 117 151 189 235 286 339
#     4   8  15  30  53  80 109 144 189 239 288 339
#     4  11  22  36  56  83 116 153 194 238 286 340
#     4  11  24  42  63  87 117 151 189 235 286 339
#     4  12  25  42  65  91 121 153 189 232 279 334
#     4   8  15  30  53  80 109 144 189 239 288 339
#
# _framework density 20.567312999999999
#
# number of rings (size 3 to 8) (size 9 to 14) (size 15 to 20)
#    0.000    1.714    0.000    6.000    0.000    5.714 
#    0.000    0.000    0.000    2.571    0.000   10.000 
#    0.000    0.000    0.000    0.000    0.000    0.000 
#
# Total GULP energy -347265.907462 kJ/mol
# GULP energy per Si atom -12402.353838 kJ/mol
# Density = 2.052050 g / cm^3
# Si number density = 20.567313 Si / 1000 Ang^3
#
#
#
# Elastic Constant Matrix: (Units=GPa)
#
#
# Indices 1 2 3 4 5 6 
#
# 1 75.9556 21.2810 16.2283 0.0000 -16.4824 0.0000
# 2 21.2810 79.5475 23.8451 0.0000 -8.9160 0.0000
# 3 16.2283 23.8451 108.8619 0.0000 -17.8150 0.0000
# 4 0.0000 0.0000 0.0000 52.5107 0.0000 4.5245
# 5 -16.4824 -8.9160 -17.8150 0.0000 24.3541 0.0000
# 6 0.0000 0.0000 0.0000 4.5245 0.0000 15.0757
#
#
#
# Elastic Compliance Matrix: (Units=1/GPa)
#
#
# Indices 1 2 3 4 5 6 
#
# 1 0.016195 -0.003209 -0.000125 0.000000 0.009694 0.000000
# 2 -0.003209 0.014306 -0.002446 0.000000 0.001276 0.000000
# 3 -0.000125 -0.002446 0.010883 0.000000 0.006981 0.000000
# 4 0.000000 0.000000 0.000000 0.019549 0.000000 -0.005867
# 5 0.009694 0.001276 0.006981 0.000000 0.053195 0.000000
# 6 0.000000 0.000000 0.000000 -0.005867 0.000000 0.068093
#
#
# Mechanical properties :
#
#
# Convention : Reuss Voigt Hill
#
# Bulk Modulus (GPa) = 33.53023 43.00820 38.26921
# Shear Modulus (GPa) = 24.54328 31.92216 28.23272
#
# Velocity S-wave (km/s) = 3.45819 3.94392 3.70901
# Velocity P-wave (km/s) = 5.68185 6.45722 6.08191
#
# Compressibility (1/GPa) = 0.02982384
#
# Stress axis : x y z
#
# Youngs Moduli (GPa) = 61.74776 69.90151 91.88828
#
# Poissons Ratio (x) = 0.22428 0.01148
# Poissons Ratio (y) = 0.19812 0.22479
# Poissons Ratio (z) = 0.00772 0.17100
#
# Static dielectric constant tensor:
#      x y z
#    x 3.500730 0.000000 -0.072280 
#    y 0.000000 3.787150 0.000000 
#    z -0.072280 0.000000 4.084970 
# 
# 
# High freq. dielectric constant tensor:
#      x y z
#    x 1.785670 0.000000 -0.005390 
#    y 0.000000 1.807490 0.000000 
#    z -0.005390 0.000000 1.823810 
# 
# From -- ./inp_files/300704.got.cif
#   From: 2010.06.25/outbox.cif.g09.slc.cpg/sg12_151_cif.got.tgz:300704.got - 2010.06.28 00:19:55.
