data_PCOD8114998
_publ_section_title
;
Structure prediction by ZEFSAII (Michael W. Deem and Ramdas Pophale) SiO2 
 PCOD8114998
Probable space group: C 2/M
;
_chemical_formula_sum "Si O2"
_cell_formula_units_Z 40
_cell_length_a 14.999729
_cell_length_b 14.352096
_cell_length_c 26.299987
_cell_angle_alpha 90.000000
_cell_angle_beta 20.659193
_cell_angle_gamma 90.000000
_cell_volume 1997.530118
_symmetry_space_group_name_H-M "C 2/M"
_symmetry_group_IT_number 12
_symmetry_cell_setting 'monoclinic'
loop_
_space_group_symop_operation_xyz
x,y,z
-x,y,-z
-x,-y,-z
x,-y,z
1/2+x,1/2+y,z
1/2-x,1/2+y,-z
1/2-x,1/2-y,-z
1/2+x,1/2-y,z
loop_
_atom_site_type_symbol
_atom_site_label
_atom_site_fract_x
_atom_site_fract_y
_atom_site_fract_z
Si Si1 0.022303 0.732117 0.659753
Si Si2 0.916883 0.897585 0.100825
Si Si3 0.128019 0.652122 0.077596
Si Si4 0.703206 0.893049 0.655934
Si Si5 0.162706 0.605007 0.866519
O O1 0.250000 0.750000 0.500000
O O2 0.115913 0.672323 0.657026
O O3 0.783278 0.673004 0.765846
O O4 0.916887 0.834357 0.728488
O O5 0.793781 0.000000 0.161058
O O6 0.000000 0.861288 0.000000
O O7 0.155522 0.908070 0.010636
O O8 0.893292 0.656700 0.241532
O O9 0.019714 0.605614 0.084877
O O10 0.250000 0.750000 0.000000
O O11 0.000000 0.894459 0.500000
O O12 0.602278 0.000000 0.704054
O O13 0.255682 0.500000 0.826586
O O14 0.000000 0.643871 0.000000
#
# Coordination Sequence:
#
# PCOD8114998 Si02
#       5
#     8   8   8   8   8
#     4  12  24  40  62  93 130 168 208 265 325 386
#     4  11  22  40  67  97 127 161 212 274 329 385
#     4  12  22  39  67  97 131 167 211 266 326 387
#     4  11  24  42  67  98 131 167 216 273 329 387
#     4  11  24  43  64  90 127 171 217 262 318 391
#
# _framework density 20.024729000000001
#
# number of rings (size 3 to 8) (size 9 to 14) (size 15 to 20)
#    0.000    0.600    4.000    5.400    0.000    3.200 
#    0.000    0.000    0.000    0.600    0.000    0.000 
#    0.000    0.000    0.000    0.000    0.000    0.000 
#
# Total GULP energy -247916.588576 kJ/mol
# GULP energy per Si atom -12395.829429 kJ/mol
# Density = 1.997915 g / cm^3
# Si number density = 20.024729 Si / 1000 Ang^3
#
#
#
# Elastic Constant Matrix: (Units=GPa)
#
#
# Indices 1 2 3 4 5 6 
#
# 1 128.6909 25.4841 50.5152 0.0520 10.5012 -0.0533
# 2 25.4841 129.6747 67.0852 0.0561 13.5482 0.0681
# 3 50.5152 67.0852 156.7695 0.3771 24.6532 0.0246
# 4 0.0520 0.0561 0.3771 33.0776 -0.0028 -1.6621
# 5 10.5012 13.5482 24.6532 -0.0028 38.3370 -0.0236
# 6 -0.0533 0.0681 0.0246 -1.6621 -0.0236 23.3751
#
#
#
# Elastic Compliance Matrix: (Units=1/GPa)
#
#
# Indices 1 2 3 4 5 6 
#
# 1 0.008921 -0.000323 -0.002637 0.000018 -0.000634 0.000025
# 2 -0.000323 0.009942 -0.004018 0.000028 -0.000841 -0.000024
# 3 -0.002637 -0.004018 0.009580 -0.000099 -0.004018 -0.000016
# 4 0.000018 0.000028 -0.000099 0.030341 0.000053 0.002158
# 5 -0.000634 -0.000841 -0.004018 0.000053 0.029139 0.000038
# 6 0.000025 -0.000024 -0.000016 0.002158 0.000038 0.042934
#
#
# Mechanical properties :
#
#
# Convention : Reuss Voigt Hill
#
# Bulk Modulus (GPa) = 69.02555 77.92270 73.47413
# Shear Modulus (GPa) = 33.41298 37.09464 35.25381
#
# Velocity S-wave (km/s) = 4.08926 4.30867 4.20040
# Velocity P-wave (km/s) = 7.53930 7.98439 7.76504
#
# Compressibility (1/GPa) = 0.01448739
#
# Stress axis : x y z
#
# Youngs Moduli (GPa) = 112.09157 100.58768 104.38419
#
# Poissons Ratio (x) = 0.03248 0.27525
# Poissons Ratio (y) = 0.03619 0.41941
# Poissons Ratio (z) = 0.29557 0.40416
#
# Static dielectric constant tensor:
#      x y z
#    x 3.818810 0.000100 -0.090090 
#    y 0.000100 3.765650 0.000530 
#    z -0.090090 0.000530 3.783510 
# 
# 
# High freq. dielectric constant tensor:
#      x y z
#    x 1.781560 0.000010 -0.006640 
#    y 0.000010 1.796460 0.000040 
#    z -0.006640 0.000040 1.785330 
# 
# From -- ./inp_files/142524.got.cif
#   From: 2010.06.25/outbox.cif.g09.slc.cpg/sg12_72_cif.got.tgz:142524.got - 2010.06.28 00:19:55.
