data_PCOD8114865
_publ_section_title
;
Structure prediction by ZEFSAII (Michael W. Deem and Ramdas Pophale) SiO2 
 PCOD8114865
Probable space group: C 2/M
;
_chemical_formula_sum "Si O2"
_cell_formula_units_Z 48
_cell_length_a 13.670470
_cell_length_b 13.794246
_cell_length_c 12.607573
_cell_angle_alpha 90.000000
_cell_angle_beta 120.691391
_cell_angle_gamma 90.000000
_cell_volume 2044.445258
_symmetry_space_group_name_H-M "C 2/M"
_symmetry_group_IT_number 12
_symmetry_cell_setting 'monoclinic'
loop_
_space_group_symop_operation_xyz
x,y,z
-x,y,-z
-x,-y,-z
x,-y,z
1/2+x,1/2+y,z
1/2-x,1/2+y,-z
1/2-x,1/2-y,-z
1/2+x,1/2-y,z
loop_
_atom_site_type_symbol
_atom_site_label
_atom_site_fract_x
_atom_site_fract_y
_atom_site_fract_z
Si Si1 0.367063 0.892907 0.302332
Si Si2 0.421892 0.238198 0.729165
Si Si3 0.135405 0.392244 0.466326
Si Si4 0.417279 0.890338 0.053784
Si Si5 0.957655 0.113962 0.359002
Si Si6 0.258628 0.779897 0.824269
O O1 0.499562 0.879319 0.394949
O O2 0.311349 0.871751 0.388451
O O3 0.313922 0.816976 0.189142
O O4 0.335136 0.000000 0.245725
O O5 0.326977 0.185588 0.601195
O O6 0.522628 0.159957 0.811888
O O7 0.471785 0.331894 0.695773
O O8 0.360610 0.259872 0.805904
O O9 0.170336 0.500000 0.448492
O O10 0.382621 0.000000 0.068323
O O11 0.500000 0.896141 0.000000
O O12 0.307080 0.827645 0.958011
O O13 0.824754 0.142315 0.278222
O O14 0.000000 0.144457 0.500000
O O15 0.974011 0.000000 0.349075
#
# Coordination Sequence:
#
# PCOD8114865 Si02
#       6
#     8   8   8   8   8   8
#     4   9  18  33  54  82 117 149 185 243 303 351
#     4  11  22  38  64  89 117 162 211 255 304 368
#     4   9  17  32  55  83 113 145 189 248 301 344
#     4   9  20  39  62  90 121 156 207 265 311 358
#     4  11  25  43  61  90 134 170 199 249 317 383
#     4  11  22  39  62  88 121 164 209 251 304 374
#
# _framework density 23.478252000000001
#
# number of rings (size 3 to 8) (size 9 to 14) (size 15 to 20)
#    0.000    2.000    1.667    3.000    0.000    6.000 
#    0.000    4.167    0.000    3.000    0.000    0.000 
#    0.000    0.000    0.000    0.000    0.000    0.000 
#
# Total GULP energy -297368.733585 kJ/mol
# GULP energy per Si atom -12390.363899 kJ/mol
# Density = 2.342481 g / cm^3
# Si number density = 23.478252 Si / 1000 Ang^3
#
#
#
# Elastic Constant Matrix: (Units=GPa)
#
#
# Indices 1 2 3 4 5 6 
#
# 1 59.4655 7.1192 5.9773 0.0000 -12.9624 0.0000
# 2 7.1192 149.8677 44.2465 0.0000 0.8620 0.0000
# 3 5.9773 44.2465 121.0437 0.0000 -6.7629 0.0000
# 4 0.0000 0.0000 0.0000 32.4871 0.0000 -0.6683
# 5 -12.9624 0.8620 -6.7629 0.0000 31.1922 0.0000
# 6 0.0000 0.0000 0.0000 -0.6683 0.0000 15.8374
#
#
#
# Elastic Compliance Matrix: (Units=1/GPa)
#
#
# Indices 1 2 3 4 5 6 
#
# 1 0.018623 -0.000880 -0.000166 0.000000 0.007727 0.000000
# 2 -0.000880 0.007542 -0.002779 0.000000 -0.001177 0.000000
# 3 -0.000166 -0.002779 0.009400 0.000000 0.002046 0.000000
# 4 0.000000 0.000000 0.000000 0.030808 0.000000 0.001300
# 5 0.007727 -0.001177 0.002046 0.000000 0.035747 0.000000
# 6 0.000000 0.000000 0.000000 0.001300 0.000000 0.063197
#
#
# Mechanical properties :
#
#
# Convention : Reuss Voigt Hill
#
# Bulk Modulus (GPa) = 35.82454 49.45142 42.63798
# Shear Modulus (GPa) = 27.43170 34.10560 30.76865
#
# Velocity S-wave (km/s) = 3.42188 3.81549 3.62403
# Velocity P-wave (km/s) = 5.55914 6.36546 5.97591
#
# Compressibility (1/GPa) = 0.02791383
#
# Stress axis : x y z
#
# Youngs Moduli (GPa) = 53.69722 132.59783 106.38470
#
# Poissons Ratio (x) = 0.11669 0.01768
# Poissons Ratio (y) = 0.04726 0.29565
# Poissons Ratio (z) = 0.00892 0.36850
#
# Static dielectric constant tensor:
#      x y z
#    x 4.395090 0.000000 -0.753650 
#    y 0.000000 4.347070 0.000000 
#    z -0.753650 0.000000 5.412070 
# 
# 
# High freq. dielectric constant tensor:
#      x y z
#    x 1.922300 0.000000 -0.021290 
#    y 0.000000 1.931060 0.000000 
#    z -0.021290 0.000000 1.928380 
# 
# From -- ./inp_files/215021.got.cif
#   From: 2010.06.25/outbox.cif.g09.slc.cpg/sg12_108_cif.got.tgz:215021.got - 2010.06.28 00:19:55.
