data_PCOD8114304
_publ_section_title
;
Structure prediction by ZEFSAII (Michael W. Deem and Ramdas Pophale) SiO2 
 PCOD8114304
Probable space group: C 2/M
;
_chemical_formula_sum "Si O2"
_cell_formula_units_Z 56
_cell_length_a 15.863372
_cell_length_b 8.731528
_cell_length_c 23.228499
_cell_angle_alpha 90.000000
_cell_angle_beta 58.059376
_cell_angle_gamma 90.000000
_cell_volume 2730.286969
_symmetry_space_group_name_H-M "C 2/M"
_symmetry_group_IT_number 12
_symmetry_cell_setting 'monoclinic'
loop_
_space_group_symop_operation_xyz
x,y,z
-x,y,-z
-x,-y,-z
x,-y,z
1/2+x,1/2+y,z
1/2-x,1/2+y,-z
1/2-x,1/2-y,-z
1/2+x,1/2-y,z
loop_
_atom_site_type_symbol
_atom_site_label
_atom_site_fract_x
_atom_site_fract_y
_atom_site_fract_z
Si Si1 0.565215 0.674219 0.207463
Si Si2 0.370757 0.325166 0.208772
Si Si3 0.486666 0.820660 0.659536
Si Si4 0.582686 0.325863 0.929757
Si Si5 0.796705 0.181269 0.426388
Si Si6 0.219919 0.326091 0.070200
Si Si7 0.803052 0.318674 0.653722
O O1 0.596038 0.500000 0.210145
O O2 0.451341 0.684284 0.229737
O O3 0.575789 0.776603 0.260836
O O4 0.629982 0.735567 0.131392
O O5 0.347207 0.500000 0.200008
O O6 0.407621 0.243145 0.136310
O O7 0.271221 0.248436 0.270936
O O8 0.588503 0.728206 0.619847
O O9 0.416696 0.777565 0.629730
O O10 0.510739 0.000000 0.651408
O O11 0.545416 0.500000 0.933878
O O12 0.688940 0.317371 0.919887
O O13 0.500000 0.242408 0.000000
O O14 0.750000 0.250000 0.500000
O O15 0.729790 0.243965 0.397149
O O16 0.791605 0.000000 0.431465
O O17 0.186925 0.500000 0.070655
O O18 0.250000 0.250000 0.000000
O O19 0.787700 0.500000 0.659052
#
# Coordination Sequence:
#
# PCOD8114304 Si02
#       7
#     8   8   8   8   8   8   8
#     4  11  21  36  60  87 119 157 198 249 309 367
#     4   9  16  31  56  82 109 150 200 242 286 356
#     4  11  22  39  65  95 124 160 208 255 302 363
#     4   9  17  30  51  78 105 142 196 246 289 356
#     4  11  23  43  66  92 127 165 207 254 309 368
#     4  11  22  36  55  80 112 150 199 254 311 370
#     4   9  19  37  62  88 119 165 212 246 292 375
#
# _framework density 20.510664999999999
#
# number of rings (size 3 to 8) (size 9 to 14) (size 15 to 20)
#    0.000    1.857    1.429    3.429    0.000    5.143 
#    0.000    5.714    0.000   10.286    0.000    0.000 
#    0.000    0.000    0.000    0.000    0.000    0.000 
#
# Total GULP energy -347112.212749 kJ/mol
# GULP energy per Si atom -12396.864741 kJ/mol
# Density = 2.046398 g / cm^3
# Si number density = 20.510665 Si / 1000 Ang^3
#
#
#
# Elastic Constant Matrix: (Units=GPa)
#
#
# Indices 1 2 3 4 5 6 
#
# 1 107.4594 29.3472 50.4429 0.0001 14.4080 0.0001
# 2 29.3472 59.2293 24.2674 0.0001 1.6868 0.0003
# 3 50.4429 24.2674 143.0640 0.0000 17.7912 0.0000
# 4 0.0001 0.0001 0.0000 32.5590 0.0000 -1.8478
# 5 14.4080 1.6868 17.7912 0.0000 34.0316 0.0000
# 6 0.0001 0.0003 0.0000 -1.8478 0.0000 22.2321
#
#
#
# Elastic Compliance Matrix: (Units=1/GPa)
#
#
# Indices 1 2 3 4 5 6 
#
# 1 0.012581 -0.004829 -0.003192 0.000000 -0.003419 0.000000
# 2 -0.004829 0.020016 -0.001950 0.000000 0.002072 0.000000
# 3 -0.003192 -0.001950 0.008841 0.000000 -0.003174 0.000000
# 4 0.000000 0.000000 0.000000 0.030859 0.000000 0.002565
# 5 -0.003419 0.002072 -0.003174 0.000000 0.032388 0.000000
# 6 0.000000 0.000000 0.000000 0.002565 0.000000 0.045193
#
#
# Mechanical properties :
#
#
# Convention : Reuss Voigt Hill
#
# Bulk Modulus (GPa) = 46.51933 57.54085 52.03009
# Shear Modulus (GPa) = 28.25085 31.47755 29.86420
#
# Velocity S-wave (km/s) = 3.71532 3.92176 3.81994
# Velocity P-wave (km/s) = 6.41363 6.97295 6.69913
#
# Compressibility (1/GPa) = 0.02149644
#
# Stress axis : x y z
#
# Youngs Moduli (GPa) = 79.48375 49.95959 113.11194
#
# Poissons Ratio (x) = 0.24124 0.36103
# Poissons Ratio (y) = 0.38380 0.22061
# Poissons Ratio (z) = 0.25370 0.09744
#
# Static dielectric constant tensor:
#      x y z
#    x 3.828150 0.000000 0.047510 
#    y 0.000000 3.316660 0.000000 
#    z 0.047510 0.000000 3.905110 
# 
# 
# High freq. dielectric constant tensor:
#      x y z
#    x 1.811660 0.000000 0.003530 
#    y 0.000000 1.759750 0.000000 
#    z 0.003530 0.000000 1.816490 
# 
# From -- ./inp_files/338470.got.cif
#   From: 2010.06.25/outbox.cif.g09.slc.cpg/sg12_170_cif.got.tgz:338470.got - 2010.06.28 00:19:55.
