data_PCOD8114826
_publ_section_title
;
Structure prediction by ZEFSAII (Michael W. Deem and Ramdas Pophale) SiO2 
 PCOD8114826
Probable space group: C 2/M
;
_chemical_formula_sum "Si O2"
_cell_formula_units_Z 40
_cell_length_a 14.604239
_cell_length_b 8.383157
_cell_length_c 30.537993
_cell_angle_alpha 90.000000
_cell_angle_beta 146.818518
_cell_angle_gamma 90.000000
_cell_volume 2046.193589
_symmetry_space_group_name_H-M "C 2/M"
_symmetry_group_IT_number 12
_symmetry_cell_setting 'monoclinic'
loop_
_space_group_symop_operation_xyz
x,y,z
-x,y,-z
-x,-y,-z
x,-y,z
1/2+x,1/2+y,z
1/2-x,1/2+y,-z
1/2-x,1/2-y,-z
1/2+x,1/2-y,z
loop_
_atom_site_type_symbol
_atom_site_label
_atom_site_fract_x
_atom_site_fract_y
_atom_site_fract_z
Si Si1 0.146836 0.688464 0.499734
Si Si2 0.614231 0.684602 0.086193
Si Si3 0.460214 0.313409 0.195574
Si Si4 0.783010 0.689362 0.375948
Si Si5 0.923643 0.315274 0.087476
O O1 0.148396 0.500000 0.498696
O O2 0.250000 0.750000 0.500000
O O3 0.229225 0.748038 0.578444
O O4 0.954678 0.751526 0.421934
O O5 0.581762 0.500000 0.084170
O O6 0.806548 0.712648 0.152442
O O7 0.566412 0.792156 0.108453
O O8 0.500000 0.740176 0.000000
O O9 0.431721 0.500000 0.193228
O O10 0.624838 0.245781 0.285689
O O11 0.480437 0.284069 0.152265
O O12 0.785133 0.500000 0.375820
O O13 0.903870 0.500000 0.091996
O O14 0.750000 0.250000 0.000000
#
# Coordination Sequence:
#
# PCOD8114826 Si02
#       5
#     8   8   8   8   8
#     4   9  17  35  60  84 114 150 187 226 275 335
#     4  11  23  39  59  82 111 149 194 239 288 341
#     4  11  22  38  60  86 117 152 193 241 290 339
#     4   8  18  36  57  82 115 153 186 224 280 341
#     4  12  24  39  59  83 111 149 193 239 290 342
#
# _framework density 19.548492
#
# number of rings (size 3 to 8) (size 9 to 14) (size 15 to 20)
#    0.000    1.800    2.000    4.200    0.000    2.400 
#    0.000   10.000    0.000    0.000    0.000    0.000 
#    0.000    0.000    0.000    0.000    0.000    0.000 
#
# Total GULP energy -248024.578550 kJ/mol
# GULP energy per Si atom -12401.228927 kJ/mol
# Density = 1.950400 g / cm^3
# Si number density = 19.548492 Si / 1000 Ang^3
#
#
#
# Elastic Constant Matrix: (Units=GPa)
#
#
# Indices 1 2 3 4 5 6 
#
# 1 156.0032 8.5997 75.1265 0.0000 1.0790 0.0000
# 2 8.5997 40.9934 15.7939 0.0000 0.6068 0.0000
# 3 75.1265 15.7939 179.9418 0.0000 0.8148 0.0000
# 4 0.0000 0.0000 0.0000 13.3299 0.0000 0.2196
# 5 1.0790 0.6068 0.8148 0.0000 25.7296 0.0000
# 6 0.0000 0.0000 0.0000 0.2196 0.0000 35.8840
#
#
#
# Elastic Compliance Matrix: (Units=1/GPa)
#
#
# Indices 1 2 3 4 5 6 
#
# 1 0.008031 -0.000404 -0.003317 0.000000 -0.000222 0.000000
# 2 -0.000404 0.025275 -0.002048 0.000000 -0.000514 0.000000
# 3 -0.003317 -0.002048 0.007122 0.000000 -0.000038 0.000000
# 4 0.000000 0.000000 0.000000 0.075027 0.000000 -0.000459
# 5 -0.000222 -0.000514 -0.000038 0.000000 0.038888 0.000000
# 6 0.000000 0.000000 0.000000 -0.000459 0.000000 0.027870
#
#
# Mechanical properties :
#
#
# Convention : Reuss Voigt Hill
#
# Bulk Modulus (GPa) = 34.61087 63.99765 49.30426
# Shear Modulus (GPa) = 24.58447 33.48326 29.03386
#
# Velocity S-wave (km/s) = 3.55013 4.14313 3.85804
# Velocity P-wave (km/s) = 5.87777 7.46299 6.71731
#
# Compressibility (1/GPa) = 0.02889266
#
# Stress axis : x y z
#
# Youngs Moduli (GPa) = 124.51630 39.56418 140.41129
#
# Poissons Ratio (x) = 0.01597 0.46568
# Poissons Ratio (y) = 0.05026 0.28751
# Poissons Ratio (z) = 0.41297 0.08101
#
# Static dielectric constant tensor:
#      x y z
#    x 4.243240 0.000000 0.014390 
#    y 0.000000 3.417670 0.000000 
#    z 0.014390 0.000000 3.937630 
# 
# 
# High freq. dielectric constant tensor:
#      x y z
#    x 1.771460 0.000000 0.000170 
#    y 0.000000 1.746120 0.000000 
#    z 0.000170 0.000000 1.762770 
# 
# From -- ./inp_files/211365.got.cif
#   From: 2010.06.25/outbox.cif.g09.slc.cpg/sg12_106_cif.got.tgz:211365.got - 2010.06.28 00:19:55.
