data_PCOD8114754
_publ_section_title
;
Structure prediction by ZEFSAII (Michael W. Deem and Ramdas Pophale) SiO2 
 PCOD8114754
Probable space group: C 2/M
;
_chemical_formula_sum "Si O2"
_cell_formula_units_Z 48
_cell_length_a 14.819996
_cell_length_b 8.636994
_cell_length_c 29.536560
_cell_angle_alpha 90.000000
_cell_angle_beta 139.897491
_cell_angle_gamma 90.000000
_cell_volume 2435.355874
_symmetry_space_group_name_H-M "C 2/M"
_symmetry_group_IT_number 12
_symmetry_cell_setting 'monoclinic'
loop_
_space_group_symop_operation_xyz
x,y,z
-x,y,-z
-x,-y,-z
x,-y,z
1/2+x,1/2+y,z
1/2-x,1/2+y,-z
1/2-x,1/2-y,-z
1/2+x,1/2-y,z
loop_
_atom_site_type_symbol
_atom_site_label
_atom_site_fract_x
_atom_site_fract_y
_atom_site_fract_z
Si Si1 0.876892 0.175316 0.488387
Si Si2 0.099877 0.820311 0.347772
Si Si3 0.449797 0.180541 0.367729
Si Si4 0.640165 0.317629 0.261883
Si Si5 0.610384 0.316825 0.004601
Si Si6 0.093314 0.183391 0.895117
O O1 0.756225 0.287812 0.424921
O O2 0.000000 0.185980 0.500000
O O3 0.933210 0.231251 0.558289
O O4 0.819852 0.000000 0.471417
O O5 0.081804 0.773824 0.288594
O O6 0.987902 0.713129 0.330340
O O7 0.066515 0.000000 0.342955
O O8 0.295962 0.252551 0.316889
O O9 0.454547 0.000000 0.381442
O O10 0.652558 0.500000 0.260016
O O11 0.536029 0.249791 0.183857
O O12 0.617685 0.500000 0.011214
O O13 0.566486 0.264702 0.936852
O O14 0.500000 0.252548 0.000000
O O15 0.765145 0.250793 0.072602
O O16 0.104153 0.000000 0.895673
#
# Coordination Sequence:
#
# PCOD8114754 Si02
#       6
#     8   8   8   8   8   8
#     4  11  22  37  58  82 107 139 184 232 277 322
#     4  11  22  38  57  79 107 142 185 229 278 327
#     4  11  22  38  58  81 108 143 184 225 278 330
#     4   9  20  37  56  77 108 147 180 218 271 329
#     4   9  18  33  55  83 112 142 176 219 267 314
#     4   9  18  35  56  79 109 144 182 218 261 319
#
# _framework density 19.709644000000001
#
# number of rings (size 3 to 8) (size 9 to 14) (size 15 to 20)
#    0.000    2.000    1.667    2.000    0.000    2.333 
#    0.000    5.000    0.000    0.000    0.000    0.000 
#    0.000    0.000    0.000    0.000    0.000    0.000 
#
# Total GULP energy -297614.081296 kJ/mol
# GULP energy per Si atom -12400.586721 kJ/mol
# Density = 1.966478 g / cm^3
# Si number density = 19.709644 Si / 1000 Ang^3
#
#
#
# Elastic Constant Matrix: (Units=GPa)
#
#
# Indices 1 2 3 4 5 6 
#
# 1 100.0823 21.2859 33.4855 0.0000 -11.2253 0.0000
# 2 21.2859 30.1585 10.6596 0.0000 -2.3209 0.0000
# 3 33.4855 10.6596 121.1293 0.0000 -11.9848 0.0000
# 4 0.0000 0.0000 0.0000 16.3114 0.0000 -1.0930
# 5 -11.2253 -2.3209 -11.9848 0.0000 21.2306 0.0000
# 6 0.0000 0.0000 0.0000 -1.0930 0.0000 27.3466
#
#
#
# Elastic Compliance Matrix: (Units=1/GPa)
#
#
# Indices 1 2 3 4 5 6 
#
# 1 0.013024 -0.007973 -0.002440 0.000000 0.004637 0.000000
# 2 -0.007973 0.039198 -0.001312 0.000000 -0.000671 0.000000
# 3 -0.002440 -0.001312 0.009430 0.000000 0.003890 0.000000
# 4 0.000000 0.000000 0.000000 0.061471 0.000000 0.002457
# 5 0.004637 -0.000671 0.003890 0.000000 0.051676 0.000000
# 6 0.000000 0.000000 0.000000 0.002457 0.000000 0.036666
#
#
# Mechanical properties :
#
#
# Convention : Reuss Voigt Hill
#
# Bulk Modulus (GPa) = 26.17631 42.47024 34.32327
# Shear Modulus (GPa) = 20.18986 25.37367 22.78176
#
# Velocity S-wave (km/s) = 3.20404 3.59189 3.40350
# Velocity P-wave (km/s) = 5.19593 6.22872 5.73562
#
# Compressibility (1/GPa) = 0.03820248
#
# Stress axis : x y z
#
# Youngs Moduli (GPa) = 76.78147 25.51180 106.03918
#
# Poissons Ratio (x) = 0.20341 0.25873
# Poissons Ratio (y) = 0.61218 0.13910
# Poissons Ratio (z) = 0.18734 0.03347
#
# Static dielectric constant tensor:
#      x y z
#    x 3.804590 0.000000 -0.065670 
#    y 0.000000 3.376520 0.000000 
#    z -0.065670 0.000000 3.726960 
# 
# 
# High freq. dielectric constant tensor:
#      x y z
#    x 1.781270 0.000000 -0.003590 
#    y 0.000000 1.749350 0.000000 
#    z -0.003590 0.000000 1.763460 
# 
# From -- ./inp_files/308577.got.cif
#   From: 2010.06.25/outbox.cif.g09.slc.cpg/sg12_155_cif.got.tgz:308577.got - 2010.06.28 00:19:55.
