data_PCOD8114074
_publ_section_title
;
Structure prediction by ZEFSAII (Michael W. Deem and Ramdas Pophale) SiO2 
 PCOD8114074
Probable space group: C 2/M
;
_chemical_formula_sum "Si O2"
_cell_formula_units_Z 64
_cell_length_a 31.130019
_cell_length_b 8.822707
_cell_length_c 14.404123
_cell_angle_alpha 90.000000
_cell_angle_beta 89.316417
_cell_angle_gamma 90.000000
_cell_volume 3955.825753
_symmetry_space_group_name_H-M "C 2/M"
_symmetry_group_IT_number 12
_symmetry_cell_setting 'monoclinic'
loop_
_space_group_symop_operation_xyz
x,y,z
-x,y,-z
-x,-y,-z
x,-y,z
1/2+x,1/2+y,z
1/2-x,1/2+y,-z
1/2-x,1/2-y,-z
1/2+x,1/2-y,z
loop_
_atom_site_type_symbol
_atom_site_label
_atom_site_fract_x
_atom_site_fract_y
_atom_site_fract_z
Si Si1 0.793345 0.324312 0.396692
Si Si2 0.297132 0.178460 0.600446
Si Si3 0.833014 0.322807 0.204680
Si Si4 0.909266 0.319801 0.905678
Si Si5 0.911524 0.178085 0.106355
Si Si6 0.746349 0.319971 0.899320
Si Si7 0.330517 0.179611 0.788078
Si Si8 0.002859 0.667004 0.889952
O O1 0.780806 0.500000 0.402150
O O2 0.750352 0.234798 0.375065
O O3 0.812329 0.270740 0.496753
O O4 0.827613 0.292513 0.315042
O O5 0.329047 0.238457 0.680856
O O6 0.295152 0.000000 0.608416
O O7 0.830858 0.500000 0.180816
O O8 0.879125 0.256572 0.178179
O O9 0.796475 0.238860 0.148042
O O10 0.906180 0.500000 0.922979
O O11 0.872916 0.255840 0.837223
O O12 0.955492 0.278060 0.858158
O O13 0.902438 0.238724 0.003848
O O14 0.959766 0.217137 0.140363
O O15 0.904775 0.000000 0.108542
O O16 0.744213 0.500000 0.906437
O O17 0.787733 0.263462 0.840931
O O18 0.750000 0.250000 0.000000
O O19 0.332849 0.000000 0.792351
O O20 0.013599 0.500000 0.848971
O O21 0.000000 0.656155 0.000000
#
# Coordination Sequence:
#
# PCOD8114074 Si02
#       8
#     8   8   8   8   8   8   8   8
#     4   9  18  30  47  68  89 117 152 192 237 273
#     4   9  16  30  49  68  90 116 149 192 235 276
#     4  11  21  33  46  64  92 125 159 194 230 275
#     4   9  17  31  49  69  94 125 155 183 226 280
#     4  11  21  31  46  68  92 121 157 196 234 272
#     4  11  21  32  45  65  93 129 162 189 223 265
#     4   9  17  29  47  68  91 120 152 185 223 270
#     4   8  15  29  48  67  90 120 151 186 230 278
#
# _framework density 16.178668999999999
#
# number of rings (size 3 to 8) (size 9 to 14) (size 15 to 20)
#    0.000    2.375    1.250    3.375    0.000    3.750 
#    0.000    1.250    0.000    0.000    0.000    0.875 
#    0.000    7.000    0.000    0.000    0.000    0.000 
#
# Total GULP energy -396624.207859 kJ/mol
# GULP energy per Si atom -12394.506496 kJ/mol
# Density = 1.614185 g / cm^3
# Si number density = 16.178669 Si / 1000 Ang^3
#
#
#
# Elastic Constant Matrix: (Units=GPa)
#
#
# Indices 1 2 3 4 5 6 
#
# 1 109.1760 26.8379 56.5233 0.0000 -3.7457 0.0000
# 2 26.8379 50.1849 32.1076 0.0000 -3.1551 0.0000
# 3 56.5233 32.1076 108.7124 0.0000 -1.3436 0.0000
# 4 0.0000 0.0000 0.0000 15.5801 0.0000 -0.4798
# 5 -3.7457 -3.1551 -1.3436 0.0000 12.5943 0.0000
# 6 0.0000 0.0000 0.0000 -0.4798 0.0000 22.2530
#
#
#
# Elastic Compliance Matrix: (Units=1/GPa)
#
#
# Indices 1 2 3 4 5 6 
#
# 1 0.013019 -0.003077 -0.005830 0.000000 0.002479 0.000000
# 2 -0.003077 0.025667 -0.005920 0.000000 0.004883 0.000000
# 3 -0.005830 -0.005920 0.013957 0.000000 -0.001728 0.000000
# 4 0.000000 0.000000 0.000000 0.064227 0.000000 0.001385
# 5 0.002479 0.004883 -0.001728 0.000000 0.081177 0.000000
# 6 0.000000 0.000000 0.000000 0.001385 0.000000 0.044968
#
#
# Mechanical properties :
#
#
# Convention : Reuss Voigt Hill
#
# Bulk Modulus (GPa) = 43.49952 55.44565 49.47258
# Shear Modulus (GPa) = 17.83602 20.25910 19.04756
#
# Velocity S-wave (km/s) = 3.32390 3.54250 3.43494
# Velocity P-wave (km/s) = 6.45573 7.14686 6.81007
#
# Compressibility (1/GPa) = 0.02298876
#
# Stress axis : x y z
#
# Youngs Moduli (GPa) = 76.81000 38.96128 71.64914
#
# Poissons Ratio (x) = 0.11987 0.41770
# Poissons Ratio (y) = 0.23632 0.42419
# Poissons Ratio (z) = 0.44779 0.23067
#
# Static dielectric constant tensor:
#      x y z
#    x 3.493740 0.000000 0.289980 
#    y 0.000000 2.993760 0.000000 
#    z 0.289980 0.000000 3.388320 
# 
# 
# High freq. dielectric constant tensor:
#      x y z
#    x 1.612590 0.000000 0.001870 
#    y 0.000000 1.615220 0.000000 
#    z 0.001870 0.000000 1.607200 
# 
# From -- ./inp_files/248336.got.cif
#   From: 2010.06.25/outbox.cif.g09.slc.cpg/sg12_125_cif.got.tgz:248336.got - 2010.06.28 00:19:55.
