data_PCOD8114326
_publ_section_title
;
Structure prediction by ZEFSAII (Michael W. Deem and Ramdas Pophale) SiO2 
 PCOD8114326
Probable space group: C 2/M
;
_chemical_formula_sum "Si O2"
_cell_formula_units_Z 64
_cell_length_a 22.029338
_cell_length_b 20.525739
_cell_length_c 8.888660
_cell_angle_alpha 90.000000
_cell_angle_beta 54.994301
_cell_angle_gamma 90.000000
_cell_volume 3292.083271
_symmetry_space_group_name_H-M "C 2/M"
_symmetry_group_IT_number 12
_symmetry_cell_setting 'monoclinic'
loop_
_space_group_symop_operation_xyz
x,y,z
-x,y,-z
-x,-y,-z
x,-y,z
1/2+x,1/2+y,z
1/2-x,1/2+y,-z
1/2-x,1/2-y,-z
1/2+x,1/2-y,z
loop_
_atom_site_type_symbol
_atom_site_label
_atom_site_fract_x
_atom_site_fract_y
_atom_site_fract_z
Si Si1 0.709191 0.847206 0.580948
Si Si2 0.653170 0.719587 0.486253
Si Si3 0.499274 0.268705 0.176036
Si Si4 0.852162 0.220405 0.865660
Si Si5 0.351009 0.926050 0.565848
Si Si6 0.852995 0.573665 0.075440
Si Si7 0.788582 0.645969 0.927448
Si Si8 0.995248 0.615637 0.182341
O O1 0.674987 0.786062 0.540672
O O2 0.786963 0.834513 0.550791
O O3 0.716011 0.906477 0.452477
O O4 0.648152 0.873327 0.787344
O O5 0.572848 0.695913 0.654205
O O6 0.648835 0.725403 0.313578
O O7 0.569940 0.296369 0.166851
O O8 0.491921 0.192231 0.214393
O O9 0.500000 0.286768 0.000000
O O10 0.824590 0.291058 0.960442
O O11 0.794750 0.164978 0.005596
O O12 0.341894 0.877219 0.717841
O O13 0.429717 0.917213 0.370335
O O14 0.341131 0.000000 0.633436
O O15 0.846312 0.500000 0.146161
O O16 0.784936 0.589151 0.058693
O O17 0.926909 0.585859 0.869522
O O18 0.000000 0.595078 0.000000
#
# Coordination Sequence:
#
# PCOD8114326 Si02
#       8
#     8   8   8   8   8   8   8   8
#     4  11  22  37  61  90 117 159 211 250 294 350
#     4  11  22  38  61  87 123 156 198 255 306 362
#     4  11  22  36  62  92 120 156 195 249 311 367
#     4  11  22  39  62  84 123 158 196 255 315 356
#     4  12  24  39  58  86 125 168 207 246 291 349
#     4  12  23  39  59  84 125 169 207 244 288 354
#     4  11  24  39  58  88 118 160 206 251 304 355
#     4  11  21  37  55  87 122 161 207 238 284 357
#
# _framework density 19.440577999999999
#
# number of rings (size 3 to 8) (size 9 to 14) (size 15 to 20)
#    0.000    0.750    6.250    2.250    1.750    1.000 
#    0.000    1.250    0.000    0.000    0.000    5.250 
#    0.000    0.000    0.000    0.000    0.000    0.000 
#
# Total GULP energy -396570.132876 kJ/mol
# GULP energy per Si atom -12392.816652 kJ/mol
# Density = 1.939633 g / cm^3
# Si number density = 19.440578 Si / 1000 Ang^3
#
#
#
# Elastic Constant Matrix: (Units=GPa)
#
#
# Indices 1 2 3 4 5 6 
#
# 1 125.8873 34.4115 41.7494 0.0000 -7.1119 0.0000
# 2 34.4115 75.2111 41.8134 0.0000 -6.7015 0.0000
# 3 41.7494 41.8134 103.7652 0.0000 -5.1906 0.0000
# 4 0.0000 0.0000 0.0000 20.7493 0.0000 3.2895
# 5 -7.1119 -6.7015 -5.1906 0.0000 34.1045 0.0000
# 6 0.0000 0.0000 0.0000 3.2895 0.0000 21.2189
#
#
#
# Elastic Compliance Matrix: (Units=1/GPa)
#
#
# Indices 1 2 3 4 5 6 
#
# 1 0.009672 -0.002832 -0.002698 0.000000 0.001050 0.000000
# 2 -0.002832 0.018150 -0.006072 0.000000 0.002052 0.000000
# 3 -0.002698 -0.006072 0.013182 0.000000 0.000251 0.000000
# 4 0.000000 0.000000 0.000000 0.049409 0.000000 -0.007660
# 5 0.001050 0.002052 0.000251 0.000000 0.029982 0.000000
# 6 0.000000 0.000000 0.000000 -0.007660 0.000000 0.048315
#
#
# Mechanical properties :
#
#
# Convention : Reuss Voigt Hill
#
# Bulk Modulus (GPa) = 56.17698 60.09024 58.13361
# Shear Modulus (GPa) = 25.27227 27.67382 26.47305
#
# Velocity S-wave (km/s) = 3.60943 3.77703 3.69418
# Velocity P-wave (km/s) = 6.80662 7.07093 6.94004
#
# Compressibility (1/GPa) = 0.01780089
#
# Stress axis : x y z
#
# Youngs Moduli (GPa) = 103.39481 55.09668 75.86234
#
# Poissons Ratio (x) = 0.15602 0.20466
# Poissons Ratio (y) = 0.29279 0.46062
# Poissons Ratio (z) = 0.27893 0.33453
#
# Static dielectric constant tensor:
#      x y z
#    x 3.786100 0.000000 -0.020480 
#    y 0.000000 3.325230 0.000000 
#    z -0.020480 0.000000 3.645380 
# 
# 
# High freq. dielectric constant tensor:
#      x y z
#    x 1.761320 0.000000 0.011130 
#    y 0.000000 1.718220 0.000000 
#    z 0.011130 0.000000 1.764140 
# 
# From -- ./inp_files/99061.got.cif
#   From: 2010.06.25/outbox.cif.g09.slc.cpg/sg12_50_cif.got.tgz:99061.got - 2010.06.28 00:19:55.
