data_PCOD8114835
_publ_section_title
;
Structure prediction by ZEFSAII (Michael W. Deem and Ramdas Pophale) SiO2 
 PCOD8114835
Probable space group: C 2/M
;
_chemical_formula_sum "Si O2"
_cell_formula_units_Z 48
_cell_length_a 8.580677
_cell_length_b 17.553036
_cell_length_c 29.437985
_cell_angle_alpha 90.000000
_cell_angle_beta 148.969771
_cell_angle_gamma 90.000000
_cell_volume 2285.611041
_symmetry_space_group_name_H-M "C 2/M"
_symmetry_group_IT_number 12
_symmetry_cell_setting 'monoclinic'
loop_
_space_group_symop_operation_xyz
x,y,z
-x,y,-z
-x,-y,-z
x,-y,z
1/2+x,1/2+y,z
1/2-x,1/2+y,-z
1/2-x,1/2-y,-z
1/2+x,1/2-y,z
loop_
_atom_site_type_symbol
_atom_site_label
_atom_site_fract_x
_atom_site_fract_y
_atom_site_fract_z
Si Si1 0.649051 0.166485 0.488344
Si Si2 0.729477 0.911097 0.345330
Si Si3 0.905732 0.673125 0.184924
Si Si4 0.295407 0.838878 0.838013
Si Si5 0.639279 0.414270 0.984933
Si Si6 0.181666 0.412692 0.672733
O O1 0.500000 0.167507 0.500000
O O2 0.750000 0.250000 0.500000
O O3 0.398398 0.139090 0.390203
O O4 0.927560 0.108137 0.556187
O O5 0.633837 0.862068 0.278153
O O6 0.519937 0.887347 0.334986
O O7 0.700588 0.000000 0.326315
O O8 0.842536 0.760190 0.179937
O O9 0.591353 0.626594 0.107120
O O10 0.064293 0.669233 0.176314
O O11 0.032547 0.901647 0.772080
O O12 0.547746 0.867502 0.936715
O O13 0.697410 0.500000 0.981909
O O14 0.500000 0.416140 0.000000
O O15 0.120969 0.500000 0.645047
#
# Coordination Sequence:
#
# PCOD8114835 Si02
#       6
#     8   8   8   8   8   8
#     4  12  25  42  65  91 121 157 199 244 293 352
#     4  11  24  42  63  89 122 157 196 245 299 354
#     4  11  22  38  61  88 121 159 201 247 296 353
#     4  11  22  38  61  88 121 159 201 247 296 353
#     4   9  19  36  59  87 118 155 200 249 298 350
#     4  11  24  42  63  89 122 157 196 245 299 354
#
# _framework density 21.000948000000001
#
# number of rings (size 3 to 8) (size 9 to 14) (size 15 to 20)
#    0.000    1.167    0.000    6.500    0.000    6.000 
#    0.000    2.500    0.000    6.000    0.000    0.000 
#    0.000    0.000    0.000    0.000    0.000    0.000 
#
# Total GULP energy -297783.624259 kJ/mol
# GULP energy per Si atom -12407.651011 kJ/mol
# Density = 2.095315 g / cm^3
# Si number density = 21.000948 Si / 1000 Ang^3
#
#
#
# Elastic Constant Matrix: (Units=GPa)
#
#
# Indices 1 2 3 4 5 6 
#
# 1 102.3433 22.8595 16.1125 0.0078 14.0776 -0.0037
# 2 22.8595 90.8445 16.0053 0.0005 3.4024 -0.0061
# 3 16.1125 16.0053 93.7966 0.0233 17.0663 -0.0117
# 4 0.0078 0.0005 0.0233 49.8486 0.0061 1.7600
# 5 14.0776 3.4024 17.0663 0.0061 31.2115 -0.0011
# 6 -0.0037 -0.0061 -0.0117 1.7600 -0.0011 17.5343
#
#
#
# Elastic Compliance Matrix: (Units=1/GPa)
#
#
# Indices 1 2 3 4 5 6 
#
# 1 0.011031 -0.002493 -0.000681 -0.000001 -0.004331 0.000001
# 2 -0.002493 0.011914 -0.001747 0.000001 0.000781 0.000002
# 3 -0.000681 -0.001747 0.012200 -0.000005 -0.006173 0.000008
# 4 -0.000001 0.000001 -0.000005 0.020132 -0.000001 -0.002021
# 5 -0.004331 0.000781 -0.006173 -0.000001 0.037283 -0.000002
# 6 0.000001 0.000002 0.000008 -0.002021 -0.000002 0.057234
#
#
# Mechanical properties :
#
#
# Convention : Reuss Voigt Hill
#
# Bulk Modulus (GPa) = 39.52389 44.10433 41.81411
# Shear Modulus (GPa) = 29.74944 35.18602 32.46773
#
# Velocity S-wave (km/s) = 3.76783 4.09767 3.93620
# Velocity P-wave (km/s) = 6.14732 6.59049 6.37276
#
# Compressibility (1/GPa) = 0.02530115
#
# Stress axis : x y z
#
# Youngs Moduli (GPa) = 90.65359 83.93662 81.96958
#
# Poissons Ratio (x) = 0.20930 0.05586
# Poissons Ratio (y) = 0.22604 0.14318
# Poissons Ratio (z) = 0.06177 0.14661
#
# Static dielectric constant tensor:
#      x y z
#    x 3.734450 0.000000 0.113860 
#    y 0.000000 3.867650 0.000000 
#    z 0.113860 0.000000 4.036720 
# 
# 
# High freq. dielectric constant tensor:
#      x y z
#    x 1.819480 0.000000 0.006380 
#    y 0.000000 1.836650 0.000000 
#    z 0.006380 0.000000 1.838570 
# 
# From -- ./inp_files/373033.got.cif
#   From: 2010.06.25/outbox.cif.g09.slc.cpg/sg12_187_cif.got.tgz:373033.got - 2010.06.28 00:19:55.
