data_PCOD8114721
_publ_section_title
;
Structure prediction by ZEFSAII (Michael W. Deem and Ramdas Pophale) SiO2 
 PCOD8114721
Probable space group: C 2/M
;
_chemical_formula_sum "Si O2"
_cell_formula_units_Z 64
_cell_length_a 21.313607
_cell_length_b 29.218598
_cell_length_c 8.581781
_cell_angle_alpha 90.000000
_cell_angle_beta 143.019835
_cell_angle_gamma 90.000000
_cell_volume 3214.823916
_symmetry_space_group_name_H-M "C 2/M"
_symmetry_group_IT_number 12
_symmetry_cell_setting 'monoclinic'
loop_
_space_group_symop_operation_xyz
x,y,z
-x,y,-z
-x,-y,-z
x,-y,z
1/2+x,1/2+y,z
1/2-x,1/2+y,-z
1/2-x,1/2-y,-z
1/2+x,1/2-y,z
loop_
_atom_site_type_symbol
_atom_site_label
_atom_site_fract_x
_atom_site_fract_y
_atom_site_fract_z
Si Si1 0.986935 0.754289 0.156365
Si Si2 0.210959 0.121574 0.596254
Si Si3 0.000355 0.854004 0.317266
Si Si4 0.882128 0.448716 0.945174
Si Si5 0.614341 0.051628 0.418109
Si Si6 0.161813 0.293341 0.665046
Si Si7 0.718370 0.374973 0.244211
Si Si8 0.296501 0.790598 0.914834
O O1 0.014926 0.805312 0.263623
O O2 0.049925 0.712570 0.362611
O O3 0.869332 0.744481 0.968073
O O4 0.000000 0.750506 0.000000
O O5 0.099190 0.115484 0.459096
O O6 0.289213 0.083439 0.821998
O O7 0.197400 0.118404 0.384684
O O8 0.263638 0.169863 0.733750
O O9 0.000000 0.846296 0.500000
O O10 0.893764 0.879958 0.060523
O O11 0.858370 0.500000 0.956090
O O12 0.882873 0.446712 0.761363
O O13 0.996769 0.433558 0.237066
O O14 0.701034 0.086304 0.659179
O O15 0.638797 0.000000 0.525152
O O16 0.233861 0.325442 0.700931
O O17 0.196946 0.240558 0.753524
O O18 0.156520 0.312256 0.831907
#
# Coordination Sequence:
#
# PCOD8114721 Si02
#       8
#     8   8   8   8   8   8   8   8
#     4  12  24  38  58  81 110 149 200 251 286 332
#     4  11  22  36  60  90 116 150 200 246 285 342
#     4  12  24  40  57  77 116 162 197 238 298 349
#     4   8  16  34  60  90 121 148 180 234 299 350
#     4   8  16  34  60  90 121 148 180 234 299 350
#     4  11  23  38  56  80 117 159 193 231 289 351
#     4  11  22  36  60  90 116 150 200 246 285 342
#     4  11  23  38  56  80 117 159 193 231 289 351
#
# _framework density 19.907778
#
# number of rings (size 3 to 8) (size 9 to 14) (size 15 to 20)
#    0.000    1.500    2.500    4.500    1.750    1.000 
#    0.000    0.625    0.000    6.750    0.000    7.000 
#    0.000    0.000    0.000    0.000    0.000    0.000 
#
# Total GULP energy -396688.718496 kJ/mol
# GULP energy per Si atom -12396.522453 kJ/mol
# Density = 1.986247 g / cm^3
# Si number density = 19.907778 Si / 1000 Ang^3
#
#
#
# Elastic Constant Matrix: (Units=GPa)
#
#
# Indices 1 2 3 4 5 6 
#
# 1 58.9278 13.3353 27.8962 0.0000 10.6957 0.0000
# 2 13.3353 80.7277 40.0818 0.0000 25.0443 0.0000
# 3 27.8962 40.0818 103.8385 0.0000 19.6182 0.0000
# 4 0.0000 0.0000 0.0000 28.4223 0.0000 17.8704
# 5 10.6957 25.0443 19.6182 0.0000 40.9536 0.0000
# 6 0.0000 0.0000 0.0000 17.8704 0.0000 8.4679
#
#
#
# Elastic Compliance Matrix: (Units=1/GPa)
#
#
# Indices 1 2 3 4 5 6 
#
# 1 0.019746 -0.000008 -0.004759 0.000000 -0.002872 0.000000
# 2 -0.000008 0.017525 -0.005210 0.000000 -0.008220 0.000000
# 3 -0.004759 -0.005210 0.013285 0.000000 -0.001935 0.000000
# 4 0.000000 0.000000 0.000000 -0.107636 0.000000 0.227150
# 5 -0.002872 -0.008220 -0.001935 0.000000 0.031122 0.000000
# 6 0.000000 0.000000 0.000000 0.227150 0.000000 -0.361275
#
#
# Mechanical properties :
#
#
# Convention : Reuss Voigt Hill
#
# Bulk Modulus (GPa) = 32.67595 45.12450 38.90023
# Shear Modulus (GPa) = -14.00254 26.38081 6.18914
#
# Velocity S-wave (km/s) = -2.65499 3.64421 1.76512
# Velocity P-wave (km/s) = 2.65531 6.35791 4.87205
#
# Compressibility (1/GPa) = 0.03060355
#
# Stress axis : x y z
#
# Youngs Moduli (GPa) = 50.64321 57.06052 75.27012
#
# Poissons Ratio (x) = 0.00044 0.35822
# Poissons Ratio (y) = 0.00039 0.39214
# Poissons Ratio (z) = 0.24101 0.29727
#
# Static dielectric constant tensor:
#      x y z
#    x 3.535960 0.000000 0.230830 
#    y 0.000000 3.582200 0.000000 
#    z 0.230830 0.000000 3.901740 
# 
# 
# High freq. dielectric constant tensor:
#      x y z
#    x 1.770720 0.000000 0.012260 
#    y 0.000000 1.754480 0.000000 
#    z 0.012260 0.000000 1.783050 
# 
# From -- ./inp_files/100232.got.cif
#   From: 2010.06.25/outbox.cif.g09.slc.cpg/sg12_51_cif.got.tgz:100232.got - 2010.06.28 00:19:55.
