data_PCOD8114881
_publ_section_title
;
Structure prediction by ZEFSAII (Michael W. Deem and Ramdas Pophale) SiO2 
 PCOD8114881
Probable space group: C 2/M
;
_chemical_formula_sum "Si O2"
_cell_formula_units_Z 64
_cell_length_a 20.700429
_cell_length_b 14.126319
_cell_length_c 14.603291
_cell_angle_alpha 90.000000
_cell_angle_beta 42.593568
_cell_angle_gamma 90.000000
_cell_volume 2890.115277
_symmetry_space_group_name_H-M "C 2/M"
_symmetry_group_IT_number 12
_symmetry_cell_setting 'monoclinic'
loop_
_space_group_symop_operation_xyz
x,y,z
-x,y,-z
-x,-y,-z
x,-y,z
1/2+x,1/2+y,z
1/2-x,1/2+y,-z
1/2-x,1/2-y,-z
1/2+x,1/2-y,z
loop_
_atom_site_type_symbol
_atom_site_label
_atom_site_fract_x
_atom_site_fract_y
_atom_site_fract_z
Si Si1 0.375106 0.109155 0.382855
Si Si2 0.649202 0.286974 0.193087
Si Si3 0.607160 0.356690 0.883145
Si Si4 0.776355 0.110119 0.056624
Si Si5 0.909433 0.358401 0.145689
Si Si6 0.066925 0.218743 0.580072
Si Si7 0.704798 0.395537 0.303643
Si Si8 0.660024 0.604429 0.628315
O O1 0.430594 0.137916 0.232075
O O2 0.415106 0.169106 0.426918
O O3 0.264241 0.135138 0.484902
O O4 0.390428 0.000000 0.392169
O O5 0.681370 0.176353 0.157854
O O6 0.540711 0.294484 0.341575
O O7 0.714338 0.345818 0.195283
O O8 0.655673 0.339601 0.088874
O O9 0.668340 0.390913 0.905258
O O10 0.604355 0.244508 0.882248
O O11 0.658065 0.395838 0.739793
O O12 0.500000 0.398514 0.000000
O O13 0.750965 0.000000 0.058342
O O14 0.810857 0.413053 0.231506
O O15 0.000000 0.406526 0.000000
O O16 0.140602 0.171570 0.433805
O O17 0.082382 0.174248 0.665304
O O18 0.657534 0.500000 0.345274
O O19 0.637229 0.500000 0.614540
#
# Coordination Sequence:
#
# PCOD8114881 Si02
#       8
#     8   8   8   8   8   8   8   8
#     4  11  24  42  66  99 136 178 220 269 342 411
#     4  11  27  45  67  96 132 184 235 282 334 388
#     4  11  22  39  68 100 133 173 220 279 346 410
#     4  11  25  46  68  94 136 180 230 285 337 401
#     4  11  23  41  69 101 137 176 217 276 342 413
#     4  12  24  42  68  97 136 176 223 281 330 401
#     4  12  25  45  70  99 135 176 228 283 340 400
#     4  11  22  38  65  98 133 171 213 274 347 408
#
# _framework density 22.144445000000001
#
# number of rings (size 3 to 8) (size 9 to 14) (size 15 to 20)
#    0.000    0.750    3.750    3.750    1.750    6.000 
#    0.000    0.000    0.000    1.500    0.000    0.000 
#    0.000    0.000    0.000    0.000    0.000    0.000 
#
# Total GULP energy -396808.393223 kJ/mol
# GULP energy per Si atom -12400.262288 kJ/mol
# Density = 2.209404 g / cm^3
# Si number density = 22.144445 Si / 1000 Ang^3
#
#
#
# Elastic Constant Matrix: (Units=GPa)
#
#
# Indices 1 2 3 4 5 6 
#
# 1 68.0608 27.0167 34.5058 0.0000 0.1329 0.0000
# 2 27.0167 135.2801 31.7532 0.0000 1.6834 0.0000
# 3 34.5058 31.7532 139.0171 0.0000 -7.6893 0.0000
# 4 0.0000 0.0000 0.0000 3.3730 0.0000 9.7505
# 5 0.1329 1.6834 -7.6893 0.0000 35.6815 0.0000
# 6 0.0000 0.0000 0.0000 9.7505 0.0000 17.0059
#
#
#
# Elastic Compliance Matrix: (Units=1/GPa)
#
#
# Indices 1 2 3 4 5 6 
#
# 1 0.017677 -0.002621 -0.003831 0.000000 -0.000768 0.000000
# 2 -0.002621 0.008220 -0.001263 0.000000 -0.000650 0.000000
# 3 -0.003831 -0.001263 0.008539 0.000000 0.001914 0.000000
# 4 0.000000 0.000000 0.000000 -0.450956 0.000000 0.258560
# 5 -0.000768 -0.000650 0.001914 0.000000 0.028472 0.000000
# 6 0.000000 0.000000 0.000000 0.258560 0.000000 -0.089444
#
#
# Mechanical properties :
#
#
# Convention : Reuss Voigt Hill
#
# Bulk Modulus (GPa) = 52.61875 58.76769 55.69322
# Shear Modulus (GPa) = -10.97151 27.81756 8.42303
#
# Velocity S-wave (km/s) = -2.22829 3.54812 1.95242
# Velocity P-wave (km/s) = 4.14642 6.58646 5.50338
#
# Compressibility (1/GPa) = 0.01900463
#
# Stress axis : x y z
#
# Youngs Moduli (GPa) = 56.56973 121.65284 117.11404
#
# Poissons Ratio (x) = 0.31891 0.44871
# Poissons Ratio (y) = 0.14829 0.14790
# Poissons Ratio (z) = 0.21674 0.15363
#
# Static dielectric constant tensor:
#      x y z
#    x 3.851080 0.000000 0.014070 
#    y 0.000000 4.099620 0.000000 
#    z 0.014070 0.000000 4.066250 
# 
# 
# High freq. dielectric constant tensor:
#      x y z
#    x 1.855170 0.000000 0.009270 
#    y 0.000000 1.886140 0.000000 
#    z 0.009270 0.000000 1.874690 
# 
# From -- ./inp_files/225675.got.cif
#   From: 2010.06.25/outbox.cif.g09.slc.cpg/sg12_113_cif.got.tgz:225675.got - 2010.06.28 00:19:55.
