data_PCOD8114510
_publ_section_title
;
Structure prediction by ZEFSAII (Michael W. Deem and Ramdas Pophale) SiO2 
 PCOD8114510
Probable space group: C 2/M
;
_chemical_formula_sum "Si O2"
_cell_formula_units_Z 32
_cell_length_a 12.419029
_cell_length_b 17.091816
_cell_length_c 14.970367
_cell_angle_alpha 90.000000
_cell_angle_beta 152.336729
_cell_angle_gamma 90.000000
_cell_volume 1475.309069
_symmetry_space_group_name_H-M "C 2/M"
_symmetry_group_IT_number 12
_symmetry_cell_setting 'monoclinic'
loop_
_space_group_symop_operation_xyz
x,y,z
-x,y,-z
-x,-y,-z
x,-y,z
1/2+x,1/2+y,z
1/2-x,1/2+y,-z
1/2-x,1/2-y,-z
1/2+x,1/2-y,z
loop_
_atom_site_type_symbol
_atom_site_label
_atom_site_fract_x
_atom_site_fract_y
_atom_site_fract_z
Si Si1 0.252551 0.500000 0.277272
Si Si2 0.000000 0.276998 0.500000
Si Si3 0.115820 0.000000 0.992045
Si Si4 0.756412 0.834684 0.186924
Si Si5 0.597399 0.377515 0.295512
Si Si6 0.859958 0.500000 0.608246
O O1 0.500000 0.500000 0.500000
O O2 0.221266 0.424234 0.192966
O O3 0.099112 0.500000 0.253902
O O4 0.087933 0.219148 0.638812
O O5 0.207757 0.327506 0.611278
O O6 0.038455 0.925452 0.878888
O O7 0.374316 0.000000 0.222239
O O8 0.000000 0.000000 0.000000
O O9 0.887141 0.830026 0.187510
O O10 0.500000 0.796962 0.000000
O O11 0.724998 0.425395 0.468819
#
# Coordination Sequence:
#
# PCOD8114510 Si02
#       6
#     4   4   4   8   8   4
#     4  12  19  41  69  93 121 155 206 262 315 362
#     4  12  26  42  62  90 132 174 208 250 308 374
#     4  11  23  40  67  97 123 163 210 259 313 367
#     4  12  25  42  66  95 126 164 210 260 313 370
#     4  11  24  43  64  94 128 165 211 257 309 373
#     4  11  21  40  69  95 126 163 206 262 315 364
#
# _framework density 21.690370000000001
#
# number of rings (size 3 to 8) (size 9 to 14) (size 15 to 20)
#    0.000    0.500    3.750    4.875    0.000    6.000 
#    0.000    0.000    0.000    0.000    0.000    0.000 
#    0.000    0.000    0.000    0.000    0.000    0.000 
#
# Total GULP energy -198232.360563 kJ/mol
# GULP energy per Si atom -12389.522535 kJ/mol
# Density = 2.164100 g / cm^3
# Si number density = 21.690370 Si / 1000 Ang^3
#
#
#
# Elastic Constant Matrix: (Units=GPa)
#
#
# Indices 1 2 3 4 5 6 
#
# 1 176.4748 23.5612 36.2624 -0.0178 22.2644 -0.0246
# 2 23.5612 68.7389 6.5103 -0.0243 1.7272 -0.0387
# 3 36.2624 6.5103 118.1892 -0.0228 16.9198 -0.0574
# 4 -0.0178 -0.0243 -0.0228 -54.3144 0.0060 -14.4022
# 5 22.2644 1.7272 16.9198 0.0060 47.8359 -0.0114
# 6 -0.0246 -0.0387 -0.0574 -14.4022 -0.0114 16.8774
#
#
#
# Elastic Compliance Matrix: (Units=1/GPa)
#
#
# Indices 1 2 3 4 5 6 
#
# 1 0.006565 -0.002042 -0.001554 0.000000 -0.002432 -0.000002
# 2 -0.002042 0.015262 -0.000286 -0.000012 0.000500 0.000021
# 3 -0.001554 -0.000286 0.009320 -0.000009 -0.002563 0.000020
# 4 0.000000 -0.000012 -0.000009 -0.015014 0.000002 -0.012812
# 5 -0.002432 0.000500 -0.002563 0.000002 0.022926 0.000006
# 6 -0.000002 0.000021 0.000020 -0.012812 0.000006 0.048318
#
#
# Mechanical properties :
#
#
# Convention : Reuss Voigt Hill
#
# Bulk Modulus (GPa) = 42.76260 55.11898 48.94079
# Shear Modulus (GPa) = 48.57416 21.88436 35.22926
#
# Velocity S-wave (km/s) = 4.73740 3.17983 4.03450
# Velocity P-wave (km/s) = 7.04853 6.24089 6.65697
#
# Compressibility (1/GPa) = 0.02338492
#
# Stress axis : x y z
#
# Youngs Moduli (GPa) = 152.31614 65.52109 107.29167
#
# Poissons Ratio (x) = 0.13380 0.16669
# Poissons Ratio (y) = 0.31104 0.03066
# Poissons Ratio (z) = 0.23664 0.01873
#
# Static dielectric constant tensor:
#      x y z
#    x 4.009430 -0.000070 0.367940 
#    y -0.000070 3.861880 -0.000070 
#    z 0.367940 -0.000070 4.231740 
# 
# 
# High freq. dielectric constant tensor:
#      x y z
#    x 1.877550 0.000000 0.010210 
#    y 0.000000 1.837110 0.000000 
#    z 0.010210 0.000000 1.874350 
# 
# From -- ./inp_files/205893.got.cif
#   From: 2010.06.25/outbox.cif.g09.slc.cpg/sg12_103_cif.got.tgz:205893.got - 2010.06.28 00:19:55.
