data_PCOD8114315
_publ_section_title
;
Structure prediction by ZEFSAII (Michael W. Deem and Ramdas Pophale) SiO2 
 PCOD8114315
Probable space group: C 2/M
;
_chemical_formula_sum "Si O2"
_cell_formula_units_Z 48
_cell_length_a 16.067202
_cell_length_b 14.071201
_cell_length_c 16.033640
_cell_angle_alpha 90.000000
_cell_angle_beta 140.207533
_cell_angle_gamma 90.000000
_cell_volume 2320.007640
_symmetry_space_group_name_H-M "C 2/M"
_symmetry_group_IT_number 12
_symmetry_cell_setting 'monoclinic'
loop_
_space_group_symop_operation_xyz
x,y,z
-x,y,-z
-x,-y,-z
x,-y,z
1/2+x,1/2+y,z
1/2-x,1/2+y,-z
1/2-x,1/2-y,-z
1/2+x,1/2-y,z
loop_
_atom_site_type_symbol
_atom_site_label
_atom_site_fract_x
_atom_site_fract_y
_atom_site_fract_z
Si Si1 0.612594 0.892634 0.719140
Si Si2 0.803977 0.219847 0.322627
Si Si3 0.449087 0.108856 0.868576
Si Si4 0.391551 0.750988 0.569823
Si Si5 0.705395 0.142937 0.966175
Si Si6 0.587374 0.397055 0.744466
O O1 0.685276 0.826449 0.706995
O O2 0.468694 0.851306 0.631780
O O3 0.596814 0.000000 0.671959
O O4 0.704413 0.896012 0.871312
O O5 0.658680 0.188383 0.235545
O O6 0.890049 0.217120 0.472463
O O7 0.848012 0.143022 0.289229
O O8 0.397795 0.000000 0.819287
O O9 0.500000 0.126937 0.000000
O O10 0.561683 0.128764 0.889985
O O11 0.250000 0.750000 0.500000
O O12 0.473773 0.674079 0.686038
O O13 0.806956 0.087097 0.101704
O O14 0.750000 0.250000 0.000000
O O15 0.527185 0.500000 0.678214
#
# Coordination Sequence:
#
# PCOD8114315 Si02
#       6
#     8   8   8   8   8   8
#     4  11  23  42  66  90 123 172 216 251 302 375
#     4  11  23  39  64  91 126 162 205 259 306 366
#     4  11  21  36  62  95 126 158 202 255 313 370
#     4  11  25  42  61  91 123 164 210 256 310 369
#     4  12  21  39  66  93 128 164 201 255 312 374
#     4  11  22  39  63  93 126 159 198 256 317 366
#
# _framework density 20.689587
#
# number of rings (size 3 to 8) (size 9 to 14) (size 15 to 20)
#    0.000    0.833    5.000    5.000    0.000    4.000 
#    0.000    0.000    0.000    1.500    0.000    0.000 
#    0.000    0.000    0.000    0.000    0.000    0.000 
#
# Total GULP energy -297529.078244 kJ/mol
# GULP energy per Si atom -12397.044927 kJ/mol
# Density = 2.064250 g / cm^3
# Si number density = 20.689587 Si / 1000 Ang^3
#
#
#
# Elastic Constant Matrix: (Units=GPa)
#
#
# Indices 1 2 3 4 5 6 
#
# 1 62.3419 25.4982 35.9327 0.0000 9.5989 0.0000
# 2 25.4982 167.8309 34.2442 0.0000 20.0366 0.0000
# 3 35.9327 34.2442 107.4596 0.0000 3.2953 0.0000
# 4 0.0000 0.0000 0.0000 12.6359 0.0000 1.8328
# 5 9.5989 20.0366 3.2953 0.0000 40.8131 0.0000
# 6 0.0000 0.0000 0.0000 1.8328 0.0000 13.6234
#
#
#
# Elastic Compliance Matrix: (Units=1/GPa)
#
#
# Indices 1 2 3 4 5 6 
#
# 1 0.020891 -0.001423 -0.006419 0.000000 -0.003697 0.000000
# 2 -0.001423 0.006851 -0.001618 0.000000 -0.002898 0.000000
# 3 -0.006419 -0.001618 0.011927 0.000000 0.001341 0.000000
# 4 0.000000 0.000000 0.000000 0.080715 0.000000 -0.010859
# 5 -0.003697 -0.002898 0.001341 0.000000 0.026686 0.000000
# 6 0.000000 0.000000 0.000000 -0.010859 0.000000 0.074864
#
#
# Mechanical properties :
#
#
# Convention : Reuss Voigt Hill
#
# Bulk Modulus (GPa) = 48.19652 58.77582 53.48617
# Shear Modulus (GPa) = 20.17994 29.54497 24.86245
#
# Velocity S-wave (km/s) = 3.12647 3.78300 3.47030
# Velocity P-wave (km/s) = 6.03148 6.89576 6.47805
#
# Compressibility (1/GPa) = 0.02074838
#
# Stress axis : x y z
#
# Youngs Moduli (GPa) = 47.86636 145.96908 83.84458
#
# Poissons Ratio (x) = 0.20771 0.53819
# Poissons Ratio (y) = 0.06811 0.13570
# Poissons Ratio (z) = 0.30725 0.23624
#
# Static dielectric constant tensor:
#      x y z
#    x 3.691180 0.000000 -0.114670 
#    y 0.000000 3.823100 0.000000 
#    z -0.114670 0.000000 4.153360 
# 
# 
# High freq. dielectric constant tensor:
#      x y z
#    x 1.797220 0.000000 -0.009740 
#    y 0.000000 1.812610 0.000000 
#    z -0.009740 0.000000 1.821680 
# 
# From -- ./inp_files/278225.got.cif
#   From: 2010.06.25/outbox.cif.g09.slc.cpg/sg12_140_cif.got.tgz:278225.got - 2010.06.28 00:19:55.
