data_PCOD8114077
_publ_section_title
;
Structure prediction by ZEFSAII (Michael W. Deem and Ramdas Pophale) SiO2 
 PCOD8114077
Probable space group: C 2/M
;
_chemical_formula_sum "Si O2"
_cell_formula_units_Z 56
_cell_length_a 30.392188
_cell_length_b 8.860364
_cell_length_c 19.273781
_cell_angle_alpha 90.000000
_cell_angle_beta 142.479328
_cell_angle_gamma 90.000000
_cell_volume 3161.052481
_symmetry_space_group_name_H-M "C 2/M"
_symmetry_group_IT_number 12
_symmetry_cell_setting 'monoclinic'
loop_
_space_group_symop_operation_xyz
x,y,z
-x,y,-z
-x,-y,-z
x,-y,z
1/2+x,1/2+y,z
1/2-x,1/2+y,-z
1/2-x,1/2-y,-z
1/2+x,1/2-y,z
loop_
_atom_site_type_symbol
_atom_site_label
_atom_site_fract_x
_atom_site_fract_y
_atom_site_fract_z
Si Si1 0.063493 0.319156 0.530756
Si Si2 0.933202 0.678396 0.622339
Si Si3 0.282346 0.164626 0.265203
Si Si4 0.871105 0.677228 0.771203
Si Si5 0.488706 0.322841 0.821655
Si Si6 0.128397 0.820831 0.080464
Si Si7 0.772949 0.334898 0.417380
O O1 0.067832 0.500000 0.538736
O O2 0.049335 0.267395 0.434125
O O3 0.141086 0.252983 0.656424
O O4 0.000000 0.255064 0.500000
O O5 0.945957 0.500000 0.646181
O O6 0.986854 0.770473 0.739434
O O7 0.851009 0.721309 0.542258
O O8 0.206164 0.244982 0.149132
O O9 0.280584 0.147288 0.345237
O O10 0.283640 0.000000 0.231085
O O11 0.875604 0.500000 0.785354
O O12 0.928829 0.731174 0.788000
O O13 0.890955 0.751347 0.869460
O O14 0.791108 0.720260 0.643266
O O15 0.474176 0.500000 0.810970
O O16 0.567375 0.278369 0.949072
O O17 0.135393 0.000000 0.100314
O O18 0.754679 0.500000 0.426262
#
# Coordination Sequence:
#
# PCOD8114077 Si02
#       7
#     8   8   8   8   8   8   8
#     4   8  13  24  48  79 100 113 138 183 236 282
#     4   9  18  32  49  70  96 123 153 191 232 274
#     4   7  11  23  44  67  89 114 148 186 220 263
#     4  11  21  31  47  70  92 117 155 203 243 270
#     4  11  22  33  46  63  89 128 165 195 230 274
#     4   9  18  33  49  64  88 126 166 196 225 267
#     4   8  15  30  48  64  89 124 156 188 228 275
#
# _framework density 17.715617999999999
#
# number of rings (size 3 to 8) (size 9 to 14) (size 15 to 20)
#    0.000    3.000    0.000    4.714    0.000    4.000 
#    0.000    0.000    0.000    1.286    0.000    0.000 
#    0.000    0.000    0.000    0.000    0.000    0.143 
#
# Total GULP energy -346890.634953 kJ/mol
# GULP energy per Si atom -12388.951248 kJ/mol
# Density = 1.767530 g / cm^3
# Si number density = 17.715618 Si / 1000 Ang^3
#
#
#
# Elastic Constant Matrix: (Units=GPa)
#
#
# Indices 1 2 3 4 5 6 
#
# 1 101.0680 21.3287 58.0218 0.0000 19.0822 0.0000
# 2 21.3287 40.3689 22.0595 0.0000 0.4384 0.0000
# 3 58.0218 22.0595 108.6396 0.0000 6.2155 0.0000
# 4 0.0000 0.0000 0.0000 20.5501 0.0000 -5.0728
# 5 19.0822 0.4384 6.2155 0.0000 20.7588 0.0000
# 6 0.0000 0.0000 0.0000 -5.0728 0.0000 10.8125
#
#
#
# Elastic Compliance Matrix: (Units=1/GPa)
#
#
# Indices 1 2 3 4 5 6 
#
# 1 0.018178 -0.005163 -0.007845 0.000000 -0.014252 0.000000
# 2 -0.005163 0.029355 -0.003499 0.000000 0.005174 0.000000
# 3 -0.007845 -0.003499 0.013927 0.000000 0.003115 0.000000
# 4 0.000000 0.000000 0.000000 0.055035 0.000000 0.025820
# 5 -0.014252 0.005174 0.003115 0.000000 0.060232 0.000000
# 6 0.000000 0.000000 0.000000 0.025820 0.000000 0.104600
#
#
# Mechanical properties :
#
#
# Convention : Reuss Voigt Hill
#
# Bulk Modulus (GPa) = 35.15381 50.32184 42.73782
# Shear Modulus (GPa) = 15.44051 20.33538 17.88794
#
# Velocity S-wave (km/s) = 2.95545 3.39171 3.18107
# Velocity P-wave (km/s) = 5.61540 6.61856 6.13751
#
# Compressibility (1/GPa) = 0.02844642
#
# Stress axis : x y z
#
# Youngs Moduli (GPa) = 55.01016 34.06539 71.80372
#
# Poissons Ratio (x) = 0.17587 0.56330
# Poissons Ratio (y) = 0.28401 0.25126
# Poissons Ratio (z) = 0.43155 0.11921
#
# Static dielectric constant tensor:
#      x y z
#    x 3.309210 0.000000 0.449130 
#    y 0.000000 2.955730 0.000000 
#    z 0.449130 0.000000 3.722870 
# 
# 
# High freq. dielectric constant tensor:
#      x y z
#    x 1.658060 0.000000 0.021890 
#    y 0.000000 1.650810 0.000000 
#    z 0.021890 0.000000 1.689750 
# 
# From -- ./inp_files/295192.got.cif
#   From: 2010.06.25/outbox.cif.g09.slc.cpg/sg12_148_cif.got.tgz:295192.got - 2010.06.28 00:19:55.
