data_PCOD8114398
_publ_section_title
;
Structure prediction by ZEFSAII (Michael W. Deem and Ramdas Pophale) SiO2 
 PCOD8114398
Probable space group: C 2/M
;
_chemical_formula_sum "Si O2"
_cell_formula_units_Z 48
_cell_length_a 10.609373
_cell_length_b 29.170266
_cell_length_c 10.114904
_cell_angle_alpha 90.000000
_cell_angle_beta 61.356312
_cell_angle_gamma 90.000000
_cell_volume 2747.244139
_symmetry_space_group_name_H-M "C 2/M"
_symmetry_group_IT_number 12
_symmetry_cell_setting 'monoclinic'
loop_
_space_group_symop_operation_xyz
x,y,z
-x,y,-z
-x,-y,-z
x,-y,z
1/2+x,1/2+y,z
1/2-x,1/2+y,-z
1/2-x,1/2-y,-z
1/2+x,1/2-y,z
loop_
_atom_site_type_symbol
_atom_site_label
_atom_site_fract_x
_atom_site_fract_y
_atom_site_fract_z
Si Si1 0.127988 0.051808 0.033843
Si Si2 0.160706 0.630927 0.069716
Si Si3 0.334718 0.867534 0.232099
Si Si4 0.832609 0.268904 0.332908
Si Si5 0.869952 0.051243 0.663977
Si Si6 0.173128 0.271617 0.163705
O O1 0.252907 0.086332 0.929144
O O2 0.183909 0.000000 0.984904
O O3 0.079284 0.059491 0.210326
O O4 0.000000 0.063139 0.000000
O O5 0.191214 0.673518 0.150178
O O6 0.996887 0.615788 0.161997
O O7 0.201268 0.646508 0.900550
O O8 0.304863 0.823455 0.338438
O O9 0.244154 0.911092 0.324774
O O10 0.750000 0.250000 0.500000
O O11 0.759675 0.244249 0.246800
O O12 0.003555 0.258168 0.252577
O O13 0.000000 0.057363 0.500000
O O14 0.803753 0.000000 0.684096
O O15 0.250000 0.250000 0.000000
#
# Coordination Sequence:
#
# PCOD8114398 Si02
#       6
#     8   8   8   8   8   8
#     4   9  18  33  53  79 108 134 170 221 266 309
#     4   9  18  34  55  77 103 137 179 218 262 317
#     4   9  18  35  54  76 106 137 174 223 264 310
#     4  11  23  38  56  81 113 144 182 232 278 320
#     4   9  18  33  54  78 105 138 174 213 263 320
#     4  11  21  38  58  79 107 147 187 223 270 331
#
# _framework density 17.472054
#
# number of rings (size 3 to 8) (size 9 to 14) (size 15 to 20)
#    0.000    2.333    1.667    1.000    0.000    3.333 
#    3.000    3.333    0.000    0.000    0.000    4.667 
#    0.000    0.000    0.000    0.000    0.000    0.000 
#
# Total GULP energy -297515.511663 kJ/mol
# GULP energy per Si atom -12396.479653 kJ/mol
# Density = 1.743229 g / cm^3
# Si number density = 17.472054 Si / 1000 Ang^3
#
#
#
# Elastic Constant Matrix: (Units=GPa)
#
#
# Indices 1 2 3 4 5 6 
#
# 1 104.7371 71.7540 52.7877 0.0000 -3.8423 0.0000
# 2 71.7540 123.3960 59.6478 0.0000 -11.6821 0.0000
# 3 52.7877 59.6478 104.5889 0.0000 -8.7618 0.0000
# 4 0.0000 0.0000 0.0000 27.2818 0.0000 -5.9049
# 5 -3.8423 -11.6821 -8.7618 0.0000 24.4401 0.0000
# 6 0.0000 0.0000 0.0000 -5.9049 0.0000 36.4885
#
#
#
# Elastic Compliance Matrix: (Units=1/GPa)
#
#
# Indices 1 2 3 4 5 6 
#
# 1 0.017212 -0.008226 -0.004226 0.000000 -0.002741 0.000000
# 2 -0.008226 0.015360 -0.004229 0.000000 0.004533 0.000000
# 3 -0.004226 -0.004229 0.014311 0.000000 0.002445 0.000000
# 4 0.000000 0.000000 0.000000 0.037985 0.000000 0.006147
# 5 -0.002741 0.004533 0.002445 0.000000 0.043529 0.000000
# 6 0.000000 0.000000 0.000000 0.006147 0.000000 0.028401
#
#
# Mechanical properties :
#
#
# Convention : Reuss Voigt Hill
#
# Bulk Modulus (GPa) = 73.94893 77.90010 75.92451
# Shear Modulus (GPa) = 25.68510 27.54424 26.61467
#
# Velocity S-wave (km/s) = 3.83831 3.97479 3.90714
# Velocity P-wave (km/s) = 7.87778 8.10849 7.99397
#
# Compressibility (1/GPa) = 0.01352285
#
# Stress axis : x y z
#
# Youngs Moduli (GPa) = 58.09837 65.10248 69.87833
#
# Poissons Ratio (x) = 0.53551 0.29529
# Poissons Ratio (y) = 0.47789 0.29550
# Poissons Ratio (z) = 0.24551 0.27531
#
# Static dielectric constant tensor:
#      x y z
#    x 3.261530 0.000000 -0.075510 
#    y 0.000000 3.443010 0.000000 
#    z -0.075510 0.000000 3.060310 
# 
# 
# High freq. dielectric constant tensor:
#      x y z
#    x 1.671950 0.000000 -0.001930 
#    y 0.000000 1.687930 0.000000 
#    z -0.001930 0.000000 1.666280 
# 
# From -- ./inp_files/52463.got.cif
#   From: 2010.06.25/outbox.cif.g09.slc.cpg/sg12_27_cif.got.tgz:52463.got - 2010.06.28 00:19:55.
