data_PCOD8114823
_publ_section_title
;
Structure prediction by ZEFSAII (Michael W. Deem and Ramdas Pophale) SiO2 
 PCOD8114823
Probable space group: C 2/M
;
_chemical_formula_sum "Si O2"
_cell_formula_units_Z 56
_cell_length_a 9.102185
_cell_length_b 28.550341
_cell_length_c 15.272120
_cell_angle_alpha 90.000000
_cell_angle_beta 53.415975
_cell_angle_gamma 90.000000
_cell_volume 3186.860147
_symmetry_space_group_name_H-M "C 2/M"
_symmetry_group_IT_number 12
_symmetry_cell_setting 'monoclinic'
loop_
_space_group_symop_operation_xyz
x,y,z
-x,y,-z
-x,-y,-z
x,-y,z
1/2+x,1/2+y,z
1/2-x,1/2+y,-z
1/2-x,1/2-y,-z
1/2+x,1/2-y,z
loop_
_atom_site_type_symbol
_atom_site_label
_atom_site_fract_x
_atom_site_fract_y
_atom_site_fract_z
Si Si1 0.532960 0.000000 0.128951
Si Si2 0.828694 0.447979 0.500000
Si Si3 0.709139 0.500000 0.128951
Si Si4 0.451993 0.408825 0.878278
Si Si5 0.012186 0.632785 0.658402
Si Si6 0.328990 0.367215 0.341598
Si Si7 0.208549 0.408824 0.121722
Si Si8 0.675010 0.700019 0.500000
O O1 0.318715 0.000000 0.181285
O O2 0.578718 0.953836 0.167038
O O3 0.653576 0.000000 1.000000
O O4 0.751992 0.500000 0.500000
O O5 0.891173 0.417555 0.393385
O O6 0.677942 0.417555 0.606615
O O7 0.000000 0.456915 0.500000
O O8 0.587206 0.453836 0.167038
O O9 0.513123 0.368058 0.789253
O O10 0.618526 0.422906 0.881474
O O11 0.278185 0.392808 1.000000
O O12 0.163871 0.673044 0.608527
O O13 0.868671 0.643839 0.631329
O O14 0.908370 0.631942 0.789254
O O15 0.380925 0.326956 0.391473
O O16 0.500000 0.704708 0.500000
O O17 0.750000 0.750000 0.500000
#
# Coordination Sequence:
#
# PCOD8114823 Si02
#       8
#     4   8   4   8   8   8   8   8
#     4   9  17  27  39  60  95 140 183 217 247 281
#     4   8  14  24  41  65  94 132 172 204 240 285
#     4   9  17  27  39  60  95 140 183 217 247 281
#     4   9  17  29  47  71 100 136 177 215 248 293
#     4   9  18  32  51  75 103 133 170 209 253 304
#     4   9  18  32  51  75 103 133 170 209 253 304
#     4   9  17  29  47  71 100 136 177 215 248 293
#     4  11  22  38  60  80 101 124 159 207 258 311
#
# _framework density 17.572154999999999
#
# number of rings (size 3 to 8) (size 9 to 14) (size 15 to 20)
#    0.000    2.857    0.000    2.571    2.000    2.857 
#    0.000    0.000    0.000    2.571    0.000    0.000 
#    0.000    0.000    0.000    0.000    0.000    0.000 
#
# Total GULP energy -346966.441014 kJ/mol
# GULP energy per Si atom -12391.658608 kJ/mol
# Density = 1.753216 g / cm^3
# Si number density = 17.572155 Si / 1000 Ang^3
#
#
#
# Elastic Constant Matrix: (Units=GPa)
#
#
# Indices 1 2 3 4 5 6 
#
# 1 86.6079 50.2650 42.5729 0.0000 0.5284 0.0000
# 2 50.2650 113.2777 49.5714 0.0000 0.0416 0.0000
# 3 42.5729 49.5714 120.6911 0.0000 -2.5711 0.0000
# 4 0.0000 0.0000 0.0000 25.0504 0.0000 -0.0720
# 5 0.5284 0.0416 -2.5711 0.0000 17.7958 0.0000
# 6 0.0000 0.0000 0.0000 -0.0720 0.0000 23.8469
#
#
#
# Elastic Compliance Matrix: (Units=1/GPa)
#
#
# Indices 1 2 3 4 5 6 
#
# 1 0.016676 -0.005871 -0.003492 0.000000 -0.000986 0.000000
# 2 -0.005871 0.012837 -0.003208 0.000000 -0.000319 0.000000
# 3 -0.003492 -0.003208 0.010871 0.000000 0.001682 0.000000
# 4 0.000000 0.000000 0.000000 0.039920 0.000000 0.000121
# 5 -0.000986 -0.000319 0.001682 0.000000 0.056466 0.000000
# 6 0.000000 0.000000 0.000000 0.000121 0.000000 0.041935
#
#
# Mechanical properties :
#
#
# Convention : Reuss Voigt Hill
#
# Bulk Modulus (GPa) = 65.61122 67.26615 66.43868
# Shear Modulus (GPa) = 23.93160 25.21647 24.57404
#
# Velocity S-wave (km/s) = 3.69440 3.79228 3.74366
# Velocity P-wave (km/s) = 7.45771 7.58540 7.52182
#
# Compressibility (1/GPa) = 0.01524130
#
# Stress axis : x y z
#
# Youngs Moduli (GPa) = 59.96496 77.89777 91.98823
#
# Poissons Ratio (x) = 0.45737 0.32121
# Poissons Ratio (y) = 0.35208 0.29513
# Poissons Ratio (z) = 0.20939 0.24993
#
# Static dielectric constant tensor:
#      x y z
#    x 3.220650 0.000000 -0.013500 
#    y 0.000000 3.069120 0.000000 
#    z -0.013500 0.000000 3.445920 
# 
# 
# High freq. dielectric constant tensor:
#      x y z
#    x 1.662260 0.000000 -0.001230 
#    y 0.000000 1.644050 0.000000 
#    z -0.001230 0.000000 1.682720 
# 
# From -- ./inp_files/199732.got.cif
#   From: 2010.06.25/outbox.cif.g09.slc.cpg/sg12_100_cif.got.tgz:199732.got - 2010.06.28 00:19:55.
