data_PCOD8114375
_publ_section_title
;
Structure prediction by ZEFSAII (Michael W. Deem and Ramdas Pophale) SiO2 
 PCOD8114375
Probable space group: C 2/M
;
_chemical_formula_sum "Si O2"
_cell_formula_units_Z 40
_cell_length_a 15.215327
_cell_length_b 11.342607
_cell_length_c 11.571086
_cell_angle_alpha 90.000000
_cell_angle_beta 89.668144
_cell_angle_gamma 90.000000
_cell_volume 1996.921588
_symmetry_space_group_name_H-M "C 2/M"
_symmetry_group_IT_number 12
_symmetry_cell_setting 'monoclinic'
loop_
_space_group_symop_operation_xyz
x,y,z
-x,y,-z
-x,-y,-z
x,-y,z
1/2+x,1/2+y,z
1/2-x,1/2+y,-z
1/2-x,1/2-y,-z
1/2+x,1/2-y,z
loop_
_atom_site_type_symbol
_atom_site_label
_atom_site_fract_x
_atom_site_fract_y
_atom_site_fract_z
Si Si1 0.655783 0.746111 0.274376
Si Si2 0.351113 0.256523 0.270982
Si Si3 0.100430 0.637000 0.501613
Si Si4 0.494376 0.863861 0.864047
Si Si5 0.610643 0.500000 0.384080
Si Si6 0.906095 0.000000 0.357897
O O1 0.752955 0.756652 0.219232
O O2 0.646389 0.837066 0.380148
O O3 0.585155 0.781965 0.178400
O O4 0.644595 0.613210 0.316339
O O5 0.346735 0.203652 0.399659
O O6 0.414124 0.178630 0.190783
O O7 0.384049 0.389618 0.277822
O O8 0.102312 0.500000 0.529515
O O9 0.000000 0.684771 0.500000
O O10 0.478517 0.000000 0.827898
O O11 0.500000 0.849511 0.000000
O O12 0.507166 0.500000 0.386718
O O13 0.645037 0.500000 0.517553
#
# Coordination Sequence:
#
# PCOD8114375 Si02
#       6
#     8   8   8   8   4   4
#     4  12  25  40  66  99 132 168 213 263 322 387
#     4  12  25  40  66  99 132 168 213 263 322 387
#     4  11  21  37  63  98 135 171 216 262 312 384
#     4  11  26  50  71  88 122 172 224 273 318 373
#     4  11  22  40  60  95 140 173 199 250 325 386
#     4  11  22  40  60  95 140 173 199 250 325 386
#
# _framework density 20.030830000000002
#
# number of rings (size 3 to 8) (size 9 to 14) (size 15 to 20)
#    0.000    0.600    6.000    1.800    5.600    0.800 
#    0.000    2.000    0.000    0.000    0.000    0.000 
#    0.000    0.000    0.000    0.000    0.000    0.000 
#
# Total GULP energy -248106.024113 kJ/mol
# GULP energy per Si atom -12405.301206 kJ/mol
# Density = 1.998524 g / cm^3
# Si number density = 20.030830 Si / 1000 Ang^3
#
#
#
# Elastic Constant Matrix: (Units=GPa)
#
#
# Indices 1 2 3 4 5 6 
#
# 1 119.6789 12.1022 25.1108 0.0000 -12.7694 0.0000
# 2 12.1022 93.2874 22.0955 0.0000 2.1584 0.0000
# 3 25.1108 22.0955 71.0263 0.0000 4.7106 0.0000
# 4 0.0000 0.0000 0.0000 29.0776 0.0000 0.4313
# 5 -12.7694 2.1584 4.7106 0.0000 12.9959 0.0000
# 6 0.0000 0.0000 0.0000 0.4313 0.0000 26.4830
#
#
#
# Elastic Compliance Matrix: (Units=1/GPa)
#
#
# Indices 1 2 3 4 5 6 
#
# 1 0.010630 -0.000625 -0.004368 0.000000 0.012132 0.000000
# 2 -0.000625 0.011614 -0.003303 0.000000 -0.001346 0.000000
# 3 -0.004368 -0.003303 0.017316 0.000000 -0.010020 0.000000
# 4 0.000000 0.000000 0.000000 0.034399 0.000000 -0.000560
# 5 0.012132 -0.001346 -0.010020 0.000000 0.092723 0.000000
# 6 0.000000 0.000000 0.000000 -0.000560 0.000000 0.037769
#
#
# Mechanical properties :
#
#
# Convention : Reuss Voigt Hill
#
# Bulk Modulus (GPa) = 43.53994 44.73440 44.13717
# Shear Modulus (GPa) = 21.86282 28.69024 25.27653
#
# Velocity S-wave (km/s) = 3.30731 3.78868 3.55615
# Velocity P-wave (km/s) = 6.03059 6.44361 6.24052
#
# Compressibility (1/GPa) = 0.02296742
#
# Stress axis : x y z
#
# Youngs Moduli (GPa) = 94.07463 86.10257 57.75126
#
# Poissons Ratio (x) = 0.05382 0.25227
# Poissons Ratio (y) = 0.05880 0.19074
# Poissons Ratio (z) = 0.41094 0.28438
#
# Static dielectric constant tensor:
#      x y z
#    x 3.799740 0.000000 -0.036090 
#    y 0.000000 3.778930 0.000000 
#    z -0.036090 0.000000 3.386700 
# 
# 
# High freq. dielectric constant tensor:
#      x y z
#    x 1.790380 0.000000 -0.005320 
#    y 0.000000 1.800790 0.000000 
#    z -0.005320 0.000000 1.752170 
# 
# From -- ./inp_files/129165.got.cif
#   From: 2010.06.25/outbox.cif.g09.slc.cpg/sg12_65_cif.got.tgz:129165.got - 2010.06.28 00:19:55.
