data_PCOD8114769
_publ_section_title
;
Structure prediction by ZEFSAII (Michael W. Deem and Ramdas Pophale) SiO2 
 PCOD8114769
Probable space group: C 2/M
;
_chemical_formula_sum "Si O2"
_cell_formula_units_Z 40
_cell_length_a 18.928716
_cell_length_b 18.193082
_cell_length_c 9.846643
_cell_angle_alpha 90.000000
_cell_angle_beta 38.816135
_cell_angle_gamma 90.000000
_cell_volume 2125.498119
_symmetry_space_group_name_H-M "C 2/M"
_symmetry_group_IT_number 12
_symmetry_cell_setting 'monoclinic'
loop_
_space_group_symop_operation_xyz
x,y,z
-x,y,-z
-x,-y,-z
x,-y,z
1/2+x,1/2+y,z
1/2-x,1/2+y,-z
1/2-x,1/2-y,-z
1/2+x,1/2-y,z
loop_
_atom_site_type_symbol
_atom_site_label
_atom_site_fract_x
_atom_site_fract_y
_atom_site_fract_z
Si Si1 0.426406 0.791060 0.231393
Si Si2 0.576488 0.781361 0.261175
Si Si3 0.193560 0.853141 0.664952
Si Si4 0.077231 0.000000 0.251551
Si Si5 0.211370 0.858865 0.962358
Si Si6 0.086427 0.000000 0.750127
O O1 0.494217 0.807029 0.266155
O O2 0.308715 0.831786 0.419795
O O3 0.403004 0.705453 0.230398
O O4 0.500000 0.825866 0.000000
O O5 0.500000 0.755430 0.500000
O O6 0.644487 0.712130 0.107823
O O7 0.659255 0.848115 0.182120
O O8 0.164132 0.929127 0.638754
O O9 0.205507 0.863961 0.808440
O O10 0.158662 0.929498 0.115432
O O11 0.000000 0.000000 0.500000
O O12 0.982683 0.000000 0.281745
O O13 0.000000 0.000000 0.000000
#
# Coordination Sequence:
#
# PCOD8114769 Si02
#       6
#     8   8   8   4   8   4
#     4  11  22  38  61  89 123 156 203 253 296 349
#     4  11  22  37  60  89 123 159 200 250 301 350
#     4  11  22  38  64  93 117 161 208 244 299 367
#     4  12  26  42  62  93 125 154 198 257 307 354
#     4  11  22  39  62  91 122 159 205 246 301 367
#     4  12  22  40  68  86 119 158 201 247 302 363
#
# _framework density 18.819118
#
# number of rings (size 3 to 8) (size 9 to 14) (size 15 to 20)
#    0.000    0.800    6.000    2.400    0.000    1.600 
#    0.000    2.000    0.000    0.000    0.000    0.000 
#    0.000    0.000    0.000    0.000    0.000    0.000 
#
# Total GULP energy -247991.467595 kJ/mol
# GULP energy per Si atom -12399.573380 kJ/mol
# Density = 1.877628 g / cm^3
# Si number density = 18.819118 Si / 1000 Ang^3
#
#
#
# Elastic Constant Matrix: (Units=GPa)
#
#
# Indices 1 2 3 4 5 6 
#
# 1 115.5594 20.2673 17.5900 0.0000 -5.6070 0.0000
# 2 20.2673 93.1895 17.8477 0.0000 -14.7614 0.0000
# 3 17.5900 17.8477 113.0698 0.0000 2.5089 0.0000
# 4 0.0000 0.0000 0.0000 -14.7232 0.0000 -0.0596
# 5 -5.6070 -14.7614 2.5089 0.0000 34.6637 0.0000
# 6 0.0000 0.0000 0.0000 -0.0596 0.0000 19.5806
#
#
#
# Elastic Compliance Matrix: (Units=1/GPa)
#
#
# Indices 1 2 3 4 5 6 
#
# 1 0.009162 -0.001626 -0.001188 0.000000 0.000875 0.000000
# 2 -0.001626 0.012231 -0.001790 0.000000 0.005075 0.000000
# 3 -0.001188 -0.001790 0.009348 0.000000 -0.001631 0.000000
# 4 0.000000 0.000000 0.000000 -0.067919 0.000000 -0.000207
# 5 0.000875 0.005075 -0.001631 0.000000 0.031270 0.000000
# 6 0.000000 0.000000 0.000000 -0.000207 0.000000 0.051070
#
#
# Mechanical properties :
#
#
# Convention : Reuss Voigt Hill
#
# Bulk Modulus (GPa) = 46.44312 48.13650 47.28981
# Shear Modulus (GPa) = 81.23656 25.64512 53.44084
#
# Velocity S-wave (km/s) = 6.57729 3.69550 5.33467
# Velocity P-wave (km/s) = 9.07818 6.62141 7.94532
#
# Compressibility (1/GPa) = 0.02153171
#
# Stress axis : x y z
#
# Youngs Moduli (GPa) = 109.14506 81.75723 106.97827
#
# Poissons Ratio (x) = 0.13297 0.12709
# Poissons Ratio (y) = 0.17752 0.19152
# Poissons Ratio (z) = 0.12967 0.14637
#
# Static dielectric constant tensor:
#      x y z
#    x 3.826570 0.000000 -0.126390 
#    y 0.000000 3.533780 0.000000 
#    z -0.126390 0.000000 3.375550 
# 
# 
# High freq. dielectric constant tensor:
#      x y z
#    x 1.747070 0.000000 -0.002460 
#    y 0.000000 1.712910 0.000000 
#    z -0.002460 0.000000 1.751260 
# 
# From -- ./inp_files/77224.got.cif
#   From: 2010.06.25/outbox.cif.g09.slc.cpg/sg12_39_cif.got.tgz:77224.got - 2010.06.28 00:19:55.
