data_PCOD8114980
_publ_section_title
;
Structure prediction by ZEFSAII (Michael W. Deem and Ramdas Pophale) SiO2 
 PCOD8114980
Probable space group: C 2/M
;
_chemical_formula_sum "Si O2"
_cell_formula_units_Z 56
_cell_length_a 23.106626
_cell_length_b 14.098571
_cell_length_c 9.395103
_cell_angle_alpha 90.000000
_cell_angle_beta 66.724949
_cell_angle_gamma 90.000000
_cell_volume 2811.566621
_symmetry_space_group_name_H-M "C 2/M"
_symmetry_group_IT_number 12
_symmetry_cell_setting 'monoclinic'
loop_
_space_group_symop_operation_xyz
x,y,z
-x,y,-z
-x,-y,-z
x,-y,z
1/2+x,1/2+y,z
1/2-x,1/2+y,-z
1/2-x,1/2-y,-z
1/2+x,1/2-y,z
loop_
_atom_site_type_symbol
_atom_site_label
_atom_site_fract_x
_atom_site_fract_y
_atom_site_fract_z
Si Si1 0.752184 0.886313 0.893871
Si Si2 0.572875 0.237433 0.425668
Si Si3 0.876389 0.395863 0.389057
Si Si4 0.102156 0.106318 0.609292
Si Si5 0.148157 0.245921 0.074331
Si Si6 0.242300 0.852575 0.441678
Si Si7 0.431071 0.747921 0.123384
O O1 0.810951 0.846393 0.926065
O O2 0.760169 0.849046 0.726184
O O3 0.749821 0.000000 0.904719
O O4 0.689027 0.841981 0.021961
O O5 0.500000 0.209598 0.500000
O O6 0.612616 0.161201 0.476618
O O7 0.585070 0.341775 0.478253
O O8 0.594677 0.234167 0.242432
O O9 0.907482 0.500000 0.369832
O O10 0.801924 0.412292 0.436686
O O11 0.906176 0.341394 0.226722
O O12 0.177340 0.103520 0.562173
O O13 0.066973 0.158969 0.772102
O O14 0.075718 0.000000 0.626331
O O15 0.115378 0.221263 0.958362
O O16 0.250000 0.750000 0.500000
O O17 0.500000 0.770782 0.000000
#
# Coordination Sequence:
#
# PCOD8114980 Si02
#       7
#     8   8   8   8   8   8   8
#     4  11  23  38  62  95 127 159 199 259 321 375
#     4  11  24  43  63  89 127 169 211 255 307 367
#     4  11  23  41  67  94 122 163 212 259 310 372
#     4  11  23  41  67  94 122 163 212 259 310 372
#     4  11  22  40  64  92 128 163 202 256 318 375
#     4  12  19  40  67  95 124 158 204 260 320 376
#     4  11  24  43  63  89 127 169 211 255 307 367
#
# _framework density 19.917722000000001
#
# number of rings (size 3 to 8) (size 9 to 14) (size 15 to 20)
#    0.000    0.857    5.714    3.000    0.000    3.429 
#    0.000    2.857    0.000    0.000    0.000    0.000 
#    0.000    0.000    0.000    0.000    0.000    0.000 
#
# Total GULP energy -347285.209125 kJ/mol
# GULP energy per Si atom -12403.043183 kJ/mol
# Density = 1.987239 g / cm^3
# Si number density = 19.917722 Si / 1000 Ang^3
#
#
#
# Elastic Constant Matrix: (Units=GPa)
#
#
# Indices 1 2 3 4 5 6 
#
# 1 54.1003 2.9079 -1.9746 0.0000 -6.2262 0.0000
# 2 2.9079 145.0510 37.4756 0.0000 13.0689 0.0000
# 3 -1.9746 37.4756 95.8401 0.0000 -4.9290 0.0000
# 4 0.0000 0.0000 0.0000 4.3540 0.0000 -3.5958
# 5 -6.2262 13.0689 -4.9290 0.0000 37.5672 0.0000
# 6 0.0000 0.0000 0.0000 -3.5958 0.0000 3.1279
#
#
#
# Elastic Compliance Matrix: (Units=1/GPa)
#
#
# Indices 1 2 3 4 5 6 
#
# 1 0.018984 -0.000950 0.000948 0.000000 0.003601 0.000000
# 2 -0.000950 0.008088 -0.003358 0.000000 -0.003412 0.000000
# 3 0.000948 -0.003358 0.011915 0.000000 0.002888 0.000000
# 4 0.000000 0.000000 0.000000 4.539003 0.000000 5.217951
# 5 0.003601 -0.003412 0.002888 0.000000 0.028782 0.000000
# 6 0.000000 0.000000 0.000000 5.217951 0.000000 6.318157
#
#
# Mechanical properties :
#
#
# Convention : Reuss Voigt Hill
#
# Bulk Modulus (GPa) = 30.99064 41.31214 36.15139
# Shear Modulus (GPa) = 0.45694 26.11532 13.28613
#
# Velocity S-wave (km/s) = 0.47949 3.62492 2.58553
# Velocity P-wave (km/s) = 3.98744 6.18923 5.20606
#
# Compressibility (1/GPa) = 0.03226781
#
# Stress axis : x y z
#
# Youngs Moduli (GPa) = 52.67514 123.63939 83.92757
#
# Poissons Ratio (x) = 0.11745 -0.07954
# Poissons Ratio (y) = 0.05004 0.28180
# Poissons Ratio (z) = -0.04992 0.41514
#
# Static dielectric constant tensor:
#      x y z
#    x 3.837660 0.000000 -0.009670 
#    y 0.000000 3.634150 0.000000 
#    z -0.009670 0.000000 3.732120 
# 
# 
# High freq. dielectric constant tensor:
#      x y z
#    x 1.784760 0.000000 0.000480 
#    y 0.000000 1.771730 0.000000 
#    z 0.000480 0.000000 1.783210 
# 
# From -- ./inp_files/96290.got.cif
#   From: 2010.06.25/outbox.cif.g09.slc.cpg/sg12_49_cif.got.tgz:96290.got - 2010.06.28 00:19:55.
