data_PCOD8114759
_publ_section_title
;
Structure prediction by ZEFSAII (Michael W. Deem and Ramdas Pophale) SiO2 
 PCOD8114759
Probable space group: C 2/M
;
_chemical_formula_sum "Si O2"
_cell_formula_units_Z 48
_cell_length_a 9.230649
_cell_length_b 21.960772
_cell_length_c 13.049791
_cell_angle_alpha 90.000000
_cell_angle_beta 107.478463
_cell_angle_gamma 90.000000
_cell_volume 2523.215454
_symmetry_space_group_name_H-M "C 2/M"
_symmetry_group_IT_number 12
_symmetry_cell_setting 'monoclinic'
loop_
_space_group_symop_operation_xyz
x,y,z
-x,y,-z
-x,-y,-z
x,-y,z
1/2+x,1/2+y,z
1/2-x,1/2+y,-z
1/2-x,1/2-y,-z
1/2+x,1/2-y,z
loop_
_atom_site_type_symbol
_atom_site_label
_atom_site_fract_x
_atom_site_fract_y
_atom_site_fract_z
Si Si1 0.374129 0.430897 0.899646
Si Si2 0.903195 0.767968 0.580818
Si Si3 0.282851 0.616969 0.670819
Si Si4 0.172476 0.932365 0.523439
Si Si5 0.548111 0.140195 0.322219
Si Si6 0.035340 0.430279 0.892523
O O1 0.420339 0.500000 0.885044
O O2 0.373111 0.395390 0.793393
O O3 0.214985 0.426679 0.922422
O O4 0.500000 0.400534 0.000000
O O5 0.750000 0.750000 0.500000
O O6 0.872079 0.825176 0.645880
O O7 0.959394 0.713388 0.667655
O O8 0.000000 0.782540 0.500000
O O9 0.299356 0.563006 0.592316
O O10 0.101790 0.619040 0.649633
O O11 0.295530 0.885931 0.597116
O O12 0.000000 0.908093 0.500000
O O13 0.191976 0.000000 0.575315
O O14 0.543014 0.116666 0.203616
O O15 0.979221 0.500000 0.859655
O O16 0.000000 0.409025 0.000000
#
# Coordination Sequence:
#
# PCOD8114759 Si02
#       6
#     8   8   8   8   8   8
#     4   9  19  37  59  84 114 148 187 234 289 344
#     4  12  22  39  59  84 117 155 194 238 289 342
#     4  11  22  37  59  83 112 153 196 233 285 348
#     4  11  23  35  52  84 118 145 184 238 292 345
#     4  11  22  38  59  82 112 153 194 234 288 347
#     4   9  19  37  60  85 112 146 189 235 287 346
#
# _framework density 19.023344999999999
#
# number of rings (size 3 to 8) (size 9 to 14) (size 15 to 20)
#    0.000    1.500    3.333    2.000    0.000    4.000 
#    0.000    4.167    0.000    4.000    0.000    0.000 
#    0.000    0.000    0.000    0.000    0.000    0.000 
#
# Total GULP energy -297354.352459 kJ/mol
# GULP energy per Si atom -12389.764686 kJ/mol
# Density = 1.898005 g / cm^3
# Si number density = 19.023345 Si / 1000 Ang^3
#
#
#
# Elastic Constant Matrix: (Units=GPa)
#
#
# Indices 1 2 3 4 5 6 
#
# 1 110.0010 34.4609 70.1369 0.0000 -2.8114 0.0000
# 2 34.4609 88.8997 52.4737 0.0000 -6.6858 0.0000
# 3 70.1369 52.4737 142.8308 0.0000 -10.0232 0.0000
# 4 0.0000 0.0000 0.0000 33.5404 0.0000 -4.8719
# 5 -2.8114 -6.6858 -10.0232 0.0000 38.2259 0.0000
# 6 0.0000 0.0000 0.0000 -4.8719 0.0000 23.4982
#
#
#
# Elastic Compliance Matrix: (Units=1/GPa)
#
#
# Indices 1 2 3 4 5 6 
#
# 1 0.013457 -0.001719 -0.006039 0.000000 -0.000895 0.000000
# 2 -0.001719 0.014633 -0.004443 0.000000 0.001268 0.000000
# 3 -0.006039 -0.004443 0.011729 0.000000 0.001854 0.000000
# 4 0.000000 0.000000 0.000000 0.030741 0.000000 0.006373
# 5 -0.000895 0.001268 0.001854 0.000000 0.026802 0.000000
# 6 0.000000 0.000000 0.000000 0.006373 0.000000 0.043878
#
#
# Mechanical properties :
#
#
# Convention : Reuss Voigt Hill
#
# Bulk Modulus (GPa) = 64.86383 72.87496 68.86939
# Shear Modulus (GPa) = 29.27723 31.36358 30.32040
#
# Velocity S-wave (km/s) = 3.92729 4.06481 3.99664
# Velocity P-wave (km/s) = 7.39836 7.77313 7.58806
#
# Compressibility (1/GPa) = 0.01541691
#
# Stress axis : x y z
#
# Youngs Moduli (GPa) = 74.30953 68.34017 85.25700
#
# Poissons Ratio (x) = 0.11748 0.51490
# Poissons Ratio (y) = 0.12774 0.37877
# Poissons Ratio (z) = 0.44878 0.30362
#
# Static dielectric constant tensor:
#      x y z
#    x 3.599380 0.000000 -0.014980 
#    y 0.000000 3.763710 0.000000 
#    z -0.014980 0.000000 3.562720 
# 
# 
# High freq. dielectric constant tensor:
#      x y z
#    x 1.754370 0.000000 -0.003160 
#    y 0.000000 1.732560 0.000000 
#    z -0.003160 0.000000 1.733640 
# 
# From -- ./inp_files/121864.got.cif
#   From: 2010.06.25/outbox.cif.g09.slc.cpg/sg12_61_cif.got.tgz:121864.got - 2010.06.28 00:19:55.
