data_PCOD8114934
_publ_section_title
;
Structure prediction by ZEFSAII (Michael W. Deem and Ramdas Pophale) SiO2 
 PCOD8114934
Probable space group: C 2/M
;
_chemical_formula_sum "Si O2"
_cell_formula_units_Z 48
_cell_length_a 29.195854
_cell_length_b 8.754893
_cell_length_c 14.464544
_cell_angle_alpha 90.000000
_cell_angle_beta 38.487849
_cell_angle_gamma 90.000000
_cell_volume 2300.967716
_symmetry_space_group_name_H-M "C 2/M"
_symmetry_group_IT_number 12
_symmetry_cell_setting 'monoclinic'
loop_
_space_group_symop_operation_xyz
x,y,z
-x,y,-z
-x,-y,-z
x,-y,z
1/2+x,1/2+y,z
1/2-x,1/2+y,-z
1/2-x,1/2-y,-z
1/2+x,1/2-y,z
loop_
_atom_site_type_symbol
_atom_site_label
_atom_site_fract_x
_atom_site_fract_y
_atom_site_fract_z
Si Si1 0.050340 0.680702 0.505629
Si Si2 0.804156 0.673798 0.985616
Si Si3 0.932197 0.181675 0.046521
Si Si4 0.949970 0.180491 0.809588
Si Si5 0.226252 0.181032 0.634136
Si Si6 0.302241 0.326245 0.681923
O O1 0.054868 0.500000 0.500372
O O2 0.131686 0.748984 0.365143
O O3 0.000000 0.738284 0.500000
O O4 0.019957 0.741738 0.651285
O O5 0.821088 0.500000 0.928799
O O6 0.878563 0.770026 0.865087
O O7 0.750000 0.750000 0.000000
O O8 0.770378 0.680454 0.141006
O O9 0.855078 0.242403 0.209924
O O10 0.931434 0.000000 0.047968
O O11 0.943622 0.241863 0.924305
O O12 0.000000 0.245396 0.000000
O O13 0.959293 0.000000 0.791222
O O14 0.250000 0.250000 0.500000
O O15 0.286242 0.234026 0.613962
O O16 0.227011 0.000000 0.626718
O O17 0.323214 0.500000 0.623928
#
# Coordination Sequence:
#
# PCOD8114934 Si02
#       6
#     8   8   8   8   8   8
#     4  11  25  43  63  91 129 170 212 263 321 378
#     4  11  23  39  63  92 125 162 209 262 316 377
#     4   9  20  39  63  92 125 163 205 252 309 373
#     4  11  22  39  65  93 126 166 209 257 314 377
#     4  11  23  41  66  95 129 166 209 261 319 381
#     4  11  24  42  64  91 126 168 214 264 315 377
#
# _framework density 20.860787999999999
#
# number of rings (size 3 to 8) (size 9 to 14) (size 15 to 20)
#    0.000    1.333    1.667    3.500    2.333    6.000 
#    0.000    0.000    0.000    4.000    0.000    0.000 
#    0.000    0.000    0.000    0.000    0.000    0.000 
#
# Total GULP energy -297737.400034 kJ/mol
# GULP energy per Si atom -12405.725001 kJ/mol
# Density = 2.081331 g / cm^3
# Si number density = 20.860788 Si / 1000 Ang^3
#
#
#
# Elastic Constant Matrix: (Units=GPa)
#
#
# Indices 1 2 3 4 5 6 
#
# 1 106.8189 26.7574 15.6532 0.0000 -5.2956 0.0000
# 2 26.7574 79.1686 26.7791 0.0002 1.1429 0.0000
# 3 15.6532 26.7791 86.2405 0.0001 1.2759 0.0000
# 4 0.0000 0.0002 0.0001 35.1089 0.0000 -0.5665
# 5 -5.2956 1.1429 1.2759 0.0000 40.5888 0.0000
# 6 0.0000 0.0000 0.0000 -0.5665 0.0000 31.5508
#
#
#
# Elastic Compliance Matrix: (Units=1/GPa)
#
#
# Indices 1 2 3 4 5 6 
#
# 1 0.010374 -0.003222 -0.000904 0.000000 0.001473 0.000000
# 2 -0.003222 0.015117 -0.004099 0.000000 -0.000717 0.000000
# 3 -0.000904 -0.004099 0.013038 0.000000 -0.000412 0.000000
# 4 0.000000 0.000000 0.000000 0.028491 0.000000 0.000512
# 5 0.001473 -0.000717 -0.000412 0.000000 0.024863 0.000000
# 6 0.000000 0.000000 0.000000 0.000512 0.000000 0.031704
#
#
# Mechanical properties :
#
#
# Convention : Reuss Voigt Hill
#
# Bulk Modulus (GPa) = 45.28968 45.62306 45.45637
# Shear Modulus (GPa) = 33.92207 34.98559 34.45383
#
# Velocity S-wave (km/s) = 4.03689 4.09968 4.06841
# Velocity P-wave (km/s) = 6.59441 6.65790 6.62623
#
# Compressibility (1/GPa) = 0.02208009
#
# Stress axis : x y z
#
# Youngs Moduli (GPa) = 96.39329 66.15126 76.69626
#
# Poissons Ratio (x) = 0.21311 0.06936
# Poissons Ratio (y) = 0.31054 0.31435
# Poissons Ratio (z) = 0.08718 0.27113
#
# Static dielectric constant tensor:
#      x y z
#    x 3.705800 0.000000 0.068870 
#    y 0.000000 3.665220 0.000000 
#    z 0.068870 0.000000 3.952280 
# 
# 
# High freq. dielectric constant tensor:
#      x y z
#    x 1.824650 0.000000 0.000410 
#    y 0.000000 1.808460 0.000000 
#    z 0.000410 0.000000 1.828030 
# 
# From -- ./inp_files/244594.got.cif
#   From: 2010.06.25/outbox.cif.g09.slc.cpg/sg12_123_cif.got.tgz:244594.got - 2010.06.28 00:19:55.
