data_PCOD8114348
_publ_section_title
;
Structure prediction by ZEFSAII (Michael W. Deem and Ramdas Pophale) SiO2 
 PCOD8114348
Probable space group: C 2/M
;
_chemical_formula_sum "Si O2"
_cell_formula_units_Z 44
_cell_length_a 22.321368
_cell_length_b 14.289924
_cell_length_c 6.747500
_cell_angle_alpha 90.000000
_cell_angle_beta 93.927352
_cell_angle_gamma 90.000000
_cell_volume 2147.200328
_symmetry_space_group_name_H-M "C 2/M"
_symmetry_group_IT_number 12
_symmetry_cell_setting 'monoclinic'
loop_
_space_group_symop_operation_xyz
x,y,z
-x,y,-z
-x,-y,-z
x,-y,z
1/2+x,1/2+y,z
1/2-x,1/2+y,-z
1/2-x,1/2-y,-z
1/2+x,1/2-y,z
loop_
_atom_site_type_symbol
_atom_site_label
_atom_site_fract_x
_atom_site_fract_y
_atom_site_fract_z
Si Si1 0.603591 0.314649 0.843197
Si Si2 0.017743 0.893635 0.274942
Si Si3 0.859683 0.178260 0.586880
Si Si4 0.215345 0.000000 0.396785
Si Si5 0.691475 0.204455 0.098512
Si Si6 0.672109 0.500000 0.956947
Si Si7 0.215401 0.500000 0.237332
O O1 0.532331 0.333015 0.855108
O O2 0.617851 0.287254 0.620298
O O3 0.630296 0.226339 0.966452
O O4 0.633269 0.407108 0.942007
O O5 0.082449 0.844693 0.260503
O O6 0.000000 0.897108 0.500000
O O7 0.020713 0.000000 0.194349
O O8 0.821451 0.087730 0.533731
O O9 0.684357 0.247704 0.316588
O O10 0.217093 0.000000 0.158086
O O11 0.282529 0.000000 0.517944
O O12 0.690208 0.092716 0.125890
O O13 0.750000 0.250000 0.000000
O O14 0.713182 0.500000 0.774783
#
# Coordination Sequence:
#
# PCOD8114348 Si02
#       7
#     8   8   8   4   8   4   4
#     4  11  21  38  61  91 130 158 199 251 301 379
#     4   9  18  32  60  95 130 161 188 243 318 377
#     4  11  21  37  61  91 126 164 197 242 315 377
#     4  12  20  35  59  87 123 160 195 244 299 373
#     4  12  25  42  60  87 116 165 215 256 305 362
#     4  12  20  37  57  91 125 154 199 245 298 367
#     4  12  26  42  58  80 124 164 208 259 300 348
#
# _framework density 20.491799
#
# number of rings (size 3 to 8) (size 9 to 14) (size 15 to 20)
#    0.000    0.909    7.273    0.000    0.000    5.091 
#    0.000    1.818    0.000    2.182    0.000    3.818 
#    0.000    0.000    0.000    0.000    0.000    0.000 
#
# Total GULP energy -272594.375980 kJ/mol
# GULP energy per Si atom -12390.653454 kJ/mol
# Density = 2.044516 g / cm^3
# Si number density = 20.491799 Si / 1000 Ang^3
#
#
#
# Elastic Constant Matrix: (Units=GPa)
#
#
# Indices 1 2 3 4 5 6 
#
# 1 80.1286 51.5957 30.3935 0.0000 -2.3644 0.0000
# 2 51.5957 146.4366 53.0823 0.0000 13.0527 0.0000
# 3 30.3935 53.0823 108.6443 0.0000 20.3347 0.0000
# 4 0.0000 0.0000 0.0000 57.2427 0.0000 4.2614
# 5 -2.3644 13.0527 20.3347 0.0000 36.3330 0.0000
# 6 0.0000 0.0000 0.0000 4.2614 0.0000 26.2978
#
#
#
# Elastic Compliance Matrix: (Units=1/GPa)
#
#
# Indices 1 2 3 4 5 6 
#
# 1 0.017265 -0.005389 -0.003094 0.000000 0.004791 0.000000
# 2 -0.005389 0.010001 -0.002950 0.000000 -0.002293 0.000000
# 3 -0.003094 -0.002950 0.012679 0.000000 -0.006237 0.000000
# 4 0.000000 0.000000 0.000000 0.017683 0.000000 -0.002865
# 5 0.004791 -0.002293 -0.006237 0.000000 0.032150 0.000000
# 6 0.000000 0.000000 0.000000 -0.002865 0.000000 0.038490
#
#
# Mechanical properties :
#
#
# Convention : Reuss Voigt Hill
#
# Bulk Modulus (GPa) = 58.54820 67.26141 62.90481
# Shear Modulus (GPa) = 31.88276 37.31723 34.59999
#
# Velocity S-wave (km/s) = 3.94874 4.27204 4.11357
# Velocity P-wave (km/s) = 7.03020 7.56496 7.30247
#
# Compressibility (1/GPa) = 0.01707994
#
# Stress axis : x y z
#
# Youngs Moduli (GPa) = 57.92215 99.98800 78.87352
#
# Poissons Ratio (x) = 0.53880 0.24401
# Poissons Ratio (y) = 0.31212 0.23267
# Poissons Ratio (z) = 0.17919 0.29495
#
# Static dielectric constant tensor:
#      x y z
#    x 3.790300 0.000000 -0.019850 
#    y 0.000000 3.481830 0.000000 
#    z -0.019850 0.000000 4.035040 
# 
# 
# High freq. dielectric constant tensor:
#      x y z
#    x 1.784970 0.000000 -0.014650 
#    y 0.000000 1.759960 0.000000 
#    z -0.014650 0.000000 1.837750 
# 
# From -- ./inp_files/95930.got.cif
#   From: 2010.06.25/outbox.cif.g09.slc.cpg/sg12_48_cif.got.tgz:95930.got - 2010.06.28 00:19:55.
