data_PCOD8114055
_publ_section_title
;
Structure prediction by ZEFSAII (Michael W. Deem and Ramdas Pophale) SiO2 
 PCOD8114055
Probable space group: C 2/M
;
_chemical_formula_sum "Si O2"
_cell_formula_units_Z 52
_cell_length_a 10.712761
_cell_length_b 13.764656
_cell_length_c 18.962806
_cell_angle_alpha 90.000000
_cell_angle_beta 107.290877
_cell_angle_gamma 90.000000
_cell_volume 2669.841576
_symmetry_space_group_name_H-M "C 2/M"
_symmetry_group_IT_number 12
_symmetry_cell_setting 'monoclinic'
loop_
_space_group_symop_operation_xyz
x,y,z
-x,y,-z
-x,-y,-z
x,-y,z
1/2+x,1/2+y,z
1/2-x,1/2+y,-z
1/2-x,1/2-y,-z
1/2+x,1/2-y,z
loop_
_atom_site_type_symbol
_atom_site_label
_atom_site_fract_x
_atom_site_fract_y
_atom_site_fract_z
Si Si1 0.708861 0.000000 0.852780
Si Si2 0.317486 0.613713 0.415835
Si Si3 0.399705 0.613796 0.581061
Si Si4 0.653551 0.253310 0.303898
Si Si5 0.144823 0.500000 0.007520
Si Si6 0.642044 0.204861 0.785703
Si Si7 0.994213 0.000000 0.080491
Si Si8 0.797313 0.174675 0.068619
O O1 0.690502 0.000000 0.934112
O O2 0.639805 0.092041 0.805905
O O3 0.863186 0.000000 0.859908
O O4 0.309318 0.500000 0.403143
O O5 0.311407 0.639769 0.497977
O O6 0.453440 0.653901 0.406367
O O7 0.195307 0.658189 0.354219
O O8 0.405395 0.500000 0.593118
O O9 0.337207 0.657260 0.640699
O O10 0.505777 0.238476 0.253402
O O11 0.757142 0.275040 0.260189
O O12 0.184716 0.596228 0.055482
O O13 0.000000 0.500000 0.000000
O O14 0.696555 0.265219 0.859708
O O15 0.925904 0.895370 0.084707
O O16 0.000000 0.000000 0.000000
O O17 0.750000 0.250000 0.000000
#
# Coordination Sequence:
#
# PCOD8114055 Si02
#       8
#     4   8   8   8   4   8   4   8
#     4  12  25  47  62  95 125 167 216 273 331 376
#     4   9  19  40  68  95 128 170 218 262 312 381
#     4   9  19  40  69  95 125 172 219 261 308 388
#     4  12  24  44  61  99 132 174 209 261 332 383
#     4  11  25  42  68  90 121 158 214 276 315 376
#     4  12  28  42  65  92 134 174 208 272 326 393
#     4  11  20  42  72  94 118 160 213 277 322 369
#     4  11  23  45  66  93 121 165 223 259 315 386
#
# _framework density 19.476811000000001
#
# number of rings (size 3 to 8) (size 9 to 14) (size 15 to 20)
#    0.000    1.231    4.615    2.308    4.308    1.846 
#    5.538    0.000    0.000    1.846    0.000    0.000 
#    0.000    0.000    0.000    0.000    0.000    0.000 
#
# Total GULP energy -322100.696983 kJ/mol
# GULP energy per Si atom -12388.488346 kJ/mol
# Density = 1.943248 g / cm^3
# Si number density = 19.476811 Si / 1000 Ang^3
#
#
#
# Elastic Constant Matrix: (Units=GPa)
#
#
# Indices 1 2 3 4 5 6 
#
# 1 113.9805 36.0766 54.6998 0.0000 -1.4481 0.0000
# 2 36.0766 119.7672 60.4623 0.0000 -4.9661 0.0000
# 3 54.6998 60.4623 133.5844 0.0000 -5.1188 0.0000
# 4 0.0000 0.0000 0.0000 91.3230 0.0000 6.2268
# 5 -1.4481 -4.9661 -5.1188 0.0000 25.9608 0.0000
# 6 0.0000 0.0000 0.0000 6.2268 0.0000 19.1751
#
#
#
# Elastic Compliance Matrix: (Units=1/GPa)
#
#
# Indices 1 2 3 4 5 6 
#
# 1 0.011092 -0.001371 -0.003937 0.000000 -0.000420 0.000000
# 2 -0.001371 0.011024 -0.004384 0.000000 0.001168 0.000000
# 3 -0.003937 -0.004384 0.011126 0.000000 0.001136 0.000000
# 4 0.000000 0.000000 0.000000 0.011198 0.000000 -0.003636
# 5 -0.000420 0.001168 0.001136 0.000000 0.038944 0.000000
# 6 0.000000 0.000000 0.000000 -0.003636 0.000000 0.053332
#
#
# Mechanical properties :
#
#
# Convention : Reuss Voigt Hill
#
# Bulk Modulus (GPa) = 72.16149 74.42330 73.29240
# Shear Modulus (GPa) = 31.11057 41.69799 36.40428
#
# Velocity S-wave (km/s) = 4.00098 4.63201 4.32801
# Velocity P-wave (km/s) = 7.64684 8.17934 7.91757
#
# Compressibility (1/GPa) = 0.01385781
#
# Stress axis : x y z
#
# Youngs Moduli (GPa) = 90.15887 90.71294 89.88162
#
# Poissons Ratio (x) = 0.12434 0.35390
# Poissons Ratio (y) = 0.12358 0.39400
# Poissons Ratio (z) = 0.35499 0.39764
#
# Static dielectric constant tensor:
#      x y z
#    x 3.769330 0.000000 0.122280 
#    y 0.000000 3.586170 0.000000 
#    z 0.122280 0.000000 3.685820 
# 
# 
# High freq. dielectric constant tensor:
#      x y z
#    x 1.756260 0.000000 0.005270 
#    y 0.000000 1.772340 0.000000 
#    z 0.005270 0.000000 1.767620 
# 
# From -- ./inp_files/304370.got.cif
#   From: 2010.06.25/outbox.cif.g09.slc.cpg/sg12_153_cif.got.tgz:304370.got - 2010.06.28 00:19:55.
