data_PCOD8114690
_publ_section_title
;
Structure prediction by ZEFSAII (Michael W. Deem and Ramdas Pophale) SiO2 
 PCOD8114690
Probable space group: C 2/M
;
_chemical_formula_sum "Si O2"
_cell_formula_units_Z 56
_cell_length_a 18.530932
_cell_length_b 8.941343
_cell_length_c 18.571055
_cell_angle_alpha 90.000000
_cell_angle_beta 104.512378
_cell_angle_gamma 90.000000
_cell_volume 2978.886182
_symmetry_space_group_name_H-M "C 2/M"
_symmetry_group_IT_number 12
_symmetry_cell_setting 'monoclinic'
loop_
_space_group_symop_operation_xyz
x,y,z
-x,y,-z
-x,-y,-z
x,-y,z
1/2+x,1/2+y,z
1/2-x,1/2+y,-z
1/2-x,1/2-y,-z
1/2+x,1/2-y,z
loop_
_atom_site_type_symbol
_atom_site_label
_atom_site_fract_x
_atom_site_fract_y
_atom_site_fract_z
Si Si1 0.363136 0.176936 0.140051
Si Si2 0.418414 0.822444 0.999010
Si Si3 0.707788 0.823266 0.142051
Si Si4 0.983029 0.826244 0.267708
Si Si5 0.347596 0.672407 0.731243
Si Si6 0.970451 0.822856 0.566852
Si Si7 0.810498 0.174320 0.563917
O O1 0.283836 0.249283 0.135532
O O2 0.422720 0.223018 0.214687
O O3 0.353480 0.000000 0.138351
O O4 0.393127 0.235812 0.070803
O O5 0.358727 0.765102 0.925791
O O6 0.422365 0.000000 0.999472
O O7 0.500000 0.755831 0.000000
O O8 0.687819 0.778684 0.218060
O O9 0.717455 0.000000 0.139817
O O10 0.065320 0.790238 0.258227
O O11 0.978076 0.784738 0.351370
O O12 0.963615 0.000000 0.250259
O O13 0.338361 0.500000 0.752060
O O14 0.300943 0.704837 0.646701
O O15 0.888933 0.755583 0.559255
O O16 0.000000 0.750976 0.500000
O O17 0.964315 0.000000 0.558575
O O18 0.750000 0.250000 0.500000
O O19 0.808046 0.000000 0.547534
#
# Coordination Sequence:
#
# PCOD8114690 Si02
#       7
#     8   8   8   8   8   8   8
#     4  11  22  36  55  79 111 143 170 213 271 317
#     4   9  19  36  57  80 105 136 175 217 260 311
#     4  11  22  36  56  80 106 138 180 222 260 314
#     4   9  18  34  55  78 105 138 178 219 257 311
#     4   9  19  36  54  75 108 144 178 221 270 314
#     4   8  15  30  52  75 100 133 172 212 255 303
#     4   9  18  32  51  76 106 139 174 215 261 310
#
# _framework density 18.798973
#
# number of rings (size 3 to 8) (size 9 to 14) (size 15 to 20)
#    0.000    2.571    0.000    3.857    0.000    3.429 
#    0.000    5.714    0.000    6.000    0.000    0.000 
#    0.000    0.000    0.000    0.000    0.000    0.000 
#
# Total GULP energy -347144.005239 kJ/mol
# GULP energy per Si atom -12398.000187 kJ/mol
# Density = 1.875619 g / cm^3
# Si number density = 18.798973 Si / 1000 Ang^3
#
#
#
# Elastic Constant Matrix: (Units=GPa)
#
#
# Indices 1 2 3 4 5 6 
#
# 1 125.7041 42.2089 84.3931 0.0000 -1.8635 0.0000
# 2 42.2089 52.3604 44.4300 0.0000 1.1921 0.0000
# 3 84.3931 44.4300 157.4142 0.0000 0.3634 0.0000
# 4 0.0000 0.0000 0.0000 27.4150 0.0000 2.6946
# 5 -1.8635 1.1921 0.3634 0.0000 40.4687 0.0000
# 6 0.0000 0.0000 0.0000 2.6946 0.0000 15.4614
#
#
#
# Elastic Compliance Matrix: (Units=1/GPa)
#
#
# Indices 1 2 3 4 5 6 
#
# 1 0.013927 -0.006456 -0.005646 0.000000 0.000882 0.000000
# 2 -0.006456 0.028124 -0.004474 0.000000 -0.001086 0.000000
# 3 -0.005646 -0.004474 0.010643 0.000000 -0.000224 0.000000
# 4 0.000000 0.000000 0.000000 0.037112 0.000000 -0.006468
# 5 0.000882 -0.001086 -0.000224 0.000000 0.024785 0.000000
# 6 0.000000 0.000000 0.000000 -0.006468 0.000000 0.065805
#
#
# Mechanical properties :
#
#
# Convention : Reuss Voigt Hill
#
# Bulk Modulus (GPa) = 51.17436 75.28253 63.22844
# Shear Modulus (GPa) = 22.72090 27.63214 25.17652
#
# Velocity S-wave (km/s) = 3.48030 3.83805 3.66355
# Velocity P-wave (km/s) = 6.59022 7.73136 7.18348
#
# Compressibility (1/GPa) = 0.01954104
#
# Stress axis : x y z
#
# Youngs Moduli (GPa) = 71.80477 35.55700 93.95650
#
# Poissons Ratio (x) = 0.22954 0.53051
# Poissons Ratio (y) = 0.46354 0.42041
# Poissons Ratio (z) = 0.40543 0.15910
#
# Static dielectric constant tensor:
#      x y z
#    x -6.294900 0.000000 -0.010540 
#    y 0.000000 3.113220 0.000000 
#    z -0.010540 0.000000 3.663530 
# 
# 
# High freq. dielectric constant tensor:
#      x y z
#    x 1.733380 0.000000 -0.001460 
#    y 0.000000 1.700450 0.000000 
#    z -0.001460 0.000000 1.746710 
# 
# From -- ./inp_files/275689.got.cif
#   From: 2010.06.25/outbox.cif.g09.slc.cpg/sg12_138_cif.got.tgz:275689.got - 2010.06.28 00:19:55.
