data_PCOD8114650
_publ_section_title
;
Structure prediction by ZEFSAII (Michael W. Deem and Ramdas Pophale) SiO2 
 PCOD8114650
Probable space group: C 2/M
;
_chemical_formula_sum "Si O2"
_cell_formula_units_Z 56
_cell_length_a 29.336435
_cell_length_b 8.889443
_cell_length_c 11.204985
_cell_angle_alpha 90.000000
_cell_angle_beta 103.082389
_cell_angle_gamma 90.000000
_cell_volume 2846.246102
_symmetry_space_group_name_H-M "C 2/M"
_symmetry_group_IT_number 12
_symmetry_cell_setting 'monoclinic'
loop_
_space_group_symop_operation_xyz
x,y,z
-x,y,-z
-x,-y,-z
x,-y,z
1/2+x,1/2+y,z
1/2-x,1/2+y,-z
1/2-x,1/2-y,-z
1/2+x,1/2-y,z
loop_
_atom_site_type_symbol
_atom_site_label
_atom_site_fract_x
_atom_site_fract_y
_atom_site_fract_z
Si Si1 0.393002 0.677526 0.186897
Si Si2 0.685535 0.173981 0.708432
Si Si3 0.488204 0.321463 0.363159
Si Si4 0.332667 0.329491 0.545535
Si Si5 0.792352 0.826070 0.771001
Si Si6 0.926022 0.827594 0.738825
Si Si7 0.121012 0.322908 0.070094
O O1 0.392630 0.500000 0.169464
O O2 0.345434 0.726220 0.222633
O O3 0.436661 0.730792 0.293528
O O4 0.398468 0.753314 0.062447
O O5 0.677565 0.215627 0.566584
O O6 0.739188 0.205442 0.776125
O O7 0.672724 0.000000 0.718344
O O8 0.500000 0.251892 0.500000
O O9 0.491807 0.500000 0.372261
O O10 0.525957 0.264266 0.288579
O O11 0.321489 0.500000 0.497598
O O12 0.300104 0.281021 0.637387
O O13 0.386812 0.315298 0.613424
O O14 0.825749 0.729991 0.876222
O O15 0.806709 0.000000 0.795222
O O16 0.913320 0.726777 0.844485
O O17 0.930750 0.000000 0.784895
O O18 0.120689 0.500000 0.058427
#
# Coordination Sequence:
#
# PCOD8114650 Si02
#       7
#     8   8   8   8   8   8   8
#     4  11  23  39  59  81 110 148 188 230 274 326
#     4  11  22  35  54  82 115 148 184 231 283 330
#     4   9  18  35  61  89 112 141 185 228 265 317
#     4   9  17  32  56  84 113 145 182 227 276 329
#     4   9  20  38  58  80 109 148 191 230 271 327
#     4   9  18  36  61  85 112 147 188 231 272 320
#     4  11  23  39  58  82 112 144 184 232 281 332
#
# _framework density 19.675039000000002
#
# number of rings (size 3 to 8) (size 9 to 14) (size 15 to 20)
#    0.000    2.143    0.000    4.286    0.000    6.857 
#    0.000    4.286    0.000    3.000    0.000    0.000 
#    0.000    0.000    0.000    0.000    0.000    0.000 
#
# Total GULP energy -347294.848018 kJ/mol
# GULP energy per Si atom -12403.387429 kJ/mol
# Density = 1.963026 g / cm^3
# Si number density = 19.675039 Si / 1000 Ang^3
#
#
#
# Elastic Constant Matrix: (Units=GPa)
#
#
# Indices 1 2 3 4 5 6 
#
# 1 130.7580 41.2292 48.7820 0.0000 -3.4241 0.0000
# 2 41.2292 89.3010 52.8061 0.0000 3.8496 0.0000
# 3 48.7820 52.8061 124.6651 0.0000 -1.4774 0.0000
# 4 0.0000 0.0000 0.0000 27.8408 0.0000 -2.8050
# 5 -3.4241 3.8496 -1.4774 0.0000 12.5866 0.0000
# 6 0.0000 0.0000 0.0000 -2.8050 0.0000 27.0103
#
#
#
# Elastic Compliance Matrix: (Units=1/GPa)
#
#
# Indices 1 2 3 4 5 6 
#
# 1 0.009625 -0.003179 -0.002381 0.000000 0.003311 0.000000
# 2 -0.003179 0.016354 -0.005761 0.000000 -0.006543 0.000000
# 3 -0.002381 -0.005761 0.011422 0.000000 0.002455 0.000000
# 4 0.000000 0.000000 0.000000 0.036298 0.000000 0.003770
# 5 0.003311 -0.006543 0.002455 0.000000 0.082640 0.000000
# 6 0.000000 0.000000 0.000000 0.003770 0.000000 0.037414
#
#
# Mechanical properties :
#
#
# Convention : Reuss Voigt Hill
#
# Bulk Modulus (GPa) = 67.74682 70.03986 68.89334
# Shear Modulus (GPa) = 22.59217 26.94799 24.77008
#
# Velocity S-wave (km/s) = 3.39228 3.70490 3.55203
# Velocity P-wave (km/s) = 7.06053 7.34693 7.20515
#
# Compressibility (1/GPa) = 0.01476084
#
# Stress axis : x y z
#
# Youngs Moduli (GPa) = 103.89816 61.14542 87.54701
#
# Poissons Ratio (x) = 0.19436 0.20841
# Poissons Ratio (y) = 0.33026 0.50437
# Poissons Ratio (z) = 0.24733 0.35227
#
# Static dielectric constant tensor:
#      x y z
#    x 3.727920 0.000000 0.000710 
#    y 0.000000 3.368030 0.000000 
#    z 0.000710 0.000000 3.539190 
# 
# 
# High freq. dielectric constant tensor:
#      x y z
#    x 1.776580 0.000000 -0.002040 
#    y 0.000000 1.748010 0.000000 
#    z -0.002040 0.000000 1.765060 
# 
# From -- ./inp_files/186855.got.cif
#   From: 2010.06.25/outbox.cif.g09.slc.cpg/sg12_94_cif.got.tgz:186855.got - 2010.06.28 00:19:55.
