data_PCOD8114948
_publ_section_title
;
Structure prediction by ZEFSAII (Michael W. Deem and Ramdas Pophale) SiO2 
 PCOD8114948
Probable space group: C 2/M
;
_chemical_formula_sum "Si O2"
_cell_formula_units_Z 64
_cell_length_a 16.515500
_cell_length_b 8.709754
_cell_length_c 20.847126
_cell_angle_alpha 90.000000
_cell_angle_beta 101.214934
_cell_angle_gamma 90.000000
_cell_volume 2941.511369
_symmetry_space_group_name_H-M "C 2/M"
_symmetry_group_IT_number 12
_symmetry_cell_setting 'monoclinic'
loop_
_space_group_symop_operation_xyz
x,y,z
-x,y,-z
-x,-y,-z
x,-y,z
1/2+x,1/2+y,z
1/2-x,1/2+y,-z
1/2-x,1/2-y,-z
1/2+x,1/2-y,z
loop_
_atom_site_type_symbol
_atom_site_label
_atom_site_fract_x
_atom_site_fract_y
_atom_site_fract_z
Si Si1 0.934093 0.178394 0.644411
Si Si2 0.659888 0.681505 0.495793
Si Si3 0.820599 0.321779 0.717794
Si Si4 0.864020 0.817771 0.143088
Si Si5 0.306345 0.318065 0.852172
Si Si6 0.809078 0.332049 0.378688
Si Si7 0.078971 0.330228 0.718057
Si Si8 0.987192 0.817833 0.925952
O O1 0.897900 0.237054 0.571275
O O2 0.910193 0.271586 0.706442
O O3 0.029274 0.222790 0.660372
O O4 0.916060 0.000000 0.652190
O O5 0.658767 0.500000 0.501461
O O6 0.750000 0.750000 0.500000
O O7 0.630103 0.753203 0.559384
O O8 0.812440 0.500000 0.732155
O O9 0.794086 0.230620 0.776904
O O10 0.770401 0.275043 0.645340
O O11 0.771182 0.748963 0.117974
O O12 0.898762 0.764972 0.216154
O O13 0.933077 0.758997 0.102404
O O14 0.855995 0.000000 0.139412
O O15 0.301491 0.500000 0.858090
O O16 0.396994 0.256089 0.888575
O O17 0.781136 0.500000 0.401196
O O18 0.841166 0.356249 0.312305
O O19 0.042053 0.500000 0.729205
O O20 0.985007 0.000000 0.921963
O O21 0.000000 0.757950 0.000000
#
# Coordination Sequence:
#
# PCOD8114948 Si02
#       8
#     8   8   8   8   8   8   8   8
#     4  11  24  40  60  86 121 161 205 261 324 384
#     4  11  23  38  59  84 115 158 206 260 316 382
#     4  12  23  37  62  91 120 158 208 259 311 375
#     4  11  22  39  67  98 130 171 217 268 323 386
#     4  11  22  39  66  97 131 172 216 268 326 383
#     4  11  23  39  60  85 118 156 199 256 315 371
#     4  11  24  41  62  89 123 161 205 260 317 376
#     4   9  21  42  66  95 133 176 218 259 312 382
#
# _framework density 21.757522000000002
#
# number of rings (size 3 to 8) (size 9 to 14) (size 15 to 20)
#    0.000    1.125    2.500    4.125    0.000    5.000 
#    0.000    4.375    0.000    5.250    0.000    0.000 
#    0.000    0.000    0.000    0.000    0.000    0.000 
#
# Total GULP energy -396441.216956 kJ/mol
# GULP energy per Si atom -12388.788030 kJ/mol
# Density = 2.170800 g / cm^3
# Si number density = 21.757522 Si / 1000 Ang^3
#
#
#
# Elastic Constant Matrix: (Units=GPa)
#
#
# Indices 1 2 3 4 5 6 
#
# 1 113.9298 36.3663 59.5435 0.0000 6.2814 0.0000
# 2 36.3663 86.9496 32.9214 0.0000 1.0254 0.0000
# 3 59.5435 32.9214 117.5803 0.0000 -3.4881 0.0000
# 4 0.0000 0.0000 0.0000 22.6411 0.0000 -1.8446
# 5 6.2814 1.0254 -3.4881 0.0000 33.4934 0.0000
# 6 0.0000 0.0000 0.0000 -1.8446 0.0000 32.6644
#
#
#
# Elastic Compliance Matrix: (Units=1/GPa)
#
#
# Indices 1 2 3 4 5 6 
#
# 1 0.012973 -0.003211 -0.005758 0.000000 -0.002934 0.000000
# 2 -0.003211 0.013680 -0.002205 0.000000 -0.000046 0.000000
# 3 -0.005758 -0.002205 0.012109 0.000000 0.002408 0.000000
# 4 0.000000 0.000000 0.000000 0.044372 0.000000 0.002506
# 5 -0.002934 -0.000046 0.002408 0.000000 0.030659 0.000000
# 6 0.000000 0.000000 0.000000 0.002506 0.000000 0.030756
#
#
# Mechanical properties :
#
#
# Convention : Reuss Voigt Hill
#
# Bulk Modulus (GPa) = 60.92473 64.01357 62.46915
# Shear Modulus (GPa) = 29.00754 30.40168 29.70461
#
# Velocity S-wave (km/s) = 3.65529 3.74210 3.69895
# Velocity P-wave (km/s) = 6.77328 6.93947 6.85688
#
# Compressibility (1/GPa) = 0.01641370
#
# Stress axis : x y z
#
# Youngs Moduli (GPa) = 77.08104 73.10158 82.58013
#
# Poissons Ratio (x) = 0.23476 0.47547
# Poissons Ratio (y) = 0.24754 0.18211
# Poissons Ratio (z) = 0.44381 0.16121
#
# Static dielectric constant tensor:
#      x y z
#    x 4.270510 0.000000 -0.026930 
#    y 0.000000 4.187330 0.000000 
#    z -0.026930 0.000000 4.084840 
# 
# 
# High freq. dielectric constant tensor:
#      x y z
#    x 1.861790 0.000000 -0.003330 
#    y 0.000000 1.847530 0.000000 
#    z -0.003330 0.000000 1.853420 
# 
# From -- ./inp_files/314214.got.cif
#   From: 2010.06.25/outbox.cif.g09.slc.cpg/sg12_158_cif.got.tgz:314214.got - 2010.06.28 00:19:55.
