data_PCOD8114932
_publ_section_title
;
Structure prediction by ZEFSAII (Michael W. Deem and Ramdas Pophale) SiO2 
 PCOD8114932
Probable space group: C 2/M
;
_chemical_formula_sum "Si O2"
_cell_formula_units_Z 40
_cell_length_a 9.981472
_cell_length_b 16.855801
_cell_length_c 12.506483
_cell_angle_alpha 90.000000
_cell_angle_beta 66.596069
_cell_angle_gamma 90.000000
_cell_volume 1931.047124
_symmetry_space_group_name_H-M "C 2/M"
_symmetry_group_IT_number 12
_symmetry_cell_setting 'monoclinic'
loop_
_space_group_symop_operation_xyz
x,y,z
-x,y,-z
-x,-y,-z
x,-y,z
1/2+x,1/2+y,z
1/2-x,1/2+y,-z
1/2-x,1/2-y,-z
1/2+x,1/2-y,z
loop_
_atom_site_type_symbol
_atom_site_label
_atom_site_fract_x
_atom_site_fract_y
_atom_site_fract_z
Si Si1 0.334561 0.836740 0.858944
Si Si2 0.829459 0.847488 0.876604
Si Si3 0.142229 0.408688 0.749839
Si Si4 0.356826 0.406408 0.256937
Si Si5 0.649767 0.594072 0.499925
O O1 0.304480 0.743981 0.855654
O O2 0.505696 0.853157 0.820016
O O3 0.281104 0.881560 0.770015
O O4 0.249558 0.870666 0.988269
O O5 0.763191 0.901237 0.803922
O O6 0.999820 0.865357 0.836522
O O7 0.091907 0.500000 0.758321
O O8 0.213584 0.378936 0.615934
O O9 0.378363 0.500000 0.247725
O O10 0.326868 0.375653 0.386796
O O11 0.500000 0.630811 0.500000
O O12 0.638382 0.500000 0.499944
#
# Coordination Sequence:
#
# PCOD8114932 Si02
#       5
#     8   8   8   8   8
#     4  11  25  40  57  90 128 155 192 251 310 345
#     4  11  23  42  61  82 124 169 194 233 304 371
#     4  11  22  39  65  90 116 156 205 249 290 353
#     4  11  22  39  65  90 116 156 205 249 290 353
#     4   9  18  37  62  88 119 156 196 244 305 358
#
# _framework density 20.71415
#
# number of rings (size 3 to 8) (size 9 to 14) (size 15 to 20)
#    0.000    1.400    2.000    3.600    0.000    8.800 
#    0.000    9.000    0.000    0.000    0.000    0.000 
#    0.000    0.000    0.000    0.000    0.000    0.000 
#
# Total GULP energy -248131.738337 kJ/mol
# GULP energy per Si atom -12406.586917 kJ/mol
# Density = 2.066700 g / cm^3
# Si number density = 20.714150 Si / 1000 Ang^3
#
#
#
# Elastic Constant Matrix: (Units=GPa)
#
#
# Indices 1 2 3 4 5 6 
#
# 1 72.1319 11.9896 18.1604 0.0000 2.6799 0.0000
# 2 11.9896 41.5075 40.5844 0.0000 -2.6535 0.0000
# 3 18.1604 40.5844 117.3752 0.0000 4.2690 0.0000
# 4 0.0000 0.0000 0.0000 7.3965 0.0000 11.2180
# 5 2.6799 -2.6535 4.2690 0.0000 33.8702 0.0000
# 6 0.0000 0.0000 0.0000 11.2180 0.0000 28.3838
#
#
#
# Elastic Compliance Matrix: (Units=1/GPa)
#
#
# Indices 1 2 3 4 5 6 
#
# 1 0.014731 -0.003254 -0.001107 0.000000 -0.001281 0.000000
# 2 -0.003254 0.037798 -0.012741 0.000000 0.004825 0.000000
# 3 -0.001107 -0.012741 0.013190 0.000000 -0.002573 0.000000
# 4 0.000000 0.000000 0.000000 0.337515 0.000000 -0.133395
# 5 -0.001281 0.004825 -0.002573 0.000000 0.030328 0.000000
# 6 0.000000 0.000000 0.000000 -0.133395 0.000000 0.087952
#
#
# Mechanical properties :
#
#
# Convention : Reuss Voigt Hill
#
# Bulk Modulus (GPa) = 31.73248 41.38704 36.55976
# Shear Modulus (GPa) = 8.83040 24.61544 16.72292
#
# Velocity S-wave (km/s) = 2.06694 3.45097 2.84442
# Velocity P-wave (km/s) = 4.58790 5.99186 5.33625
#
# Compressibility (1/GPa) = 0.03151345
#
# Stress axis : x y z
#
# Youngs Moduli (GPa) = 67.88504 26.45611 75.81405
#
# Poissons Ratio (x) = 0.08609 0.08396
# Poissons Ratio (y) = 0.22091 0.96598
# Poissons Ratio (z) = 0.07518 0.33709
#
# Static dielectric constant tensor:
#      x y z
#    x 3.574610 0.000000 -0.031720 
#    y 0.000000 3.446550 0.000000 
#    z -0.031720 0.000000 4.020830 
# 
# 
# High freq. dielectric constant tensor:
#      x y z
#    x 1.812880 0.000000 -0.001560 
#    y 0.000000 1.793070 0.000000 
#    z -0.001560 0.000000 1.825530 
# 
# From -- ./inp_files/118921.got.cif
#   From: 2010.06.25/outbox.cif.g09.slc.cpg/sg12_60_cif.got.tgz:118921.got - 2010.06.28 00:19:55.
