data_PCOD8114335
_publ_section_title
;
Structure prediction by ZEFSAII (Michael W. Deem and Ramdas Pophale) SiO2 
 PCOD8114335
Probable space group: C 2/M
;
_chemical_formula_sum "Si O2"
_cell_formula_units_Z 48
_cell_length_a 9.970964
_cell_length_b 20.310499
_cell_length_c 15.171840
_cell_angle_alpha 90.000000
_cell_angle_beta 119.584972
_cell_angle_gamma 90.000000
_cell_volume 2671.946388
_symmetry_space_group_name_H-M "C 2/M"
_symmetry_group_IT_number 12
_symmetry_cell_setting 'monoclinic'
loop_
_space_group_symop_operation_xyz
x,y,z
-x,y,-z
-x,-y,-z
x,-y,z
1/2+x,1/2+y,z
1/2-x,1/2+y,-z
1/2-x,1/2-y,-z
1/2+x,1/2-y,z
loop_
_atom_site_type_symbol
_atom_site_label
_atom_site_fract_x
_atom_site_fract_y
_atom_site_fract_z
Si Si1 0.767115 0.194374 0.383979
Si Si2 0.107084 0.372157 0.180157
Si Si3 0.925930 0.877834 0.190043
Si Si4 0.059694 0.500000 0.921280
Si Si5 0.081637 0.000000 0.933583
Si Si6 0.930144 0.242024 0.067689
Si Si7 0.923893 0.814248 0.609787
O O1 0.669660 0.140255 0.298986
O O2 0.818596 0.161644 0.493679
O O3 0.665172 0.258743 0.365002
O O4 0.916020 0.216319 0.375177
O O5 0.246305 0.384248 0.156924
O O6 0.999831 0.436023 0.149887
O O7 0.007341 0.311390 0.114148
O O8 0.970059 0.937364 0.140687
O O9 0.963898 0.809080 0.155777
O O10 0.034275 0.876072 0.312943
O O11 0.241551 0.500000 0.983273
O O12 0.000000 0.500000 0.000000
O O13 0.000000 0.000000 0.000000
O O14 0.750000 0.250000 0.000000
O O15 0.000000 0.213470 0.000000
#
# Coordination Sequence:
#
# PCOD8114335 Si02
#       7
#     8   8   8   4   4   8   8
#     4   9  18  34  56  86 117 142 188 231 286 340
#     4  11  21  37  59  86 110 152 194 230 284 339
#     4  11  21  38  59  83 114 151 190 234 288 333
#     4  12  22  42  63  75 111 163 192 226 280 346
#     4  12  26  44  57  83 115 155 194 236 286 343
#     4  12  22  33  51  82 111 142 190 240 276 326
#     4   9  18  34  57  85 115 148 180 236 288 335
#
# _framework density 17.964431999999999
#
# number of rings (size 3 to 8) (size 9 to 14) (size 15 to 20)
#    0.000    1.333    5.000    2.000    0.000    0.000 
#    3.000    0.833    0.000    4.000    0.000    1.167 
#    0.000    0.000    0.000    0.000    0.000    0.000 
#
# Total GULP energy -297586.566308 kJ/mol
# GULP energy per Si atom -12399.440263 kJ/mol
# Density = 1.792354 g / cm^3
# Si number density = 17.964432 Si / 1000 Ang^3
#
#
#
# Elastic Constant Matrix: (Units=GPa)
#
#
# Indices 1 2 3 4 5 6 
#
# 1 93.6687 27.0917 54.4673 0.0000 -4.9299 0.0000
# 2 27.0917 95.3669 57.2761 0.0000 -1.9660 0.0000
# 3 54.4673 57.2761 134.5091 0.0000 1.8402 0.0000
# 4 0.0000 0.0000 0.0000 31.2241 0.0000 -1.6460
# 5 -4.9299 -1.9660 1.8402 0.0000 27.6224 0.0000
# 6 0.0000 0.0000 0.0000 -1.6460 0.0000 23.5026
#
#
#
# Elastic Compliance Matrix: (Units=1/GPa)
#
#
# Indices 1 2 3 4 5 6 
#
# 1 0.014227 -0.000671 -0.005515 0.000000 0.002859 0.000000
# 2 -0.000671 0.014175 -0.005782 0.000000 0.001274 0.000000
# 3 -0.005515 -0.005782 0.012160 0.000000 -0.002206 0.000000
# 4 0.000000 0.000000 0.000000 0.032145 0.000000 0.002251
# 5 0.002859 0.001274 -0.002206 0.000000 0.036950 0.000000
# 6 0.000000 0.000000 0.000000 0.002251 0.000000 0.042706
#
#
# Mechanical properties :
#
#
# Convention : Reuss Voigt Hill
#
# Bulk Modulus (GPa) = 60.14082 66.80166 63.47124
# Shear Modulus (GPa) = 27.49666 28.78378 28.14022
#
# Velocity S-wave (km/s) = 3.91655 4.00717 3.96212
# Velocity P-wave (km/s) = 7.34867 7.66004 7.50597
#
# Compressibility (1/GPa) = 0.01662764
#
# Stress axis : x y z
#
# Youngs Moduli (GPa) = 70.28890 70.54613 82.23930
#
# Poissons Ratio (x) = 0.04732 0.45351
# Poissons Ratio (y) = 0.04714 0.47549
# Poissons Ratio (z) = 0.38761 0.40789
#
# Static dielectric constant tensor:
#      x y z
#    x 3.425600 0.000000 -0.038290 
#    y 0.000000 5.850240 0.000000 
#    z -0.038290 0.000000 3.660940 
# 
# 
# High freq. dielectric constant tensor:
#      x y z
#    x 1.699620 0.000000 0.001580 
#    y 0.000000 1.669180 0.000000 
#    z 0.001580 0.000000 1.715560 
# 
# From -- ./inp_files/197221.got.cif
#   From: 2010.06.25/outbox.cif.g09.slc.cpg/sg12_99_cif.got.tgz:197221.got - 2010.06.28 00:19:55.
