data_PCOD8114524
_publ_section_title
;
Structure prediction by ZEFSAII (Michael W. Deem and Ramdas Pophale) SiO2 
 PCOD8114524
Probable space group: C 2/M
;
_chemical_formula_sum "Si O2"
_cell_formula_units_Z 40
_cell_length_a 9.779323
_cell_length_b 15.853833
_cell_length_c 13.592782
_cell_angle_alpha 90.000000
_cell_angle_beta 112.536182
_cell_angle_gamma 90.000000
_cell_volume 1946.493985
_symmetry_space_group_name_H-M "C 2/M"
_symmetry_group_IT_number 12
_symmetry_cell_setting 'monoclinic'
loop_
_space_group_symop_operation_xyz
x,y,z
-x,y,-z
-x,-y,-z
x,-y,z
1/2+x,1/2+y,z
1/2-x,1/2+y,-z
1/2-x,1/2-y,-z
1/2+x,1/2-y,z
loop_
_atom_site_type_symbol
_atom_site_label
_atom_site_fract_x
_atom_site_fract_y
_atom_site_fract_z
Si Si1 0.135563 0.672497 0.968280
Si Si2 0.969738 0.699529 0.271256
Si Si3 0.139301 0.406414 0.467068
Si Si4 0.196733 0.837459 0.315508
Si Si5 0.207286 0.000000 0.974697
Si Si6 0.383702 0.500000 0.824893
O O1 0.203794 0.585149 0.027844
O O2 0.080666 0.654981 0.842812
O O3 0.250000 0.750000 0.000000
O O4 0.000000 0.699903 0.000000
O O5 0.096637 0.642437 0.356253
O O6 0.041882 0.789346 0.265849
O O7 0.831336 0.716300 0.305390
O O8 0.192973 0.500000 0.452369
O O9 0.270488 0.358260 0.561018
O O10 0.000000 0.412284 0.500000
O O11 0.186686 0.921010 0.248656
O O12 0.166895 0.000000 0.077348
O O13 0.060984 0.000000 0.867018
#
# Coordination Sequence:
#
# PCOD8114524 Si02
#       6
#     8   8   8   8   4   4
#     4  12  26  43  65  96 129 170 214 262 315 378
#     4  11  23  37  65  91 127 157 208 258 309 366
#     4   9  19  35  63  93 121 157 209 254 307 373
#     4  11  21  41  64  95 122 166 205 257 313 375
#     4  11  25  42  63  93 130 169 216 262 317 371
#     4  11  22  40  68  90 125 170 214 254 312 382
#
# _framework density 20.549768
#
# number of rings (size 3 to 8) (size 9 to 14) (size 15 to 20)
#    0.000    1.200    3.000    3.300    5.600    0.000 
#    0.000    0.000    2.200    1.200    0.000    0.000 
#    0.000    0.000    0.000    0.000    0.000    0.000 
#
# Total GULP energy -248078.976496 kJ/mol
# GULP energy per Si atom -12403.948825 kJ/mol
# Density = 2.050300 g / cm^3
# Si number density = 20.549768 Si / 1000 Ang^3
#
#
#
# Elastic Constant Matrix: (Units=GPa)
#
#
# Indices 1 2 3 4 5 6 
#
# 1 102.9014 50.6462 21.2761 0.0000 8.0429 0.0000
# 2 50.6462 107.3874 5.4901 0.0000 2.0658 0.0000
# 3 21.2761 5.4901 106.3098 0.0000 4.2231 0.0000
# 4 0.0000 0.0000 0.0000 25.4837 0.0000 1.6628
# 5 8.0429 2.0658 4.2231 0.0000 26.5521 0.0000
# 6 0.0000 0.0000 0.0000 1.6628 0.0000 17.3466
#
#
#
# Elastic Compliance Matrix: (Units=1/GPa)
#
#
# Indices 1 2 3 4 5 6 
#
# 1 0.013478 -0.006179 -0.002249 0.000000 -0.003244 0.000000
# 2 -0.006179 0.012181 0.000575 0.000000 0.000833 0.000000
# 3 -0.002249 0.000575 0.009864 0.000000 -0.000932 0.000000
# 4 0.000000 0.000000 0.000000 0.039488 0.000000 -0.003785
# 5 -0.003244 0.000833 -0.000932 0.000000 0.038728 0.000000
# 6 0.000000 0.000000 0.000000 -0.003785 0.000000 0.058011
#
#
# Mechanical properties :
#
#
# Convention : Reuss Voigt Hill
#
# Bulk Modulus (GPa) = 50.46715 52.38039 51.42377
# Shear Modulus (GPa) = 25.76492 29.82223 27.79357
#
# Velocity S-wave (km/s) = 3.54472 3.81362 3.68163
# Velocity P-wave (km/s) = 6.43158 6.70347 6.56893
#
# Compressibility (1/GPa) = 0.01981487
#
# Stress axis : x y z
#
# Youngs Moduli (GPa) = 74.19543 82.09594 101.37865
#
# Poissons Ratio (x) = 0.50728 0.22804
# Poissons Ratio (y) = 0.45846 -0.05824
# Poissons Ratio (z) = 0.16690 -0.04717
#
# Static dielectric constant tensor:
#      x y z
#    x 3.544130 0.000000 0.219960 
#    y 0.000000 3.731420 0.000000 
#    z 0.219960 0.000000 3.940930 
# 
# 
# High freq. dielectric constant tensor:
#      x y z
#    x 1.782760 0.000000 0.016480 
#    y 0.000000 1.807060 0.000000 
#    z 0.016480 0.000000 1.817600 
# 
# From -- ./inp_files/194684.got.cif
#   From: 2010.06.25/outbox.cif.g09.slc.cpg/sg12_98_cif.got.tgz:194684.got - 2010.06.28 00:19:55.
