data_PCOD8114560
_publ_section_title
;
Structure prediction by ZEFSAII (Michael W. Deem and Ramdas Pophale) SiO2 
 PCOD8114560
Probable space group: C 2/M
;
_chemical_formula_sum "Si O2"
_cell_formula_units_Z 40
_cell_length_a 11.486388
_cell_length_b 25.908372
_cell_length_c 11.178599
_cell_angle_alpha 90.000000
_cell_angle_beta 34.621336
_cell_angle_gamma 90.000000
_cell_volume 1890.053812
_symmetry_space_group_name_H-M "C 2/M"
_symmetry_group_IT_number 12
_symmetry_cell_setting 'monoclinic'
loop_
_space_group_symop_operation_xyz
x,y,z
-x,y,-z
-x,-y,-z
x,-y,z
1/2+x,1/2+y,z
1/2-x,1/2+y,-z
1/2-x,1/2-y,-z
1/2+x,1/2-y,z
loop_
_atom_site_type_symbol
_atom_site_label
_atom_site_fract_x
_atom_site_fract_y
_atom_site_fract_z
Si Si1 0.130141 0.558547 0.063659
Si Si2 0.871651 0.860324 0.990907
Si Si3 0.970968 0.714964 0.658799
Si Si4 0.126900 0.176175 0.558904
Si Si5 0.782997 0.916238 0.678931
O O1 0.211994 0.500000 0.003205
O O2 0.199682 0.586882 0.883826
O O3 0.214351 0.591939 0.103201
O O4 0.881142 0.557143 0.271219
O O5 0.746117 0.806775 0.110406
O O6 0.000000 0.872985 0.000000
O O7 0.028137 0.857073 0.748748
O O8 0.000000 0.693840 0.500000
O O9 0.971857 0.777171 0.658034
O O10 0.150906 0.696180 0.592001
O O11 0.165731 0.141301 0.410030
O O12 0.000000 0.947352 0.500000
#
# Coordination Sequence:
#
# PCOD8114560 Si02
#       5
#     8   8   8   8   8
#     4  11  26  43  65  99 131 167 224 279 326 384
#     4  12  24  44  66  92 134 175 217 268 322 385
#     4  11  23  41  63  93 135 171 219 261 318 391
#     4  11  23  41  64  98 128 174 214 265 322 392
#     4  11  21  42  69  95 131 165 211 272 335 381
#
# _framework density 21.163419999999999
#
# number of rings (size 3 to 8) (size 9 to 14) (size 15 to 20)
#    0.000    0.800    6.000    2.400    0.000    2.000 
#    0.000    0.000    0.000    1.800    0.000    0.000 
#    0.000    0.000    0.000    0.000    0.000    0.000 
#
# Total GULP energy -247968.010857 kJ/mol
# GULP energy per Si atom -12398.400543 kJ/mol
# Density = 2.111525 g / cm^3
# Si number density = 21.163420 Si / 1000 Ang^3
#
#
#
# Elastic Constant Matrix: (Units=GPa)
#
#
# Indices 1 2 3 4 5 6 
#
# 1 115.9903 57.8576 33.2790 0.0000 -23.5883 0.0000
# 2 57.8576 130.5247 37.6731 0.0000 5.8847 0.0000
# 3 33.2790 37.6731 85.1585 0.0000 -14.3876 0.0000
# 4 0.0000 0.0000 0.0000 3.3402 0.0000 -3.1743
# 5 -23.5883 5.8847 -14.3876 0.0000 29.8293 0.0000
# 6 0.0000 0.0000 0.0000 -3.1743 0.0000 12.5413
#
#
#
# Elastic Compliance Matrix: (Units=1/GPa)
#
#
# Indices 1 2 3 4 5 6 
#
# 1 0.014915 -0.007041 -0.000529 0.000000 0.012928 0.000000
# 2 -0.007041 0.012551 -0.004529 0.000000 -0.010228 0.000000
# 3 -0.000529 -0.004529 0.015278 0.000000 0.007844 0.000000
# 4 0.000000 0.000000 0.000000 0.394199 0.000000 0.099774
# 5 0.012928 -0.010228 0.007844 0.000000 0.049548 0.000000
# 6 0.000000 0.000000 0.000000 0.099774 0.000000 0.104990
#
#
# Mechanical properties :
#
#
# Convention : Reuss Voigt Hill
#
# Bulk Modulus (GPa) = 53.92256 65.47699 59.69978
# Shear Modulus (GPa) = 8.04037 22.66641 15.35339
#
# Velocity S-wave (km/s) = 1.95126 3.27619 2.69637
# Velocity P-wave (km/s) = 5.53272 6.73180 6.16150
#
# Compressibility (1/GPa) = 0.01854511
#
# Stress axis : x y z
#
# Youngs Moduli (GPa) = 67.04804 79.67574 65.45185
#
# Poissons Ratio (x) = 0.56102 0.03465
# Poissons Ratio (y) = 0.47211 0.29642
# Poissons Ratio (z) = 0.03549 0.36083
#
# Static dielectric constant tensor:
#      x y z
#    x 3.993370 0.000000 -0.311000 
#    y 0.000000 3.660070 0.000000 
#    z -0.311000 0.000000 3.922100 
# 
# 
# High freq. dielectric constant tensor:
#      x y z
#    x 1.840130 0.000000 -0.017900 
#    y 0.000000 1.815390 0.000000 
#    z -0.017900 0.000000 1.826700 
# 
# From -- ./inp_files/137114.got.cif
#   From: 2010.06.25/outbox.cif.g09.slc.cpg/sg12_69_cif.got.tgz:137114.got - 2010.06.28 00:19:55.
