data_PCOD8114771
_publ_section_title
;
Structure prediction by ZEFSAII (Michael W. Deem and Ramdas Pophale) SiO2 
 PCOD8114771
Probable space group: C 2/M
;
_chemical_formula_sum "Si O2"
_cell_formula_units_Z 56
_cell_length_a 10.018357
_cell_length_b 21.469736
_cell_length_c 15.118072
_cell_angle_alpha 90.000000
_cell_angle_beta 123.664262
_cell_angle_gamma 90.000000
_cell_volume 2706.447043
_symmetry_space_group_name_H-M "C 2/M"
_symmetry_group_IT_number 12
_symmetry_cell_setting 'monoclinic'
loop_
_space_group_symop_operation_xyz
x,y,z
-x,y,-z
-x,-y,-z
x,-y,z
1/2+x,1/2+y,z
1/2-x,1/2+y,-z
1/2-x,1/2-y,-z
1/2+x,1/2-y,z
loop_
_atom_site_type_symbol
_atom_site_label
_atom_site_fract_x
_atom_site_fract_y
_atom_site_fract_z
Si Si1 0.627364 0.146769 0.251105
Si Si2 0.187736 0.247291 0.575048
Si Si3 0.626749 0.649875 0.255104
Si Si4 0.358590 0.569323 0.005312
Si Si5 0.148448 0.925811 0.797445
Si Si6 0.632876 0.069851 0.768747
Si Si7 0.440894 0.751409 0.076806
O O1 0.759705 0.186283 0.351879
O O2 0.711067 0.101110 0.211777
O O3 0.534447 0.107039 0.292034
O O4 0.496716 0.190003 0.155282
O O5 0.250000 0.250000 0.500000
O O6 0.249175 0.307884 0.647689
O O7 0.000000 0.248803 0.500000
O O8 0.519073 0.609918 0.285402
O O9 0.729280 0.600399 0.238574
O O10 0.512220 0.689507 0.147869
O O11 0.425893 0.500000 0.046373
O O12 0.191727 0.569625 0.892068
O O13 0.500000 0.604440 0.000000
O O14 0.321619 0.595388 0.089424
O O15 0.137468 0.000000 0.778213
O O16 0.602896 0.000000 0.722618
O O17 0.500000 0.759036 0.000000
O O18 0.250000 0.750000 0.000000
#
# Coordination Sequence:
#
# PCOD8114771 Si02
#       7
#     8   8   8   8   8   8   8
#     4  11  25  40  62  95 123 163 213 250 326 378
#     4  11  24  47  73  91 116 155 214 277 322 376
#     4  11  23  39  66  94 117 163 218 251 317 372
#     4   9  18  32  53  84 123 182 219 231 271 348
#     4  11  22  38  61  91 135 172 206 249 301 374
#     4  11  22  37  60  90 132 169 208 252 294 367
#     4  11  24  38  57  86 126 166 198 258 307 351
#
# _framework density 20.691334999999999
#
# number of rings (size 3 to 8) (size 9 to 14) (size 15 to 20)
#    0.000    1.286    1.429    4.286    6.000    4.571 
#    0.000    2.143    0.000   17.143    0.000    0.000 
#    0.000    0.000    0.000    0.000    0.000    0.000 
#
# Total GULP energy -347083.562796 kJ/mol
# GULP energy per Si atom -12395.841528 kJ/mol
# Density = 2.064424 g / cm^3
# Si number density = 20.691335 Si / 1000 Ang^3
#
#
#
# Elastic Constant Matrix: (Units=GPa)
#
#
# Indices 1 2 3 4 5 6 
#
# 1 137.6199 49.1204 29.6061 0.0000 14.0362 0.0000
# 2 49.1204 139.2815 37.4111 0.0000 10.4873 0.0000
# 3 29.6061 37.4111 94.6173 0.0000 16.3619 0.0000
# 4 0.0000 0.0000 0.0000 13.4902 0.0000 -3.2751
# 5 14.0362 10.4873 16.3619 0.0000 36.3571 0.0000
# 6 0.0000 0.0000 0.0000 -3.2751 0.0000 40.8144
#
#
#
# Elastic Compliance Matrix: (Units=1/GPa)
#
#
# Indices 1 2 3 4 5 6 
#
# 1 0.008671 -0.002541 -0.001362 0.000000 -0.002001 0.000000
# 2 -0.002541 0.008809 -0.002622 0.000000 -0.000380 0.000000
# 3 -0.001362 -0.002622 0.012807 0.000000 -0.004481 0.000000
# 4 0.000000 0.000000 0.000000 0.075601 0.000000 0.006066
# 5 -0.002001 -0.000380 -0.004481 0.000000 0.030404 0.000000
# 6 0.000000 0.000000 0.000000 0.006066 0.000000 0.024988
#
#
# Mechanical properties :
#
#
# Convention : Reuss Voigt Hill
#
# Bulk Modulus (GPa) = 58.02102 67.08822 62.55462
# Shear Modulus (GPa) = 27.76618 35.15775 31.46197
#
# Velocity S-wave (km/s) = 3.66720 4.12655 3.90364
# Velocity P-wave (km/s) = 6.78478 7.42956 7.11448
#
# Compressibility (1/GPa) = 0.01723513
#
# Stress axis : x y z
#
# Youngs Moduli (GPa) = 115.33213 113.52241 78.08342
#
# Poissons Ratio (x) = 0.28849 0.10636
# Poissons Ratio (y) = 0.29309 0.20474
# Poissons Ratio (z) = 0.15710 0.29767
#
# Static dielectric constant tensor:
#      x y z
#    x 3.747330 0.000000 -0.022790 
#    y 0.000000 4.021230 0.000000 
#    z -0.022790 0.000000 3.472510 
# 
# 
# High freq. dielectric constant tensor:
#      x y z
#    x 1.823880 0.000000 0.002710 
#    y 0.000000 1.827270 0.000000 
#    z 0.002710 0.000000 1.780840 
# 
# From -- ./inp_files/198991.got.cif
#   From: 2010.06.25/outbox.cif.g09.slc.cpg/sg12_100_cif.got.tgz:198991.got - 2010.06.28 00:19:55.
