data_PCOD8114346
_publ_section_title
;
Structure prediction by ZEFSAII (Michael W. Deem and Ramdas Pophale) SiO2 
 PCOD8114346
Probable space group: C 2/M
;
_chemical_formula_sum "Si O2"
_cell_formula_units_Z 48
_cell_length_a 27.300297
_cell_length_b 17.839105
_cell_length_c 9.293943
_cell_angle_alpha 90.000000
_cell_angle_beta 34.186120
_cell_angle_gamma 90.000000
_cell_volume 2543.234055
_symmetry_space_group_name_H-M "C 2/M"
_symmetry_group_IT_number 12
_symmetry_cell_setting 'monoclinic'
loop_
_space_group_symop_operation_xyz
x,y,z
-x,y,-z
-x,-y,-z
x,-y,z
1/2+x,1/2+y,z
1/2-x,1/2+y,-z
1/2-x,1/2-y,-z
1/2+x,1/2-y,z
loop_
_atom_site_type_symbol
_atom_site_label
_atom_site_fract_x
_atom_site_fract_y
_atom_site_fract_z
Si Si1 0.019792 0.192883 0.615296
Si Si2 0.305048 0.696841 0.468745
Si Si3 0.438132 0.807771 0.267886
Si Si4 0.720885 0.324748 0.152892
Si Si5 0.790105 0.585364 0.743575
Si Si6 0.632840 0.587593 0.911368
O O1 0.008028 0.271134 0.730845
O O2 0.117671 0.162251 0.392692
O O3 0.000000 0.212963 0.500000
O O4 0.955911 0.128671 0.829048
O O5 0.250000 0.750000 0.500000
O O6 0.393632 0.738492 0.294309
O O7 0.251512 0.679082 0.745993
O O8 0.329133 0.619693 0.330284
O O9 0.369370 0.867143 0.490279
O O10 0.500000 0.848000 0.000000
O O11 0.750000 0.250000 0.000000
O O12 0.770466 0.393663 0.956920
O O13 0.819413 0.500000 0.663617
O O14 0.703576 0.602196 0.863227
O O15 0.613046 0.500000 0.938530
#
# Coordination Sequence:
#
# PCOD8114346 Si02
#       6
#     8   8   8   8   8   8
#     4  11  22  35  61  91 119 154 200 244 296 363
#     4  11  21  37  63  89 120 159 207 246 293 364
#     4  11  22  38  62  90 112 158 208 249 299 353
#     4  11  21  37  61  90 118 159 203 240 296 358
#     4  11  23  41  61  87 124 160 201 252 302 357
#     4  11  23  39  60  91 126 160 196 250 313 361
#
# _framework density 18.873605999999999
#
# number of rings (size 3 to 8) (size 9 to 14) (size 15 to 20)
#    0.000    1.000    8.333    0.000    0.000    2.000 
#    0.000    5.833    0.000    0.500    0.000    0.000 
#    0.000    0.000    0.000    0.000    0.000    0.000 
#
# Total GULP energy -297595.564684 kJ/mol
# GULP energy per Si atom -12399.815195 kJ/mol
# Density = 1.883065 g / cm^3
# Si number density = 18.873606 Si / 1000 Ang^3
#
#
#
# Elastic Constant Matrix: (Units=GPa)
#
#
# Indices 1 2 3 4 5 6 
#
# 1 99.2767 54.7722 50.8283 0.0000 18.6574 0.0000
# 2 54.7722 129.6393 77.1890 0.0000 3.9485 0.0000
# 3 50.8283 77.1890 157.7806 0.0000 15.5786 0.0000
# 4 0.0000 0.0000 0.0000 27.9352 0.0000 -3.0257
# 5 18.6574 3.9485 15.5786 0.0000 31.5188 0.0000
# 6 0.0000 0.0000 0.0000 -3.0257 0.0000 26.8169
#
#
#
# Elastic Compliance Matrix: (Units=1/GPa)
#
#
# Indices 1 2 3 4 5 6 
#
# 1 0.015199 -0.005250 -0.001582 0.000000 -0.007558 0.000000
# 2 -0.005250 0.012751 -0.004937 0.000000 0.003950 0.000000
# 3 -0.001582 -0.004937 0.009577 0.000000 -0.003178 0.000000
# 4 0.000000 0.000000 0.000000 0.036240 0.000000 0.004089
# 5 -0.007558 0.003950 -0.003178 0.000000 0.037277 0.000000
# 6 0.000000 0.000000 0.000000 0.004089 0.000000 0.037751
#
#
# Mechanical properties :
#
#
# Convention : Reuss Voigt Hill
#
# Bulk Modulus (GPa) = 71.47993 83.58617 77.53305
# Shear Modulus (GPa) = 28.24940 30.84799 29.54869
#
# Velocity S-wave (km/s) = 3.87300 4.04722 3.96107
# Velocity P-wave (km/s) = 7.61284 8.13778 7.87968
#
# Compressibility (1/GPa) = 0.01398994
#
# Stress axis : x y z
#
# Youngs Moduli (GPa) = 65.79208 78.42675 104.42169
#
# Poissons Ratio (x) = 0.41170 0.16520
# Poissons Ratio (y) = 0.34538 0.51551
# Poissons Ratio (z) = 0.10409 0.38718
#
# Static dielectric constant tensor:
#      x y z
#    x 3.889290 0.000000 0.508710 
#    y 0.000000 3.336720 0.000000 
#    z 0.508710 0.000000 4.091590 
# 
# 
# High freq. dielectric constant tensor:
#      x y z
#    x 1.733610 0.000000 0.013670 
#    y 0.000000 1.713920 0.000000 
#    z 0.013670 0.000000 1.750680 
# 
# From -- ./inp_files/104965.got.cif
#   From: 2010.06.25/outbox.cif.g09.slc.cpg/sg12_53_cif.got.tgz:104965.got - 2010.06.28 00:19:55.
