data_PCOD8114886
_publ_section_title
;
Structure prediction by ZEFSAII (Michael W. Deem and Ramdas Pophale) SiO2 
 PCOD8114886
Probable space group: C 2/M
;
_chemical_formula_sum "Si O2"
_cell_formula_units_Z 64
_cell_length_a 8.924361
_cell_length_b 17.060103
_cell_length_c 28.579785
_cell_angle_alpha 90.000000
_cell_angle_beta 134.099623
_cell_angle_gamma 90.000000
_cell_volume 3124.793596
_symmetry_space_group_name_H-M "C 2/M"
_symmetry_group_IT_number 12
_symmetry_cell_setting 'monoclinic'
loop_
_space_group_symop_operation_xyz
x,y,z
-x,y,-z
-x,-y,-z
x,-y,z
1/2+x,1/2+y,z
1/2-x,1/2+y,-z
1/2-x,1/2-y,-z
1/2+x,1/2-y,z
loop_
_atom_site_type_symbol
_atom_site_label
_atom_site_fract_x
_atom_site_fract_y
_atom_site_fract_z
Si Si1 0.109929 0.355044 0.746729
Si Si2 0.927639 0.800316 0.670162
Si Si3 0.063656 0.182262 0.868818
Si Si4 0.577049 0.846285 0.127787
Si Si5 0.264930 0.703007 0.455964
Si Si6 0.417121 0.909748 0.360258
Si Si7 0.291770 0.911978 0.749332
Si Si8 0.805287 0.586454 0.991885
O O1 0.357814 0.361461 0.806302
O O2 0.049760 0.404920 0.688052
O O3 0.029448 0.265263 0.725819
O O4 0.005685 0.394751 0.768856
O O5 0.807001 0.760301 0.601324
O O6 0.776759 0.855108 0.667790
O O7 0.113776 0.854060 0.690714
O O8 0.242154 0.176306 0.868921
O O9 0.132924 0.144859 0.933364
O O10 0.014750 0.272429 0.865377
O O11 0.672944 0.903881 0.187376
O O12 0.381668 0.886097 0.059352
O O13 0.500000 0.674174 0.500000
O O14 0.250000 0.750000 0.500000
O O15 0.124246 0.625124 0.429447
O O16 0.384404 0.000000 0.368851
O O17 0.216570 0.000000 0.723138
O O18 0.705630 0.500000 0.974771
O O19 0.000000 0.583523 0.000000
#
# Coordination Sequence:
#
# PCOD8114886 Si02
#       8
#     8   8   8   8   8   8   8   8
#     4  11  23  41  64  94 127 171 214 264 317 383
#     4  11  23  42  69  91 129 174 215 253 311 384
#     4  11  22  38  66  89 120 167 219 262 316 389
#     4  11  22  39  62  92 123 165 214 266 322 385
#     4  11  23  44  70  97 126 170 211 254 307 376
#     4  11  24  42  66  98 132 167 213 264 314 368
#     4  12  25  40  63  96 132 166 211 271 324 370
#     4   9  20  38  59  86 122 163 209 265 327 384
#
# _framework density 20.481352999999999
#
# number of rings (size 3 to 8) (size 9 to 14) (size 15 to 20)
#    0.000    1.125    2.500    4.500    1.750    1.750 
#    0.000    3.750    0.000    3.750    0.000    0.000 
#    0.000    0.000    0.000    0.000    0.000    0.000 
#
# Total GULP energy -396930.243493 kJ/mol
# GULP energy per Si atom -12404.070109 kJ/mol
# Density = 2.043474 g / cm^3
# Si number density = 20.481353 Si / 1000 Ang^3
#
#
#
# Elastic Constant Matrix: (Units=GPa)
#
#
# Indices 1 2 3 4 5 6 
#
# 1 85.2159 21.4330 22.0266 0.0000 2.3403 0.0000
# 2 21.4330 109.5245 29.2953 0.0000 8.3888 0.0000
# 3 22.0266 29.2953 106.2996 -0.0001 6.9545 0.0000
# 4 0.0000 0.0000 -0.0001 21.8954 -0.0001 -2.2277
# 5 2.3403 8.3888 6.9545 -0.0001 30.9482 0.0000
# 6 0.0000 0.0000 0.0000 -2.2277 0.0000 19.7414
#
#
#
# Elastic Compliance Matrix: (Units=1/GPa)
#
#
# Indices 1 2 3 4 5 6 
#
# 1 0.012767 -0.001936 -0.002114 0.000000 0.000034 0.000000
# 2 -0.001936 0.010286 -0.002294 0.000000 -0.002126 0.000000
# 3 -0.002114 -0.002294 0.010582 0.000000 -0.001596 0.000000
# 4 0.000000 0.000000 0.000000 0.046202 0.000000 0.005214
# 5 0.000034 -0.002126 -0.001596 0.000000 0.033244 0.000000
# 6 0.000000 0.000000 0.000000 0.005214 0.000000 0.051243
#
#
# Mechanical properties :
#
#
# Convention : Reuss Voigt Hill
#
# Bulk Modulus (GPa) = 47.74073 49.61665 48.67869
# Shear Modulus (GPa) = 27.17449 29.73601 28.45525
#
# Velocity S-wave (km/s) = 3.64647 3.81446 3.73141
# Velocity P-wave (km/s) = 6.41006 6.60893 6.51026
#
# Compressibility (1/GPa) = 0.02094648
#
# Stress axis : x y z
#
# Youngs Moduli (GPa) = 78.32518 97.22230 94.49774
#
# Poissons Ratio (x) = 0.18818 0.19980
# Poissons Ratio (y) = 0.15160 0.21682
# Poissons Ratio (z) = 0.16561 0.22308
#
# Static dielectric constant tensor:
#      x y z
#    x 3.632160 0.000000 0.002450 
#    y 0.000000 3.801800 0.000000 
#    z 0.002450 0.000000 3.762550 
# 
# 
# High freq. dielectric constant tensor:
#      x y z
#    x 1.799590 0.000000 0.001570 
#    y 0.000000 1.800370 0.000000 
#    z 0.001570 0.000000 1.808500 
# 
# From -- ./inp_files/372947.got.cif
#   From: 2010.06.25/outbox.cif.g09.slc.cpg/sg12_187_cif.got.tgz:372947.got - 2010.06.28 00:19:55.
