data_PCOD8114260
_publ_section_title
;
Structure prediction by ZEFSAII (Michael W. Deem and Ramdas Pophale) SiO2 
 PCOD8114260
Probable space group: C 2/M
;
_chemical_formula_sum "Si O2"
_cell_formula_units_Z 40
_cell_length_a 22.206428
_cell_length_b 16.722887
_cell_length_c 14.141913
_cell_angle_alpha 90.000000
_cell_angle_beta 161.813085
_cell_angle_gamma 90.000000
_cell_volume 1639.143142
_symmetry_space_group_name_H-M "C 2/M"
_symmetry_group_IT_number 12
_symmetry_cell_setting 'monoclinic'
loop_
_space_group_symop_operation_xyz
x,y,z
-x,y,-z
-x,-y,-z
x,-y,z
1/2+x,1/2+y,z
1/2-x,1/2+y,-z
1/2-x,1/2-y,-z
1/2+x,1/2-y,z
loop_
_atom_site_type_symbol
_atom_site_label
_atom_site_fract_x
_atom_site_fract_y
_atom_site_fract_z
Si Si1 0.278454 0.594213 0.085353
Si Si2 0.688837 0.159090 0.409428
Si Si3 0.210339 0.688420 0.156918
Si Si4 0.550787 0.342678 0.842814
Si Si5 0.359658 0.157002 0.452788
O O1 0.284572 0.500000 0.101786
O O2 0.069860 0.624928 0.739746
O O3 0.327790 0.628071 0.264307
O O4 0.432972 0.625107 0.239632
O O5 0.750000 0.250000 0.500000
O O6 0.710406 0.125890 0.549280
O O7 0.843935 0.120543 0.568746
O O8 0.462823 0.146259 0.040600
O O9 0.348085 0.743319 0.428216
O O10 0.081026 0.745468 0.892388
O O11 0.714829 0.378718 0.157699
#
# Coordination Sequence:
#
# PCOD8114260 Si02
#       5
#     8   8   8   8   8
#     4  11  21  36  54  85 122 154 186 232 284 340
#     4   9  16  31  53  82 106 144 192 247 277 329
#     4   8  19  34  54  78 108 150 191 233 281 338
#     4   9  18  31  53  80 114 146 188 234 287 332
#     4   9  19  32  53  82 113 145 192 234 285 336
#
# _framework density 24.402992999999999
#
# number of rings (size 3 to 8) (size 9 to 14) (size 15 to 20)
#    1.200    1.600    0.000    1.800    0.000    1.600 
#    0.000    4.000    0.000    6.000    0.000   75.600 
#    0.000    0.000    0.000    0.000    0.000    0.000 
#
# Total GULP energy -247782.926838 kJ/mol
# GULP energy per Si atom -12389.146342 kJ/mol
# Density = 2.434745 g / cm^3
# Si number density = 24.402993 Si / 1000 Ang^3
#
#
#
# Elastic Constant Matrix: (Units=GPa)
#
#
# Indices 1 2 3 4 5 6 
#
# 1 135.9536 31.9801 44.8089 0.0000 50.3918 0.0000
# 2 31.9801 72.7723 7.6679 0.0000 14.7540 0.0000
# 3 44.8089 7.6679 47.9031 0.0000 23.6280 0.0000
# 4 0.0000 0.0000 0.0000 8.2008 0.0000 -7.7383
# 5 50.3918 14.7540 23.6280 0.0000 46.9122 0.0000
# 6 0.0000 0.0000 0.0000 -7.7383 0.0000 6.1115
#
#
#
# Elastic Compliance Matrix: (Units=1/GPa)
#
#
# Indices 1 2 3 4 5 6 
#
# 1 0.014797 -0.003476 -0.007962 0.000000 -0.010791 0.000000
# 2 -0.003476 0.015494 0.001774 0.000000 -0.002033 0.000000
# 3 -0.007962 0.001774 0.032061 0.000000 -0.008153 0.000000
# 4 0.000000 0.000000 0.000000 -0.625991 0.000000 -0.792628
# 5 -0.010791 -0.002033 -0.008153 0.000000 0.037654 0.000000
# 6 0.000000 0.000000 0.000000 -0.792628 0.000000 -0.839996
#
#
# Mechanical properties :
#
#
# Convention : Reuss Voigt Hill
#
# Bulk Modulus (GPa) = 23.24305 47.28254 35.26280
# Shear Modulus (GPa) = -3.75288 23.72302 9.98507
#
# Velocity S-wave (km/s) = -1.24146 3.12129 2.02500
# Velocity P-wave (km/s) = 2.73686 5.69278 4.46644
#
# Compressibility (1/GPa) = 0.04302361
#
# Stress axis : x y z
#
# Youngs Moduli (GPa) = 67.58039 64.54028 31.19058
#
# Poissons Ratio (x) = 0.22433 0.24835
# Poissons Ratio (y) = 0.23490 -0.05533
# Poissons Ratio (z) = 0.53809 -0.11448
#
# Static dielectric constant tensor:
#      x y z
#    x 4.565010 0.000000 0.460310 
#    y 0.000000 3.593910 0.000000 
#    z 0.460310 0.000000 6.139680 
# 
# 
# High freq. dielectric constant tensor:
#      x y z
#    x 1.986800 0.000000 -0.002480 
#    y 0.000000 1.881500 0.000000 
#    z -0.002480 0.000000 2.006610 
# 
# From -- ./inp_files/235230.got.cif
#   From: 2010.06.25/outbox.cif.g09.slc.cpg/sg12_118_cif.got.tgz:235230.got - 2010.06.28 00:19:55.
