data_PCOD8114621
_publ_section_title
;
Structure prediction by ZEFSAII (Michael W. Deem and Ramdas Pophale) SiO2 
 PCOD8114621
Probable space group: C 2/M
;
_chemical_formula_sum "Si O2"
_cell_formula_units_Z 48
_cell_length_a 20.355844
_cell_length_b 9.085944
_cell_length_c 16.786655
_cell_angle_alpha 90.000000
_cell_angle_beta 116.483535
_cell_angle_gamma 90.000000
_cell_volume 2778.924322
_symmetry_space_group_name_H-M "C 2/M"
_symmetry_group_IT_number 12
_symmetry_cell_setting 'monoclinic'
loop_
_space_group_symop_operation_xyz
x,y,z
-x,y,-z
-x,-y,-z
x,-y,z
1/2+x,1/2+y,z
1/2-x,1/2+y,-z
1/2-x,1/2-y,-z
1/2+x,1/2-y,z
loop_
_atom_site_type_symbol
_atom_site_label
_atom_site_fract_x
_atom_site_fract_y
_atom_site_fract_z
Si Si1 0.432208 0.667894 0.279807
Si Si2 0.801463 0.824975 0.463834
Si Si3 0.716834 0.331881 0.103271
Si Si4 0.344745 0.668109 0.087508
Si Si5 0.543944 0.828610 0.443267
Si Si6 0.276468 0.670320 0.272827
O O1 0.454038 0.500000 0.312989
O O2 0.420976 0.687258 0.177755
O O3 0.495394 0.778115 0.341883
O O4 0.356768 0.711623 0.283295
O O5 0.750000 0.750000 0.500000
O O6 0.883272 0.766993 0.518057
O O7 0.770571 0.777469 0.360742
O O8 0.801623 0.000000 0.474636
O O9 0.724141 0.500000 0.131763
O O10 0.787931 0.284234 0.092070
O O11 0.712620 0.245358 0.184673
O O12 0.647783 0.305911 0.004583
O O13 0.316058 0.500000 0.086846
O O14 0.500000 0.795149 0.500000
O O15 0.563390 0.000000 0.444861
O O16 0.261423 0.500000 0.257554
#
# Coordination Sequence:
#
# PCOD8114621 Si02
#       6
#     8   8   8   8   8   8
#     4   9  16  29  48  69  97 133 170 202 246 302
#     4  11  23  39  56  74 101 136 173 213 257 305
#     4   9  15  23  40  64  93 127 163 202 243 291
#     4   8  15  26  38  61  96 130 161 198 246 296
#     4  11  22  34  51  77 105 132 170 215 254 299
#     4   9  18  31  47  68  97 132 166 202 250 303
#
# _framework density 17.272870999999999
#
# number of rings (size 3 to 8) (size 9 to 14) (size 15 to 20)
#    0.000    2.500    1.667    2.500    0.000    5.333 
#    0.000    0.000    0.000    0.000    0.000    1.167 
#    0.000    9.333    0.000    0.000    0.000    0.000 
#
# Total GULP energy -297386.453649 kJ/mol
# GULP energy per Si atom -12391.102235 kJ/mol
# Density = 1.723356 g / cm^3
# Si number density = 17.272871 Si / 1000 Ang^3
#
#
#
# Elastic Constant Matrix: (Units=GPa)
#
#
# Indices 1 2 3 4 5 6 
#
# 1 47.1671 28.2849 45.7074 0.0000 -2.6756 0.0000
# 2 28.2849 62.9483 64.1395 0.0000 3.0085 0.0000
# 3 45.7074 64.1395 187.2258 0.0000 3.7968 0.0000
# 4 0.0000 0.0000 0.0000 32.7214 0.0000 1.9422
# 5 -2.6756 3.0085 3.7968 0.0000 13.5172 0.0000
# 6 0.0000 0.0000 0.0000 1.9422 0.0000 21.1585
#
#
#
# Elastic Compliance Matrix: (Units=1/GPa)
#
#
# Indices 1 2 3 4 5 6 
#
# 1 0.032423 -0.010408 -0.004553 0.000000 0.010013 0.000000
# 2 -0.010408 0.027876 -0.006880 0.000000 -0.006332 0.000000
# 3 -0.004553 -0.006880 0.008847 0.000000 -0.001855 0.000000
# 4 0.000000 0.000000 0.000000 0.030728 0.000000 -0.002821
# 5 0.010013 -0.006332 -0.001855 0.000000 0.077892 0.000000
# 6 0.000000 0.000000 0.000000 -0.002821 0.000000 0.047521
#
#
# Mechanical properties :
#
#
# Convention : Reuss Voigt Hill
#
# Bulk Modulus (GPa) = 39.27238 63.73387 51.50313
# Shear Modulus (GPa) = 18.02070 24.09337 21.05703
#
# Velocity S-wave (km/s) = 3.23351 3.73884 3.49532
# Velocity P-wave (km/s) = 6.06025 7.45768 6.79498
#
# Compressibility (1/GPa) = 0.02546319
#
# Stress axis : x y z
#
# Youngs Moduli (GPa) = 30.84259 35.87306 113.02922
#
# Poissons Ratio (x) = 0.37338 0.51459
# Poissons Ratio (y) = 0.32102 0.77768
# Poissons Ratio (z) = 0.14042 0.24682
#
# Static dielectric constant tensor:
#      x y z
#    x 2.551410 0.000000 0.093250 
#    y 0.000000 3.282610 0.000000 
#    z 0.093250 0.000000 3.884380 
# 
# 
# High freq. dielectric constant tensor:
#      x y z
#    x 1.589080 0.000000 0.009780 
#    y 0.000000 1.675850 0.000000 
#    z 0.009780 0.000000 1.697320 
# 
# From -- ./inp_files/230366.got.cif
#   From: 2010.06.25/outbox.cif.g09.slc.cpg/sg12_116_cif.got.tgz:230366.got - 2010.06.28 00:19:55.
