data_PCOD8114319
_publ_section_title
;
Structure prediction by ZEFSAII (Michael W. Deem and Ramdas Pophale) SiO2 
 PCOD8114319
Probable space group: C 2/M
;
_chemical_formula_sum "Si O2"
_cell_formula_units_Z 60
_cell_length_a 31.852131
_cell_length_b 16.408319
_cell_length_c 19.203756
_cell_angle_alpha 90.000000
_cell_angle_beta 162.489268
_cell_angle_gamma 90.000000
_cell_volume 3019.871638
_symmetry_space_group_name_H-M "C 2/M"
_symmetry_group_IT_number 12
_symmetry_cell_setting 'monoclinic'
loop_
_space_group_symop_operation_xyz
x,y,z
-x,y,-z
-x,-y,-z
x,-y,z
1/2+x,1/2+y,z
1/2-x,1/2+y,-z
1/2-x,1/2-y,-z
1/2+x,1/2-y,z
loop_
_atom_site_type_symbol
_atom_site_label
_atom_site_fract_x
_atom_site_fract_y
_atom_site_fract_z
Si Si1 0.319452 0.094706 0.470118
Si Si2 0.724760 0.155504 0.945297
Si Si3 0.868009 0.841943 0.945133
Si Si4 0.970471 0.905591 0.253035
Si Si5 0.377866 0.905611 0.074152
Si Si6 0.500000 0.787192 0.500000
Si Si7 0.404215 0.590314 0.782730
Si Si8 0.825815 0.807055 0.337672
O O1 0.237356 0.103791 0.267214
O O2 0.472745 0.136441 0.708717
O O3 0.238145 0.129522 0.410033
O O4 0.335812 0.000000 0.509503
O O5 0.648615 0.112237 0.887744
O O6 0.622711 0.152787 0.717694
O O7 0.750000 0.250000 0.000000
O O8 0.864091 0.105267 0.149016
O O9 0.798507 0.752874 0.835099
O O10 0.888819 0.874762 0.055843
O O11 0.022946 0.846175 0.155306
O O12 0.104693 0.849259 0.484219
O O13 0.015039 0.000000 0.316083
O O14 0.391770 0.000000 0.082906
O O15 0.248601 0.875982 0.824788
O O16 0.554807 0.733456 0.521583
O O17 0.381312 0.500000 0.711187
O O18 0.500000 0.574853 0.000000
#
# Coordination Sequence:
#
# PCOD8114319 Si02
#       8
#     8   8   8   8   8   4   8   8
#     4   9  19  36  64  93 119 152 198 255 310 362
#     4  12  22  39  59  86 116 158 199 251 304 351
#     4  11  21  36  64  90 120 154 202 251 304 359
#     4  12  25  40  60  91 125 163 207 248 298 365
#     4  11  23  40  60  85 118 160 208 249 294 359
#     4  12  22  38  58  82 118 156 196 240 310 352
#     4   8  15  33  60  91 120 151 193 248 310 366
#     4  12  24  39  61  83 123 168 204 244 299 361
#
# _framework density 19.868393999999999
#
# number of rings (size 3 to 8) (size 9 to 14) (size 15 to 20)
#    0.000    1.200    4.000    3.600    1.867    0.000 
#    0.000    3.333    2.933    0.000    0.000    3.733 
#    0.000    0.000    0.000    0.000    0.000    0.000 
#
# Total GULP energy -371764.001016 kJ/mol
# GULP energy per Si atom -12392.133367 kJ/mol
# Density = 1.982317 g / cm^3
# Si number density = 19.868394 Si / 1000 Ang^3
#
#
#
# Elastic Constant Matrix: (Units=GPa)
#
#
# Indices 1 2 3 4 5 6 
#
# 1 91.3075 33.7954 39.4474 0.0000 21.8086 0.0000
# 2 33.7954 77.7492 29.0132 0.0000 2.2886 0.0000
# 3 39.4474 29.0132 94.3937 0.0000 0.5677 0.0000
# 4 0.0000 0.0000 0.0000 23.9218 0.0000 -0.0211
# 5 21.8086 2.2886 0.5677 0.0000 30.6065 0.0000
# 6 0.0000 0.0000 0.0000 -0.0211 0.0000 19.8572
#
#
#
# Elastic Compliance Matrix: (Units=1/GPa)
#
#
# Indices 1 2 3 4 5 6 
#
# 1 0.018626 -0.005473 -0.006025 0.000000 -0.012751 0.000000
# 2 -0.005473 0.016167 -0.002699 0.000000 0.002741 0.000000
# 3 -0.006025 -0.002699 0.013916 0.000000 0.004237 0.000000
# 4 0.000000 0.000000 0.000000 0.041803 0.000000 0.000044
# 5 -0.012751 0.002741 0.004237 0.000000 0.041475 0.000000
# 6 0.000000 0.000000 0.000000 0.000044 0.000000 0.050360
#
#
# Mechanical properties :
#
#
# Convention : Reuss Voigt Hill
#
# Bulk Modulus (GPa) = 49.22161 51.99582 50.60871
# Shear Modulus (GPa) = 22.98729 25.62338 24.30534
#
# Velocity S-wave (km/s) = 3.40513 3.59507 3.50139
# Velocity P-wave (km/s) = 6.34724 6.59239 6.47098
#
# Compressibility (1/GPa) = 0.02031628
#
# Stress axis : x y z
#
# Youngs Moduli (GPa) = 53.68788 61.85436 71.86049
#
# Poissons Ratio (x) = 0.33850 0.43297
# Poissons Ratio (y) = 0.29381 0.19393
# Poissons Ratio (z) = 0.32348 0.16692
#
# Static dielectric constant tensor:
#      x y z
#    x 3.961100 0.000000 0.332200 
#    y 0.000000 3.422520 0.000000 
#    z 0.332200 0.000000 4.015460 
# 
# 
# High freq. dielectric constant tensor:
#      x y z
#    x 1.769540 0.000000 0.010990 
#    y 0.000000 1.754070 0.000000 
#    z 0.010990 0.000000 1.780060 
# 
# From -- ./inp_files/297005.got.cif
#   From: 2010.06.25/outbox.cif.g09.slc.cpg/sg12_149_cif.got.tgz:297005.got - 2010.06.28 00:19:55.
