data_PCOD8114678
_publ_section_title
;
Structure prediction by ZEFSAII (Michael W. Deem and Ramdas Pophale) SiO2 
 PCOD8114678
Probable space group: C 2/M
;
_chemical_formula_sum "Si O2"
_cell_formula_units_Z 48
_cell_length_a 20.363914
_cell_length_b 8.743807
_cell_length_c 21.351632
_cell_angle_alpha 90.000000
_cell_angle_beta 44.351829
_cell_angle_gamma 90.000000
_cell_volume 2657.717647
_symmetry_space_group_name_H-M "C 2/M"
_symmetry_group_IT_number 12
_symmetry_cell_setting 'monoclinic'
loop_
_space_group_symop_operation_xyz
x,y,z
-x,y,-z
-x,-y,-z
x,-y,z
1/2+x,1/2+y,z
1/2-x,1/2+y,-z
1/2-x,1/2-y,-z
1/2+x,1/2-y,z
loop_
_atom_site_type_symbol
_atom_site_label
_atom_site_fract_x
_atom_site_fract_y
_atom_site_fract_z
Si Si1 0.246945 0.680937 0.933602
Si Si2 0.253547 0.820256 0.733294
Si Si3 0.606822 0.318833 0.934533
Si Si4 0.392942 0.180488 0.397840
Si Si5 0.744775 0.318659 0.600421
Si Si6 0.393466 0.819212 0.742271
O O1 0.244345 0.500000 0.939404
O O2 0.152994 0.739240 0.963146
O O3 0.340761 0.733666 0.834042
O O4 0.250000 0.750000 0.000000
O O5 0.161899 0.766321 0.834381
O O6 0.254985 0.746636 0.663041
O O7 0.346942 0.772639 0.707619
O O8 0.250349 0.000000 0.726838
O O9 0.614388 0.500000 0.939401
O O10 0.500000 0.263831 0.000000
O O11 0.351102 0.255787 0.363961
O O12 0.334222 0.235666 0.498559
O O13 0.499433 0.236454 0.333135
O O14 0.387344 0.000000 0.394078
O O15 0.738696 0.500000 0.606379
O O16 0.383893 0.000000 0.760458
#
# Coordination Sequence:
#
# PCOD8114678 Si02
#       6
#     8   8   8   8   8   8
#     4  11  22  36  54  76 103 134 169 208 252 302
#     4   8  15  29  49  71  95 126 164 204 242 286
#     4   9  18  34  54  76 104 135 168 208 253 301
#     4   9  18  31  48  71  99 130 164 207 252 293
#     4   9  17  30  48  71  99 131 167 204 247 300
#     4   9  18  34  52  71  97 128 166 210 254 297
#
# _framework density 18.060608999999999
#
# number of rings (size 3 to 8) (size 9 to 14) (size 15 to 20)
#    0.000    2.833    0.000    2.500    0.000    3.000 
#    0.000    8.333    0.000    0.000    0.000    9.333 
#    0.000    0.000    0.000    0.000    0.000    0.000 
#
# Total GULP energy -297561.811430 kJ/mol
# GULP energy per Si atom -12398.408810 kJ/mol
# Density = 1.801950 g / cm^3
# Si number density = 18.060609 Si / 1000 Ang^3
#
#
#
# Elastic Constant Matrix: (Units=GPa)
#
#
# Indices 1 2 3 4 5 6 
#
# 1 180.2278 40.3650 118.8756 0.0000 1.1436 0.0001
# 2 40.3650 45.9679 31.7041 0.0000 0.9534 0.0004
# 3 118.8756 31.7041 114.5829 0.0001 0.5110 -0.0001
# 4 0.0000 0.0000 0.0001 20.7198 0.0000 -0.1498
# 5 1.1436 0.9534 0.5110 0.0000 46.7352 0.0000
# 6 0.0001 0.0004 -0.0001 -0.1498 0.0000 29.0361
#
#
#
# Elastic Compliance Matrix: (Units=1/GPa)
#
#
# Indices 1 2 3 4 5 6 
#
# 1 0.018053 -0.003623 -0.017726 0.000000 -0.000174 0.000000
# 2 -0.003623 0.027622 -0.003882 0.000000 -0.000432 0.000000
# 3 -0.017726 -0.003882 0.028190 0.000000 0.000205 0.000000
# 4 0.000000 0.000000 0.000000 0.048265 0.000000 0.000249
# 5 -0.000174 -0.000432 0.000205 0.000000 0.021408 0.000000
# 6 0.000000 0.000000 0.000000 0.000249 0.000000 0.034441
#
#
# Mechanical properties :
#
#
# Convention : Reuss Voigt Hill
#
# Bulk Modulus (GPa) = 42.72869 80.29643 61.51256
# Shear Modulus (GPa) = 21.16468 29.28714 25.22591
#
# Velocity S-wave (km/s) = 3.42697 4.03128 3.74135
# Velocity P-wave (km/s) = 6.27445 8.13783 7.26612
#
# Compressibility (1/GPa) = 0.02340348
#
# Stress axis : x y z
#
# Youngs Moduli (GPa) = 55.39302 36.20265 35.47314
#
# Poissons Ratio (x) = 0.13117 0.62879
# Poissons Ratio (y) = 0.20071 0.13770
# Poissons Ratio (z) = 0.98189 0.14053
#
# Static dielectric constant tensor:
#      x y z
#    x 3.559030 0.000000 0.056000 
#    y 0.000000 3.076450 0.000000 
#    z 0.056000 0.000000 3.280660 
# 
# 
# High freq. dielectric constant tensor:
#      x y z
#    x 1.707540 0.000000 0.001240 
#    y 0.000000 1.674680 0.000000 
#    z 0.001240 0.000000 1.701280 
# 
# From -- ./inp_files/313617.got.cif
#   From: 2010.06.25/outbox.cif.g09.slc.cpg/sg12_157_cif.got.tgz:313617.got - 2010.06.28 00:19:55.
