data_PCOD8114710
_publ_section_title
;
Structure prediction by ZEFSAII (Michael W. Deem and Ramdas Pophale) SiO2 
 PCOD8114710
Probable space group: C 2/M
;
_chemical_formula_sum "Si O2"
_cell_formula_units_Z 40
_cell_length_a 14.595631
_cell_length_b 25.577657
_cell_length_c 8.716955
_cell_angle_alpha 90.000000
_cell_angle_beta 31.547040
_cell_angle_gamma 90.000000
_cell_volume 1702.608717
_symmetry_space_group_name_H-M "C 2/M"
_symmetry_group_IT_number 12
_symmetry_cell_setting 'monoclinic'
loop_
_space_group_symop_operation_xyz
x,y,z
-x,y,-z
-x,-y,-z
x,-y,z
1/2+x,1/2+y,z
1/2-x,1/2+y,-z
1/2-x,1/2-y,-z
1/2+x,1/2-y,z
loop_
_atom_site_type_symbol
_atom_site_label
_atom_site_fract_x
_atom_site_fract_y
_atom_site_fract_z
Si Si1 0.514952 0.605446 0.809248
Si Si2 0.172980 0.606885 0.851101
Si Si3 0.235651 0.780054 0.180812
Si Si4 0.067453 0.226018 0.716134
Si Si5 0.670988 0.940135 0.165851
O O1 0.676607 0.583985 0.476593
O O2 0.554788 0.666039 0.779472
O O3 0.500000 0.578966 0.000000
O O4 0.334633 0.595823 0.978131
O O5 0.234892 0.657617 0.861172
O O6 0.134953 0.563694 0.035043
O O7 0.000000 0.618869 0.000000
O O8 0.062801 0.769514 0.532919
O O9 0.250000 0.750000 0.000000
O O10 0.406232 0.755845 0.025184
O O11 0.250000 0.250000 0.500000
O O12 0.500000 0.919821 0.500000
O O13 0.712001 0.000000 0.150605
#
# Coordination Sequence:
#
# PCOD8114710 Si02
#       5
#     8   8   8   8   8
#     4  11  23  42  69 100 136 181 227 282 346 410
#     4  11  24  42  66  99 135 177 229 282 341 410
#     4  11  22  36  57  88 126 167 212 263 319 386
#     4  11  22  38  59  90 129 170 214 259 318 391
#     4  11  26  47  70  98 132 174 229 291 354 416
#
# _framework density 23.493359999999999
#
# number of rings (size 3 to 8) (size 9 to 14) (size 15 to 20)
#    0.000    1.000    0.000    7.800    0.000    8.800 
#    0.000    0.000    0.000    0.000    0.000    0.000 
#    0.000    0.000    0.000    0.000    0.000    0.000 
#
# Total GULP energy -247862.659946 kJ/mol
# GULP energy per Si atom -12393.132997 kJ/mol
# Density = 2.343989 g / cm^3
# Si number density = 23.493360 Si / 1000 Ang^3
#
#
#
# Elastic Constant Matrix: (Units=GPa)
#
#
# Indices 1 2 3 4 5 6 
#
# 1 111.2704 20.2178 59.6311 -0.0004 25.0344 -0.0001
# 2 20.2178 57.0187 27.6290 0.0002 -7.7463 0.0000
# 3 59.6311 27.6290 215.0368 -0.0007 24.4586 -0.0002
# 4 -0.0004 0.0002 -0.0007 17.3680 0.0003 -11.8524
# 5 25.0344 -7.7463 24.4586 0.0003 50.5157 0.0001
# 6 -0.0001 0.0000 -0.0002 -11.8524 0.0001 15.6007
#
#
#
# Elastic Compliance Matrix: (Units=1/GPa)
#
#
# Indices 1 2 3 4 5 6 
#
# 1 0.012155 -0.003986 -0.002226 0.000001 -0.005557 0.000001
# 2 -0.003986 0.020921 -0.002299 -0.000001 0.006296 -0.000001
# 3 -0.002226 -0.002299 0.005797 0.000001 -0.002056 0.000001
# 4 0.000001 -0.000001 0.000001 0.119569 -0.000002 0.090840
# 5 -0.005557 0.006296 -0.002056 -0.000002 0.024511 -0.000002
# 6 0.000001 -0.000001 0.000001 0.090840 -0.000002 0.133114
#
#
# Mechanical properties :
#
#
# Convention : Reuss Voigt Hill
#
# Bulk Modulus (GPa) = 45.76641 66.47576 56.12108
# Shear Modulus (GPa) = 14.68982 35.08675 24.88828
#
# Velocity S-wave (km/s) = 2.50326 3.86874 3.25834
# Velocity P-wave (km/s) = 5.27996 6.95077 6.17216
#
# Compressibility (1/GPa) = 0.02185009
#
# Stress axis : x y z
#
# Youngs Moduli (GPa) = 82.27245 47.79930 172.50374
#
# Poissons Ratio (x) = 0.19053 0.38406
# Poissons Ratio (y) = 0.32793 0.39656
# Poissons Ratio (z) = 0.18317 0.10988
#
# Static dielectric constant tensor:
#      x y z
#    x 4.658670 0.000000 0.210380 
#    y 0.000000 3.480120 0.000000 
#    z 0.210380 0.000000 5.039770 
# 
# 
# High freq. dielectric constant tensor:
#      x y z
#    x 1.957790 0.000000 0.009930 
#    y 0.000000 1.894670 0.000000 
#    z 0.009930 0.000000 1.967270 
# 
# From -- ./inp_files/68455.got.cif
#   From: 2010.06.25/outbox.cif.g09.slc.cpg/sg12_35_cif.got.tgz:68455.got - 2010.06.28 00:19:55.
