data_PCOD8114791
_publ_section_title
;
Structure prediction by ZEFSAII (Michael W. Deem and Ramdas Pophale) SiO2 
 PCOD8114791
Probable space group: C 2/M
;
_chemical_formula_sum "Si O2"
_cell_formula_units_Z 64
_cell_length_a 32.605128
_cell_length_b 17.648051
_cell_length_c 12.488726
_cell_angle_alpha 90.000000
_cell_angle_beta 24.739336
_cell_angle_gamma 90.000000
_cell_volume 3007.368271
_symmetry_space_group_name_H-M "C 2/M"
_symmetry_group_IT_number 12
_symmetry_cell_setting 'monoclinic'
loop_
_space_group_symop_operation_xyz
x,y,z
-x,y,-z
-x,-y,-z
x,-y,z
1/2+x,1/2+y,z
1/2-x,1/2+y,-z
1/2-x,1/2-y,-z
1/2+x,1/2-y,z
loop_
_atom_site_type_symbol
_atom_site_label
_atom_site_fract_x
_atom_site_fract_y
_atom_site_fract_z
Si Si1 0.387398 0.587787 0.586707
Si Si2 0.388584 0.414015 0.244490
Si Si3 0.270769 0.667323 0.701154
Si Si4 0.313224 0.589215 0.991603
Si Si5 0.411893 0.645795 0.969207
Si Si6 0.860418 0.669352 0.526981
Si Si7 0.412694 0.182757 0.988058
Si Si8 0.614171 0.084902 0.747169
O O1 0.412278 0.500000 0.519462
O O2 0.289475 0.607561 0.752391
O O3 0.473794 0.632665 0.323989
O O4 0.375067 0.611077 0.739708
O O5 0.370917 0.500000 0.324726
O O6 0.320111 0.358186 0.473207
O O7 0.500000 0.388419 0.000000
O O8 0.367479 0.408215 0.166929
O O9 0.317356 0.746647 0.627017
O O10 0.152936 0.669134 0.962949
O O11 0.316815 0.500000 0.003619
O O12 0.201770 0.618534 0.241426
O O13 0.356661 0.634114 0.989036
O O14 0.400486 0.729304 0.045591
O O15 0.840943 0.631883 0.457193
O O16 0.972569 0.664487 0.301231
O O17 0.365665 0.131236 0.192508
O O18 0.660444 0.000000 0.645843
O O19 0.500000 0.076945 0.000000
#
# Coordination Sequence:
#
# PCOD8114791 Si02
#       8
#     8   8   8   8   8   8   8   8
#     4  11  24  45  68  94 132 172 217 277 334 384
#     4  11  22  37  63  97 135 172 209 262 325 395
#     4  12  24  41  64  97 135 174 212 262 334 399
#     4  11  25  43  68  97 126 171 229 278 320 380
#     4  12  22  42  67 100 134 171 216 271 331 392
#     4  11  22  43  65  91 131 174 222 269 316 384
#     4  11  24  41  63 100 132 174 214 263 331 394
#     4   9  20  38  62  90 131 178 215 258 313 380
#
# _framework density 21.281065999999999
#
# number of rings (size 3 to 8) (size 9 to 14) (size 15 to 20)
#    0.000    1.000    3.750    3.000    1.750    5.000 
#    0.000    0.625    0.000    1.500    0.000    0.000 
#    0.000    0.000    0.000    0.000    0.000    0.000 
#
# Total GULP energy -396794.327588 kJ/mol
# GULP energy per Si atom -12399.822737 kJ/mol
# Density = 2.123263 g / cm^3
# Si number density = 21.281066 Si / 1000 Ang^3
#
#
#
# Elastic Constant Matrix: (Units=GPa)
#
#
# Indices 1 2 3 4 5 6 
#
# 1 103.9363 25.1669 30.4041 0.0000 -5.5623 0.0000
# 2 25.1669 79.6270 28.2095 0.0000 6.2426 0.0000
# 3 30.4041 28.2095 46.0589 0.0000 -3.1728 0.0000
# 4 0.0000 0.0000 0.0000 27.5270 0.0000 1.5861
# 5 -5.5623 6.2426 -3.1728 0.0000 39.1619 0.0000
# 6 0.0000 0.0000 0.0000 1.5861 0.0000 28.8732
#
#
#
# Elastic Compliance Matrix: (Units=1/GPa)
#
#
# Indices 1 2 3 4 5 6 
#
# 1 0.012094 -0.001451 -0.007000 0.000000 0.001382 0.000000
# 2 -0.001451 0.016668 -0.009501 0.000000 -0.003633 0.000000
# 3 -0.007000 -0.009501 0.032367 0.000000 0.003143 0.000000
# 4 0.000000 0.000000 0.000000 0.036443 0.000000 -0.002002
# 5 0.001382 -0.003633 0.003143 0.000000 0.026565 0.000000
# 6 0.000000 0.000000 0.000000 -0.002002 0.000000 0.034744
#
#
# Mechanical properties :
#
#
# Convention : Reuss Voigt Hill
#
# Bulk Modulus (GPa) = 39.64124 44.13148 41.88636
# Shear Modulus (GPa) = 24.60707 28.83520 26.72113
#
# Velocity S-wave (km/s) = 3.40411 3.68498 3.54733
# Velocity P-wave (km/s) = 5.84111 6.23602 6.04179
#
# Compressibility (1/GPa) = 0.02522625
#
# Stress axis : x y z
#
# Youngs Moduli (GPa) = 82.68460 59.99566 30.89537
#
# Poissons Ratio (x) = 0.08706 0.21625
# Poissons Ratio (y) = 0.11998 0.29353
# Poissons Ratio (z) = 0.57876 0.57001
#
# Static dielectric constant tensor:
#      x y z
#    x 3.878620 0.000000 -0.153340 
#    y 0.000000 3.906680 0.000000 
#    z -0.153340 0.000000 3.930470 
# 
# 
# High freq. dielectric constant tensor:
#      x y z
#    x 1.830120 0.000000 -0.013630 
#    y 0.000000 1.842640 0.000000 
#    z -0.013630 0.000000 1.830160 
# 
# From -- ./inp_files/190052.got.cif
#   From: 2010.06.25/outbox.cif.g09.slc.cpg/sg12_96_cif.got.tgz:190052.got - 2010.06.28 00:19:55.
