data_PCOD8114807
_publ_section_title
;
Structure prediction by ZEFSAII (Michael W. Deem and Ramdas Pophale) SiO2 
 PCOD8114807
Probable space group: C 2/M
;
_chemical_formula_sum "Si O2"
_cell_formula_units_Z 64
_cell_length_a 29.977861
_cell_length_b 18.489926
_cell_length_c 8.637961
_cell_angle_alpha 90.000000
_cell_angle_beta 141.445798
_cell_angle_gamma 90.000000
_cell_volume 2984.094837
_symmetry_space_group_name_H-M "C 2/M"
_symmetry_group_IT_number 12
_symmetry_cell_setting 'monoclinic'
loop_
_space_group_symop_operation_xyz
x,y,z
-x,y,-z
-x,-y,-z
x,-y,z
1/2+x,1/2+y,z
1/2-x,1/2+y,-z
1/2-x,1/2-y,-z
1/2+x,1/2-y,z
loop_
_atom_site_type_symbol
_atom_site_label
_atom_site_fract_x
_atom_site_fract_y
_atom_site_fract_z
Si Si1 0.826072 0.414023 0.886698
Si Si2 0.933709 0.285959 0.710508
Si Si3 0.704367 0.808216 0.471075
Si Si4 0.454206 0.631222 0.735954
Si Si5 0.079431 0.682886 0.659270
Si Si6 0.809564 0.918349 0.279758
Si Si7 0.055377 0.080269 0.773539
Si Si8 0.170460 0.823746 0.968624
O O1 0.832282 0.500000 0.876553
O O2 0.816874 0.376217 0.694485
O O3 0.756756 0.392431 0.799452
O O4 0.895167 0.386352 0.169939
O O5 0.868085 0.277291 0.651701
O O6 0.939190 0.210937 0.624164
O O7 0.921823 0.338963 0.528937
O O8 0.000000 0.310033 0.000000
O O9 0.750000 0.750000 0.500000
O O10 0.750871 0.828281 0.746845
O O11 0.381768 0.587550 0.579362
O O12 0.508870 0.577436 0.801113
O O13 0.500000 0.660067 0.000000
O O14 0.139148 0.743822 0.860847
O O15 0.000000 0.705250 0.500000
O O16 0.825874 0.866478 0.181296
O O17 0.798072 0.000000 0.190066
O O18 0.121882 0.133824 0.961711
O O19 0.000000 0.112518 0.500000
O O20 0.082225 0.000000 0.802638
#
# Coordination Sequence:
#
# PCOD8114807 Si02
#       8
#     8   8   8   8   8   8   8   8
#     4  11  27  48  71 100 137 178 228 286 354 420
#     4  11  24  42  70 102 134 174 230 293 342 402
#     4  12  26  43  70 102 138 177 229 282 348 408
#     4  11  23  36  60  89 135 179 226 268 324 395
#     4  12  24  45  74 101 134 180 236 291 350 403
#     4  11  23  42  63  94 137 183 225 273 337 415
#     4  11  22  38  58  92 136 182 221 265 325 400
#     4  12  24  39  68  98 138 179 230 280 331 404
#
# _framework density 21.447040000000001
#
# number of rings (size 3 to 8) (size 9 to 14) (size 15 to 20)
#    0.000    0.625    3.750    4.125    5.250    3.250 
#    0.000    0.625    0.000    1.500    0.000    0.000 
#    0.000    0.000    0.000    0.000    0.000    0.000 
#
# Total GULP energy -396520.091741 kJ/mol
# GULP energy per Si atom -12391.252867 kJ/mol
# Density = 2.139823 g / cm^3
# Si number density = 21.447040 Si / 1000 Ang^3
#
#
#
# Elastic Constant Matrix: (Units=GPa)
#
#
# Indices 1 2 3 4 5 6 
#
# 1 107.5434 28.0036 34.3376 0.0000 11.4432 0.0000
# 2 28.0036 85.5840 34.0642 0.0000 -6.0374 0.0000
# 3 34.3376 34.0642 130.5552 0.0000 5.3888 0.0000
# 4 0.0000 0.0000 0.0000 27.4617 0.0000 0.8771
# 5 11.4432 -6.0374 5.3888 0.0000 30.4443 0.0000
# 6 0.0000 0.0000 0.0000 0.8771 0.0000 29.2270
#
#
#
# Elastic Compliance Matrix: (Units=1/GPa)
#
#
# Indices 1 2 3 4 5 6 
#
# 1 0.011235 -0.003229 -0.001926 0.000000 -0.004523 0.000000
# 2 -0.003229 0.014286 -0.003068 0.000000 0.004590 0.000000
# 3 -0.001926 -0.003068 0.009028 0.000000 -0.001482 0.000000
# 4 0.000000 0.000000 0.000000 0.036449 0.000000 -0.001094
# 5 -0.004523 0.004590 -0.001482 0.000000 0.035719 0.000000
# 6 0.000000 0.000000 0.000000 -0.001094 0.000000 0.034248
#
#
# Mechanical properties :
#
#
# Convention : Reuss Voigt Hill
#
# Bulk Modulus (GPa) = 55.23591 57.38815 56.31203
# Shear Modulus (GPa) = 30.59138 32.57840 31.58489
#
# Velocity S-wave (km/s) = 3.78083 3.90168 3.84173
# Velocity P-wave (km/s) = 6.69851 6.86394 6.78173
#
# Compressibility (1/GPa) = 0.01810416
#
# Stress axis : x y z
#
# Youngs Moduli (GPa) = 89.00372 70.00032 110.76993
#
# Poissons Ratio (x) = 0.22602 0.21334
# Poissons Ratio (y) = 0.28737 0.33980
# Poissons Ratio (z) = 0.17142 0.21473
#
# Static dielectric constant tensor:
#      x y z
#    x 3.739010 0.000000 0.149160 
#    y 0.000000 3.684270 0.000000 
#    z 0.149160 0.000000 4.224940 
# 
# 
# High freq. dielectric constant tensor:
#      x y z
#    x 1.843200 0.000000 0.002390 
#    y 0.000000 1.825530 0.000000 
#    z 0.002390 0.000000 1.856060 
# 
# From -- ./inp_files/112896.got.cif
#   From: 2010.06.25/outbox.cif.g09.slc.cpg/sg12_57_cif.got.tgz:112896.got - 2010.06.28 00:19:55.
