data_PCOD8114144
_publ_section_title
;
Structure prediction by ZEFSAII (Michael W. Deem and Ramdas Pophale) SiO2 
 PCOD8114144
Probable space group: C 2/M
;
_chemical_formula_sum "Si O2"
_cell_formula_units_Z 48
_cell_length_a 19.116333
_cell_length_b 8.873319
_cell_length_c 20.203655
_cell_angle_alpha 90.000000
_cell_angle_beta 49.755711
_cell_angle_gamma 90.000000
_cell_volume 2615.857650
_symmetry_space_group_name_H-M "C 2/M"
_symmetry_group_IT_number 12
_symmetry_cell_setting 'monoclinic'
loop_
_space_group_symop_operation_xyz
x,y,z
-x,y,-z
-x,-y,-z
x,-y,z
1/2+x,1/2+y,z
1/2-x,1/2+y,-z
1/2-x,1/2-y,-z
1/2+x,1/2-y,z
loop_
_atom_site_type_symbol
_atom_site_label
_atom_site_fract_x
_atom_site_fract_y
_atom_site_fract_z
Si Si1 0.439911 0.826897 0.237615
Si Si2 0.765292 0.175205 0.642330
Si Si3 0.554798 0.677985 0.275919
Si Si4 0.551563 0.676895 0.532292
Si Si5 0.579539 0.824572 0.902705
Si Si6 0.230364 0.322143 0.220988
O O1 0.335664 0.785703 0.322832
O O2 0.509090 0.720486 0.234347
O O3 0.452665 0.793005 0.152354
O O4 0.462126 0.000000 0.240676
O O5 0.839828 0.213647 0.539997
O O6 0.790112 0.269411 0.692049
O O7 0.769909 0.000000 0.660767
O O8 0.566526 0.500000 0.272799
O O9 0.489973 0.743562 0.374583
O O10 0.654152 0.753681 0.218930
O O11 0.500000 0.747053 0.500000
O O12 0.533906 0.500000 0.544110
O O13 0.670738 0.732868 0.864359
O O14 0.601516 0.000000 0.899648
O O15 0.500000 0.768011 0.000000
O O16 0.226173 0.500000 0.219748
#
# Coordination Sequence:
#
# PCOD8114144 Si02
#       6
#     8   8   8   8   8   8
#     4   9  19  34  53  79 111 137 167 218 272 317
#     4   9  17  34  55  74 102 145 187 222 264 312
#     4  11  21  34  53  76 107 147 185 219 263 316
#     4   9  16  29  52  76 100 138 191 231 255 300
#     4   9  19  39  65  85 103 135 175 211 258 325
#     4  11  21  33  53  81 111 139 174 220 268 313
#
# _framework density 18.349622
#
# number of rings (size 3 to 8) (size 9 to 14) (size 15 to 20)
#    0.000    2.333    1.667    3.000    0.000    3.667 
#    0.000    3.333    0.000    0.000    0.000    0.000 
#    0.000    0.000    0.000    0.000    0.000    0.000 
#
# Total GULP energy -297600.835503 kJ/mol
# GULP energy per Si atom -12400.034813 kJ/mol
# Density = 1.830786 g / cm^3
# Si number density = 18.349622 Si / 1000 Ang^3
#
#
#
# Elastic Constant Matrix: (Units=GPa)
#
#
# Indices 1 2 3 4 5 6 
#
# 1 127.7466 54.4171 54.3848 0.0000 -14.1853 0.0000
# 2 54.4171 82.5436 38.1916 0.0001 -11.2572 0.0000
# 3 54.3848 38.1916 116.0929 0.0000 -14.8474 0.0000
# 4 0.0000 0.0001 0.0000 13.0065 0.0000 0.6016
# 5 -14.1853 -11.2572 -14.8474 0.0000 20.3996 0.0000
# 6 0.0000 0.0000 0.0000 0.6016 0.0000 31.9680
#
#
#
# Elastic Compliance Matrix: (Units=1/GPa)
#
#
# Indices 1 2 3 4 5 6 
#
# 1 0.012143 -0.006097 -0.003344 0.000000 0.002645 0.000000
# 2 -0.006097 0.017814 -0.002524 0.000000 0.003754 0.000000
# 3 -0.003344 -0.002524 0.011617 0.000000 0.004736 0.000000
# 4 0.000000 0.000000 0.000000 0.076952 0.000000 -0.001448
# 5 0.002645 0.003754 0.004736 0.000000 0.056379 0.000000
# 6 0.000000 0.000000 0.000000 -0.001448 0.000000 0.031309
#
#
# Mechanical properties :
#
#
# Convention : Reuss Voigt Hill
#
# Bulk Modulus (GPa) = 56.68144 68.93001 62.80573
# Shear Modulus (GPa) = 21.18431 25.03412 23.10922
#
# Velocity S-wave (km/s) = 3.40145 3.69763 3.55263
# Velocity P-wave (km/s) = 6.81053 7.47505 7.15051
#
# Compressibility (1/GPa) = 0.01764246
#
# Stress axis : x y z
#
# Youngs Moduli (GPa) = 82.35444 56.13550 86.08379
#
# Poissons Ratio (x) = 0.34226 0.28789
# Poissons Ratio (y) = 0.50211 0.21729
# Poissons Ratio (z) = 0.27542 0.14169
#
# Static dielectric constant tensor:
#      x y z
#    x 3.283610 0.000000 -0.164740 
#    y 0.000000 3.126680 0.000000 
#    z -0.164740 0.000000 3.502380 
# 
# 
# High freq. dielectric constant tensor:
#      x y z
#    x 1.706460 0.000000 -0.015410 
#    y 0.000000 1.691700 0.000000 
#    z -0.015410 0.000000 1.704910 
# 
# From -- ./inp_files/274060.got.cif
#   From: 2010.06.25/outbox.cif.g09.slc.cpg/sg12_138_cif.got.tgz:274060.got - 2010.06.28 00:19:55.
