data_PCOD8114803
_publ_section_title
;
Structure prediction by ZEFSAII (Michael W. Deem and Ramdas Pophale) SiO2 
 PCOD8114803
Probable space group: C 2/M
;
_chemical_formula_sum "Si O2"
_cell_formula_units_Z 64
_cell_length_a 9.311413
_cell_length_b 18.620130
_cell_length_c 32.346534
_cell_angle_alpha 90.000000
_cell_angle_beta 37.441085
_cell_angle_gamma 90.000000
_cell_volume 3409.499096
_symmetry_space_group_name_H-M "C 2/M"
_symmetry_group_IT_number 12
_symmetry_cell_setting 'monoclinic'
loop_
_space_group_symop_operation_xyz
x,y,z
-x,y,-z
-x,-y,-z
x,-y,z
1/2+x,1/2+y,z
1/2-x,1/2+y,-z
1/2-x,1/2-y,-z
1/2+x,1/2-y,z
loop_
_atom_site_type_symbol
_atom_site_label
_atom_site_fract_x
_atom_site_fract_y
_atom_site_fract_z
Si Si1 0.227667 0.581637 0.050722
Si Si2 0.293005 0.685713 0.177217
Si Si3 0.111691 0.916892 0.310662
Si Si4 0.776860 0.320000 0.022305
Si Si5 0.965015 0.583734 0.301747
Si Si6 0.912993 0.585745 0.563720
Si Si7 0.233317 0.585519 0.565423
Si Si8 0.948683 0.671838 0.180893
O O1 0.133794 0.500000 0.075739
O O2 0.089906 0.634641 0.112080
O O3 0.500000 0.585514 0.000000
O O4 0.186906 0.609144 0.013557
O O5 0.553416 0.664373 0.102639
O O6 0.302446 0.760462 0.198752
O O7 0.190923 0.625827 0.231935
O O8 0.126956 0.696010 0.175720
O O9 0.234213 0.902280 0.326639
O O10 0.257623 0.884094 0.240133
O O11 0.850149 0.883481 0.370097
O O12 0.096319 0.000000 0.304401
O O13 0.750000 0.250000 0.000000
O O14 0.000000 0.306441 0.000000
O O15 0.035245 0.500000 0.285995
O O16 0.894234 0.612062 0.363414
O O17 0.914258 0.500000 0.563078
O O18 0.000000 0.615999 0.500000
O O19 0.081356 0.614881 0.561634
O O20 0.500000 0.615976 0.500000
O O21 0.242788 0.500000 0.563659
#
# Coordination Sequence:
#
# PCOD8114803 Si02
#       8
#     8   8   8   8   8   8   8   8
#     4  11  23  40  63  88 115 148 191 239 291 345
#     4  11  23  37  60  83 111 151 190 234 288 340
#     4   9  18  33  53  77 109 143 181 231 278 328
#     4  12  23  40  63  86 116 152 197 241 289 345
#     4   9  19  35  54  80 111 146 188 231 283 339
#     4   9  16  27  47  77 109 143 183 225 273 328
#     4   9  16  28  49  77 111 148 184 226 278 335
#     4  11  22  38  58  84 110 149 192 232 281 347
#
# _framework density 18.771087000000001
#
# number of rings (size 3 to 8) (size 9 to 14) (size 15 to 20)
#    0.000    1.875    2.500    2.250    0.000    5.250 
#    0.000    0.000    0.000    0.750    0.000    5.250 
#    0.000    0.000    0.000    0.000    0.000    0.000 
#
# Total GULP energy -396825.976113 kJ/mol
# GULP energy per Si atom -12400.811754 kJ/mol
# Density = 1.872836 g / cm^3
# Si number density = 18.771087 Si / 1000 Ang^3
#
#
#
# Elastic Constant Matrix: (Units=GPa)
#
#
# Indices 1 2 3 4 5 6 
#
# 1 134.3470 40.9174 76.5474 0.0233 -1.2335 0.0076
# 2 40.9174 60.2627 32.8970 -0.0328 0.7124 -0.0115
# 3 76.5474 32.8970 152.3925 0.0129 -1.7809 -0.0406
# 4 0.0233 -0.0328 0.0129 10.9642 -0.0232 2.2324
# 5 -1.2335 0.7124 -1.7809 -0.0232 35.8064 0.0048
# 6 0.0076 -0.0115 -0.0406 2.2324 0.0048 26.1214
#
#
#
# Elastic Compliance Matrix: (Units=1/GPa)
#
#
# Indices 1 2 3 4 5 6 
#
# 1 0.011809 -0.005424 -0.004757 -0.000033 0.000278 -0.000010
# 2 -0.005424 0.021314 -0.001885 0.000076 -0.000705 0.000002
# 3 -0.004757 -0.001885 0.009362 -0.000009 0.000339 0.000016
# 4 -0.000033 0.000076 -0.000009 0.092822 0.000058 -0.007933
# 5 0.000278 -0.000705 0.000339 0.000058 0.027968 -0.000010
# 6 -0.000010 0.000002 0.000016 -0.007933 -0.000010 0.038961
#
#
# Mechanical properties :
#
#
# Convention : Reuss Voigt Hill
#
# Bulk Modulus (GPa) = 54.48781 71.96952 63.22867
# Shear Modulus (GPa) = 21.50665 27.68776 24.59720
#
# Velocity S-wave (km/s) = 3.38854 3.84477 3.62384
# Velocity P-wave (km/s) = 6.66334 7.62453 7.16009
#
# Compressibility (1/GPa) = 0.01835273
#
# Stress axis : x y z
#
# Youngs Moduli (GPa) = 84.68416 46.91713 106.80938
#
# Poissons Ratio (x) = 0.25449 0.50813
# Poissons Ratio (y) = 0.45934 0.20131
# Poissons Ratio (z) = 0.40287 0.08843
#
# Static dielectric constant tensor:
#      x y z
#    x 3.579410 0.000020 0.023860 
#    y 0.000020 3.286650 -0.000050 
#    z 0.023860 -0.000050 3.660880 
# 
# 
# High freq. dielectric constant tensor:
#      x y z
#    x 1.735380 0.000000 0.003330 
#    y 0.000000 1.696690 0.000000 
#    z 0.003330 0.000000 1.744920 
# 
# From -- ./inp_files/372922.got.cif
#   From: 2010.06.25/outbox.cif.g09.slc.cpg/sg12_187_cif.got.tgz:372922.got - 2010.06.28 00:19:55.
