data_PCOD8114789
_publ_section_title
;
Structure prediction by ZEFSAII (Michael W. Deem and Ramdas Pophale) SiO2 
 PCOD8114789
Probable space group: C 2/M
;
_chemical_formula_sum "Si O2"
_cell_formula_units_Z 56
_cell_length_a 28.555301
_cell_length_b 10.860721
_cell_length_c 27.285730
_cell_angle_alpha 90.000000
_cell_angle_beta 20.684281
_cell_angle_gamma 90.000000
_cell_volume 2988.987105
_symmetry_space_group_name_H-M "C 2/M"
_symmetry_group_IT_number 12
_symmetry_cell_setting 'monoclinic'
loop_
_space_group_symop_operation_xyz
x,y,z
-x,y,-z
-x,-y,-z
x,-y,z
1/2+x,1/2+y,z
1/2-x,1/2+y,-z
1/2-x,1/2-y,-z
1/2+x,1/2-y,z
loop_
_atom_site_type_symbol
_atom_site_label
_atom_site_fract_x
_atom_site_fract_y
_atom_site_fract_z
Si Si1 0.754021 0.354651 0.131923
Si Si2 0.754152 0.355442 0.337021
Si Si3 0.267879 0.000000 0.730092
Si Si4 0.984455 0.729813 0.378281
Si Si5 0.480813 0.000000 0.448450
Si Si6 0.138184 0.645547 0.602476
Si Si7 0.655191 0.241288 0.852854
Si Si8 0.010764 0.643125 0.828250
O O1 0.743449 0.500000 0.139606
O O2 0.621707 0.300740 0.237869
O O3 0.780992 0.317472 0.161500
O O4 0.871339 0.300865 0.982566
O O5 0.766257 0.500000 0.323767
O O6 0.618338 0.322887 0.496656
O O7 0.760385 0.307766 0.275580
O O8 0.872431 0.295704 0.253568
O O9 0.325216 0.000000 0.618129
O O10 0.407862 0.000000 0.619611
O O11 0.173542 0.112825 0.835910
O O12 0.009853 0.619200 0.389248
O O13 0.937406 0.674255 0.373137
O O14 0.188618 0.500000 0.553709
O O15 0.250000 0.750000 0.500000
O O16 0.033661 0.666855 0.748510
O O17 0.500000 0.206102 0.000000
O O18 0.009949 0.500000 0.841329
#
# Coordination Sequence:
#
# PCOD8114789 Si02
#       8
#     8   8   4   8   4   8   8   8
#     4  11  24  40  62  91 128 163 201 253 311 369
#     4  11  22  37  62  93 126 158 200 255 306 368
#     4  11  23  40  58  86 123 165 210 248 302 363
#     4  12  23  40  64  91 124 160 208 253 306 365
#     4  11  22  40  60  82 122 168 200 245 305 364
#     4  11  23  40  70  97 124 165 212 260 314 371
#     4  12  23  38  62  90 121 163 208 252 303 369
#     4   9  20  40  61  89 123 162 203 249 310 370
#
# _framework density 18.735443
#
# number of rings (size 3 to 8) (size 9 to 14) (size 15 to 20)
#    0.000    1.000    6.429    1.071    0.000    2.286 
#    0.000    1.429    3.143    0.000    0.000    0.000 
#    0.000    0.000    0.000    0.000    0.000    0.000 
#
# Total GULP energy -347111.619598 kJ/mol
# GULP energy per Si atom -12396.843557 kJ/mol
# Density = 1.869280 g / cm^3
# Si number density = 18.735443 Si / 1000 Ang^3
#
#
#
# Elastic Constant Matrix: (Units=GPa)
#
#
# Indices 1 2 3 4 5 6 
#
# 1 90.0126 25.5562 38.0307 0.0003 9.5838 0.0007
# 2 25.5562 101.1933 47.6271 -0.0017 5.1344 0.0010
# 3 38.0307 47.6271 145.4967 -0.0027 11.7508 0.0017
# 4 0.0003 -0.0017 -0.0027 29.1620 0.0020 -2.3482
# 5 9.5838 5.1344 11.7508 0.0020 38.4312 -0.0015
# 6 0.0007 0.0010 0.0017 -2.3482 -0.0015 18.7634
#
#
#
# Elastic Compliance Matrix: (Units=1/GPa)
#
#
# Indices 1 2 3 4 5 6 
#
# 1 0.012987 -0.001956 -0.002578 0.000000 -0.002189 0.000000
# 2 -0.001956 0.011982 -0.003405 0.000000 -0.000072 0.000000
# 3 -0.002578 -0.003405 0.008790 0.000001 -0.001590 -0.000001
# 4 0.000000 0.000000 0.000001 0.034640 -0.000002 0.004335
# 5 -0.002189 -0.000072 -0.001590 -0.000002 0.027062 0.000002
# 6 0.000000 0.000000 -0.000001 0.004335 0.000002 0.053838
#
#
# Mechanical properties :
#
#
# Convention : Reuss Voigt Hill
#
# Bulk Modulus (GPa) = 55.92206 62.12561 59.02383
# Shear Modulus (GPa) = 29.21631 32.30389 30.76010
#
# Velocity S-wave (km/s) = 3.95323 4.15687 4.05633
# Velocity P-wave (km/s) = 7.12393 7.50139 7.31509
#
# Compressibility (1/GPa) = 0.01788203
#
# Stress axis : x y z
#
# Youngs Moduli (GPa) = 77.00045 83.45611 113.76712
#
# Poissons Ratio (x) = 0.16320 0.29325
# Poissons Ratio (y) = 0.15058 0.38742
# Poissons Ratio (z) = 0.19848 0.28420
#
# Static dielectric constant tensor:
#      x y z
#    x 3.562290 -0.000010 0.069600 
#    y -0.000010 3.416370 0.000010 
#    z 0.069600 0.000010 3.637880 
# 
# 
# High freq. dielectric constant tensor:
#      x y z
#    x 1.734290 0.000000 0.006860 
#    y 0.000000 1.725890 0.000000 
#    z 0.006860 0.000000 1.733660 
# 
# From -- ./inp_files/369392.got.cif
#   From: 2010.06.25/outbox.cif.g09.slc.cpg/sg12_185_cif.got.tgz:369392.got - 2010.06.28 00:19:55.
