data_PCOD8114704
_publ_section_title
;
Structure prediction by ZEFSAII (Michael W. Deem and Ramdas Pophale) SiO2 
 PCOD8114704
Probable space group: C 2/M
;
_chemical_formula_sum "Si O2"
_cell_formula_units_Z 40
_cell_length_a 5.000582
_cell_length_b 31.946930
_cell_length_c 12.664645
_cell_angle_alpha 90.000000
_cell_angle_beta 108.014311
_cell_angle_gamma 90.000000
_cell_volume 1924.038548
_symmetry_space_group_name_H-M "C 2/M"
_symmetry_group_IT_number 12
_symmetry_cell_setting 'monoclinic'
loop_
_space_group_symop_operation_xyz
x,y,z
-x,y,-z
-x,-y,-z
x,-y,z
1/2+x,1/2+y,z
1/2-x,1/2+y,-z
1/2-x,1/2-y,-z
1/2+x,1/2-y,z
loop_
_atom_site_type_symbol
_atom_site_label
_atom_site_fract_x
_atom_site_fract_y
_atom_site_fract_z
Si Si1 0.909354 0.906294 0.791344
Si Si2 0.316239 0.325445 0.074164
Si Si3 0.814639 0.142068 0.572563
Si Si4 0.084357 0.222906 0.706098
Si Si5 0.954633 0.452248 0.871786
O O1 0.059322 0.869067 0.871422
O O2 0.130175 0.943892 0.803392
O O3 0.799611 0.891641 0.664292
O O4 0.645470 0.921364 0.826828
O O5 0.332041 0.290634 0.166146
O O6 0.500000 0.308026 0.000000
O O7 0.000000 0.333392 0.000000
O O8 0.500000 0.152645 0.500000
O O9 0.966205 0.184494 0.625694
O O10 0.000000 0.122799 0.500000
O O11 0.862136 0.260726 0.681668
O O12 0.030325 0.500000 0.853263
O O13 0.000000 0.442955 0.000000
#
# Coordination Sequence:
#
# PCOD8114704 Si02
#       5
#     8   8   8   8   8
#     4  11  22  39  61  87 121 155 199 245 283 346
#     4  11  22  36  57  83 116 159 195 230 285 352
#     4  11  24  42  64  86 111 154 204 251 301 342
#     4  11  24  39  57  86 117 148 194 246 297 352
#     4  11  22  37  62  95 127 157 187 228 288 350
#
# _framework density 20.789604000000001
#
# number of rings (size 3 to 8) (size 9 to 14) (size 15 to 20)
#    0.000    1.000    0.000    7.800    0.000   12.800 
#    0.000    0.000    0.000   12.000    0.000    0.000 
#    0.000    0.000    0.000    0.000    0.000    0.000 
#
# Total GULP energy -248147.639258 kJ/mol
# GULP energy per Si atom -12407.381963 kJ/mol
# Density = 2.074229 g / cm^3
# Si number density = 20.789604 Si / 1000 Ang^3
#
#
#
# Elastic Constant Matrix: (Units=GPa)
#
#
# Indices 1 2 3 4 5 6 
#
# 1 95.7291 9.6207 37.4029 0.0000 -10.2033 0.0000
# 2 9.6207 71.1483 38.8690 0.0000 -8.2067 0.0000
# 3 37.4029 38.8690 119.8091 0.0000 -2.8136 0.0000
# 4 0.0000 0.0000 0.0000 10.0250 0.0000 -11.3550
# 5 -10.2033 -8.2067 -2.8136 0.0000 34.0108 0.0000
# 6 0.0000 0.0000 0.0000 -11.3550 0.0000 20.2635
#
#
#
# Elastic Compliance Matrix: (Units=1/GPa)
#
#
# Indices 1 2 3 4 5 6 
#
# 1 0.012326 0.000977 -0.004080 0.000000 0.003596 0.000000
# 2 0.000977 0.017630 -0.005930 0.000000 0.004057 0.000000
# 3 -0.004080 -0.005930 0.011504 0.000000 -0.001703 0.000000
# 4 0.000000 0.000000 0.000000 0.273074 0.000000 0.153023
# 5 0.003596 0.004057 -0.001703 0.000000 0.031319 0.000000
# 6 0.000000 0.000000 0.000000 0.153023 0.000000 0.135099
#
#
# Mechanical properties :
#
#
# Convention : Reuss Voigt Hill
#
# Bulk Modulus (GPa) = 42.74493 50.94130 46.84311
# Shear Modulus (GPa) = 9.86550 26.24611 18.05581
#
# Velocity S-wave (km/s) = 2.18076 3.55697 2.95023
# Velocity P-wave (km/s) = 5.19098 6.43629 5.84689
#
# Compressibility (1/GPa) = 0.02339459
#
# Stress axis : x y z
#
# Youngs Moduli (GPa) = 81.13252 56.72050 86.92484
#
# Poissons Ratio (x) = -0.05544 0.35470
# Poissons Ratio (y) = -0.07929 0.51543
# Poissons Ratio (z) = 0.33106 0.33633
#
# Static dielectric constant tensor:
#      x y z
#    x 3.885960 0.000000 -0.032400 
#    y 0.000000 3.637740 0.000000 
#    z -0.032400 0.000000 3.949720 
# 
# 
# High freq. dielectric constant tensor:
#      x y z
#    x 1.833200 0.000000 -0.001010 
#    y 0.000000 1.806550 0.000000 
#    z -0.001010 0.000000 1.817830 
# 
# From -- ./inp_files/116173.got.cif
#   From: 2010.06.25/outbox.cif.g09.slc.cpg/sg12_59_cif.got.tgz:116173.got - 2010.06.28 00:19:55.
