data_PCOD8114359
_publ_section_title
;
Structure prediction by ZEFSAII (Michael W. Deem and Ramdas Pophale) SiO2 
 PCOD8114359
Probable space group: C 2/M
;
_chemical_formula_sum "Si O2"
_cell_formula_units_Z 28
_cell_length_a 12.693720
_cell_length_b 20.839061
_cell_length_c 5.007849
_cell_angle_alpha 90.000000
_cell_angle_beta 97.474751
_cell_angle_gamma 90.000000
_cell_volume 1313.445343
_symmetry_space_group_name_H-M "C 2/M"
_symmetry_group_IT_number 12
_symmetry_cell_setting 'monoclinic'
loop_
_space_group_symop_operation_xyz
x,y,z
-x,y,-z
-x,-y,-z
x,-y,z
1/2+x,1/2+y,z
1/2-x,1/2+y,-z
1/2-x,1/2-y,-z
1/2+x,1/2-y,z
loop_
_atom_site_type_symbol
_atom_site_label
_atom_site_fract_x
_atom_site_fract_y
_atom_site_fract_z
Si Si1 0.700145 0.126981 0.710737
Si Si2 0.388847 0.190741 0.838809
Si Si3 0.576232 0.000000 0.773636
Si Si4 0.071372 0.162659 0.265787
O O1 0.633097 0.150450 0.434436
O O2 0.823640 0.119048 0.670016
O O3 0.654176 0.060565 0.801996
O O4 0.696903 0.177852 0.955763
O O5 0.389755 0.264732 0.760679
O O6 0.500000 0.167038 0.000000
O O7 0.500000 0.000000 0.500000
O O8 0.500000 0.000000 0.000000
O O9 0.000000 0.156098 0.500000
O O10 0.000000 0.137731 0.000000
#
# Coordination Sequence:
#
# PCOD8114359 Si02
#       4
#     8   8   4   8
#     4  12  23  40  61  87 121 161 195 240 296 346
#     4  11  21  37  62  91 121 153 193 244 300 353
#     4  12  26  42  62  88 118 152 198 244 289 352
#     4  11  23  39  60  90 121 154 198 244 290 351
#
# _framework density 21.317979999999999
#
# number of rings (size 3 to 8) (size 9 to 14) (size 15 to 20)
#    0.000    0.571    0.000   12.000    0.000    0.000 
#    0.000    1.429    0.000    0.000    0.000    0.000 
#    0.000    0.000    0.000    0.000    0.000    0.000 
#
# Total GULP energy -173664.512903 kJ/mol
# GULP energy per Si atom -12404.608064 kJ/mol
# Density = 2.126946 g / cm^3
# Si number density = 21.317980 Si / 1000 Ang^3
#
#
#
# Elastic Constant Matrix: (Units=GPa)
#
#
# Indices 1 2 3 4 5 6 
#
# 1 166.6952 83.8513 64.5536 0.0000 -21.2339 0.0000
# 2 83.8513 73.5016 53.6880 0.0000 -2.1158 0.0000
# 3 64.5536 53.6880 170.7966 0.0000 -20.9429 0.0000
# 4 0.0000 0.0000 0.0000 25.5456 0.0000 -4.2290
# 5 -21.2339 -2.1158 -20.9429 0.0000 45.6957 0.0000
# 6 0.0000 0.0000 0.0000 -4.2290 0.0000 24.7889
#
#
#
# Elastic Compliance Matrix: (Units=1/GPa)
#
#
# Indices 1 2 3 4 5 6 
#
# 1 0.015849 -0.018325 0.000603 0.000000 0.006793 0.000000
# 2 -0.018325 0.038994 -0.006521 0.000000 -0.009698 0.000000
# 3 0.000603 -0.006521 0.008131 0.000000 0.003705 0.000000
# 4 0.000000 0.000000 0.000000 0.040283 0.000000 0.006872
# 5 0.006793 -0.009698 0.003705 0.000000 0.026289 0.000000
# 6 0.000000 0.000000 0.000000 0.006872 0.000000 0.041513
#
#
# Mechanical properties :
#
#
# Convention : Reuss Voigt Hill
#
# Bulk Modulus (GPa) = 69.01959 90.57549 79.79754
# Shear Modulus (GPa) = 22.28416 33.13274 27.70845
#
# Velocity S-wave (km/s) = 3.23665 3.94663 3.60914
# Velocity P-wave (km/s) = 6.81281 7.95914 7.40818
#
# Compressibility (1/GPa) = 0.01448864
#
# Stress axis : x y z
#
# Youngs Moduli (GPa) = 63.09671 25.64465 122.98782
#
# Poissons Ratio (x) = 0.46995 -0.07418
# Poissons Ratio (y) = 1.15627 0.80194
# Poissons Ratio (z) = -0.03806 0.16722
#
# Static dielectric constant tensor:
#      x y z
#    x 4.010500 0.000000 -0.096510 
#    y 0.000000 3.653550 0.000000 
#    z -0.096510 0.000000 4.059970 
# 
# 
# High freq. dielectric constant tensor:
#      x y z
#    x 1.850340 0.000000 -0.006410 
#    y 0.000000 1.804930 0.000000 
#    z -0.006410 0.000000 1.861030 
# 
# From -- ./inp_files/5705.got.cif
#   From: 2010.06.25/outbox.cif.g09.slc.cpg/sg12_3_cif.got.tgz:5705.got - 2010.06.28 00:19:55.
