data_PCOD8114230
_publ_section_title
;
Structure prediction by ZEFSAII (Michael W. Deem and Ramdas Pophale) SiO2 
 PCOD8114230
Probable space group: C 2/M
;
_chemical_formula_sum "Si O2"
_cell_formula_units_Z 56
_cell_length_a 12.452508
_cell_length_b 25.111837
_cell_length_c 11.944501
_cell_angle_alpha 90.000000
_cell_angle_beta 130.764715
_cell_angle_gamma 90.000000
_cell_volume 2828.961812
_symmetry_space_group_name_H-M "C 2/M"
_symmetry_group_IT_number 12
_symmetry_cell_setting 'monoclinic'
loop_
_space_group_symop_operation_xyz
x,y,z
-x,y,-z
-x,-y,-z
x,-y,z
1/2+x,1/2+y,z
1/2-x,1/2+y,-z
1/2-x,1/2-y,-z
1/2+x,1/2-y,z
loop_
_atom_site_type_symbol
_atom_site_label
_atom_site_fract_x
_atom_site_fract_y
_atom_site_fract_z
Si Si1 0.617477 0.658922 0.778180
Si Si2 0.633062 0.782162 0.142276
Si Si3 0.764963 0.559892 0.842301
Si Si4 0.050279 0.641744 0.656755
Si Si5 0.004131 0.439000 0.185656
Si Si6 0.088287 0.251281 0.359106
Si Si7 0.651815 0.669179 0.060153
O O1 0.730386 0.681472 0.765361
O O2 0.621424 0.596255 0.749156
O O3 0.473737 0.691844 0.658842
O O4 0.671006 0.662133 0.941401
O O5 0.578467 0.761730 0.222663
O O6 0.665107 0.731756 0.086754
O O7 0.500000 0.814929 0.000000
O O8 0.708108 0.500000 0.804469
O O9 0.856822 0.571133 0.794189
O O10 0.862445 0.571169 0.017273
O O11 0.221380 0.640232 0.785171
O O12 0.000000 0.622199 0.500000
O O13 0.984265 0.601782 0.702939
O O14 0.995758 0.702535 0.633591
O O15 0.003137 0.500000 0.229096
O O16 0.250000 0.250000 0.500000
O O17 0.500000 0.646314 0.000000
#
# Coordination Sequence:
#
# PCOD8114230 Si02
#       7
#     8   8   8   8   8   8   8
#     4  12  21  35  64  85 122 168 204 253 326 373
#     4  11  21  35  56  85 117 157 210 250 297 380
#     4   9  19  36  64  98 123 152 215 278 311 353
#     4  12  24  39  60  89 133 171 207 253 317 388
#     4   9  19  38  63  95 127 161 210 269 312 361
#     4  12  26  39  55  89 130 162 208 261 315 377
#     4  11  21  37  57  89 120 162 210 255 304 374
#
# _framework density 19.795245999999999
#
# number of rings (size 3 to 8) (size 9 to 14) (size 15 to 20)
#    0.000    1.143    5.714    3.857    2.000    0.286 
#    0.000    0.000    0.000    2.571    0.000    3.000 
#    0.000    0.000    0.000    0.000    0.000    0.000 
#
# Total GULP energy -347008.090698 kJ/mol
# GULP energy per Si atom -12393.146096 kJ/mol
# Density = 1.975019 g / cm^3
# Si number density = 19.795246 Si / 1000 Ang^3
#
#
#
# Elastic Constant Matrix: (Units=GPa)
#
#
# Indices 1 2 3 4 5 6 
#
# 1 82.8827 51.7973 39.6509 0.0000 1.3031 0.0000
# 2 51.7973 113.1275 49.6656 0.0000 -7.8899 0.0000
# 3 39.6509 49.6656 92.3334 0.0000 12.2693 0.0000
# 4 0.0000 0.0000 0.0000 12.8327 0.0000 8.1214
# 5 1.3031 -7.8899 12.2693 0.0000 30.7175 0.0000
# 6 0.0000 0.0000 0.0000 8.1214 0.0000 27.4282
#
#
#
# Elastic Compliance Matrix: (Units=1/GPa)
#
#
# Indices 1 2 3 4 5 6 
#
# 1 0.018161 -0.006534 -0.004181 0.000000 -0.000779 0.000000
# 2 -0.006534 0.014978 -0.006124 0.000000 0.006570 0.000000
# 3 -0.004181 -0.006124 0.017008 0.000000 -0.008189 0.000000
# 4 0.000000 0.000000 0.000000 0.095896 0.000000 -0.028395
# 5 -0.000779 0.006570 -0.008189 0.000000 0.037546 0.000000
# 6 0.000000 0.000000 0.000000 -0.028395 0.000000 0.044866
#
#
# Mechanical properties :
#
#
# Convention : Reuss Voigt Hill
#
# Bulk Modulus (GPa) = 60.71808 63.39682 62.05745
# Shear Modulus (GPa) = 18.68302 24.01099 21.34701
#
# Velocity S-wave (km/s) = 3.07549 3.48655 3.28745
# Velocity P-wave (km/s) = 6.58416 6.95010 6.76960
#
# Compressibility (1/GPa) = 0.01646956
#
# Stress axis : x y z
#
# Youngs Moduli (GPa) = 55.06273 66.76435 58.79704
#
# Poissons Ratio (x) = 0.43625 0.24581
# Poissons Ratio (y) = 0.35979 0.36005
# Poissons Ratio (z) = 0.23020 0.40884
#
# Static dielectric constant tensor:
#      x y z
#    x 3.750890 0.000000 -0.095600 
#    y 0.000000 3.621840 0.000000 
#    z -0.095600 0.000000 3.608540 
# 
# 
# High freq. dielectric constant tensor:
#      x y z
#    x 1.776700 0.000000 -0.007770 
#    y 0.000000 1.760880 0.000000 
#    z -0.007770 0.000000 1.751530 
# 
# From -- ./inp_files/53210.got.cif
#   From: 2010.06.25/outbox.cif.g09.slc.cpg/sg12_27_cif.got.tgz:53210.got - 2010.06.28 00:19:55.
