data_PCOD8114354
_publ_section_title
;
Structure prediction by ZEFSAII (Michael W. Deem and Ramdas Pophale) SiO2 
 PCOD8114354
Probable space group: C 2/M
;
_chemical_formula_sum "Si O2"
_cell_formula_units_Z 56
_cell_length_a 23.879765
_cell_length_b 8.671679
_cell_length_c 14.958613
_cell_angle_alpha 90.000000
_cell_angle_beta 60.422606
_cell_angle_gamma 90.000000
_cell_volume 2693.946198
_symmetry_space_group_name_H-M "C 2/M"
_symmetry_group_IT_number 12
_symmetry_cell_setting 'monoclinic'
loop_
_space_group_symop_operation_xyz
x,y,z
-x,y,-z
-x,-y,-z
x,-y,z
1/2+x,1/2+y,z
1/2-x,1/2+y,-z
1/2-x,1/2-y,-z
1/2+x,1/2-y,z
loop_
_atom_site_type_symbol
_atom_site_label
_atom_site_fract_x
_atom_site_fract_y
_atom_site_fract_z
Si Si1 0.456275 0.819529 0.617590
Si Si2 0.197054 0.327301 0.481519
Si Si3 0.938548 0.180811 0.995331
Si Si4 0.005718 0.822218 0.230826
Si Si5 0.820555 0.180249 0.690995
Si Si6 0.810648 0.182478 0.189907
Si Si7 0.120828 0.672791 0.709606
O O1 0.500000 0.757696 0.500000
O O2 0.489519 0.785374 0.686204
O O3 0.387304 0.738303 0.679112
O O4 0.445150 0.000000 0.613611
O O5 0.217040 0.500000 0.433447
O O6 0.250000 0.250000 0.500000
O O7 0.179000 0.220750 0.413429
O O8 0.134503 0.337604 0.593367
O O9 0.940247 0.212937 0.887081
O O10 0.939353 0.000000 0.013849
O O11 0.870395 0.248765 0.084366
O O12 0.000000 0.254383 0.000000
O O13 0.940186 0.783394 0.229461
O O14 0.006723 0.000000 0.260231
O O15 0.758757 0.256331 0.789559
O O16 0.815837 0.000000 0.709450
O O17 0.819799 0.248376 0.283475
O O18 0.808963 0.000000 0.190570
O O19 0.108438 0.500000 0.756727
#
# Coordination Sequence:
#
# PCOD8114354 Si02
#       7
#     8   8   8   8   8   8   8
#     4  11  25  46  68  91 123 163 210 259 309 370
#     4  11  22  35  54  82 120 160 201 248 305 367
#     4   9  18  36  61  93 127 163 206 255 310 371
#     4  11  22  39  65  93 123 161 209 258 310 370
#     4  12  25  41  61  89 125 162 208 259 313 376
#     4  11  21  37  62  88 122 164 205 251 311 369
#     4  11  22  35  54  87 126 160 201 252 306 367
#
# _framework density 20.787351000000001
#
# number of rings (size 3 to 8) (size 9 to 14) (size 15 to 20)
#    0.000    1.143    2.857    4.286    0.000    6.286 
#    0.000    4.286    0.000    0.000    0.000    0.000 
#    0.000    0.000    0.000    0.000    0.000    0.000 
#
# Total GULP energy -347157.851158 kJ/mol
# GULP energy per Si atom -12398.494684 kJ/mol
# Density = 2.074004 g / cm^3
# Si number density = 20.787351 Si / 1000 Ang^3
#
#
#
# Elastic Constant Matrix: (Units=GPa)
#
#
# Indices 1 2 3 4 5 6 
#
# 1 90.5540 29.4639 28.6261 0.0000 -18.8866 0.0000
# 2 29.4639 92.2311 34.5701 0.0000 -8.8255 -0.0002
# 3 28.6261 34.5701 95.0068 0.0000 -18.6263 0.0000
# 4 0.0000 0.0000 0.0000 21.9751 0.0000 -1.9396
# 5 -18.8866 -8.8255 -18.6263 0.0000 35.5243 0.0000
# 6 0.0000 -0.0002 0.0000 -1.9396 0.0000 30.9071
#
#
#
# Elastic Compliance Matrix: (Units=1/GPa)
#
#
# Indices 1 2 3 4 5 6 
#
# 1 0.013843 -0.003167 -0.001928 0.000000 0.005562 0.000000
# 2 -0.003167 0.013300 -0.003976 0.000000 -0.000465 0.000000
# 3 -0.001928 -0.003976 0.013552 0.000000 0.005093 0.000000
# 4 0.000000 0.000000 0.000000 0.045759 0.000000 0.002872
# 5 0.005562 -0.000465 0.005093 0.000000 0.033662 0.000000
# 6 0.000000 0.000000 0.000000 0.002872 0.000000 0.032535
#
#
# Mechanical properties :
#
#
# Convention : Reuss Voigt Hill
#
# Bulk Modulus (GPa) = 44.34263 51.45689 47.89976
# Shear Modulus (GPa) = 28.04073 30.02344 29.03209
#
# Velocity S-wave (km/s) = 3.67677 3.80453 3.74120
# Velocity P-wave (km/s) = 6.27715 6.64131 6.46180
#
# Compressibility (1/GPa) = 0.02255166
#
# Stress axis : x y z
#
# Youngs Moduli (GPa) = 72.23721 75.18744 73.79118
#
# Poissons Ratio (x) = 0.23815 0.14228
# Poissons Ratio (y) = 0.22881 0.29341
# Poissons Ratio (z) = 0.13928 0.29896
#
# Static dielectric constant tensor:
#      x y z
#    x 3.571850 0.000000 -0.316190 
#    y 0.000000 3.615600 0.000000 
#    z -0.316190 0.000000 4.027230 
# 
# 
# High freq. dielectric constant tensor:
#      x y z
#    x 1.802520 0.000000 -0.018330 
#    y 0.000000 1.808150 0.000000 
#    z -0.018330 0.000000 1.817130 
# 
# From -- ./inp_files/238315.got.cif
#   From: 2010.06.25/outbox.cif.g09.slc.cpg/sg12_120_cif.got.tgz:238315.got - 2010.06.28 00:19:55.
