data_PCOD8114192
_publ_section_title
;
Structure prediction by ZEFSAII (Michael W. Deem and Ramdas Pophale) SiO2 
 PCOD8114192
Probable space group: C 2/M
;
_chemical_formula_sum "Si O2"
_cell_formula_units_Z 40
_cell_length_a 16.809785
_cell_length_b 20.533587
_cell_length_c 9.085262
_cell_angle_alpha 90.000000
_cell_angle_beta 43.198120
_cell_angle_gamma 90.000000
_cell_volume 2146.607294
_symmetry_space_group_name_H-M "C 2/M"
_symmetry_group_IT_number 12
_symmetry_cell_setting 'monoclinic'
loop_
_space_group_symop_operation_xyz
x,y,z
-x,y,-z
-x,-y,-z
x,-y,z
1/2+x,1/2+y,z
1/2-x,1/2+y,-z
1/2-x,1/2-y,-z
1/2+x,1/2-y,z
loop_
_atom_site_type_symbol
_atom_site_label
_atom_site_fract_x
_atom_site_fract_y
_atom_site_fract_z
Si Si1 0.009926 0.575952 0.815091
Si Si2 0.666207 0.162714 0.127955
Si Si3 0.813321 0.665238 0.553036
Si Si4 0.421734 0.715669 0.233256
Si Si5 0.918280 0.806242 0.750017
O O1 0.002705 0.500000 0.792078
O O2 0.908935 0.609100 0.854852
O O3 0.135952 0.602225 0.596779
O O4 0.000000 0.592035 0.000000
O O5 0.659319 0.155948 0.312673
O O6 0.616349 0.233068 0.154907
O O7 0.798938 0.153625 0.891054
O O8 0.676683 0.670847 0.707337
O O9 0.873061 0.730474 0.410817
O O10 0.504737 0.667755 0.216854
O O11 0.500000 0.748941 0.000000
O O12 0.000000 0.811059 0.500000
#
# Coordination Sequence:
#
# PCOD8114192 Si02
#       5
#     8   8   8   8   8
#     4  11  25  42  60  83 112 151 198 240 282 333
#     4  11  22  36  57  86 118 152 194 231 282 344
#     4  11  22  35  58  85 117 155 190 231 285 339
#     4  11  21  35  55  89 124 151 182 232 290 345
#     4  11  21  34  55  88 123 151 182 231 292 344
#
# _framework density 18.634056000000001
#
# number of rings (size 3 to 8) (size 9 to 14) (size 15 to 20)
#    0.000    1.000    6.000    1.200    2.800    1.600 
#    0.000    0.000    0.000    2.400    0.000    0.000 
#    0.000    0.000    0.000    0.000    0.000    0.000 
#
# Total GULP energy -247920.439315 kJ/mol
# GULP energy per Si atom -12396.021966 kJ/mol
# Density = 1.859164 g / cm^3
# Si number density = 18.634056 Si / 1000 Ang^3
#
#
#
# Elastic Constant Matrix: (Units=GPa)
#
#
# Indices 1 2 3 4 5 6 
#
# 1 158.5171 53.3009 64.4889 0.0000 1.4433 0.0000
# 2 53.3009 73.6636 38.6380 0.0000 -1.4113 0.0000
# 3 64.4889 38.6380 140.2344 0.0000 -6.1042 0.0000
# 4 0.0000 0.0000 0.0000 18.3830 0.0000 1.5036
# 5 1.4433 -1.4113 -6.1042 0.0000 33.1274 0.0000
# 6 0.0000 0.0000 0.0000 1.5036 0.0000 25.7405
#
#
#
# Elastic Compliance Matrix: (Units=1/GPa)
#
#
# Indices 1 2 3 4 5 6 
#
# 1 0.009232 -0.005201 -0.002863 0.000000 -0.001151 0.000000
# 2 -0.005201 0.018799 -0.002765 0.000000 0.000518 0.000000
# 3 -0.002863 -0.002765 0.009284 0.000000 0.001718 0.000000
# 4 0.000000 0.000000 0.000000 0.054659 0.000000 -0.003193
# 5 -0.001151 0.000518 0.001718 0.000000 0.030575 0.000000
# 6 0.000000 0.000000 0.000000 -0.003193 0.000000 0.039036
#
#
# Mechanical properties :
#
#
# Convention : Reuss Voigt Hill
#
# Bulk Modulus (GPa) = 63.86748 76.14121 70.00434
# Shear Modulus (GPa) = 26.53050 29.84932 28.18991
#
# Velocity S-wave (km/s) = 3.77737 4.00668 3.89371
# Velocity P-wave (km/s) = 7.30573 7.89650 7.60685
#
# Compressibility (1/GPa) = 0.01565742
#
# Stress axis : x y z
#
# Youngs Moduli (GPa) = 108.31475 53.19513 107.71089
#
# Poissons Ratio (x) = 0.27665 0.30836
# Poissons Ratio (y) = 0.56331 0.29786
# Poissons Ratio (z) = 0.31009 0.14710
#
# Static dielectric constant tensor:
#      x y z
#    x 3.874500 0.000000 -0.171730 
#    y 0.000000 2.949620 0.000000 
#    z -0.171730 0.000000 3.743200 
# 
# 
# High freq. dielectric constant tensor:
#      x y z
#    x 1.755270 0.000000 0.000730 
#    y 0.000000 1.654340 0.000000 
#    z 0.000730 0.000000 1.746680 
# 
# From -- ./inp_files/48511.got.cif
#   From: 2010.06.25/outbox.cif.g09.slc.cpg/sg12_25_cif.got.tgz:48511.got - 2010.06.28 00:19:55.
