data_PCOD8114417
_publ_section_title
;
Structure prediction by ZEFSAII (Michael W. Deem and Ramdas Pophale) SiO2 
 PCOD8114417
Probable space group: C 2/M
;
_chemical_formula_sum "Si O2"
_cell_formula_units_Z 48
_cell_length_a 20.152340
_cell_length_b 8.558649
_cell_length_c 20.840236
_cell_angle_alpha 90.000000
_cell_angle_beta 42.233161
_cell_angle_gamma 90.000000
_cell_volume 2416.011719
_symmetry_space_group_name_H-M "C 2/M"
_symmetry_group_IT_number 12
_symmetry_cell_setting 'monoclinic'
loop_
_space_group_symop_operation_xyz
x,y,z
-x,y,-z
-x,-y,-z
x,-y,z
1/2+x,1/2+y,z
1/2-x,1/2+y,-z
1/2-x,1/2-y,-z
1/2+x,1/2-y,z
loop_
_atom_site_type_symbol
_atom_site_label
_atom_site_fract_x
_atom_site_fract_y
_atom_site_fract_z
Si Si1 0.156170 0.318269 0.805934
Si Si2 0.420119 0.182865 0.787285
Si Si3 0.996690 0.683778 0.404451
Si Si4 0.965585 0.180950 0.885931
Si Si5 0.340190 0.185122 0.613971
Si Si6 0.710489 0.181824 0.910530
O O1 0.131931 0.500000 0.818675
O O2 0.235473 0.271143 0.694985
O O3 0.198460 0.270649 0.845009
O O4 0.055168 0.225177 0.868318
O O5 0.492221 0.235750 0.677344
O O6 0.476118 0.220909 0.812858
O O7 0.319952 0.280713 0.855676
O O8 0.395143 0.000000 0.800229
O O9 0.999350 0.500000 0.410687
O O10 0.892265 0.739279 0.509763
O O11 0.089684 0.746675 0.378654
O O12 0.969397 0.000000 0.865754
O O13 0.863435 0.217694 0.993928
O O14 0.321969 0.000000 0.629907
O O15 0.687764 0.000000 0.937917
#
# Coordination Sequence:
#
# PCOD8114417 Si02
#       6
#     8   8   8   8   8   8
#     4  11  23  39  59  87 119 151 189 238 290 340
#     4  11  21  38  62  88 118 153 192 234 285 340
#     4   8  16  31  58  89 116 147 187 234 280 334
#     4  12  26  41  58  82 115 155 196 239 288 342
#     4   9  16  33  59  88 116 147 190 233 280 337
#     4  11  23  40  61  86 116 150 192 240 286 339
#
# _framework density 19.867453000000001
#
# number of rings (size 3 to 8) (size 9 to 14) (size 15 to 20)
#    0.000    1.667    1.667    5.000    0.000    4.000 
#    0.000    4.167    0.000    0.000    0.000    0.000 
#    0.000    0.000    0.000    0.000    0.000    0.000 
#
# Total GULP energy -297651.819057 kJ/mol
# GULP energy per Si atom -12402.159127 kJ/mol
# Density = 1.982223 g / cm^3
# Si number density = 19.867453 Si / 1000 Ang^3
#
#
#
# Elastic Constant Matrix: (Units=GPa)
#
#
# Indices 1 2 3 4 5 6 
#
# 1 59.5534 18.4894 16.6348 0.0000 6.4776 0.0000
# 2 18.4894 54.3734 28.1360 -0.0002 5.0087 0.0004
# 3 16.6348 28.1360 109.2325 0.0001 22.4034 0.0001
# 4 0.0000 -0.0002 0.0001 21.6914 0.0000 -2.6369
# 5 6.4776 5.0087 22.4034 0.0000 13.5683 0.0000
# 6 0.0000 0.0004 0.0001 -2.6369 0.0000 27.9004
#
#
#
# Elastic Compliance Matrix: (Units=1/GPa)
#
#
# Indices 1 2 3 4 5 6 
#
# 1 0.019407 -0.005965 0.000045 0.000000 -0.007137 0.000000
# 2 -0.005965 0.023082 -0.005857 0.000000 0.003998 0.000000
# 3 0.000045 -0.005857 0.015450 0.000000 -0.023369 0.000000
# 4 0.000000 0.000000 0.000000 0.046637 0.000000 0.004408
# 5 -0.007137 0.003998 -0.023369 0.000000 0.114219 0.000000
# 6 0.000000 0.000000 0.000000 0.004408 0.000000 0.036258
#
#
# Mechanical properties :
#
#
# Convention : Reuss Voigt Hill
#
# Bulk Modulus (GPa) = 29.08290 38.85330 33.96810
# Shear Modulus (GPa) = 17.23723 23.29196 20.26459
#
# Velocity S-wave (km/s) = 2.94872 3.42770 3.19719
# Velocity P-wave (km/s) = 5.12479 5.93837 5.54652
#
# Compressibility (1/GPa) = 0.03438446
#
# Stress axis : x y z
#
# Youngs Moduli (GPa) = 51.52662 43.32332 64.72667
#
# Poissons Ratio (x) = 0.25843 -0.00290
# Poissons Ratio (y) = 0.30736 0.37911
# Poissons Ratio (z) = -0.00231 0.25375
#
# Static dielectric constant tensor:
#      x y z
#    x 3.459000 0.000000 0.172590 
#    y 0.000000 3.386570 0.000000 
#    z 0.172590 0.000000 3.905800 
# 
# 
# High freq. dielectric constant tensor:
#      x y z
#    x 1.756340 0.000000 0.005470 
#    y 0.000000 1.762800 0.000000 
#    z 0.005470 0.000000 1.790380 
# 
# From -- ./inp_files/229942.got.cif
#   From: 2010.06.25/outbox.cif.g09.slc.cpg/sg12_115_cif.got.tgz:229942.got - 2010.06.28 00:19:55.
