data_PCOD8114628
_publ_section_title
;
Structure prediction by ZEFSAII (Michael W. Deem and Ramdas Pophale) SiO2 
 PCOD8114628
Probable space group: C 2/M
;
_chemical_formula_sum "Si O2"
_cell_formula_units_Z 40
_cell_length_a 20.403259
_cell_length_b 9.110626
_cell_length_c 17.739936
_cell_angle_alpha 90.000000
_cell_angle_beta 43.266732
_cell_angle_gamma 90.000000
_cell_volume 2260.170302
_symmetry_space_group_name_H-M "C 2/M"
_symmetry_group_IT_number 12
_symmetry_cell_setting 'monoclinic'
loop_
_space_group_symop_operation_xyz
x,y,z
-x,y,-z
-x,-y,-z
x,-y,z
1/2+x,1/2+y,z
1/2-x,1/2+y,-z
1/2-x,1/2-y,-z
1/2+x,1/2-y,z
loop_
_atom_site_type_symbol
_atom_site_label
_atom_site_fract_x
_atom_site_fract_y
_atom_site_fract_z
Si Si1 0.538562 0.330859 0.218656
Si Si2 0.325796 0.831226 0.987703
Si Si3 0.317249 0.668296 0.770192
Si Si4 0.158666 0.172190 0.542525
Si Si5 0.108907 0.670903 0.430329
O O1 0.557463 0.500000 0.184991
O O2 0.570651 0.240397 0.116889
O O3 0.601567 0.283006 0.238057
O O4 0.428192 0.297439 0.327309
O O5 0.329514 0.000000 0.960956
O O6 0.250000 0.750000 0.000000
O O7 0.289358 0.814216 0.104523
O O8 0.335251 0.500000 0.730308
O O9 0.322722 0.774186 0.693999
O O10 0.250000 0.250000 0.500000
O O11 0.134404 0.238340 0.482377
O O12 0.177826 0.000000 0.517013
O O13 0.128148 0.500000 0.428945
O O14 0.000000 0.703234 0.500000
#
# Coordination Sequence:
#
# PCOD8114628 Si02
#       5
#     8   8   8   8   8
#     4   9  18  32  51  75 105 141 177 216 266 319
#     4   9  17  28  46  74 106 138 174 216 264 316
#     4   9  17  31  50  76 107 140 175 214 269 319
#     4  11  23  39  57  78 109 146 183 222 269 325
#     4  11  22  34  53  82 110 140 181 225 268 316
#
# _framework density 17.697780999999999
#
# number of rings (size 3 to 8) (size 9 to 14) (size 15 to 20)
#    0.000    2.200    2.000    3.000    0.000    6.400 
#    0.000    0.000    0.000    1.200    0.000    8.400 
#    0.000    0.000    0.000    0.000    0.000    0.000 
#
# Total GULP energy -247948.664849 kJ/mol
# GULP energy per Si atom -12397.433242 kJ/mol
# Density = 1.765750 g / cm^3
# Si number density = 17.697781 Si / 1000 Ang^3
#
#
#
# Elastic Constant Matrix: (Units=GPa)
#
#
# Indices 1 2 3 4 5 6 
#
# 1 65.8572 51.9041 45.5363 0.0000 -7.7149 0.0000
# 2 51.9041 119.6780 85.7479 -0.0001 -0.5667 0.0001
# 3 45.5363 85.7479 135.7274 0.0000 -1.0823 0.0000
# 4 0.0000 -0.0001 0.0000 37.7971 0.0000 2.3921
# 5 -7.7149 -0.5667 -1.0823 0.0000 17.6944 0.0000
# 6 0.0000 0.0001 0.0000 2.3921 0.0000 26.6310
#
#
#
# Elastic Compliance Matrix: (Units=1/GPa)
#
#
# Indices 1 2 3 4 5 6 
#
# 1 0.025434 -0.009002 -0.002761 0.000000 0.010632 0.000000
# 2 -0.009002 0.018452 -0.008668 0.000000 -0.003864 0.000000
# 3 -0.002761 -0.008668 0.013765 0.000000 -0.000640 0.000000
# 4 0.000000 0.000000 0.000000 0.026608 0.000000 -0.002390
# 5 0.010632 -0.003864 -0.000640 0.000000 0.060988 0.000000
# 6 0.000000 0.000000 0.000000 -0.002390 0.000000 0.037765
#
#
# Mechanical properties :
#
#
# Convention : Reuss Voigt Hill
#
# Bulk Modulus (GPa) = 59.56362 76.40437 67.98399
# Shear Modulus (GPa) = 21.78928 25.62943 23.70936
#
# Velocity S-wave (km/s) = 3.51263 3.80961 3.66413
# Velocity P-wave (km/s) = 7.08382 7.91305 7.50989
#
# Compressibility (1/GPa) = 0.01678877
#
# Stress axis : x y z
#
# Youngs Moduli (GPa) = 39.31797 54.19406 72.64699
#
# Poissons Ratio (x) = 0.48785 0.20058
# Poissons Ratio (y) = 0.35394 0.62972
# Poissons Ratio (z) = 0.10856 0.46976
#
# Static dielectric constant tensor:
#      x y z
#    x 2.761230 0.000000 -0.104510 
#    y 0.000000 3.490790 0.000000 
#    z -0.104510 0.000000 4.006000 
# 
# 
# High freq. dielectric constant tensor:
#      x y z
#    x 1.628400 0.000000 0.002510 
#    y 0.000000 1.697310 0.000000 
#    z 0.002510 0.000000 1.704610 
# 
# From -- ./inp_files/220596.got.cif
#   From: 2010.06.25/outbox.cif.g09.slc.cpg/sg12_111_cif.got.tgz:220596.got - 2010.06.28 00:19:55.
