data_PCOD8114643
_publ_section_title
;
Structure prediction by ZEFSAII (Michael W. Deem and Ramdas Pophale) SiO2 
 PCOD8114643
Probable space group: C 2/M
;
_chemical_formula_sum "Si O2"
_cell_formula_units_Z 48
_cell_length_a 18.210982
_cell_length_b 9.156810
_cell_length_c 21.186990
_cell_angle_alpha 90.000000
_cell_angle_beta 132.160465
_cell_angle_gamma 90.000000
_cell_volume 2618.918803
_symmetry_space_group_name_H-M "C 2/M"
_symmetry_group_IT_number 12
_symmetry_cell_setting 'monoclinic'
loop_
_space_group_symop_operation_xyz
x,y,z
-x,y,-z
-x,-y,-z
x,-y,z
1/2+x,1/2+y,z
1/2-x,1/2+y,-z
1/2-x,1/2-y,-z
1/2+x,1/2-y,z
loop_
_atom_site_type_symbol
_atom_site_label
_atom_site_fract_x
_atom_site_fract_y
_atom_site_fract_z
Si Si1 0.463250 0.834947 0.226434
Si Si2 0.106476 0.673492 0.081844
Si Si3 0.849633 0.330867 0.754499
Si Si4 0.761627 0.666711 0.406903
Si Si5 0.728674 0.672708 0.922234
Si Si6 0.882699 0.333823 0.588286
O O1 0.551712 0.800219 0.228798
O O2 0.376796 0.719892 0.166090
O O3 0.504002 0.816404 0.321996
O O4 0.424066 0.000000 0.192427
O O5 0.099986 0.500000 0.081967
O O6 0.135441 0.736626 0.167260
O O7 0.187412 0.724549 0.078046
O O8 0.000000 0.737901 0.000000
O O9 0.825111 0.500000 0.744956
O O10 0.753259 0.258099 0.665839
O O11 0.744046 0.500000 0.378178
O O12 0.868780 0.688952 0.504186
O O13 0.681508 0.714169 0.412547
O O14 0.729971 0.500000 0.932892
O O15 0.750000 0.750000 0.000000
O O16 0.847553 0.500000 0.585772
#
# Coordination Sequence:
#
# PCOD8114643 Si02
#       6
#     8   8   8   8   8   8
#     4   9  17  31  51  73  98 128 161 197 237 281
#     4   9  18  34  54  71  90 123 164 197 230 284
#     4   9  17  31  51  72  96 129 165 198 237 285
#     4   9  15  24  42  70 100 126 159 203 242 275
#     4  11  22  35  53  75  97 123 157 197 241 288
#     4   8  15  27  43  65  96 134 167 193 230 282
#
# _framework density 18.328174000000001
#
# number of rings (size 3 to 8) (size 9 to 14) (size 15 to 20)
#    0.000    2.833    0.000    3.000    0.000    6.000 
#    0.000    1.667    0.000    4.500    0.000    7.000 
#    0.000    0.000    0.000    0.000    0.000    0.000 
#
# Total GULP energy -297390.143646 kJ/mol
# GULP energy per Si atom -12391.255985 kJ/mol
# Density = 1.828646 g / cm^3
# Si number density = 18.328174 Si / 1000 Ang^3
#
#
#
# Elastic Constant Matrix: (Units=GPa)
#
#
# Indices 1 2 3 4 5 6 
#
# 1 67.9926 30.9581 62.2712 0.0000 -7.7683 0.0000
# 2 30.9581 58.2868 53.1337 0.0000 -0.7876 0.0000
# 3 62.2712 53.1337 197.6842 0.0000 -17.6272 0.0000
# 4 0.0000 0.0000 0.0000 34.5640 0.0000 1.1765
# 5 -7.7683 -0.7876 -17.6272 0.0000 24.6140 0.0000
# 6 0.0000 0.0000 0.0000 1.1765 0.0000 17.3174
#
#
#
# Elastic Compliance Matrix: (Units=1/GPa)
#
#
# Indices 1 2 3 4 5 6 
#
# 1 0.023125 -0.007793 -0.004872 0.000000 0.003560 0.000000
# 2 -0.007793 0.025706 -0.004914 0.000000 -0.005156 0.000000
# 3 -0.004872 -0.004914 0.008293 0.000000 0.004244 0.000000
# 4 0.000000 0.000000 0.000000 0.028999 0.000000 -0.001970
# 5 0.003560 -0.005156 0.004244 0.000000 0.044625 0.000000
# 6 0.000000 0.000000 0.000000 -0.001970 0.000000 0.057879
#
#
# Mechanical properties :
#
#
# Convention : Reuss Voigt Hill
#
# Bulk Modulus (GPa) = 45.52817 68.52106 57.02462
# Shear Modulus (GPa) = 21.63508 27.13910 24.38709
#
# Velocity S-wave (km/s) = 3.43946 3.85220 3.65167
# Velocity P-wave (km/s) = 6.37712 7.56655 6.99716
#
# Compressibility (1/GPa) = 0.02196442
#
# Stress axis : x y z
#
# Youngs Moduli (GPa) = 43.24375 38.90208 120.58817
#
# Poissons Ratio (x) = 0.30315 0.58756
# Poissons Ratio (y) = 0.33698 0.59260
# Poissons Ratio (z) = 0.21070 0.19117
#
# Static dielectric constant tensor:
#      x y z
#    x 2.980880 0.000000 -0.117090 
#    y 0.000000 3.244930 0.000000 
#    z -0.117090 0.000000 4.014030 
# 
# 
# High freq. dielectric constant tensor:
#      x y z
#    x 1.653600 0.000000 -0.008790 
#    y 0.000000 1.695840 0.000000 
#    z -0.008790 0.000000 1.743150 
# 
# From -- ./inp_files/313603.got.cif
#   From: 2010.06.25/outbox.cif.g09.slc.cpg/sg12_157_cif.got.tgz:313603.got - 2010.06.28 00:19:55.
