data_PCOD8114853
_publ_section_title
;
Structure prediction by ZEFSAII (Michael W. Deem and Ramdas Pophale) SiO2 
 PCOD8114853
Probable space group: C 2/M
;
_chemical_formula_sum "Si O2"
_cell_formula_units_Z 64
_cell_length_a 9.340294
_cell_length_b 16.163520
_cell_length_c 20.798241
_cell_angle_alpha 90.000000
_cell_angle_beta 87.025327
_cell_angle_gamma 90.000000
_cell_volume 3135.721780
_symmetry_space_group_name_H-M "C 2/M"
_symmetry_group_IT_number 12
_symmetry_cell_setting 'monoclinic'
loop_
_space_group_symop_operation_xyz
x,y,z
-x,y,-z
-x,-y,-z
x,-y,z
1/2+x,1/2+y,z
1/2-x,1/2+y,-z
1/2-x,1/2-y,-z
1/2+x,1/2-y,z
loop_
_atom_site_type_symbol
_atom_site_label
_atom_site_fract_x
_atom_site_fract_y
_atom_site_fract_z
Si Si1 0.068818 0.810246 0.859768
Si Si2 0.029638 0.233387 0.343759
Si Si3 0.298831 0.212395 0.258018
Si Si4 0.284234 0.592134 0.836086
Si Si5 0.920373 0.094757 0.437557
Si Si6 0.849078 0.314654 0.536361
Si Si7 0.157145 0.092055 0.967542
Si Si8 0.377266 0.842372 0.049194
O O1 0.152700 0.783628 0.793391
O O2 0.152502 0.886142 0.891448
O O3 0.068511 0.739220 0.914817
O O4 0.907933 0.839743 0.846665
O O5 0.132983 0.221869 0.280881
O O6 0.116975 0.283934 0.393816
O O7 0.894867 0.285597 0.320116
O O8 0.974148 0.147282 0.375337
O O9 0.305949 0.122581 0.224081
O O10 0.346263 0.500000 0.823379
O O11 0.171608 0.589813 0.897136
O O12 0.749376 0.103968 0.452854
O O13 0.000000 0.127553 0.500000
O O14 0.959108 0.000000 0.422780
O O15 0.750000 0.250000 0.500000
O O16 0.000000 0.336490 0.500000
O O17 0.225274 0.000000 0.972782
O O18 0.241461 0.164278 0.003988
O O19 0.000000 0.091335 0.000000
O O20 0.500000 0.877864 0.000000
#
# Coordination Sequence:
#
# PCOD8114853 Si02
#       8
#     8   8   8   8   8   8   8   8
#     4  11  23  40  63  90 123 166 215 264 317 386
#     4  12  21  42  67  95 128 174 222 262 312 390
#     4  11  25  40  66  95 122 172 227 265 310 386
#     4  11  24  44  65  90 127 167 212 269 327 387
#     4  11  24  41  65 104 141 169 216 276 330 379
#     4  12  20  38  71 102 132 179 220 268 325 384
#     4  11  22  38  62  92 125 164 211 266 334 402
#     4  11  25  38  64  95 125 157 208 271 333 396
#
# _framework density 20.409973999999998
#
# number of rings (size 3 to 8) (size 9 to 14) (size 15 to 20)
#    0.000    0.750    6.250    1.500    3.500    1.750 
#    0.000    0.625    0.000    0.000    0.000    0.000 
#    0.000    0.000    0.000    0.000    0.000    0.000 
#
# Total GULP energy -396553.134675 kJ/mol
# GULP energy per Si atom -12392.285459 kJ/mol
# Density = 2.036352 g / cm^3
# Si number density = 20.409974 Si / 1000 Ang^3
#
#
#
# Elastic Constant Matrix: (Units=GPa)
#
#
# Indices 1 2 3 4 5 6 
#
# 1 121.1831 50.9966 53.7366 0.0000 -8.0154 0.0000
# 2 50.9966 97.4276 46.8079 0.0000 8.0386 0.0000
# 3 53.7366 46.8079 121.4189 0.0000 2.6153 0.0000
# 4 0.0000 0.0000 0.0000 29.8732 0.0000 -4.2133
# 5 -8.0154 8.0386 2.6153 0.0000 49.5622 0.0000
# 6 0.0000 0.0000 0.0000 -4.2133 0.0000 35.7743
#
#
#
# Elastic Compliance Matrix: (Units=1/GPa)
#
#
# Indices 1 2 3 4 5 6 
#
# 1 0.012052 -0.004856 -0.003525 0.000000 0.002923 0.000000
# 2 -0.004856 0.014714 -0.003459 0.000000 -0.002989 0.000000
# 3 -0.003525 -0.003459 0.011142 0.000000 -0.000597 0.000000
# 4 0.000000 0.000000 0.000000 0.034040 0.000000 0.004009
# 5 0.002923 -0.002989 -0.000597 0.000000 0.021166 0.000000
# 6 0.000000 0.000000 0.000000 0.004009 0.000000 0.028425
#
#
# Mechanical properties :
#
#
# Convention : Reuss Voigt Hill
#
# Bulk Modulus (GPa) = 70.27936 71.45688 70.86812
# Shear Modulus (GPa) = 33.34184 35.60784 34.47484
#
# Velocity S-wave (km/s) = 4.04617 4.18141 4.11435
# Velocity P-wave (km/s) = 7.50582 7.64192 7.57418
#
# Compressibility (1/GPa) = 0.01422893
#
# Stress axis : x y z
#
# Youngs Moduli (GPa) = 82.97530 67.96121 89.74899
#
# Poissons Ratio (x) = 0.33002 0.31634
# Poissons Ratio (y) = 0.40293 0.31044
# Poissons Ratio (z) = 0.29246 0.23507
#
# Static dielectric constant tensor:
#      x y z
#    x 4.132890 0.000000 0.369010 
#    y 0.000000 3.516220 0.000000 
#    z 0.369010 0.000000 3.998540 
# 
# 
# High freq. dielectric constant tensor:
#      x y z
#    x 1.804740 0.000000 0.006940 
#    y 0.000000 1.771940 0.000000 
#    z 0.006940 0.000000 1.810130 
# 
# From -- ./inp_files/300803.got.cif
#   From: 2010.06.25/outbox.cif.g09.slc.cpg/sg12_151_cif.got.tgz:300803.got - 2010.06.28 00:19:55.
