data_PCOD8114787
_publ_section_title
;
Structure prediction by ZEFSAII (Michael W. Deem and Ramdas Pophale) SiO2 
 PCOD8114787
Probable space group: C 2/M
;
_chemical_formula_sum "Si O2"
_cell_formula_units_Z 56
_cell_length_a 10.097504
_cell_length_b 21.234317
_cell_length_c 17.222642
_cell_angle_alpha 90.000000
_cell_angle_beta 52.053615
_cell_angle_gamma 90.000000
_cell_volume 2912.067604
_symmetry_space_group_name_H-M "C 2/M"
_symmetry_group_IT_number 12
_symmetry_cell_setting 'monoclinic'
loop_
_space_group_symop_operation_xyz
x,y,z
-x,y,-z
-x,-y,-z
x,-y,z
1/2+x,1/2+y,z
1/2-x,1/2+y,-z
1/2-x,1/2-y,-z
1/2+x,1/2-y,z
loop_
_atom_site_type_symbol
_atom_site_label
_atom_site_fract_x
_atom_site_fract_y
_atom_site_fract_z
Si Si1 0.805152 0.426645 0.573850
Si Si2 0.874240 0.335566 0.981925
Si Si3 0.740092 0.633024 0.755567
Si Si4 0.953946 0.225781 0.847683
Si Si5 0.639385 0.338734 0.507548
Si Si6 0.303100 0.572882 0.070876
Si Si7 0.463103 0.773314 0.348930
O O1 0.788763 0.500000 0.560789
O O2 0.726164 0.413195 0.686954
O O3 0.695246 0.390047 0.550261
O O4 0.000000 0.405141 0.500000
O O5 0.980074 0.289565 0.887352
O O6 0.787385 0.391078 0.966030
O O7 0.739446 0.294069 0.077321
O O8 0.000000 0.365424 0.000000
O O9 0.568155 0.669119 0.837898
O O10 0.782186 0.592577 0.816871
O O11 0.880667 0.683792 0.684531
O O12 0.005339 0.236887 0.741321
O O13 0.500000 0.368470 0.500000
O O14 0.557457 0.277503 0.576099
O O15 0.799766 0.317262 0.399616
O O16 0.268945 0.500000 0.068668
O O17 0.500000 0.588350 0.000000
#
# Coordination Sequence:
#
# PCOD8114787 Si02
#       7
#     8   8   8   8   8   8   8
#     4  11  24  43  64  88 124 170 213 251 297 367
#     4  11  24  39  61  94 127 160 201 252 316 369
#     4  12  21  40  66  94 119 162 212 258 300 364
#     4  11  22  37  62  92 128 158 198 253 316 367
#     4  11  24  39  61  94 127 160 201 252 316 369
#     4  11  24  43  64  88 124 170 213 251 297 367
#     4  11  22  37  62  92 128 158 198 253 316 367
#
# _framework density 19.230322999999999
#
# number of rings (size 3 to 8) (size 9 to 14) (size 15 to 20)
#    0.000    0.857    5.714    2.143    4.000    0.571 
#    0.000    0.000    0.000    1.714    0.000    0.000 
#    0.000    0.000    0.000    0.000    0.000    0.000 
#
# Total GULP energy -347322.492842 kJ/mol
# GULP energy per Si atom -12404.374744 kJ/mol
# Density = 1.918655 g / cm^3
# Si number density = 19.230323 Si / 1000 Ang^3
#
#
#
# Elastic Constant Matrix: (Units=GPa)
#
#
# Indices 1 2 3 4 5 6 
#
# 1 134.9544 48.2038 25.0534 0.0000 9.8015 0.0000
# 2 48.2038 85.5542 26.9388 0.0000 4.1574 0.0000
# 3 25.0534 26.9388 78.3567 0.0000 8.1563 0.0000
# 4 0.0000 0.0000 0.0000 19.5761 0.0000 -8.9385
# 5 9.8015 4.1574 8.1563 0.0000 28.7125 0.0000
# 6 0.0000 0.0000 0.0000 -8.9385 0.0000 24.4469
#
#
#
# Elastic Compliance Matrix: (Units=1/GPa)
#
#
# Indices 1 2 3 4 5 6 
#
# 1 0.009534 -0.004908 -0.001130 0.000000 -0.002223 0.000000
# 2 -0.004908 0.015645 -0.003862 0.000000 0.000507 0.000000
# 3 -0.001130 -0.003862 0.014790 0.000000 -0.003257 0.000000
# 4 0.000000 0.000000 0.000000 0.061320 0.000000 0.022420
# 5 -0.002223 0.000507 -0.003257 0.000000 0.036439 0.000000
# 6 0.000000 0.000000 0.000000 0.022420 0.000000 0.049103
#
#
# Mechanical properties :
#
#
# Convention : Reuss Voigt Hill
#
# Bulk Modulus (GPa) = 49.57960 55.47301 52.52631
# Shear Modulus (GPa) = 23.43522 27.79173 25.61347
#
# Velocity S-wave (km/s) = 3.49472 3.80571 3.65352
# Velocity P-wave (km/s) = 6.49015 6.94410 6.72096
#
# Compressibility (1/GPa) = 0.02016959
#
# Stress axis : x y z
#
# Youngs Moduli (GPa) = 104.88573 63.91660 67.61252
#
# Poissons Ratio (x) = 0.31371 0.07638
# Poissons Ratio (y) = 0.51479 0.26114
# Poissons Ratio (z) = 0.11848 0.24687
#
# Static dielectric constant tensor:
#      x y z
#    x 3.444730 0.000000 -0.052670 
#    y 0.000000 3.437380 0.000000 
#    z -0.052670 0.000000 3.672370 
# 
# 
# High freq. dielectric constant tensor:
#      x y z
#    x 1.745210 0.000000 0.003390 
#    y 0.000000 1.739020 0.000000 
#    z 0.003390 0.000000 1.763340 
# 
# From -- ./inp_files/259144.got.cif
#   From: 2010.06.25/outbox.cif.g09.slc.cpg/sg12_130_cif.got.tgz:259144.got - 2010.06.28 00:19:55.
