data_PCOD8114418
_publ_section_title
;
Structure prediction by ZEFSAII (Michael W. Deem and Ramdas Pophale) SiO2 
 PCOD8114418
Probable space group: C 2/M
;
_chemical_formula_sum "Si O2"
_cell_formula_units_Z 56
_cell_length_a 20.475579
_cell_length_b 8.513471
_cell_length_c 17.790062
_cell_angle_alpha 90.000000
_cell_angle_beta 63.619230
_cell_angle_gamma 90.000000
_cell_volume 2778.183427
_symmetry_space_group_name_H-M "C 2/M"
_symmetry_group_IT_number 12
_symmetry_cell_setting 'monoclinic'
loop_
_space_group_symop_operation_xyz
x,y,z
-x,y,-z
-x,-y,-z
x,-y,z
1/2+x,1/2+y,z
1/2-x,1/2+y,-z
1/2-x,1/2-y,-z
1/2+x,1/2-y,z
loop_
_atom_site_type_symbol
_atom_site_label
_atom_site_fract_x
_atom_site_fract_y
_atom_site_fract_z
Si Si1 0.661131 0.687217 0.778711
Si Si2 0.070958 0.184102 0.682168
Si Si3 0.912317 0.314899 0.755830
Si Si4 0.828242 0.813470 0.937211
Si Si5 0.081191 0.813590 0.965627
Si Si6 0.825543 0.684809 0.492300
Si Si7 0.320641 0.186272 0.662676
O O1 0.661329 0.500000 0.779975
O O2 0.611211 0.747828 0.735782
O O3 0.629496 0.755221 0.872767
O O4 0.742178 0.755693 0.726910
O O5 0.105202 0.266147 0.591990
O O6 0.986275 0.222505 0.733329
O O7 0.082480 0.000000 0.667420
O O8 0.927038 0.500000 0.750095
O O9 0.852454 0.269681 0.848283
O O10 0.881887 0.258890 0.690388
O O11 0.826203 0.000000 0.927724
O O12 0.750000 0.750000 0.000000
O O13 0.884997 0.761711 0.972569
O O14 0.078866 0.000000 0.960540
O O15 0.000000 0.743456 0.000000
O O16 0.818001 0.500000 0.497043
O O17 0.750000 0.750000 0.500000
O O18 0.840048 0.748030 0.569420
O O19 0.315162 0.000000 0.666418
#
# Coordination Sequence:
#
# PCOD8114418 Si02
#       7
#     8   8   8   8   8   8   8
#     4   9  16  31  56  82 108 147 198 239 277 342
#     4  11  22  38  61  88 121 155 192 243 300 351
#     4  11  23  40  61  86 118 156 201 244 290 349
#     4  11  22  38  61  87 118 155 196 243 297 351
#     4   9  17  30  53  83 110 145 196 240 276 336
#     4  11  21  38  62  89 118 151 197 243 294 351
#     4   9  19  36  59  83 110 154 202 239 280 354
#
# _framework density 20.157057999999999
#
# number of rings (size 3 to 8) (size 9 to 14) (size 15 to 20)
#    0.000    1.857    1.429    3.429    0.000    5.143 
#    0.000    5.714    0.000   10.286    0.000    0.000 
#    0.000    0.000    0.000    0.000    0.000    0.000 
#
# Total GULP energy -347253.803808 kJ/mol
# GULP energy per Si atom -12401.921565 kJ/mol
# Density = 2.011118 g / cm^3
# Si number density = 20.157058 Si / 1000 Ang^3
#
#
#
# Elastic Constant Matrix: (Units=GPa)
#
#
# Indices 1 2 3 4 5 6 
#
# 1 104.2330 14.1392 16.7099 0.0002 9.8707 0.0003
# 2 14.1392 33.0836 12.3584 0.0004 8.9221 0.0014
# 3 16.7099 12.3584 115.4098 0.0001 12.1544 0.0000
# 4 0.0002 0.0004 0.0001 28.6045 0.0000 -3.4345
# 5 9.8707 8.9221 12.1544 0.0000 42.6471 0.0001
# 6 0.0003 0.0014 0.0000 -3.4345 0.0001 26.7384
#
#
#
# Elastic Compliance Matrix: (Units=1/GPa)
#
#
# Indices 1 2 3 4 5 6 
#
# 1 0.010380 -0.003712 -0.000963 0.000000 -0.001351 0.000000
# 2 -0.003712 0.034269 -0.002544 -0.000001 -0.005585 -0.000002
# 3 -0.000963 -0.002544 0.009276 0.000000 -0.001888 0.000000
# 4 0.000000 -0.000001 0.000000 0.035507 0.000000 0.004561
# 5 -0.001351 -0.005585 -0.001888 0.000000 0.025468 0.000000
# 6 0.000000 -0.000002 0.000000 0.004561 0.000000 0.037985
#
#
# Mechanical properties :
#
#
# Convention : Reuss Voigt Hill
#
# Bulk Modulus (GPa) = 25.32491 37.68235 31.50363
# Shear Modulus (GPa) = 27.70313 33.56592 30.63453
#
# Velocity S-wave (km/s) = 3.71126 4.08514 3.90268
# Velocity P-wave (km/s) = 5.56378 6.40204 5.99757
#
# Compressibility (1/GPa) = 0.03948681
#
# Stress axis : x y z
#
# Youngs Moduli (GPa) = 96.34120 29.18054 107.81076
#
# Poissons Ratio (x) = 0.10831 0.10383
# Poissons Ratio (y) = 0.35761 0.27427
# Poissons Ratio (z) = 0.09278 0.07424
#
# Static dielectric constant tensor:
#      x y z
#    x 3.899200 0.000000 0.167430 
#    y 0.000000 3.297120 0.000000 
#    z 0.167430 0.000000 3.994000 
# 
# 
# High freq. dielectric constant tensor:
#      x y z
#    x 1.797860 0.000000 0.003120 
#    y 0.000000 1.750870 0.000000 
#    z 0.003120 0.000000 1.805050 
# 
# From -- ./inp_files/280864.got.cif
#   From: 2010.06.25/outbox.cif.g09.slc.cpg/sg12_141_cif.got.tgz:280864.got - 2010.06.28 00:19:55.
