data_PCOD8114851
_publ_section_title
;
Structure prediction by ZEFSAII (Michael W. Deem and Ramdas Pophale) SiO2 
 PCOD8114851
Probable space group: C 2/M
;
_chemical_formula_sum "Si O2"
_cell_formula_units_Z 48
_cell_length_a 26.954314
_cell_length_b 8.380281
_cell_length_c 15.246473
_cell_angle_alpha 90.000000
_cell_angle_beta 139.164475
_cell_angle_gamma 90.000000
_cell_volume 2251.960874
_symmetry_space_group_name_H-M "C 2/M"
_symmetry_group_IT_number 12
_symmetry_cell_setting 'monoclinic'
loop_
_space_group_symop_operation_xyz
x,y,z
-x,y,-z
-x,-y,-z
x,-y,z
1/2+x,1/2+y,z
1/2-x,1/2+y,-z
1/2-x,1/2-y,-z
1/2+x,1/2-y,z
loop_
_atom_site_type_symbol
_atom_site_label
_atom_site_fract_x
_atom_site_fract_y
_atom_site_fract_z
Si Si1 0.916585 0.189062 0.905395
Si Si2 0.336797 0.685761 0.973309
Si Si3 0.824493 0.182942 0.278050
Si Si4 0.911185 0.313631 0.555208
Si Si5 0.082822 0.314580 0.752388
Si Si6 0.665709 0.311439 0.379250
O O1 0.882374 0.255121 0.950496
O O2 0.862180 0.241650 0.753822
O O3 0.921226 0.000000 0.917663
O O4 0.000000 0.261807 0.000000
O O5 0.353999 0.500000 0.011582
O O6 0.247483 0.707153 0.839105
O O7 0.362785 0.783046 0.092708
O O8 0.856060 0.218858 0.416634
O O9 0.890066 0.216468 0.295443
O O10 0.798984 0.000000 0.239057
O O11 0.901737 0.500000 0.523483
O O12 0.888225 0.274097 0.623315
O O13 0.997718 0.257521 0.659241
O O14 0.085334 0.500000 0.731717
O O15 0.661134 0.500000 0.386882
O O16 0.750000 0.250000 0.500000
#
# Coordination Sequence:
#
# PCOD8114851 Si02
#       6
#     8   8   8   8   8   8
#     4   9  19  36  59  87 117 152 196 244 292 345
#     4  11  22  39  64  91 123 161 202 249 302 362
#     4  12  25  41  63  90 121 158 204 254 305 366
#     4  11  24  42  63  89 123 161 202 252 309 365
#     4  11  24  42  63  89 123 160 201 252 308 365
#     4  11  22  38  62  90 122 160 203 251 303 360
#
# _framework density 21.314757
#
# number of rings (size 3 to 8) (size 9 to 14) (size 15 to 20)
#    0.000    1.167    0.000    6.500    0.000    7.333 
#    0.000    2.500    0.000    6.000    0.000    0.000 
#    0.000    0.000    0.000    0.000    0.000    0.000 
#
# Total GULP energy -297787.459674 kJ/mol
# GULP energy per Si atom -12407.810820 kJ/mol
# Density = 2.126624 g / cm^3
# Si number density = 21.314757 Si / 1000 Ang^3
#
#
#
# Elastic Constant Matrix: (Units=GPa)
#
#
# Indices 1 2 3 4 5 6 
#
# 1 94.1719 16.7593 -5.7752 0.0000 2.4854 0.0000
# 2 16.7593 53.8377 12.9170 0.0000 -0.8260 0.0000
# 3 -5.7752 12.9170 84.1365 0.0000 4.2870 0.0000
# 4 0.0000 0.0000 0.0000 25.9375 0.0000 -2.3329
# 5 2.4854 -0.8260 4.2870 0.0000 45.7697 0.0000
# 6 0.0000 0.0000 0.0000 -2.3329 0.0000 31.8560
#
#
#
# Elastic Compliance Matrix: (Units=1/GPa)
#
#
# Indices 1 2 3 4 5 6 
#
# 1 0.011424 -0.003911 0.001427 0.000000 -0.000825 0.000000
# 2 -0.003911 0.020642 -0.003484 0.000000 0.000911 0.000000
# 3 0.001427 -0.003484 0.012585 0.000000 -0.001319 0.000000
# 4 0.000000 0.000000 0.000000 0.038810 0.000000 0.002842
# 5 -0.000825 0.000911 -0.001319 0.000000 0.022033 0.000000
# 6 0.000000 0.000000 0.000000 0.002842 0.000000 0.031599
#
#
# Mechanical properties :
#
#
# Convention : Reuss Voigt Hill
#
# Bulk Modulus (GPa) = 30.56754 31.10536 30.83645
# Shear Modulus (GPa) = 31.26258 34.59565 32.92912
#
# Velocity S-wave (km/s) = 3.83392 4.03312 3.93478
# Velocity P-wave (km/s) = 5.82844 6.02604 5.92806
#
# Compressibility (1/GPa) = 0.03271445
#
# Stress axis : x y z
#
# Youngs Moduli (GPa) = 87.53353 48.44551 79.45682
#
# Poissons Ratio (x) = 0.18948 -0.11336
# Poissons Ratio (y) = 0.34236 0.27682
# Poissons Ratio (z) = -0.12488 0.16878
#
# Static dielectric constant tensor:
#      x y z
#    x 4.111410 0.000000 0.002210 
#    y 0.000000 3.655640 0.000000 
#    z 0.002210 0.000000 3.887680 
# 
# 
# High freq. dielectric constant tensor:
#      x y z
#    x 1.853940 0.000000 -0.000500 
#    y 0.000000 1.824910 0.000000 
#    z -0.000500 0.000000 1.849330 
# 
# From -- ./inp_files/244827.got.cif
#   From: 2010.06.25/outbox.cif.g09.slc.cpg/sg12_123_cif.got.tgz:244827.got - 2010.06.28 00:19:55.
