data_PCOD8114426
_publ_section_title
;
Structure prediction by ZEFSAII (Michael W. Deem and Ramdas Pophale) SiO2 
 PCOD8114426
Probable space group: C 2/M
;
_chemical_formula_sum "Si O2"
_cell_formula_units_Z 56
_cell_length_a 9.807694
_cell_length_b 16.027991
_cell_length_c 20.398422
_cell_angle_alpha 90.000000
_cell_angle_beta 56.399931
_cell_angle_gamma 90.000000
_cell_volume 2670.829468
_symmetry_space_group_name_H-M "C 2/M"
_symmetry_group_IT_number 12
_symmetry_cell_setting 'monoclinic'
loop_
_space_group_symop_operation_xyz
x,y,z
-x,y,-z
-x,-y,-z
x,-y,z
1/2+x,1/2+y,z
1/2-x,1/2+y,-z
1/2-x,1/2-y,-z
1/2+x,1/2-y,z
loop_
_atom_site_type_symbol
_atom_site_label
_atom_site_fract_x
_atom_site_fract_y
_atom_site_fract_z
Si Si1 0.032117 0.157518 0.195266
Si Si2 0.792759 0.402812 0.659015
Si Si3 0.887685 0.349683 0.086096
Si Si4 0.471657 0.183746 0.299714
Si Si5 0.946170 0.592198 0.836420
Si Si6 0.683914 0.234828 0.446397
Si Si7 0.896430 0.836280 0.086811
O O1 0.893089 0.099905 0.265194
O O2 0.051916 0.241885 0.234107
O O3 0.989952 0.171956 0.130545
O O4 0.208615 0.109148 0.147374
O O5 0.848972 0.500000 0.641187
O O6 0.804391 0.361177 0.583123
O O7 0.910218 0.343946 0.672212
O O8 0.996702 0.346044 0.122178
O O9 0.845407 0.255559 0.075285
O O10 0.000000 0.393808 0.000000
O O11 0.446222 0.105919 0.257697
O O12 0.290444 0.207680 0.370121
O O13 0.973492 0.500000 0.856220
O O14 0.760781 0.605925 0.862605
O O15 0.500000 0.267559 0.500000
O O16 0.750000 0.250000 0.500000
O O17 0.000000 0.877745 0.000000
#
# Coordination Sequence:
#
# PCOD8114426 Si02
#       7
#     8   8   8   8   8   8   8
#     4  11  21  38  66  94 125 169 229 273 315 382
#     4  11  24  42  71 103 131 170 215 265 318 382
#     4  11  22  39  62  88 127 175 225 274 331 382
#     4  11  22  40  68  95 128 166 215 259 317 383
#     4  12  25  40  60  92 130 167 212 271 334 378
#     4  11  24  45  71 105 130 170 210 255 311 393
#     4  11  21  38  63  91 121 173 231 274 316 387
#
# _framework density 20.967269000000002
#
# number of rings (size 3 to 8) (size 9 to 14) (size 15 to 20)
#    0.000    0.857    5.714    1.286    2.000    3.714 
#    0.000    1.429    0.000    3.000    0.000    0.000 
#    0.000    0.000    0.000    0.000    0.000    0.000 
#
# Total GULP energy -346991.765852 kJ/mol
# GULP energy per Si atom -12392.563066 kJ/mol
# Density = 2.091955 g / cm^3
# Si number density = 20.967269 Si / 1000 Ang^3
#
#
#
# Elastic Constant Matrix: (Units=GPa)
#
#
# Indices 1 2 3 4 5 6 
#
# 1 133.2757 39.1292 68.8478 0.0000 -1.3671 0.0000
# 2 39.1292 82.7008 41.3932 0.0000 -2.0551 0.0000
# 3 68.8478 41.3932 156.2251 0.0000 -7.9629 0.0001
# 4 0.0000 0.0000 0.0000 13.0534 0.0000 0.3508
# 5 -1.3671 -2.0551 -7.9629 0.0000 50.0897 0.0000
# 6 0.0000 0.0000 0.0001 0.3508 0.0000 14.6928
#
#
#
# Elastic Compliance Matrix: (Units=1/GPa)
#
#
# Indices 1 2 3 4 5 6 
#
# 1 0.010335 -0.003009 -0.003780 0.000000 -0.000442 0.000000
# 2 -0.003009 0.014817 -0.002594 0.000000 0.000113 0.000000
# 3 -0.003780 -0.002594 0.008815 0.000000 0.001192 0.000000
# 4 0.000000 0.000000 0.000000 0.076658 0.000000 -0.001830
# 5 -0.000442 0.000113 0.001192 0.000000 0.020146 0.000000
# 6 0.000000 0.000000 0.000000 -0.001830 0.000000 0.068104
#
#
# Mechanical properties :
#
#
# Convention : Reuss Voigt Hill
#
# Bulk Modulus (GPa) = 65.78634 74.54911 70.16772
# Shear Modulus (GPa) = 22.45108 30.42260 26.43684
#
# Velocity S-wave (km/s) = 3.27581 3.81327 3.55471
# Velocity P-wave (km/s) = 6.76400 7.41756 7.09831
#
# Compressibility (1/GPa) = 0.01520072
#
# Stress axis : x y z
#
# Youngs Moduli (GPa) = 96.76173 67.49191 113.44578
#
# Poissons Ratio (x) = 0.20308 0.42880
# Poissons Ratio (y) = 0.29115 0.29428
# Poissons Ratio (z) = 0.36573 0.17507
#
# Static dielectric constant tensor:
#      x y z
#    x 3.690050 0.000000 -0.037290 
#    y 0.000000 3.473740 0.000000 
#    z -0.037290 0.000000 4.178650 
# 
# 
# High freq. dielectric constant tensor:
#      x y z
#    x 1.824940 0.000000 0.000430 
#    y 0.000000 1.785960 0.000000 
#    z 0.000430 0.000000 1.838860 
# 
# From -- ./inp_files/300685.got.cif
#   From: 2010.06.25/outbox.cif.g09.slc.cpg/sg12_151_cif.got.tgz:300685.got - 2010.06.28 00:19:55.
