data_PCOD8114243
_publ_section_title
;
Structure prediction by ZEFSAII (Michael W. Deem and Ramdas Pophale) SiO2 
 PCOD8114243
Probable space group: C 2/M
;
_chemical_formula_sum "Si O2"
_cell_formula_units_Z 48
_cell_length_a 28.142276
_cell_length_b 8.660915
_cell_length_c 17.404649
_cell_angle_alpha 90.000000
_cell_angle_beta 35.885764
_cell_angle_gamma 90.000000
_cell_volume 2486.638453
_symmetry_space_group_name_H-M "C 2/M"
_symmetry_group_IT_number 12
_symmetry_cell_setting 'monoclinic'
loop_
_space_group_symop_operation_xyz
x,y,z
-x,y,-z
-x,-y,-z
x,-y,z
1/2+x,1/2+y,z
1/2-x,1/2+y,-z
1/2-x,1/2-y,-z
1/2+x,1/2-y,z
loop_
_atom_site_type_symbol
_atom_site_label
_atom_site_fract_x
_atom_site_fract_y
_atom_site_fract_z
Si Si1 0.864169 0.318925 0.021066
Si Si2 0.222803 0.681863 0.115246
Si Si3 0.013776 0.682991 0.723269
Si Si4 0.595787 0.675203 0.874128
Si Si5 0.161982 0.316471 0.631710
Si Si6 0.540866 0.183815 0.369704
O O1 0.855216 0.500000 0.019447
O O2 0.940199 0.252515 0.872433
O O3 0.781740 0.236240 0.104938
O O4 0.873720 0.282718 0.097612
O O5 0.223335 0.500000 0.108222
O O6 0.132870 0.742779 0.250582
O O7 0.250000 0.750000 0.000000
O O8 0.007923 0.500000 0.731870
O O9 0.100299 0.735800 0.644550
O O10 0.004089 0.745774 0.648695
O O11 0.627809 0.500000 0.841761
O O12 0.629603 0.746370 0.752391
O O13 0.500000 0.678902 0.000000
O O14 0.165851 0.500000 0.633385
O O15 0.250000 0.250000 0.500000
O O16 0.500000 0.252955 0.500000
O O17 0.536200 0.000000 0.376567
#
# Coordination Sequence:
#
# PCOD8114243 Si02
#       6
#     8   8   8   8   8   8
#     4  11  21  37  61  89 122 158 202 247 303 370
#     4  11  21  35  58  89 119 153 199 252 302 354
#     4   9  18  34  57  84 115 159 203 242 297 367
#     4  11  23  39  61  91 121 152 203 260 308 362
#     4  11  23  40  62  88 124 165 206 252 307 368
#     4   9  18  34  57  85 116 153 199 244 289 350
#
# _framework density 19.303169
#
# number of rings (size 3 to 8) (size 9 to 14) (size 15 to 20)
#    0.000    1.667    3.333    2.000    0.000    2.000 
#    0.000    3.333    0.000    2.000    0.000    0.000 
#    0.000    0.000    0.000    0.000    0.000    0.000 
#
# Total GULP energy -297611.379571 kJ/mol
# GULP energy per Si atom -12400.474149 kJ/mol
# Density = 1.925923 g / cm^3
# Si number density = 19.303169 Si / 1000 Ang^3
#
#
#
# Elastic Constant Matrix: (Units=GPa)
#
#
# Indices 1 2 3 4 5 6 
#
# 1 153.0489 15.9984 86.6929 0.0034 -1.9732 0.0007
# 2 15.9984 41.9163 37.1631 0.0134 -5.8813 -0.0023
# 3 86.6929 37.1631 165.8086 0.0091 1.2937 -0.0012
# 4 0.0034 0.0134 0.0091 26.6335 -0.0037 -0.4344
# 5 -1.9732 -5.8813 1.2937 -0.0037 38.8012 -0.0002
# 6 0.0007 -0.0023 -0.0012 -0.4344 -0.0002 24.3645
#
#
#
# Elastic Compliance Matrix: (Units=1/GPa)
#
#
# Indices 1 2 3 4 5 6 
#
# 1 0.009338 0.001104 -0.005136 0.000000 0.000813 0.000000
# 2 0.001104 0.030801 -0.007519 -0.000012 0.004975 0.000002
# 3 -0.005136 -0.007519 0.010416 0.000001 -0.001748 0.000000
# 4 0.000000 -0.000012 0.000001 0.037558 0.000002 0.000670
# 5 0.000813 0.004975 -0.001748 0.000002 0.026626 0.000001
# 6 0.000000 0.000002 0.000000 0.000670 0.000001 0.041055
#
#
# Mechanical properties :
#
#
# Convention : Reuss Voigt Hill
#
# Bulk Modulus (GPa) = 36.42893 71.16475 53.79684
# Shear Modulus (GPa) = 26.58902 32.68778 29.63840
#
# Velocity S-wave (km/s) = 3.71542 4.11955 3.92269
# Velocity P-wave (km/s) = 6.10891 7.71845 6.96036
#
# Compressibility (1/GPa) = 0.02745071
#
# Stress axis : x y z
#
# Youngs Moduli (GPa) = 107.08507 32.46697 96.01055
#
# Poissons Ratio (x) = -0.03584 0.49314
# Poissons Ratio (y) = -0.11820 0.72193
# Poissons Ratio (z) = 0.55002 0.24413
#
# Static dielectric constant tensor:
#      x y z
#    x 3.578150 -0.000020 0.137800 
#    y -0.000020 3.394680 0.000020 
#    z 0.137800 0.000020 3.515450 
# 
# 
# High freq. dielectric constant tensor:
#      x y z
#    x 1.769060 0.000000 0.001750 
#    y 0.000000 1.728920 0.000000 
#    z 0.001750 0.000000 1.753550 
# 
# From -- ./inp_files/244769.got.cif
#   From: 2010.06.25/outbox.cif.g09.slc.cpg/sg12_123_cif.got.tgz:244769.got - 2010.06.28 00:19:55.
