data_PCOD8114442
_publ_section_title
;
Structure prediction by ZEFSAII (Michael W. Deem and Ramdas Pophale) SiO2 
 PCOD8114442
Probable space group: C 2/M
;
_chemical_formula_sum "Si O2"
_cell_formula_units_Z 40
_cell_length_a 24.188795
_cell_length_b 9.596564
_cell_length_c 15.966429
_cell_angle_alpha 90.000000
_cell_angle_beta 147.375226
_cell_angle_gamma 90.000000
_cell_volume 1998.183274
_symmetry_space_group_name_H-M "C 2/M"
_symmetry_group_IT_number 12
_symmetry_cell_setting 'monoclinic'
loop_
_space_group_symop_operation_xyz
x,y,z
-x,y,-z
-x,-y,-z
x,-y,z
1/2+x,1/2+y,z
1/2-x,1/2+y,-z
1/2-x,1/2-y,-z
1/2+x,1/2-y,z
loop_
_atom_site_type_symbol
_atom_site_label
_atom_site_fract_x
_atom_site_fract_y
_atom_site_fract_z
Si Si1 0.420943 0.500000 0.713320
Si Si2 0.442681 0.205807 0.340460
Si Si3 0.926896 0.000000 0.244650
Si Si4 0.426912 0.000000 0.587122
Si Si5 0.285921 0.500000 0.763468
Si Si6 0.761724 0.500000 0.115191
Si Si7 0.092385 0.768650 0.175813
Si Si8 0.179828 0.500000 0.371679
O O1 0.478698 0.500000 0.699335
O O2 0.452070 0.361314 0.804531
O O3 0.298594 0.500000 0.545982
O O4 0.500000 0.173152 0.500000
O O5 0.434629 0.369111 0.315625
O O6 0.329753 0.139432 0.199166
O O7 0.505132 0.137160 0.343206
O O8 0.816387 0.000000 0.061001
O O9 0.334936 0.000000 0.404053
O O10 0.389630 0.000000 0.634501
O O11 0.307885 0.500000 0.890246
O O12 0.331571 0.361491 0.781652
O O13 0.155923 0.636844 0.288095
O O14 0.000000 0.715101 0.000000
#
# Coordination Sequence:
#
# PCOD8114442 Si02
#       8
#     4   8   4   4   4   4   8   4
#     4  11  23  39  62  90 121 168 205 233 300 370
#     4  11  23  42  65  90 118 163 207 247 304 361
#     4  12  25  38  63  96 130 143 201 271 304 340
#     4  11  21  40  66  86 119 165 207 242 286 372
#     4  11  21  38  68  83 121 165 206 238 294 366
#     4  11  22  44  65  88 117 170 203 242 305 369
#     4  11  23  40  60  92 126 161 201 247 299 359
#     4  12  24  38  64  93 126 157 201 254 301 346
#
# _framework density 20.018184999999999
#
# number of rings (size 3 to 8) (size 9 to 14) (size 15 to 20)
#    0.000    0.800    4.000    6.000    2.800    0.000 
#    0.000    1.000    0.000    0.000    0.000    0.000 
#    0.000    0.000    0.000    0.000    0.000    0.000 
#
# Total GULP energy -248109.881577 kJ/mol
# GULP energy per Si atom -12405.494079 kJ/mol
# Density = 1.997262 g / cm^3
# Si number density = 20.018185 Si / 1000 Ang^3
#
#
#
# Elastic Constant Matrix: (Units=GPa)
#
#
# Indices 1 2 3 4 5 6 
#
# 1 104.6170 38.2779 29.3358 0.0000 10.4016 0.0000
# 2 38.2779 131.3785 27.9498 0.0000 1.8067 0.0000
# 3 29.3358 27.9498 96.0927 0.0000 -6.3372 0.0000
# 4 0.0000 0.0000 0.0000 6.9183 0.0000 6.9897
# 5 10.4016 1.8067 -6.3372 0.0000 27.2452 0.0000
# 6 0.0000 0.0000 0.0000 6.9897 0.0000 -1.2785
#
#
#
# Elastic Compliance Matrix: (Units=1/GPa)
#
#
# Indices 1 2 3 4 5 6 
#
# 1 0.011966 -0.002736 -0.003196 0.000000 -0.005130 0.000000
# 2 -0.002736 0.008772 -0.001712 0.000000 0.000065 0.000000
# 3 -0.003196 -0.001712 0.012155 0.000000 0.004161 0.000000
# 4 0.000000 0.000000 0.000000 0.022158 0.000000 0.121137
# 5 -0.005130 0.000065 0.004161 0.000000 0.039626 0.000000
# 6 0.000000 0.000000 0.000000 0.121137 0.000000 -0.119900
#
#
# Mechanical properties :
#
#
# Convention : Reuss Voigt Hill
#
# Bulk Modulus (GPa) = 56.80040 58.13501 57.46771
# Shear Modulus (GPa) = -1228.86343 22.34530 -603.25906
#
# Velocity S-wave (km/s) = -24.80335 3.34466 -17.37843
# Velocity P-wave (km/s) = 28.13963 6.63474 19.33674
#
# Compressibility (1/GPa) = 0.01760551
#
# Stress axis : x y z
#
# Youngs Moduli (GPa) = 83.57107 113.99853 82.27398
#
# Poissons Ratio (x) = 0.31189 0.26291
# Poissons Ratio (y) = 0.22865 0.14085
# Poissons Ratio (z) = 0.26706 0.19516
#
# Static dielectric constant tensor:
#      x y z
#    x 3.590220 0.000000 -0.014520 
#    y 0.000000 3.642700 0.000000 
#    z -0.014520 0.000000 3.678830 
# 
# 
# High freq. dielectric constant tensor:
#      x y z
#    x 1.783330 0.000000 0.000020 
#    y 0.000000 1.784970 0.000000 
#    z 0.000020 0.000000 1.791380 
# 
# From -- ./inp_files/274702.got.cif
#   From: 2010.06.25/outbox.cif.g09.slc.cpg/sg12_138_cif.got.tgz:274702.got - 2010.06.28 00:19:55.
