data_PCOD8114816
_publ_section_title
;
Structure prediction by ZEFSAII (Michael W. Deem and Ramdas Pophale) SiO2 
 PCOD8114816
Probable space group: C 2/M
;
_chemical_formula_sum "Si O2"
_cell_formula_units_Z 56
_cell_length_a 9.226392
_cell_length_b 22.521017
_cell_length_c 20.318408
_cell_angle_alpha 90.000000
_cell_angle_beta 134.216006
_cell_angle_gamma 90.000000
_cell_volume 3025.913921
_symmetry_space_group_name_H-M "C 2/M"
_symmetry_group_IT_number 12
_symmetry_cell_setting 'monoclinic'
loop_
_space_group_symop_operation_xyz
x,y,z
-x,y,-z
-x,-y,-z
x,-y,z
1/2+x,1/2+y,z
1/2-x,1/2+y,-z
1/2-x,1/2-y,-z
1/2+x,1/2-y,z
loop_
_atom_site_type_symbol
_atom_site_label
_atom_site_fract_x
_atom_site_fract_y
_atom_site_fract_z
Si Si1 0.739214 0.876026 0.269039
Si Si2 0.792336 0.500000 0.537843
Si Si3 0.155386 0.000000 0.643821
Si Si4 0.491308 0.125107 0.573453
Si Si5 0.563619 0.819305 0.917037
Si Si6 0.764776 0.799473 0.407424
Si Si7 0.101177 0.177026 0.301706
Si Si8 0.217117 0.211613 0.894790
O O1 0.535856 0.870870 0.159310
O O2 0.716903 0.838564 0.328365
O O3 0.944075 0.857305 0.297732
O O4 0.754417 0.944520 0.289931
O O5 0.734369 0.500000 0.595069
O O6 0.588083 0.500000 0.430210
O O7 0.922717 0.557733 0.562233
O O8 0.500000 0.142593 0.500000
O O9 0.348476 0.171689 0.566053
O O10 0.723027 0.133428 0.668670
O O11 0.371495 0.782401 0.883147
O O12 0.707974 0.777658 0.920225
O O13 0.700810 0.836776 0.024587
O O14 0.683913 0.733544 0.368437
O O15 0.000000 0.798810 0.500000
O O16 0.001718 0.194354 0.200943
#
# Coordination Sequence:
#
# PCOD8114816 Si02
#       8
#     8   4   4   8   8   8   8   8
#     4  11  22  38  59  84 116 156 196 240 283 346
#     4  11  23  42  62  79 109 152 212 247 281 332
#     4  11  22  40  62  82 107 157 204 246 280 341
#     4  12  25  39  58  83 115 156 197 244 287 338
#     4   9  18  34  57  85 117 147 190 234 283 345
#     4  12  23  37  56  82 121 156 190 233 292 352
#     4  11  23  36  56  88 121 149 187 237 298 349
#     4   9  18  33  56  85 119 149 183 232 287 348
#
# _framework density 18.506805
#
# number of rings (size 3 to 8) (size 9 to 14) (size 15 to 20)
#    0.000    1.286    2.857    4.071    2.000    2.286 
#    0.000    0.000    0.000    7.714    0.000    1.000 
#    0.000    0.000    0.000    0.000    0.000    0.000 
#
# Total GULP energy -347017.582876 kJ/mol
# GULP energy per Si atom -12393.485103 kJ/mol
# Density = 1.846468 g / cm^3
# Si number density = 18.506805 Si / 1000 Ang^3
#
#
#
# Elastic Constant Matrix: (Units=GPa)
#
#
# Indices 1 2 3 4 5 6 
#
# 1 75.9424 17.1813 38.9434 -0.0004 0.5598 -0.0001
# 2 17.1813 82.2359 43.1445 0.0000 0.8985 0.0000
# 3 38.9434 43.1445 110.0602 0.0000 5.3995 0.0000
# 4 -0.0004 0.0000 0.0000 -179.0207 -0.0002 -58.3864
# 5 0.5598 0.8985 5.3995 -0.0002 24.8459 -0.0001
# 6 -0.0001 0.0000 0.0000 -58.3864 -0.0001 14.9797
#
#
#
# Elastic Compliance Matrix: (Units=1/GPa)
#
#
# Indices 1 2 3 4 5 6 
#
# 1 0.016120 -0.000457 -0.005567 0.000000 0.000863 0.000000
# 2 -0.000457 0.015336 -0.005886 0.000000 0.000735 0.000000
# 3 -0.005567 -0.005886 0.013490 0.000000 -0.002593 0.000000
# 4 0.000000 0.000000 0.000000 -0.002459 0.000000 -0.009586
# 5 0.000863 0.000735 -0.002593 0.000000 0.040766 0.000000
# 6 0.000000 0.000000 0.000000 -0.009586 0.000000 0.029393
#
#
# Mechanical properties :
#
#
# Convention : Reuss Voigt Hill
#
# Bulk Modulus (GPa) = 47.33493 51.86412 49.59952
# Shear Modulus (GPa) = 34.84164 -16.57440 9.13362
#
# Velocity S-wave (km/s) = 4.34365 -2.99588 2.22396
# Velocity P-wave (km/s) = 7.12663 4.01474 5.78390
#
# Compressibility (1/GPa) = 0.02112605
#
# Stress axis : x y z
#
# Youngs Moduli (GPa) = 62.03613 65.20748 74.12634
#
# Poissons Ratio (x) = 0.02977 0.41267
# Poissons Ratio (y) = 0.02832 0.43632
# Poissons Ratio (z) = 0.34536 0.38383
#
# Static dielectric constant tensor:
#      x y z
#    x 3.626100 0.000000 0.030380 
#    y 0.000000 3.228520 0.000000 
#    z 0.030380 0.000000 3.908530 
# 
# 
# High freq. dielectric constant tensor:
#      x y z
#    x 1.734010 0.000000 -0.003040 
#    y 0.000000 1.686830 0.000000 
#    z -0.003040 0.000000 1.732280 
# 
# From -- ./inp_files/301809.got.cif
#   From: 2010.06.25/outbox.cif.g09.slc.cpg/sg12_151_cif.got.tgz:301809.got - 2010.06.28 00:19:55.
