data_PCOD8114051
_publ_section_title
;
Structure prediction by ZEFSAII (Michael W. Deem and Ramdas Pophale) SiO2 
 PCOD8114051
Probable space group: C 2/M
;
_chemical_formula_sum "Si O2"
_cell_formula_units_Z 56
_cell_length_a 19.106350
_cell_length_b 17.555385
_cell_length_c 14.032767
_cell_angle_alpha 90.000000
_cell_angle_beta 145.061469
_cell_angle_gamma 90.000000
_cell_volume 2695.606717
_symmetry_space_group_name_H-M "C 2/M"
_symmetry_group_IT_number 12
_symmetry_cell_setting 'monoclinic'
loop_
_space_group_symop_operation_xyz
x,y,z
-x,y,-z
-x,-y,-z
x,-y,z
1/2+x,1/2+y,z
1/2-x,1/2+y,-z
1/2-x,1/2-y,-z
1/2+x,1/2-y,z
loop_
_atom_site_type_symbol
_atom_site_label
_atom_site_fract_x
_atom_site_fract_y
_atom_site_fract_z
Si Si1 0.706782 0.175322 0.647892
Si Si2 0.954279 0.666180 0.704315
Si Si3 0.266928 0.837707 0.990531
Si Si4 0.249267 0.089177 0.589597
Si Si5 0.415030 0.327741 0.737463
Si Si6 0.153925 0.088141 0.043879
Si Si7 0.641592 0.334598 0.653351
O O1 0.599668 0.144044 0.459652
O O2 0.819469 0.203473 0.708443
O O3 0.749652 0.108296 0.765666
O O4 0.657894 0.244627 0.656191
O O5 0.877425 0.627598 0.703034
O O6 0.952149 0.757801 0.711317
O O7 0.092450 0.638575 0.864479
O O8 0.200306 0.857163 0.818557
O O9 0.250000 0.750000 0.000000
O O10 0.210076 0.893730 0.004423
O O11 0.145053 0.107998 0.395952
O O12 0.209652 0.117959 0.648445
O O13 0.269662 0.000000 0.615912
O O14 0.531173 0.362547 0.921394
O O15 0.120513 0.000000 0.014504
O O16 0.500000 0.356696 0.500000
#
# Coordination Sequence:
#
# PCOD8114051 Si02
#       7
#     8   8   8   8   8   8   8
#     4  11  22  39  67  95 128 170 219 266 319 395
#     4  11  22  42  69  96 127 174 229 262 317 399
#     4  12  24  41  68  94 125 175 222 264 322 389
#     4  11  24  41  65  98 133 169 214 277 334 381
#     4  11  20  42  69  96 130 172 222 270 321 395
#     4  12  27  42  63 101 138 168 216 282 333 378
#     4  12  23  40  69  97 126 169 226 270 320 390
#
# _framework density 20.774543000000001
#
# number of rings (size 3 to 8) (size 9 to 14) (size 15 to 20)
#    0.000    0.571    5.714    3.429    0.000    5.429 
#    0.000    1.429    0.000    0.000    0.000    0.000 
#    0.000    0.000    0.000    0.000    0.000    0.000 
#
# Total GULP energy -347386.076343 kJ/mol
# GULP energy per Si atom -12406.645584 kJ/mol
# Density = 2.072726 g / cm^3
# Si number density = 20.774543 Si / 1000 Ang^3
#
#
#
# Elastic Constant Matrix: (Units=GPa)
#
#
# Indices 1 2 3 4 5 6 
#
# 1 78.3847 0.5281 58.0406 0.0000 -8.1291 0.0000
# 2 0.5281 82.1669 25.6044 0.0000 -2.4532 0.0000
# 3 58.0406 25.6044 168.3208 0.0000 -1.2671 0.0000
# 4 0.0000 0.0000 0.0000 22.2938 0.0000 -2.2093
# 5 -8.1291 -2.4532 -1.2671 0.0000 42.2756 0.0000
# 6 0.0000 0.0000 0.0000 -2.2093 0.0000 24.1151
#
#
#
# Elastic Compliance Matrix: (Units=1/GPa)
#
#
# Indices 1 2 3 4 5 6 
#
# 1 0.017857 0.001991 -0.006435 0.000000 0.003356 0.000000
# 2 0.001991 0.013018 -0.002659 0.000000 0.001058 0.000000
# 3 -0.006435 -0.002659 0.008556 0.000000 -0.001135 0.000000
# 4 0.000000 0.000000 0.000000 0.045267 0.000000 0.004147
# 5 0.003356 0.001058 -0.001135 0.000000 0.024327 0.000000
# 6 0.000000 0.000000 0.000000 0.004147 0.000000 0.041848
#
#
# Mechanical properties :
#
#
# Convention : Reuss Voigt Hill
#
# Bulk Modulus (GPa) = 39.64388 55.24652 47.44520
# Shear Modulus (GPa) = 28.82071 34.05019 31.43545
#
# Velocity S-wave (km/s) = 3.72870 4.05289 3.89417
# Velocity P-wave (km/s) = 6.13693 6.96795 6.56560
#
# Compressibility (1/GPa) = 0.02522457
#
# Stress axis : x y z
#
# Youngs Moduli (GPa) = 55.99987 76.81890 116.87881
#
# Poissons Ratio (x) = -0.15292 0.75213
# Poissons Ratio (y) = -0.11148 0.31074
# Poissons Ratio (z) = 0.36036 0.20424
#
# Static dielectric constant tensor:
#      x y z
#    x 3.934150 0.000000 0.018730 
#    y 0.000000 3.483610 0.000000 
#    z 0.018730 0.000000 3.968320 
# 
# 
# High freq. dielectric constant tensor:
#      x y z
#    x 1.829100 0.000000 -0.000050 
#    y 0.000000 1.789840 0.000000 
#    z -0.000050 0.000000 1.823270 
# 
# From -- ./inp_files/234738.got.cif
#   From: 2010.06.25/outbox.cif.g09.slc.cpg/sg12_118_cif.got.tgz:234738.got - 2010.06.28 00:19:55.
