data_PCOD8114478
_publ_section_title
;
Structure prediction by ZEFSAII (Michael W. Deem and Ramdas Pophale) SiO2 
 PCOD8114478
Probable space group: C 2/M
;
_chemical_formula_sum "Si O2"
_cell_formula_units_Z 56
_cell_length_a 28.870373
_cell_length_b 20.344647
_cell_length_c 9.240985
_cell_angle_alpha 90.000000
_cell_angle_beta 30.058083
_cell_angle_gamma 90.000000
_cell_volume 2718.644912
_symmetry_space_group_name_H-M "C 2/M"
_symmetry_group_IT_number 12
_symmetry_cell_setting 'monoclinic'
loop_
_space_group_symop_operation_xyz
x,y,z
-x,y,-z
-x,-y,-z
x,-y,z
1/2+x,1/2+y,z
1/2-x,1/2+y,-z
1/2-x,1/2-y,-z
1/2+x,1/2-y,z
loop_
_atom_site_type_symbol
_atom_site_label
_atom_site_fract_x
_atom_site_fract_y
_atom_site_fract_z
Si Si1 0.367417 0.000000 0.471324
Si Si2 0.065547 0.500000 0.035915
Si Si3 0.021642 0.923194 0.605711
Si Si4 0.350812 0.642206 0.190802
Si Si5 0.221515 0.359616 0.285266
Si Si6 0.802983 0.849721 0.772522
Si Si7 0.108111 0.755175 0.689160
Si Si8 0.781701 0.428451 0.241225
O O1 0.454293 0.000000 0.349675
O O2 0.305373 0.935658 0.666136
O O3 0.405779 0.000000 0.207516
O O4 0.111833 0.435117 0.987154
O O5 0.000000 0.901506 0.500000
O O6 0.126328 0.905906 0.365362
O O7 0.005052 0.000000 0.670442
O O8 0.954581 0.885610 0.899561
O O9 0.313988 0.650558 0.128284
O O10 0.348740 0.710628 0.285074
O O11 0.284578 0.590232 0.447405
O O12 0.140224 0.320287 0.587525
O O13 0.244472 0.325726 0.069033
O O14 0.860669 0.791853 0.541642
O O15 0.726813 0.877706 0.866674
O O16 0.000000 0.755477 0.000000
O O17 0.748181 0.500000 0.276968
#
# Coordination Sequence:
#
# PCOD8114478 Si02
#       8
#     4   4   8   8   8   8   8   8
#     4  11  24  39  71 100 123 168 214 277 325 371
#     4   9  20  41  59  96 131 162 216 265 313 375
#     4  11  22  34  61  99 141 165 204 262 321 385
#     4  11  21  40  62  94 124 173 212 260 315 384
#     4  12  25  41  67  93 129 166 221 263 326 384
#     4  11  23  41  63  95 130 173 207 259 326 387
#     4  11  25  44  64  90 125 171 220 269 316 377
#     4   9  19  36  62  89 132 161 202 257 313 385
#
# _framework density 20.598497999999999
#
# number of rings (size 3 to 8) (size 9 to 14) (size 15 to 20)
#    0.429    0.857    4.286    1.714    5.000    0.000 
#    0.000    3.571    0.000    0.000    0.000    0.000 
#    0.000    0.000    0.000    0.000    0.000    0.000 
#
# Total GULP energy -347112.091512 kJ/mol
# GULP energy per Si atom -12396.860411 kJ/mol
# Density = 2.055161 g / cm^3
# Si number density = 20.598498 Si / 1000 Ang^3
#
#
#
# Elastic Constant Matrix: (Units=GPa)
#
#
# Indices 1 2 3 4 5 6 
#
# 1 103.4325 19.3704 42.1579 0.0000 -11.4338 0.0000
# 2 19.3704 93.5036 40.0439 0.0000 -5.5072 0.0000
# 3 42.1579 40.0439 91.4666 0.0000 -1.0285 0.0000
# 4 0.0000 0.0000 0.0000 26.3335 0.0000 -1.9259
# 5 -11.4338 -5.5072 -1.0285 0.0000 34.0905 0.0000
# 6 0.0000 0.0000 0.0000 -1.9259 0.0000 19.9948
#
#
#
# Elastic Compliance Matrix: (Units=1/GPa)
#
#
# Indices 1 2 3 4 5 6 
#
# 1 0.012427 0.000118 -0.005734 0.000000 0.004014 0.000000
# 2 0.000118 0.013295 -0.005852 0.000000 0.002011 0.000000
# 3 -0.005734 -0.005852 0.016111 0.000000 -0.002383 0.000000
# 4 0.000000 0.000000 0.000000 0.038244 0.000000 0.003684
# 5 0.004014 0.002011 -0.002383 0.000000 0.030933 0.000000
# 6 0.000000 0.000000 0.000000 0.003684 0.000000 0.050368
#
#
# Mechanical properties :
#
#
# Convention : Reuss Voigt Hill
#
# Bulk Modulus (GPa) = 52.92127 54.61635 53.76881
# Shear Modulus (GPa) = 26.23105 28.53911 27.38508
#
# Velocity S-wave (km/s) = 3.57241 3.72626 3.65014
# Velocity P-wave (km/s) = 6.53940 6.71459 6.62757
#
# Compressibility (1/GPa) = 0.01889599
#
# Stress axis : x y z
#
# Youngs Moduli (GPa) = 80.47009 75.21571 62.06871
#
# Poissons Ratio (x) = -0.00885 0.35591
# Poissons Ratio (y) = -0.00947 0.36324
# Poissons Ratio (z) = 0.46143 0.44018
#
# Static dielectric constant tensor:
#      x y z
#    x 3.883290 0.000000 -0.000710 
#    y 0.000000 3.581100 0.000000 
#    z -0.000710 0.000000 3.648280 
# 
# 
# High freq. dielectric constant tensor:
#      x y z
#    x 1.811510 0.000000 0.004230 
#    y 0.000000 1.792560 0.000000 
#    z 0.004230 0.000000 1.800760 
# 
# From -- ./inp_files/113369.got.cif
#   From: 2010.06.25/outbox.cif.g09.slc.cpg/sg12_57_cif.got.tgz:113369.got - 2010.06.28 00:19:55.
