data_PCOD8114667
_publ_section_title
;
Structure prediction by ZEFSAII (Michael W. Deem and Ramdas Pophale) SiO2 
 PCOD8114667
Probable space group: C 2/M
;
_chemical_formula_sum "Si O2"
_cell_formula_units_Z 48
_cell_length_a 24.298561
_cell_length_b 8.817992
_cell_length_c 11.422206
_cell_angle_alpha 90.000000
_cell_angle_beta 103.993569
_cell_angle_gamma 90.000000
_cell_volume 2374.742436
_symmetry_space_group_name_H-M "C 2/M"
_symmetry_group_IT_number 12
_symmetry_cell_setting 'monoclinic'
loop_
_space_group_symop_operation_xyz
x,y,z
-x,y,-z
-x,-y,-z
x,-y,z
1/2+x,1/2+y,z
1/2-x,1/2+y,-z
1/2-x,1/2-y,-z
1/2+x,1/2-y,z
loop_
_atom_site_type_symbol
_atom_site_label
_atom_site_fract_x
_atom_site_fract_y
_atom_site_fract_z
Si Si1 0.658968 0.179291 0.731256
Si Si2 0.434684 0.678931 0.465409
Si Si3 0.165738 0.680071 0.997219
Si Si4 0.558467 0.178812 0.071371
Si Si5 0.729801 0.178644 0.254995
Si Si6 0.117561 0.323195 0.335776
O O1 0.598839 0.247961 0.660737
O O2 0.711831 0.236938 0.678923
O O3 0.654106 0.000000 0.720376
O O4 0.673460 0.239049 0.869473
O O5 0.500000 0.738427 0.500000
O O6 0.433858 0.500000 0.450773
O O7 0.399981 0.724282 0.562879
O O8 0.163050 0.500000 0.998398
O O9 0.106890 0.749062 0.014303
O O10 0.214036 0.732686 0.113984
O O11 0.570817 0.213554 0.213204
O O12 0.556620 0.000000 0.050540
O O13 0.500000 0.255509 0.000000
O O14 0.679914 0.223405 0.320054
O O15 0.740010 0.000000 0.264455
O O16 0.117035 0.500000 0.370317
#
# Coordination Sequence:
#
# PCOD8114667 Si02
#       6
#     8   8   8   8   8   8
#     4  11  22  35  58  88 114 148 194 233 272 327
#     4  11  26  44  58  76 110 153 190 231 287 338
#     4   8  16  30  50  84 120 147 179 223 275 333
#     4   8  14  26  50  83 113 141 176 225 281 324
#     4   9  18  36  59  86 121 150 179 225 285 339
#     4   9  19  36  60  86 110 144 189 234 275 326
#
# _framework density 20.212717999999999
#
# number of rings (size 3 to 8) (size 9 to 14) (size 15 to 20)
#    0.000    2.667    0.000    3.500    2.333    2.667 
#    0.000    0.833    0.000    2.500    0.000    0.000 
#    0.000    0.000    0.000    0.000    0.000    0.000 
#
# Total GULP energy -297451.564101 kJ/mol
# GULP energy per Si atom -12393.815171 kJ/mol
# Density = 2.016671 g / cm^3
# Si number density = 20.212718 Si / 1000 Ang^3
#
#
#
# Elastic Constant Matrix: (Units=GPa)
#
#
# Indices 1 2 3 4 5 6 
#
# 1 124.9383 36.2849 53.3870 0.0000 18.7087 0.0000
# 2 36.2849 48.1368 26.1693 0.0000 1.8271 0.0000
# 3 53.3870 26.1693 71.3817 0.0000 -1.4195 0.0000
# 4 0.0000 0.0000 0.0000 16.9062 0.0000 3.0549
# 5 18.7087 1.8271 -1.4195 0.0000 31.8142 0.0000
# 6 0.0000 0.0000 0.0000 3.0549 0.0000 26.1089
#
#
#
# Elastic Compliance Matrix: (Units=1/GPa)
#
#
# Indices 1 2 3 4 5 6 
#
# 1 0.015004 -0.005964 -0.009212 0.000000 -0.008892 0.000000
# 2 -0.005964 0.028433 -0.005931 0.000000 0.001610 0.000000
# 3 -0.009212 -0.005931 0.023208 0.000000 0.006793 0.000000
# 4 0.000000 0.000000 0.000000 0.060427 0.000000 -0.007070
# 5 -0.008892 0.001610 0.006793 0.000000 0.036872 0.000000
# 6 0.000000 0.000000 0.000000 -0.007070 0.000000 0.039128
#
#
# Mechanical properties :
#
#
# Convention : Reuss Voigt Hill
#
# Bulk Modulus (GPa) = 40.93172 52.90436 46.91804
# Shear Modulus (GPa) = 19.72923 23.54025 21.63474
#
# Velocity S-wave (km/s) = 3.12762 3.41636 3.27517
# Velocity P-wave (km/s) = 5.77383 6.46473 6.12902
#
# Compressibility (1/GPa) = 0.02443093
#
# Stress axis : x y z
#
# Youngs Moduli (GPa) = 66.64970 35.17012 43.08814
#
# Poissons Ratio (x) = 0.20976 0.39692
# Poissons Ratio (y) = 0.39752 0.25556
# Poissons Ratio (z) = 0.61396 0.20860
#
# Static dielectric constant tensor:
#      x y z
#    x 4.076420 0.000000 0.141130 
#    y 0.000000 3.161780 0.000000 
#    z 0.141130 0.000000 3.792070 
# 
# 
# High freq. dielectric constant tensor:
#      x y z
#    x 1.802690 0.000000 0.006500 
#    y 0.000000 1.747550 0.000000 
#    z 0.006500 0.000000 1.790210 
# 
# From -- ./inp_files/173028.got.cif
#   From: 2010.06.25/outbox.cif.g09.slc.cpg/sg12_87_cif.got.tgz:173028.got - 2010.06.28 00:19:55.
