data_PCOD8114820
_publ_section_title
;
Structure prediction by ZEFSAII (Michael W. Deem and Ramdas Pophale) SiO2 
 PCOD8114820
Probable space group: C 2/M
;
_chemical_formula_sum "Si O2"
_cell_formula_units_Z 56
_cell_length_a 31.578865
_cell_length_b 8.404230
_cell_length_c 20.735193
_cell_angle_alpha 90.000000
_cell_angle_beta 151.135420
_cell_angle_gamma 90.000000
_cell_volume 2656.542621
_symmetry_space_group_name_H-M "C 2/M"
_symmetry_group_IT_number 12
_symmetry_cell_setting 'monoclinic'
loop_
_space_group_symop_operation_xyz
x,y,z
-x,y,-z
-x,-y,-z
x,-y,z
1/2+x,1/2+y,z
1/2-x,1/2+y,-z
1/2-x,1/2-y,-z
1/2+x,1/2-y,z
loop_
_atom_site_type_symbol
_atom_site_label
_atom_site_fract_x
_atom_site_fract_y
_atom_site_fract_z
Si Si1 0.417004 0.186163 0.571339
Si Si2 0.616271 0.188247 0.833661
Si Si3 0.658915 0.314141 0.405202
Si Si4 0.772609 0.187547 0.130065
Si Si5 0.542355 0.185781 0.144485
Si Si6 0.197005 0.186208 0.686363
Si Si7 0.371064 0.313748 0.864787
O O1 0.517122 0.243576 0.715264
O O2 0.352956 0.279096 0.535012
O O3 0.386264 0.228333 0.457870
O O4 0.407484 0.000000 0.571379
O O5 0.646008 0.262677 0.805626
O O6 0.622077 0.000000 0.834480
O O7 0.680671 0.250501 0.976681
O O8 0.653390 0.500000 0.383887
O O9 0.750000 0.250000 0.500000
O O10 0.579852 0.221372 0.264836
O O11 0.787567 0.258744 0.221499
O O12 0.767768 0.000000 0.129001
O O13 0.598634 0.283967 0.167800
O O14 0.547223 0.000000 0.134459
O O15 0.442201 0.244308 0.009659
O O16 0.281647 0.220352 0.756012
O O17 0.177575 0.000000 0.663266
O O18 0.357282 0.500000 0.858042
#
# Coordination Sequence:
#
# PCOD8114820 Si02
#       7
#     8   8   8   8   8   8   8
#     4  11  24  41  62  90 125 164 207 257 311 369
#     4   9  20  40  64  91 121 157 201 252 309 369
#     4  12  25  42  62  88 121 162 209 256 309 365
#     4   9  20  39  64  91 120 159 202 251 308 369
#     4  11  22  39  61  86 117 160 204 252 310 366
#     4  11  23  39  60  88 123 164 205 252 310 369
#     4  11  22  38  59  88 122 156 204 257 305 362
#
# _framework density 21.080031000000002
#
# number of rings (size 3 to 8) (size 9 to 14) (size 15 to 20)
#    0.000    1.429    0.000    6.429    2.000    2.857 
#    0.000    2.857    0.000    0.000    0.000    0.000 
#    0.000    0.000    0.000    0.000    0.000    0.000 
#
# Total GULP energy -347323.077670 kJ/mol
# GULP energy per Si atom -12404.395631 kJ/mol
# Density = 2.103205 g / cm^3
# Si number density = 21.080031 Si / 1000 Ang^3
#
#
#
# Elastic Constant Matrix: (Units=GPa)
#
#
# Indices 1 2 3 4 5 6 
#
# 1 91.7145 18.4160 59.7807 0.0000 -4.6107 0.0000
# 2 18.4160 56.4944 21.6651 0.0000 0.7690 0.0000
# 3 59.7807 21.6651 124.0417 0.0000 -6.5027 0.0000
# 4 0.0000 0.0000 0.0000 34.8813 0.0000 -0.0066
# 5 -4.6107 0.7690 -6.5027 0.0000 36.2431 0.0000
# 6 0.0000 0.0000 0.0000 -0.0066 0.0000 31.8230
#
#
#
# Elastic Compliance Matrix: (Units=1/GPa)
#
#
# Indices 1 2 3 4 5 6 
#
# 1 0.016231 -0.002485 -0.007347 0.000000 0.000799 0.000000
# 2 -0.002485 0.019388 -0.002248 0.000000 -0.001131 0.000000
# 3 -0.007347 -0.002248 0.012062 0.000000 0.001277 0.000000
# 4 0.000000 0.000000 0.000000 0.028669 0.000000 0.000006
# 5 0.000799 -0.001131 0.001277 0.000000 0.027946 0.000000
# 6 0.000000 0.000000 0.000000 0.000006 0.000000 0.031424
#
#
# Mechanical properties :
#
#
# Convention : Reuss Voigt Hill
#
# Bulk Modulus (GPa) = 42.51199 52.44159 47.47679
# Shear Modulus (GPa) = 29.81163 32.08206 30.94684
#
# Velocity S-wave (km/s) = 3.76468 3.90541 3.83569
# Velocity P-wave (km/s) = 6.25362 6.72812 6.49521
#
# Compressibility (1/GPa) = 0.02352277
#
# Stress axis : x y z
#
# Youngs Moduli (GPa) = 61.61035 51.57739 82.90478
#
# Poissons Ratio (x) = 0.12815 0.60906
# Poissons Ratio (y) = 0.15307 0.18639
# Poissons Ratio (z) = 0.45262 0.11596
#
# Static dielectric constant tensor:
#      x y z
#    x 3.741480 0.000000 -0.193070 
#    y 0.000000 3.702190 0.000000 
#    z -0.193070 0.000000 4.160480 
# 
# 
# High freq. dielectric constant tensor:
#      x y z
#    x 1.818190 0.000000 -0.007440 
#    y 0.000000 1.825920 0.000000 
#    z -0.007440 0.000000 1.839200 
# 
# From -- ./inp_files/329631.got.cif
#   From: 2010.06.25/outbox.cif.g09.slc.cpg/sg12_165_cif.got.tgz:329631.got - 2010.06.28 00:19:55.
