data_PCOD8114601
_publ_section_title
;
Structure prediction by ZEFSAII (Michael W. Deem and Ramdas Pophale) SiO2 
 PCOD8114601
Probable space group: C 2/M
;
_chemical_formula_sum "Si O2"
_cell_formula_units_Z 36
_cell_length_a 23.094704
_cell_length_b 18.956498
_cell_length_c 14.157455
_cell_angle_alpha 90.000000
_cell_angle_beta 17.454526
_cell_angle_gamma 90.000000
_cell_volume 1859.100130
_symmetry_space_group_name_H-M "C 2/M"
_symmetry_group_IT_number 12
_symmetry_cell_setting 'monoclinic'
loop_
_space_group_symop_operation_xyz
x,y,z
-x,y,-z
-x,-y,-z
x,-y,z
1/2+x,1/2+y,z
1/2-x,1/2+y,-z
1/2-x,1/2-y,-z
1/2+x,1/2-y,z
loop_
_atom_site_type_symbol
_atom_site_label
_atom_site_fract_x
_atom_site_fract_y
_atom_site_fract_z
Si Si1 0.132196 0.500000 0.202578
Si Si2 0.820434 0.386437 0.214194
Si Si3 0.485932 0.891111 0.281729
Si Si4 0.216373 0.232436 0.660654
Si Si5 0.498374 0.500000 0.260438
Si Si6 0.683009 0.500000 0.773515
O O1 0.000000 0.500000 0.500000
O O2 0.085732 0.426942 0.218292
O O3 0.359873 0.500000 0.869896
O O4 0.777954 0.304076 0.288739
O O5 0.632787 0.430379 0.536078
O O6 0.000000 0.409655 0.000000
O O7 0.865601 0.401522 0.034732
O O8 0.395603 0.812019 0.427019
O O9 0.291248 0.932354 0.566604
O O10 0.250000 0.250000 0.500000
O O11 0.000000 0.197841 0.000000
O O12 0.643546 0.500000 0.946247
O O13 0.500000 0.500000 0.000000
#
# Coordination Sequence:
#
# PCOD8114601 Si02
#       6
#     4   8   8   8   4   4
#     4  11  25  47  64  92 126 186 230 270 301 385
#     4  11  23  40  64 102 134 162 211 278 339 392
#     4  11  22  41  64  89 135 171 216 269 322 387
#     4  11  22  39  65  98 137 167 206 275 348 392
#     4  12  24  41  66  90 132 172 223 269 326 383
#     4  11  22  33  64  96 118 167 218 270 340 383
#
# _framework density 19.364207
#
# number of rings (size 3 to 8) (size 9 to 14) (size 15 to 20)
#    0.000    0.889    6.667    3.667    3.111    1.778 
#    0.000    1.111    0.000    0.000    0.000    0.000 
#    0.000    0.000    0.000    0.000    0.000    0.000 
#
# Total GULP energy -222989.387978 kJ/mol
# GULP energy per Si atom -12388.299332 kJ/mol
# Density = 1.932013 g / cm^3
# Si number density = 19.364207 Si / 1000 Ang^3
#
#
#
# Elastic Constant Matrix: (Units=GPa)
#
#
# Indices 1 2 3 4 5 6 
#
# 1 110.8703 43.6143 31.6809 -0.0013 -3.9733 0.0738
# 2 43.6143 96.2623 34.6794 0.0072 -3.6371 0.0320
# 3 31.6809 34.6794 85.3443 -0.0182 13.2442 0.1150
# 4 -0.0013 0.0072 -0.0182 27.7325 0.0033 7.0820
# 5 -3.9733 -3.6371 13.2442 0.0033 53.4651 -0.0582
# 6 0.0738 0.0320 0.1150 7.0820 -0.0582 52.3813
#
#
#
# Elastic Compliance Matrix: (Units=1/GPa)
#
#
# Indices 1 2 3 4 5 6 
#
# 1 0.011493 -0.004162 -0.002770 0.000001 0.001257 -0.000006
# 2 -0.004162 0.013916 -0.004377 -0.000009 0.001722 0.000010
# 3 -0.002770 -0.004377 0.015186 0.000020 -0.004266 -0.000034
# 4 0.000001 -0.000009 0.000020 0.037348 -0.000013 -0.005050
# 5 0.001257 0.001722 -0.004266 -0.000013 0.019971 0.000031
# 6 -0.000006 0.000010 -0.000034 -0.005050 0.000031 0.019774
#
#
# Mechanical properties :
#
#
# Convention : Reuss Voigt Hill
#
# Bulk Modulus (GPa) = 55.62646 56.93621 56.28133
# Shear Modulus (GPa) = 34.17655 38.88260 36.52957
#
# Velocity S-wave (km/s) = 4.20567 4.48589 4.34804
# Velocity P-wave (km/s) = 7.23687 7.50317 7.37123
#
# Compressibility (1/GPa) = 0.01797706
#
# Stress axis : x y z
#
# Youngs Moduli (GPa) = 87.00608 71.86084 65.84915
#
# Poissons Ratio (x) = 0.29907 0.18243
# Poissons Ratio (y) = 0.36210 0.28821
# Poissons Ratio (z) = 0.24105 0.31453
#
# Static dielectric constant tensor:
#      x y z
#    x 3.439160 -0.000420 0.146720 
#    y -0.000420 3.842950 -0.000480 
#    z 0.146720 -0.000480 4.076870 
# 
# 
# High freq. dielectric constant tensor:
#      x y z
#    x 1.736660 0.000000 0.009830 
#    y 0.000000 1.756030 0.000010 
#    z 0.009830 0.000010 1.776850 
# 
# From -- ./inp_files/120010.got.cif
#   From: 2010.06.25/outbox.cif.g09.slc.cpg/sg12_61_cif.got.tgz:120010.got - 2010.06.28 00:19:55.
