data_PCOD8114058
_publ_section_title
;
Structure prediction by ZEFSAII (Michael W. Deem and Ramdas Pophale) SiO2 
 PCOD8114058
Probable space group: C 2/M
;
_chemical_formula_sum "Si O2"
_cell_formula_units_Z 36
_cell_length_a 5.213547
_cell_length_b 32.057147
_cell_length_c 10.591106
_cell_angle_alpha 90.000000
_cell_angle_beta 104.787465
_cell_angle_gamma 90.000000
_cell_volume 1711.479561
_symmetry_space_group_name_H-M "C 2/M"
_symmetry_group_IT_number 12
_symmetry_cell_setting 'monoclinic'
loop_
_space_group_symop_operation_xyz
x,y,z
-x,y,-z
-x,-y,-z
x,-y,z
1/2+x,1/2+y,z
1/2-x,1/2+y,-z
1/2-x,1/2-y,-z
1/2+x,1/2-y,z
loop_
_atom_site_type_symbol
_atom_site_label
_atom_site_fract_x
_atom_site_fract_y
_atom_site_fract_z
Si Si1 0.000000 0.067282 0.000000
Si Si2 0.751244 0.500000 0.874480
Si Si3 0.591738 0.632509 0.653343
Si Si4 0.349402 0.910204 0.246303
Si Si5 0.040419 0.500000 0.655836
Si Si6 0.596849 0.727228 0.655089
O O1 0.751840 0.093237 0.912421
O O2 0.087680 0.041024 0.888715
O O3 0.797899 0.500000 0.728694
O O4 0.000000 0.500000 0.000000
O O5 0.500000 0.627602 0.500000
O O6 0.331899 0.620864 0.698352
O O7 0.665872 0.679727 0.699064
O O8 0.843646 0.603061 0.711201
O O9 0.307129 0.957246 0.294387
O O10 0.000000 0.500000 0.500000
O O11 0.500000 0.730182 0.500000
O O12 0.361219 0.745503 0.712225
#
# Coordination Sequence:
#
# PCOD8114058 Si02
#       6
#     4   4   8   8   4   8
#     4  11  24  40  64  90 112 172 230 272 320 372
#     4  11  20  43  65  85 121 161 232 295 315 371
#     4  11  23  39  59  92 130 160 198 263 333 382
#     4  12  25  40  61  87 126 169 214 267 311 377
#     4  12  24  40  63  92 127 173 216 262 334 385
#     4   9  17  32  57  86 118 156 197 243 312 401
#
# _framework density 21.034433
#
# number of rings (size 3 to 8) (size 9 to 14) (size 15 to 20)
#    0.000    1.111    2.222    5.333    0.000    4.444 
#    0.000    5.556    0.000    0.000    0.000   15.556 
#    0.000    0.000    0.000    0.000    0.000    0.000 
#
# Total GULP energy -223009.550277 kJ/mol
# GULP energy per Si atom -12389.419460 kJ/mol
# Density = 2.098656 g / cm^3
# Si number density = 21.034433 Si / 1000 Ang^3
#
#
#
# Elastic Constant Matrix: (Units=GPa)
#
#
# Indices 1 2 3 4 5 6 
#
# 1 117.4267 33.2090 28.9035 0.0000 -1.6728 0.0000
# 2 33.2090 103.6952 33.6160 0.0000 10.6174 0.0000
# 3 28.9035 33.6160 94.6699 0.0000 -4.5471 0.0000
# 4 0.0000 0.0000 0.0000 -37.6507 0.0000 8.0264
# 5 -1.6728 10.6174 -4.5471 0.0000 42.0285 0.0000
# 6 0.0000 0.0000 0.0000 8.0264 0.0000 26.4548
#
#
#
# Elastic Compliance Matrix: (Units=1/GPa)
#
#
# Indices 1 2 3 4 5 6 
#
# 1 0.009748 -0.002546 -0.002033 0.000000 0.000811 0.000000
# 2 -0.002546 0.012005 -0.003655 0.000000 -0.003530 0.000000
# 3 -0.002033 -0.003655 0.012588 0.000000 0.002204 0.000000
# 4 0.000000 0.000000 0.000000 -0.024946 0.000000 0.007569
# 5 0.000811 -0.003530 0.002204 0.000000 0.024956 0.000000
# 6 0.000000 0.000000 0.000000 0.007569 0.000000 0.035504
#
#
# Mechanical properties :
#
#
# Convention : Reuss Voigt Hill
#
# Bulk Modulus (GPa) = 55.95203 56.36096 56.15649
# Shear Modulus (GPa) = 54.18295 20.83740 37.51018
#
# Velocity S-wave (km/s) = 5.08085 3.15085 4.22747
# Velocity P-wave (km/s) = 7.81525 6.33166 7.11224
#
# Compressibility (1/GPa) = 0.01787245
#
# Stress axis : x y z
#
# Youngs Moduli (GPa) = 102.58606 83.29659 79.44354
#
# Poissons Ratio (x) = 0.21205 0.16152
# Poissons Ratio (y) = 0.26116 0.29038
# Poissons Ratio (z) = 0.20858 0.30447
#
# Static dielectric constant tensor:
#      x y z
#    x 4.026920 0.000000 0.117680 
#    y 0.000000 3.918350 0.000000 
#    z 0.117680 0.000000 3.713460 
# 
# 
# High freq. dielectric constant tensor:
#      x y z
#    x 1.841690 0.000000 0.009010 
#    y 0.000000 1.818250 0.000000 
#    z 0.009010 0.000000 1.799230 
# 
# From -- ./inp_files/115582.got.cif
#   From: 2010.06.25/outbox.cif.g09.slc.cpg/sg12_58_cif.got.tgz:115582.got - 2010.06.28 00:19:55.
