data_PCOD8114637
_publ_section_title
;
Structure prediction by ZEFSAII (Michael W. Deem and Ramdas Pophale) SiO2 
 PCOD8114637
Probable space group: C 2/M
;
_chemical_formula_sum "Si O2"
_cell_formula_units_Z 56
_cell_length_a 23.660316
_cell_length_b 8.899090
_cell_length_c 20.536778
_cell_angle_alpha 90.000000
_cell_angle_beta 126.049190
_cell_angle_gamma 90.000000
_cell_volume 3496.108916
_symmetry_space_group_name_H-M "C 2/M"
_symmetry_group_IT_number 12
_symmetry_cell_setting 'monoclinic'
loop_
_space_group_symop_operation_xyz
x,y,z
-x,y,-z
-x,-y,-z
x,-y,z
1/2+x,1/2+y,z
1/2-x,1/2+y,-z
1/2-x,1/2-y,-z
1/2+x,1/2-y,z
loop_
_atom_site_type_symbol
_atom_site_label
_atom_site_fract_x
_atom_site_fract_y
_atom_site_fract_z
Si Si1 0.708324 0.325282 0.413409
Si Si2 0.218559 0.670619 0.916550
Si Si3 0.306925 0.674762 0.224470
Si Si4 0.708680 0.674664 0.639822
Si Si5 0.433905 0.176129 0.499228
Si Si6 0.577479 0.170745 0.763529
Si Si7 0.444882 0.325241 0.644581
O O1 0.726225 0.500000 0.426872
O O2 0.750000 0.250000 0.500000
O O3 0.731630 0.257446 0.360520
O O4 0.626352 0.293722 0.365252
O O5 0.245580 0.500000 0.932493
O O6 0.242836 0.754519 0.866047
O O7 0.133103 0.677102 0.861421
O O8 0.250000 0.750000 0.000000
O O9 0.318003 0.500000 0.217717
O O10 0.273172 0.702219 0.272125
O O11 0.382944 0.756787 0.272589
O O12 0.709390 0.500000 0.621876
O O13 0.632532 0.736180 0.572563
O O14 0.500000 0.217660 0.500000
O O15 0.449252 0.228069 0.582510
O O16 0.417472 0.000000 0.487359
O O17 0.508488 0.267498 0.733373
O O18 0.556404 0.000000 0.732602
O O19 0.453037 0.500000 0.633250
#
# Coordination Sequence:
#
# PCOD8114637 Si02
#       7
#     8   8   8   8   8   8   8
#     4  11  23  37  53  71  94 131 179 224 262 302
#     4   9  18  31  52  80 109 137 165 196 246 308
#     4   9  18  32  51  75 106 135 165 206 250 300
#     4  11  22  35  51  72  98 134 175 215 259 302
#     4  11  23  34  49  70  96 132 170 211 260 306
#     4   9  19  32  50  76 105 134 165 202 249 303
#     4  11  22  35  51  71  96 131 173 216 259 303
#
# _framework density 16.017807000000001
#
# number of rings (size 3 to 8) (size 9 to 14) (size 15 to 20)
#    0.857    1.000    1.429    3.429    0.000    7.429 
#    0.000    0.000    0.000    0.000    0.000    1.000 
#    0.000    8.000    0.000    0.000    0.000    0.000 
#
# Total GULP energy -347068.689239 kJ/mol
# GULP energy per Si atom -12395.310330 kJ/mol
# Density = 1.598135 g / cm^3
# Si number density = 16.017807 Si / 1000 Ang^3
#
#
#
# Elastic Constant Matrix: (Units=GPa)
#
#
# Indices 1 2 3 4 5 6 
#
# 1 104.1198 60.8659 45.2371 0.0000 -8.9203 0.0000
# 2 60.8659 107.7374 46.6679 0.0000 -4.9653 0.0000
# 3 45.2371 46.6679 90.0983 0.0000 -5.9964 0.0000
# 4 0.0000 0.0000 0.0000 29.1696 0.0000 0.1987
# 5 -8.9203 -4.9653 -5.9964 0.0000 12.2575 0.0000
# 6 0.0000 0.0000 0.0000 0.1987 0.0000 27.9842
#
#
#
# Elastic Compliance Matrix: (Units=1/GPa)
#
#
# Indices 1 2 3 4 5 6 
#
# 1 0.016011 -0.007019 -0.003945 0.000000 0.006879 0.000000
# 2 -0.007019 0.015086 -0.004365 0.000000 -0.001133 0.000000
# 3 -0.003945 -0.004365 0.015538 0.000000 0.002962 0.000000
# 4 0.000000 0.000000 0.000000 0.034284 0.000000 -0.000243
# 5 0.006879 -0.001133 0.002962 0.000000 0.087579 0.000000
# 6 0.000000 0.000000 0.000000 -0.000243 0.000000 0.035736
#
#
# Mechanical properties :
#
#
# Convention : Reuss Voigt Hill
#
# Bulk Modulus (GPa) = 62.59618 67.49972 65.04795
# Shear Modulus (GPa) = 20.81432 23.82790 22.32111
#
# Velocity S-wave (km/s) = 3.60870 3.86111 3.73704
# Velocity P-wave (km/s) = 7.51848 7.88096 7.70185
#
# Compressibility (1/GPa) = 0.01597542
#
# Stress axis : x y z
#
# Youngs Moduli (GPa) = 62.45636 66.28646 64.35841
#
# Poissons Ratio (x) = 0.46530 0.25392
# Poissons Ratio (y) = 0.43841 0.28093
# Poissons Ratio (z) = 0.24641 0.28935
#
# Static dielectric constant tensor:
#      x y z
#    x 3.134150 0.000000 -0.032570 
#    y 0.000000 3.249630 0.000000 
#    z -0.032570 0.000000 2.902340 
# 
# 
# High freq. dielectric constant tensor:
#      x y z
#    x 1.596210 0.000000 0.000620 
#    y 0.000000 1.641030 0.000000 
#    z 0.000620 0.000000 1.594400 
# 
# From -- ./inp_files/287910.got.cif
#   From: 2010.06.25/outbox.cif.g09.slc.cpg/sg12_144_cif.got.tgz:287910.got - 2010.06.28 00:19:55.
