data_PCOD8114286
_publ_section_title
;
Structure prediction by ZEFSAII (Michael W. Deem and Ramdas Pophale) SiO2 
 PCOD8114286
Probable space group: C 2/M
;
_chemical_formula_sum "Si O2"
_cell_formula_units_Z 48
_cell_length_a 9.179090
_cell_length_b 21.573068
_cell_length_c 14.151723
_cell_angle_alpha 90.000000
_cell_angle_beta 117.404349
_cell_angle_gamma 90.000000
_cell_volume 2487.862864
_symmetry_space_group_name_H-M "C 2/M"
_symmetry_group_IT_number 12
_symmetry_cell_setting 'monoclinic'
loop_
_space_group_symop_operation_xyz
x,y,z
-x,y,-z
-x,-y,-z
x,-y,z
1/2+x,1/2+y,z
1/2-x,1/2+y,-z
1/2-x,1/2-y,-z
1/2+x,1/2-y,z
loop_
_atom_site_type_symbol
_atom_site_label
_atom_site_fract_x
_atom_site_fract_y
_atom_site_fract_z
Si Si1 0.257887 0.693125 0.231899
Si Si2 0.543689 0.124437 0.904179
Si Si3 0.412326 0.630383 0.737074
Si Si4 0.025068 0.000000 0.167790
Si Si5 0.233633 0.500000 0.936587
Si Si6 0.831181 0.808382 0.901421
Si Si7 0.685175 0.782146 0.573004
O O1 0.419801 0.665714 0.233960
O O2 0.177573 0.736737 0.128340
O O3 0.296825 0.732177 0.337236
O O4 0.119650 0.639999 0.207209
O O5 0.614359 0.058371 0.895862
O O6 0.680564 0.176522 0.925409
O O7 0.500000 0.123990 0.000000
O O8 0.449516 0.557456 0.753023
O O9 0.324603 0.648445 0.808000
O O10 0.283946 0.653488 0.619100
O O11 0.154802 0.000000 0.122460
O O12 0.843858 0.000000 0.065559
O O13 0.000000 0.825732 0.000000
O O14 0.500000 0.802149 0.500000
O O15 0.750000 0.750000 0.500000
#
# Coordination Sequence:
#
# PCOD8114286 Si02
#       7
#     8   8   8   4   4   8   8
#     4  11  24  38  61  94 123 158 207 265 320 375
#     4  12  24  37  58  89 128 169 215 254 303 370
#     4  11  23  40  63  91 123 165 211 253 313 376
#     4  11  22  40  65  87 129 172 220 250 300 372
#     4  11  23  40  60  88 126 187 214 247 295 368
#     4  11  21  36  57  86 127 165 204 256 312 374
#     4  11  23  43  70  95 121 159 207 268 330 384
#
# _framework density 19.293668
#
# number of rings (size 3 to 8) (size 9 to 14) (size 15 to 20)
#    0.000    0.833    3.333    5.750    2.333    2.667 
#    0.000    0.417    0.000    3.000    0.000    0.000 
#    0.000    0.000    0.000    0.000    0.000    0.000 
#
# Total GULP energy -297566.482281 kJ/mol
# GULP energy per Si atom -12398.603428 kJ/mol
# Density = 1.924975 g / cm^3
# Si number density = 19.293668 Si / 1000 Ang^3
#
#
#
# Elastic Constant Matrix: (Units=GPa)
#
#
# Indices 1 2 3 4 5 6 
#
# 1 102.7839 20.3630 20.1833 0.0000 14.6702 0.0000
# 2 20.3630 113.4215 34.5484 0.0000 9.9746 0.0000
# 3 20.1833 34.5484 71.1359 0.0000 15.2216 0.0000
# 4 0.0000 0.0000 0.0000 -144.1328 0.0000 -66.0130
# 5 14.6702 9.9746 15.2216 0.0000 42.5806 0.0000
# 6 0.0000 0.0000 0.0000 -66.0130 0.0000 5.6959
#
#
#
# Elastic Compliance Matrix: (Units=1/GPa)
#
#
# Indices 1 2 3 4 5 6 
#
# 1 0.010716 -0.001098 -0.001919 0.000000 -0.002749 0.000000
# 2 -0.001098 0.010478 -0.004692 0.000000 -0.000399 0.000000
# 3 -0.001919 -0.004692 0.017871 0.000000 -0.004628 0.000000
# 4 0.000000 0.000000 0.000000 -0.001100 0.000000 -0.012747
# 5 -0.002749 -0.000399 -0.004628 0.000000 0.026180 0.000000
# 6 0.000000 0.000000 0.000000 -0.012747 0.000000 0.027832
#
#
# Mechanical properties :
#
#
# Convention : Reuss Voigt Hill
#
# Bulk Modulus (GPa) = 42.28767 48.61451 45.45109
# Shear Modulus (GPa) = 43.37382 -5.02148 19.17617
#
# Velocity S-wave (km/s) = 4.74654 -1.61502 3.15605
# Velocity P-wave (km/s) = 7.21145 4.66627 6.07368
#
# Compressibility (1/GPa) = 0.02364755
#
# Stress axis : x y z
#
# Youngs Moduli (GPa) = 93.32039 95.43788 55.95585
#
# Poissons Ratio (x) = 0.10475 0.10739
# Poissons Ratio (y) = 0.10242 0.26255
# Poissons Ratio (z) = 0.17910 0.44780
#
# Static dielectric constant tensor:
#      x y z
#    x 3.773880 0.000000 0.025560 
#    y 0.000000 3.898120 0.000000 
#    z 0.025560 0.000000 3.508100 
# 
# 
# High freq. dielectric constant tensor:
#      x y z
#    x 1.776330 0.000000 0.002140 
#    y 0.000000 1.746850 0.000000 
#    z 0.002140 0.000000 1.731940 
# 
# From -- ./inp_files/197214.got.cif
#   From: 2010.06.25/outbox.cif.g09.slc.cpg/sg12_99_cif.got.tgz:197214.got - 2010.06.28 00:19:55.
