data_PCOD8114943
_publ_section_title
;
Structure prediction by ZEFSAII (Michael W. Deem and Ramdas Pophale) SiO2 
 PCOD8114943
Probable space group: C 2/M
;
_chemical_formula_sum "Si O2"
_cell_formula_units_Z 56
_cell_length_a 21.831979
_cell_length_b 22.491464
_cell_length_c 16.932321
_cell_angle_alpha 90.000000
_cell_angle_beta 161.829992
_cell_angle_gamma 90.000000
_cell_volume 2592.721138
_symmetry_space_group_name_H-M "C 2/M"
_symmetry_group_IT_number 12
_symmetry_cell_setting 'monoclinic'
loop_
_space_group_symop_operation_xyz
x,y,z
-x,y,-z
-x,-y,-z
x,-y,z
1/2+x,1/2+y,z
1/2-x,1/2+y,-z
1/2-x,1/2-y,-z
1/2+x,1/2-y,z
loop_
_atom_site_type_symbol
_atom_site_label
_atom_site_fract_x
_atom_site_fract_y
_atom_site_fract_z
Si Si1 0.506437 0.110719 0.712916
Si Si2 0.250966 0.315434 0.374833
Si Si3 0.335551 0.243072 0.874558
Si Si4 0.201894 0.122886 0.208873
Si Si5 0.279116 0.065905 0.578881
Si Si6 0.324723 0.431901 0.991444
Si Si7 0.920400 0.740558 0.150209
O O1 0.373498 0.098166 0.474204
O O2 0.434573 0.069633 0.697270
O O3 0.478964 0.176904 0.713937
O O4 0.727728 0.097163 0.952287
O O5 0.297078 0.305720 0.337109
O O6 0.186158 0.383185 0.312650
O O7 0.418787 0.293096 0.641207
O O8 0.067462 0.271193 0.158487
O O9 0.291006 0.306286 0.781473
O O10 0.291414 0.244377 0.912665
O O11 0.244807 0.099857 0.173534
O O12 0.000000 0.098987 0.000000
O O13 0.058274 0.075000 0.278675
O O14 0.304169 0.000000 0.647493
O O15 0.258190 0.500000 0.907571
O O16 0.750000 0.750000 0.000000
#
# Coordination Sequence:
#
# PCOD8114943 Si02
#       7
#     8   8   8   8   8   8   8
#     4  12  23  41  65  93 131 170 219 272 324 398
#     4  11  22  41  65  95 130 169 213 271 333 390
#     4  11  22  39  66  95 132 171 208 276 335 389
#     4  12  21  38  63  95 130 169 216 266 330 401
#     4  11  24  43  68  93 126 174 225 274 327 393
#     4  11  26  43  62  93 132 175 220 270 331 397
#     4  12  24  38  65 100 133 169 217 272 334 397
#
# _framework density 21.598928000000001
#
# number of rings (size 3 to 8) (size 9 to 14) (size 15 to 20)
#    0.000    0.571    5.714    3.857    0.000    2.571 
#    0.000    1.429    0.000    0.000    0.000    3.000 
#    0.000    0.000    0.000    0.000    0.000    0.000 
#
# Total GULP energy -347024.338834 kJ/mol
# GULP energy per Si atom -12393.726387 kJ/mol
# Density = 2.154977 g / cm^3
# Si number density = 21.598928 Si / 1000 Ang^3
#
#
#
# Elastic Constant Matrix: (Units=GPa)
#
#
# Indices 1 2 3 4 5 6 
#
# 1 121.7099 40.8530 25.5926 0.0002 -11.7885 0.0001
# 2 40.8530 123.3984 11.7571 -0.0001 -7.4583 0.0000
# 3 25.5926 11.7571 34.9322 0.0009 -5.0435 0.0006
# 4 0.0002 -0.0001 0.0009 21.9233 0.0004 -1.4312
# 5 -11.7885 -7.4583 -5.0435 0.0004 41.2078 0.0002
# 6 0.0001 0.0000 0.0006 -1.4312 0.0002 36.0189
#
#
#
# Elastic Compliance Matrix: (Units=1/GPa)
#
#
# Indices 1 2 3 4 5 6 
#
# 1 0.010730 -0.002812 -0.006663 0.000000 0.001745 0.000000
# 2 -0.002812 0.009167 -0.000918 0.000000 0.000742 0.000000
# 3 -0.006663 -0.000918 0.034121 -0.000001 0.002104 -0.000001
# 4 0.000000 0.000000 -0.000001 0.045732 -0.000001 0.001817
# 5 0.001745 0.000742 0.002104 -0.000001 0.025158 0.000000
# 6 0.000000 0.000000 -0.000001 0.001817 0.000000 0.027835
#
#
# Mechanical properties :
#
#
# Convention : Reuss Voigt Hill
#
# Bulk Modulus (GPa) = 30.09102 48.49399 39.29251
# Shear Modulus (GPa) = 27.08442 33.28586 30.18514
#
# Velocity S-wave (km/s) = 3.54499 3.92993 3.74241
# Velocity P-wave (km/s) = 5.54237 6.56454 6.07499
#
# Compressibility (1/GPa) = 0.03323251
#
# Stress axis : x y z
#
# Youngs Moduli (GPa) = 93.19442 109.08508 29.30737
#
# Poissons Ratio (x) = 0.30676 0.19527
# Poissons Ratio (y) = 0.26207 0.02690
# Poissons Ratio (z) = 0.62095 0.10014
#
# Static dielectric constant tensor:
#      x y z
#    x 7.951210 0.000030 -4.272850 
#    y 0.000030 3.994770 -0.000030 
#    z -4.272850 -0.000030 8.594780 
# 
# 
# High freq. dielectric constant tensor:
#      x y z
#    x 1.857190 0.000000 0.004860 
#    y 0.000000 1.844490 0.000000 
#    z 0.004860 0.000000 1.833370 
# 
# From -- ./inp_files/290847.got.cif
#   From: 2010.06.25/outbox.cif.g09.slc.cpg/sg12_146_cif.got.tgz:290847.got - 2010.06.28 00:19:55.
