data_PCOD8114508
_publ_section_title
;
Structure prediction by ZEFSAII (Michael W. Deem and Ramdas Pophale) SiO2 
 PCOD8114508
Probable space group: C 2/M
;
_chemical_formula_sum "Si O2"
_cell_formula_units_Z 48
_cell_length_a 17.012347
_cell_length_b 27.531577
_cell_length_c 9.268973
_cell_angle_alpha 90.000000
_cell_angle_beta 34.953621
_cell_angle_gamma 90.000000
_cell_volume 2487.228845
_symmetry_space_group_name_H-M "C 2/M"
_symmetry_group_IT_number 12
_symmetry_cell_setting 'monoclinic'
loop_
_space_group_symop_operation_xyz
x,y,z
-x,y,-z
-x,-y,-z
x,-y,z
1/2+x,1/2+y,z
1/2-x,1/2+y,-z
1/2-x,1/2-y,-z
1/2+x,1/2-y,z
loop_
_atom_site_type_symbol
_atom_site_label
_atom_site_fract_x
_atom_site_fract_y
_atom_site_fract_z
Si Si1 0.128561 0.646633 0.203151
Si Si2 0.070852 0.054548 0.617101
Si Si3 0.144125 0.847759 0.629927
Si Si4 0.369310 0.801490 0.095261
Si Si5 0.154736 0.808875 0.917960
Si Si6 0.287112 0.445656 0.900313
O O1 0.260347 0.672558 0.073661
O O2 0.000000 0.650176 0.500000
O O3 0.087952 0.673276 0.117392
O O4 0.163291 0.590552 0.120516
O O5 0.117373 0.094296 0.663990
O O6 0.155682 0.063854 0.344702
O O7 0.909774 0.061677 0.829721
O O8 0.098959 0.000000 0.634081
O O9 0.250013 0.832471 0.348400
O O10 0.202184 0.836834 0.701599
O O11 0.005597 0.817462 0.809908
O O12 0.313998 0.747730 0.149169
O O13 0.500000 0.799312 0.000000
O O14 0.227534 0.500000 0.002050
#
# Coordination Sequence:
#
# PCOD8114508 Si02
#       6
#     8   8   8   8   8   8
#     4  12  25  40  61  92 127 160 209 256 304 370
#     4   9  17  35  65  95 120 155 206 257 307 368
#     4  11  21  40  69  87 125 162 204 256 305 369
#     4  12  25  43  63  87 123 172 204 254 309 365
#     4  11  25  41  60  94 127 160 205 255 308 365
#     4   9  18  36  61  91 122 158 203 255 311 363
#
# _framework density 19.298586
#
# number of rings (size 3 to 8) (size 9 to 14) (size 15 to 20)
#    0.000    1.333    5.000    3.000    2.333    1.000 
#    0.000    2.500    0.000    4.000    0.000    0.000 
#    0.000    0.000    0.000    0.000    0.000    0.000 
#
# Total GULP energy -297691.060933 kJ/mol
# GULP energy per Si atom -12403.794206 kJ/mol
# Density = 1.925466 g / cm^3
# Si number density = 19.298586 Si / 1000 Ang^3
#
#
#
# Elastic Constant Matrix: (Units=GPa)
#
#
# Indices 1 2 3 4 5 6 
#
# 1 61.2006 31.3867 10.3317 0.0000 9.6476 0.0000
# 2 31.3867 145.2944 20.7388 0.0000 11.4257 0.0000
# 3 10.3317 20.7388 74.9836 0.0000 14.0986 0.0000
# 4 0.0000 0.0000 0.0000 19.2683 0.0000 -1.5382
# 5 9.6476 11.4257 14.0986 0.0000 22.9225 0.0000
# 6 0.0000 0.0000 0.0000 -1.5382 0.0000 27.7911
#
#
#
# Elastic Compliance Matrix: (Units=1/GPa)
#
#
# Indices 1 2 3 4 5 6 
#
# 1 0.019219 -0.003607 -0.000529 0.000000 -0.005966 0.000000
# 2 -0.003607 0.007989 -0.001413 0.000000 -0.001595 0.000000
# 3 -0.000529 -0.001413 0.015407 0.000000 -0.008550 0.000000
# 4 0.000000 0.000000 0.000000 0.052129 0.000000 0.002885
# 5 -0.005966 -0.001595 -0.008550 0.000000 0.052190 0.000000
# 6 0.000000 0.000000 0.000000 0.002885 0.000000 0.036142
#
#
# Mechanical properties :
#
#
# Convention : Reuss Voigt Hill
#
# Bulk Modulus (GPa) = 31.72752 45.15477 38.44115
# Shear Modulus (GPa) = 24.42837 28.59781 26.51309
#
# Velocity S-wave (km/s) = 3.56168 3.85367 3.71055
# Velocity P-wave (km/s) = 5.77842 6.57646 6.19031
#
# Compressibility (1/GPa) = 0.03151837
#
# Stress axis : x y z
#
# Youngs Moduli (GPa) = 52.03093 125.17426 64.90417
#
# Poissons Ratio (x) = 0.45152 0.03432
# Poissons Ratio (y) = 0.18768 0.09169
# Poissons Ratio (z) = 0.02751 0.17682
#
# Static dielectric constant tensor:
#      x y z
#    x 3.472660 0.000000 0.087770 
#    y 0.000000 3.699640 0.000000 
#    z 0.087770 0.000000 3.390560 
# 
# 
# High freq. dielectric constant tensor:
#      x y z
#    x 1.739810 0.000000 0.007900 
#    y 0.000000 1.765400 0.000000 
#    z 0.007900 0.000000 1.745280 
# 
# From -- ./inp_files/67291.got.cif
#   From: 2010.06.25/outbox.cif.g09.slc.cpg/sg12_34_cif.got.tgz:67291.got - 2010.06.28 00:19:55.
