data_PCOD8114075
_publ_section_title
;
Structure prediction by ZEFSAII (Michael W. Deem and Ramdas Pophale) SiO2 
 PCOD8114075
Probable space group: C 2/M
;
_chemical_formula_sum "Si O2"
_cell_formula_units_Z 48
_cell_length_a 22.885275
_cell_length_b 9.097436
_cell_length_c 24.396162
_cell_angle_alpha 90.000000
_cell_angle_beta 33.674724
_cell_angle_gamma 90.000000
_cell_volume 2816.310077
_symmetry_space_group_name_H-M "C 2/M"
_symmetry_group_IT_number 12
_symmetry_cell_setting 'monoclinic'
loop_
_space_group_symop_operation_xyz
x,y,z
-x,y,-z
-x,-y,-z
x,-y,z
1/2+x,1/2+y,z
1/2-x,1/2+y,-z
1/2-x,1/2-y,-z
1/2+x,1/2-y,z
loop_
_atom_site_type_symbol
_atom_site_label
_atom_site_fract_x
_atom_site_fract_y
_atom_site_fract_z
Si Si1 0.866719 0.325601 0.053071
Si Si2 0.508059 0.166559 0.727883
Si Si3 0.178386 0.669238 0.512467
Si Si4 0.705474 0.674328 0.088448
Si Si5 0.099903 0.674778 0.852962
Si Si6 0.305594 0.171076 0.332391
O O1 0.869299 0.500000 0.050058
O O2 0.774384 0.267066 0.085989
O O3 0.847214 0.272657 0.131085
O O4 0.979717 0.265726 0.943686
O O5 0.558013 0.185314 0.627766
O O6 0.414418 0.281149 0.807490
O O7 0.594927 0.201313 0.706129
O O8 0.466164 0.000000 0.768463
O O9 0.211865 0.500000 0.483777
O O10 0.250000 0.750000 0.500000
O O11 0.201235 0.743691 0.435605
O O12 0.713228 0.500000 0.075642
O O13 0.750000 0.750000 0.000000
O O14 0.096694 0.500000 0.851923
O O15 0.166850 0.734987 0.749320
O O16 0.277080 0.000000 0.353064
#
# Coordination Sequence:
#
# PCOD8114075 Si02
#       6
#     8   8   8   8   8   8
#     4   8  15  27  43  65  90 116 148 182 219 263
#     4   9  18  31  45  65  93 121 148 180 220 266
#     4   9  17  29  45  65  91 120 150 186 225 265
#     4  11  21  31  46  68  93 120 150 182 218 266
#     4   8  13  25  46  67  88 114 144 184 227 262
#     4   9  16  27  47  72  93 114 146 188 230 269
#
# _framework density 17.043578
#
# number of rings (size 3 to 8) (size 9 to 14) (size 15 to 20)
#    0.000    3.000    0.000    4.000    0.000    6.000 
#    0.000    0.000    0.000    3.000    0.000   14.000 
#    0.000    0.000    0.000    0.000    0.000    0.000 
#
# Total GULP energy -297414.860533 kJ/mol
# GULP energy per Si atom -12392.285856 kJ/mol
# Density = 1.700479 g / cm^3
# Si number density = 17.043578 Si / 1000 Ang^3
#
#
#
# Elastic Constant Matrix: (Units=GPa)
#
#
# Indices 1 2 3 4 5 6 
#
# 1 90.3366 30.3993 56.8665 0.0004 19.6454 -0.0002
# 2 30.3993 58.5045 45.3641 0.0041 6.4955 -0.0024
# 3 56.8665 45.3641 123.1041 0.0003 31.0136 -0.0004
# 4 0.0004 0.0041 0.0003 31.5225 -0.0005 2.1975
# 5 19.6454 6.4955 31.0136 -0.0005 32.6916 0.0002
# 6 -0.0002 -0.0024 -0.0004 2.1975 0.0002 15.5999
#
#
#
# Elastic Compliance Matrix: (Units=1/GPa)
#
#
# Indices 1 2 3 4 5 6 
#
# 1 0.016603 -0.004271 -0.004988 0.000000 -0.004397 -0.000001
# 2 -0.004271 0.025603 -0.008971 -0.000003 0.005990 0.000004
# 3 -0.004988 -0.008971 0.016464 0.000001 -0.010839 -0.000001
# 4 0.000000 -0.000003 0.000001 0.032038 0.000000 -0.004513
# 5 -0.004397 0.005990 -0.010839 0.000000 0.042323 0.000000
# 6 -0.000001 0.000004 -0.000001 -0.004513 0.000000 0.064739
#
#
# Mechanical properties :
#
#
# Convention : Reuss Voigt Hill
#
# Bulk Modulus (GPa) = 45.02519 59.68944 52.35732
# Shear Modulus (GPa) = 20.69258 25.25050 22.97154
#
# Velocity S-wave (km/s) = 3.48817 3.85324 3.67524
# Velocity P-wave (km/s) = 6.53438 7.40907 6.98543
#
# Compressibility (1/GPa) = 0.02220979
#
# Stress axis : x y z
#
# Youngs Moduli (GPa) = 60.22974 39.05819 60.73983
#
# Poissons Ratio (x) = 0.16683 0.30297
# Poissons Ratio (y) = 0.25726 0.54488
# Poissons Ratio (z) = 0.30042 0.35038
#
# Static dielectric constant tensor:
#      x y z
#    x 3.399740 0.000000 0.631290 
#    y 0.000000 3.009630 0.000000 
#    z 0.631290 0.000000 4.337580 
# 
# 
# High freq. dielectric constant tensor:
#      x y z
#    x 1.633250 0.000000 0.023930 
#    y 0.000000 1.629890 0.000000 
#    z 0.023930 0.000000 1.662790 
# 
# From -- ./inp_files/367117.got.cif
#   From: 2010.06.25/outbox.cif.g09.slc.cpg/sg12_184_cif.got.tgz:367117.got - 2010.06.28 00:19:55.
