data_PCOD8114576
_publ_section_title
;
Structure prediction by ZEFSAII (Michael W. Deem and Ramdas Pophale) SiO2 
 PCOD8114576
Probable space group: C 2/M
;
_chemical_formula_sum "Si O2"
_cell_formula_units_Z 52
_cell_length_a 20.415392
_cell_length_b 17.500281
_cell_length_c 8.066908
_cell_angle_alpha 90.000000
_cell_angle_beta 128.843685
_cell_angle_gamma 90.000000
_cell_volume 2244.756522
_symmetry_space_group_name_H-M "C 2/M"
_symmetry_group_IT_number 12
_symmetry_cell_setting 'monoclinic'
loop_
_space_group_symop_operation_xyz
x,y,z
-x,y,-z
-x,-y,-z
x,-y,z
1/2+x,1/2+y,z
1/2-x,1/2+y,-z
1/2-x,1/2-y,-z
1/2+x,1/2-y,z
loop_
_atom_site_type_symbol
_atom_site_label
_atom_site_fract_x
_atom_site_fract_y
_atom_site_fract_z
Si Si1 0.588103 0.727278 0.668382
Si Si2 0.281572 0.131816 0.755289
Si Si3 0.599185 0.000000 0.186856
Si Si4 0.846613 0.206569 0.875132
Si Si5 0.204082 0.360019 0.833749
Si Si6 0.907611 0.500000 0.432090
Si Si7 0.899274 0.915211 0.541941
Si Si8 0.000000 0.125281 0.000000
O O1 0.500000 0.770875 0.500000
O O2 0.663900 0.778344 0.720074
O O3 0.580791 0.644719 0.570605
O O4 0.597015 0.725705 0.877756
O O5 0.356688 0.074495 0.823125
O O6 0.305827 0.216860 0.732289
O O7 0.193704 0.106380 0.529490
O O8 0.264567 0.135790 0.926768
O O9 0.604069 0.000000 0.391301
O O10 0.500000 0.000000 0.000000
O O11 0.781719 0.139092 0.828221
O O12 0.914774 0.174909 0.857087
O O13 0.138239 0.426254 0.708562
O O14 0.000000 0.500000 0.500000
O O15 0.977480 0.922123 0.798283
O O16 0.891371 0.000000 0.450954
#
# Coordination Sequence:
#
# PCOD8114576 Si02
#       8
#     8   8   4   8   8   4   8   4
#     4  11  21  44  70 100 131 184 241 292 360 434
#     4  11  23  45  75 105 139 188 246 303 370 440
#     4  12  28  46  70 108 153 188 235 301 372 433
#     4  11  24  44  70 106 135 187 242 298 370 429
#     4  11  23  44  76 102 141 181 243 304 363 440
#     4  12  28  48  70 110 143 192 237 293 362 433
#     4  12  25  45  69 100 141 190 240 298 364 429
#     4  12  29  44  64 101 152 186 242 309 352 442
#
# _framework density 23.165095000000001
#
# number of rings (size 3 to 8) (size 9 to 14) (size 15 to 20)
#    0.000    0.615    5.385    3.000    3.231    3.385 
#    1.385    0.000    0.000    0.000    0.000    0.000 
#    0.000    0.000    0.000    0.000    0.000    0.000 
#
# Total GULP energy -322151.949474 kJ/mol
# GULP energy per Si atom -12390.459595 kJ/mol
# Density = 2.311237 g / cm^3
# Si number density = 23.165095 Si / 1000 Ang^3
#
#
#
# Elastic Constant Matrix: (Units=GPa)
#
#
# Indices 1 2 3 4 5 6 
#
# 1 119.4584 38.2555 6.0204 0.0000 23.1492 0.0000
# 2 38.2555 122.1255 36.1826 0.0000 4.9723 0.0000
# 3 6.0204 36.1826 98.7228 0.0000 24.8166 0.0000
# 4 0.0000 0.0000 0.0000 29.1353 0.0000 9.3397
# 5 23.1492 4.9723 24.8166 0.0000 38.7165 0.0000
# 6 0.0000 0.0000 0.0000 9.3397 0.0000 29.7056
#
#
#
# Elastic Compliance Matrix: (Units=1/GPa)
#
#
# Indices 1 2 3 4 5 6 
#
# 1 0.011015 -0.003944 0.002744 0.000000 -0.007838 0.000000
# 2 -0.003944 0.010643 -0.004660 0.000000 0.003979 0.000000
# 3 0.002744 -0.004660 0.014224 0.000000 -0.010160 0.000000
# 4 0.000000 0.000000 0.000000 0.038170 0.000000 -0.012001
# 5 -0.007838 0.003979 -0.010160 0.000000 0.036517 0.000000
# 6 0.000000 0.000000 0.000000 -0.012001 0.000000 0.037437
#
#
# Mechanical properties :
#
#
# Convention : Reuss Voigt Hill
#
# Bulk Modulus (GPa) = 41.38903 55.69153 48.54028
# Shear Modulus (GPa) = 29.80116 36.83469 33.31793
#
# Velocity S-wave (km/s) = 3.59063 3.99192 3.79658
# Velocity P-wave (km/s) = 5.92418 6.73354 6.34179
#
# Compressibility (1/GPa) = 0.02416099
#
# Stress axis : x y z
#
# Youngs Moduli (GPa) = 90.78599 93.96259 70.30428
#
# Poissons Ratio (x) = 0.37062 -0.19294
# Poissons Ratio (y) = 0.35809 0.32763
# Poissons Ratio (z) = -0.24914 0.43788
#
# Static dielectric constant tensor:
#      x y z
#    x 4.204380 0.000000 0.277970 
#    y 0.000000 4.292980 0.000000 
#    z 0.277970 0.000000 4.164260 
# 
# 
# High freq. dielectric constant tensor:
#      x y z
#    x 1.917660 0.000000 0.019270 
#    y 0.000000 1.911710 0.000000 
#    z 0.019270 0.000000 1.929780 
# 
# From -- ./inp_files/88517.got.cif
#   From: 2010.06.25/outbox.cif.g09.slc.cpg/sg12_45_cif.got.tgz:88517.got - 2010.06.28 00:19:55.
