data_PCOD8114726
_publ_section_title
;
Structure prediction by ZEFSAII (Michael W. Deem and Ramdas Pophale) SiO2 
 PCOD8114726
Probable space group: C 2/M
;
_chemical_formula_sum "Si O2"
_cell_formula_units_Z 48
_cell_length_a 20.043494
_cell_length_b 23.628262
_cell_length_c 5.219876
_cell_angle_alpha 90.000000
_cell_angle_beta 60.889249
_cell_angle_gamma 90.000000
_cell_volume 2159.823497
_symmetry_space_group_name_H-M "C 2/M"
_symmetry_group_IT_number 12
_symmetry_cell_setting 'monoclinic'
loop_
_space_group_symop_operation_xyz
x,y,z
-x,y,-z
-x,-y,-z
x,-y,z
1/2+x,1/2+y,z
1/2-x,1/2+y,-z
1/2-x,1/2-y,-z
1/2+x,1/2-y,z
loop_
_atom_site_type_symbol
_atom_site_label
_atom_site_fract_x
_atom_site_fract_y
_atom_site_fract_z
Si Si1 0.543318 0.079755 0.665946
Si Si2 0.309370 0.768104 0.177290
Si Si3 0.089923 0.194543 0.334862
Si Si4 0.728365 0.370667 0.151639
Si Si5 0.218907 0.564128 0.439005
Si Si6 0.431266 0.797188 0.280190
O O1 0.500000 0.053072 0.500000
O O2 0.630158 0.060305 0.529288
O O3 0.538238 0.147138 0.637956
O O4 0.500000 0.058849 0.000000
O O5 0.250000 0.750000 0.500000
O O6 0.267118 0.807095 0.039813
O O7 0.364713 0.814626 0.207949
O O8 0.363704 0.713612 0.008963
O O9 0.137185 0.141409 0.363344
O O10 0.102094 0.252725 0.460809
O O11 0.000000 0.178062 0.500000
O O12 0.762953 0.403796 0.329017
O O13 0.737947 0.405478 0.874481
O O14 0.249764 0.500000 0.408612
O O15 0.500000 0.766724 0.000000
#
# Coordination Sequence:
#
# PCOD8114726 Si02
#       6
#     8   8   8   8   8   8
#     4  11  24  40  64  98 137 178 220 268 322 396
#     4  12  23  40  63 102 141 183 220 263 321 409
#     4  12  25  40  66  99 142 180 221 263 331 412
#     4  12  26  45  69  99 136 174 225 281 337 395
#     4  12  27  48  71  94 126 175 234 293 346 390
#     4  11  22  36  61  96 142 185 215 252 317 407
#
# _framework density 22.224039999999999
#
# number of rings (size 3 to 8) (size 9 to 14) (size 15 to 20)
#    0.000    0.333    5.000    4.500    4.667    0.667 
#    0.000    0.000    0.000    3.000    0.000    0.000 
#    0.000    0.000    0.000    0.000    0.000    0.000 
#
# Total GULP energy -297325.457066 kJ/mol
# GULP energy per Si atom -12388.560711 kJ/mol
# Density = 2.217346 g / cm^3
# Si number density = 22.224040 Si / 1000 Ang^3
#
#
#
# Elastic Constant Matrix: (Units=GPa)
#
#
# Indices 1 2 3 4 5 6 
#
# 1 127.5157 24.3714 42.6705 0.0000 -23.6375 0.0000
# 2 24.3714 93.7688 38.4354 0.0000 -10.8328 0.0000
# 3 42.6705 38.4354 120.4813 0.0000 -8.4133 0.0000
# 4 0.0000 0.0000 0.0000 3.2407 0.0000 18.1648
# 5 -23.6375 -10.8328 -8.4133 0.0000 42.1755 0.0000
# 6 0.0000 0.0000 0.0000 18.1648 0.0000 31.9453
#
#
#
# Elastic Compliance Matrix: (Units=1/GPa)
#
#
# Indices 1 2 3 4 5 6 
#
# 1 0.009845 -0.000827 -0.002893 0.000000 0.004728 0.000000
# 2 -0.000827 0.012583 -0.003578 0.000000 0.002055 0.000000
# 3 -0.002893 -0.003578 0.010434 0.000000 -0.000459 0.000000
# 4 0.000000 0.000000 0.000000 -0.141079 0.000000 0.080221
# 5 0.004728 0.002055 -0.000459 0.000000 0.026797 0.000000
# 6 0.000000 0.000000 0.000000 0.080221 0.000000 -0.014312
#
#
# Mechanical properties :
#
#
# Convention : Reuss Voigt Hill
#
# Bulk Modulus (GPa) = 54.74356 61.41338 58.07847
# Shear Modulus (GPa) = -66.62341 31.22487 -17.69927
#
# Velocity S-wave (km/s) = -5.48116 3.75241 -2.82512
# Velocity P-wave (km/s) = 3.92065 6.81673 3.94312
#
# Compressibility (1/GPa) = 0.01826699
#
# Stress axis : x y z
#
# Youngs Moduli (GPa) = 101.57839 79.46973 95.84102
#
# Poissons Ratio (x) = 0.06570 0.27724
# Poissons Ratio (y) = 0.08398 0.34292
# Poissons Ratio (z) = 0.29384 0.28434
#
# Static dielectric constant tensor:
#      x y z
#    x 4.351380 0.000000 -0.119000 
#    y 0.000000 3.932580 0.000000 
#    z -0.119000 0.000000 4.060170 
# 
# 
# High freq. dielectric constant tensor:
#      x y z
#    x 1.889200 0.000000 -0.000370 
#    y 0.000000 1.848850 0.000000 
#    z -0.000370 0.000000 1.881190 
# 
# From -- ./inp_files/21788.got.cif
#   From: 2010.06.25/outbox.cif.g09.slc.cpg/sg12_11_cif.got.tgz:21788.got - 2010.06.28 00:19:55.
