data_PCOD8114331
_publ_section_title
;
Structure prediction by ZEFSAII (Michael W. Deem and Ramdas Pophale) SiO2 
 PCOD8114331
Probable space group: C 2/M
;
_chemical_formula_sum "Si O2"
_cell_formula_units_Z 56
_cell_length_a 14.594912
_cell_length_b 10.671714
_cell_length_c 28.878386
_cell_angle_alpha 90.000000
_cell_angle_beta 140.526693
_cell_angle_gamma 90.000000
_cell_volume 2859.390955
_symmetry_space_group_name_H-M "C 2/M"
_symmetry_group_IT_number 12
_symmetry_cell_setting 'monoclinic'
loop_
_space_group_symop_operation_xyz
x,y,z
-x,y,-z
-x,-y,-z
x,-y,z
1/2+x,1/2+y,z
1/2-x,1/2+y,-z
1/2-x,1/2-y,-z
1/2+x,1/2-y,z
loop_
_atom_site_type_symbol
_atom_site_label
_atom_site_fract_x
_atom_site_fract_y
_atom_site_fract_z
Si Si1 0.891530 0.858746 0.995117
Si Si2 0.943761 0.247936 0.861013
Si Si3 0.130581 0.355102 0.406241
Si Si4 0.129546 0.645397 0.513492
Si Si5 0.232600 0.500000 0.097256
Si Si6 0.621321 0.252966 0.848577
Si Si7 0.643315 0.858001 0.761946
Si Si8 0.029699 0.500000 0.939144
O O1 0.966607 0.853361 0.074313
O O2 0.862524 0.000000 0.968950
O O3 0.739755 0.789411 0.932818
O O4 0.000000 0.794563 0.000000
O O5 0.773999 0.235900 0.802544
O O6 0.008015 0.382015 0.898277
O O7 0.971759 0.227656 0.817453
O O8 0.182845 0.500000 0.417477
O O9 0.083491 0.340517 0.441677
O O10 0.247153 0.252677 0.433212
O O11 0.988865 0.322659 0.322120
O O12 0.183433 0.500000 0.542733
O O13 0.000000 0.673380 0.500000
O O14 0.328004 0.384675 0.151597
O O15 0.084072 0.500000 0.065081
O O16 0.189631 0.500000 0.025363
O O17 0.597601 0.156132 0.797662
O O18 0.694144 0.000000 0.773057
#
# Coordination Sequence:
#
# PCOD8114331 Si02
#       8
#     8   8   8   8   4   8   8   4
#     4  11  21  37  59  81 104 141 197 253 300 353
#     4  12  25  38  58  82 109 150 197 247 302 353
#     4   9  20  39  64  91 125 163 195 234 281 336
#     4   9  18  37  68 101 129 155 190 234 280 335
#     4  11  22  40  56  77 109 143 189 258 315 351
#     4  12  25  38  58  82 109 150 197 249 301 355
#     4  11  24  44  59  80 121 161 196 233 283 352
#     4  11  22  40  56  75 113 143 185 260 315 349
#
# _framework density 19.584589999999999
#
# number of rings (size 3 to 8) (size 9 to 14) (size 15 to 20)
#    0.000    1.286    4.286    1.286    4.000    1.429 
#    2.571    0.000    0.000    0.000    0.000    0.000 
#    0.000    0.000    0.000    0.000    0.000    0.000 
#
# Total GULP energy -347009.392105 kJ/mol
# GULP energy per Si atom -12393.192575 kJ/mol
# Density = 1.954002 g / cm^3
# Si number density = 19.584590 Si / 1000 Ang^3
#
#
#
# Elastic Constant Matrix: (Units=GPa)
#
#
# Indices 1 2 3 4 5 6 
#
# 1 124.1799 27.6633 34.9143 0.0000 -9.1360 0.0000
# 2 27.6633 91.7393 30.7033 0.0000 3.8945 0.0000
# 3 34.9143 30.7033 101.0814 0.0000 0.9037 0.0000
# 4 0.0000 0.0000 0.0000 26.8087 0.0000 0.7789
# 5 -9.1360 3.8945 0.9037 0.0000 8.3976 0.0000
# 6 0.0000 0.0000 0.0000 0.7789 0.0000 26.2335
#
#
#
# Elastic Compliance Matrix: (Units=1/GPa)
#
#
# Indices 1 2 3 4 5 6 
#
# 1 0.010422 -0.002724 -0.002888 0.000000 0.012912 0.000000
# 2 -0.002724 0.013081 -0.002954 0.000000 -0.008712 0.000000
# 3 -0.002888 -0.002954 0.011815 0.000000 -0.003043 0.000000
# 4 0.000000 0.000000 0.000000 0.037334 0.000000 -0.001108
# 5 0.012912 -0.008712 -0.003043 0.000000 0.137497 0.000000
# 6 0.000000 0.000000 0.000000 -0.001108 0.000000 0.038152
#
#
# Mechanical properties :
#
#
# Convention : Reuss Voigt Hill
#
# Bulk Modulus (GPa) = 54.99140 55.95140 55.47140
# Shear Modulus (GPa) = 18.41663 27.20260 22.80962
#
# Velocity S-wave (km/s) = 3.06986 3.73095 3.41643
# Velocity P-wave (km/s) = 6.38007 6.86957 6.62934
#
# Compressibility (1/GPa) = 0.01818466
#
# Stress axis : x y z
#
# Youngs Moduli (GPa) = 95.95504 76.44951 84.63816
#
# Poissons Ratio (x) = 0.20827 0.24440
# Poissons Ratio (y) = 0.26141 0.25005
# Poissons Ratio (z) = 0.27708 0.22586
#
# Static dielectric constant tensor:
#      x y z
#    x 3.648430 0.000000 -0.097830 
#    y 0.000000 3.766510 0.000000 
#    z -0.097830 0.000000 3.310900 
# 
# 
# High freq. dielectric constant tensor:
#      x y z
#    x 1.767250 0.000000 -0.009070 
#    y 0.000000 1.776370 0.000000 
#    z -0.009070 0.000000 1.729440 
# 
# From -- ./inp_files/360870.got.cif
#   From: 2010.06.25/outbox.cif.g09.slc.cpg/sg12_181_cif.got.tgz:360870.got - 2010.06.28 00:19:55.
