data_PCOD8114625
_publ_section_title
;
Structure prediction by ZEFSAII (Michael W. Deem and Ramdas Pophale) SiO2 
 PCOD8114625
Probable space group: C 2/M
;
_chemical_formula_sum "Si O2"
_cell_formula_units_Z 56
_cell_length_a 18.655922
_cell_length_b 8.902537
_cell_length_c 29.404475
_cell_angle_alpha 90.000000
_cell_angle_beta 37.145046
_cell_angle_gamma 90.000000
_cell_volume 2948.914072
_symmetry_space_group_name_H-M "C 2/M"
_symmetry_group_IT_number 12
_symmetry_cell_setting 'monoclinic'
loop_
_space_group_symop_operation_xyz
x,y,z
-x,y,-z
-x,-y,-z
x,-y,z
1/2+x,1/2+y,z
1/2-x,1/2+y,-z
1/2-x,1/2-y,-z
1/2+x,1/2-y,z
loop_
_atom_site_type_symbol
_atom_site_label
_atom_site_fract_x
_atom_site_fract_y
_atom_site_fract_z
Si Si1 0.866375 0.821159 0.570624
Si Si2 0.822679 0.176071 0.003415
Si Si3 0.575032 0.174958 0.875522
Si Si4 0.713264 0.678499 0.292238
Si Si5 0.206903 0.677623 0.568160
Si Si6 0.040267 0.173820 0.302248
Si Si7 0.246334 0.670521 0.871740
O O1 0.805466 0.758481 0.647524
O O2 0.792663 0.763058 0.564812
O O3 0.000000 0.758083 0.500000
O O4 0.867757 0.000000 0.571596
O O5 0.958093 0.227202 0.933162
O O6 0.816781 0.000000 0.999951
O O7 0.750000 0.250000 0.000000
O O8 0.763395 0.217933 0.081268
O O9 0.659911 0.231887 0.791519
O O10 0.641129 0.203834 0.889607
O O11 0.542478 0.000000 0.886511
O O12 0.711555 0.500000 0.290977
O O13 0.605606 0.734015 0.314629
O O14 0.214238 0.500000 0.559815
O O15 0.250000 0.750000 0.500000
O O16 0.074554 0.725633 0.647857
O O17 0.126295 0.195573 0.215812
O O18 0.002974 0.000000 0.326701
O O19 0.234654 0.500000 0.895382
#
# Coordination Sequence:
#
# PCOD8114625 Si02
#       7
#     8   8   8   8   8   8   8
#     4   9  17  30  51  77 102 132 176 222 258 304
#     4  12  25  38  54  78 110 146 186 232 278 323
#     4   9  18  35  59  83 109 142 179 220 270 333
#     4   8  15  31  56  82 105 135 175 215 260 318
#     4  11  22  34  52  78 107 141 181 226 272 317
#     4   9  18  35  59  83 108 138 171 212 264 322
#     4   9  19  37  60  84 111 144 179 216 268 336
#
# _framework density 18.99004
#
# number of rings (size 3 to 8) (size 9 to 14) (size 15 to 20)
#    0.000    2.429    0.000    4.714    0.000    6.286 
#    0.000    3.571    0.000    8.571    0.000    0.000 
#    0.000    0.000    0.000    0.000    0.000    0.000 
#
# Total GULP energy -347212.429883 kJ/mol
# GULP energy per Si atom -12400.443924 kJ/mol
# Density = 1.894682 g / cm^3
# Si number density = 18.990040 Si / 1000 Ang^3
#
#
#
# Elastic Constant Matrix: (Units=GPa)
#
#
# Indices 1 2 3 4 5 6 
#
# 1 138.2796 52.7788 85.2406 0.0005 2.4827 0.0206
# 2 52.7788 79.0054 45.8077 -0.0012 -0.2707 0.0112
# 3 85.2406 45.8077 133.2189 0.0010 6.1336 0.0012
# 4 0.0005 -0.0012 0.0010 26.8050 -0.0018 -2.6360
# 5 2.4827 -0.2707 6.1336 -0.0018 36.9817 -0.0007
# 6 0.0206 0.0112 0.0012 -2.6360 -0.0007 28.9418
#
#
#
# Elastic Compliance Matrix: (Units=1/GPa)
#
#
# Indices 1 2 3 4 5 6 
#
# 1 0.013329 -0.004938 -0.006840 -0.000001 0.000204 -0.000007
# 2 -0.004938 0.017677 -0.002963 0.000001 0.000952 -0.000003
# 3 -0.006840 -0.002963 0.012981 0.000000 -0.001715 0.000005
# 4 -0.000001 0.000001 0.000000 0.037644 0.000002 0.003428
# 5 0.000204 0.000952 -0.001715 0.000002 0.027318 0.000000
# 6 -0.000007 -0.000003 0.000005 0.003428 0.000000 0.034864
#
#
# Mechanical properties :
#
#
# Convention : Reuss Voigt Hill
#
# Bulk Modulus (GPa) = 68.93818 79.79534 74.36676
# Shear Modulus (GPa) = 28.06933 29.65751 28.86342
#
# Velocity S-wave (km/s) = 3.84879 3.95617 3.90285
# Velocity P-wave (km/s) = 7.49213 7.93594 7.71723
#
# Compressibility (1/GPa) = 0.01450575
#
# Stress axis : x y z
#
# Youngs Moduli (GPa) = 75.02235 56.57052 77.03589
#
# Poissons Ratio (x) = 0.27933 0.52695
# Poissons Ratio (y) = 0.37044 0.22823
# Poissons Ratio (z) = 0.51318 0.16760
#
# Static dielectric constant tensor:
#      x y z
#    x 3.613700 0.000000 0.067300 
#    y 0.000000 3.149560 0.000010 
#    z 0.067300 0.000010 3.697320 
# 
# 
# High freq. dielectric constant tensor:
#      x y z
#    x 1.741370 0.000000 0.000380 
#    y 0.000000 1.703260 0.000000 
#    z 0.000380 0.000000 1.755590 
# 
# From -- ./inp_files/362943.got.cif
#   From: 2010.06.25/outbox.cif.g09.slc.cpg/sg12_182_cif.got.tgz:362943.got - 2010.06.28 00:19:55.
