data_PCOD8114147
_publ_section_title
;
Structure prediction by ZEFSAII (Michael W. Deem and Ramdas Pophale) SiO2 
 PCOD8114147
Probable space group: C 2/M
;
_chemical_formula_sum "Si O2"
_cell_formula_units_Z 56
_cell_length_a 24.558114
_cell_length_b 14.351023
_cell_length_c 8.786639
_cell_angle_alpha 90.000000
_cell_angle_beta 69.043311
_cell_angle_gamma 90.000000
_cell_volume 2891.866697
_symmetry_space_group_name_H-M "C 2/M"
_symmetry_group_IT_number 12
_symmetry_cell_setting 'monoclinic'
loop_
_space_group_symop_operation_xyz
x,y,z
-x,y,-z
-x,-y,-z
x,-y,z
1/2+x,1/2+y,z
1/2-x,1/2+y,-z
1/2-x,1/2-y,-z
1/2+x,1/2-y,z
loop_
_atom_site_type_symbol
_atom_site_label
_atom_site_fract_x
_atom_site_fract_y
_atom_site_fract_z
Si Si1 0.712178 0.108268 0.960617
Si Si2 0.287855 0.891722 0.384719
Si Si3 0.657241 0.398395 0.162341
Si Si4 0.999985 0.394903 0.820693
Si Si5 0.342716 0.601611 0.476934
Si Si6 0.107910 0.708260 0.569897
Si Si7 0.607948 0.791774 0.214306
O O1 0.705068 0.146336 0.795045
O O2 0.777364 0.124571 0.960542
O O3 0.695959 0.000000 0.979723
O O4 0.669411 0.160954 0.117350
O O5 0.222689 0.875361 0.515065
O O6 0.330678 0.839120 0.455836
O O7 0.304032 0.000000 0.371377
O O8 0.636441 0.500000 0.119910
O O9 0.661662 0.403983 0.338303
O O10 0.612364 0.317144 0.158712
O O11 0.000045 0.500000 0.752574
O O12 0.943028 0.340193 0.826765
O O13 0.056848 0.339984 0.712888
O O14 0.000000 0.400231 0.000000
O O15 0.363472 0.500000 0.392904
O O16 0.387606 0.682820 0.383484
O O17 0.094172 0.699331 0.405845
#
# Coordination Sequence:
#
# PCOD8114147 Si02
#       7
#     8   8   8   8   8   8   8
#     4   9  17  31  52  77 108 145 175 200 244 310
#     4   9  17  31  52  77 108 145 175 200 244 310
#     4   8  16  32  53  78 108 140 172 204 246 307
#     4  11  25  43  58  71  96 138 177 207 252 317
#     4   8  16  32  53  78 108 140 172 204 246 307
#     4  11  21  33  54  81 105 132 171 221 263 291
#     4  11  21  33  54  81 105 132 171 221 263 291
#
# _framework density 19.364654000000002
#
# number of rings (size 3 to 8) (size 9 to 14) (size 15 to 20)
#    0.000    2.429    0.000    4.714    0.000    5.143 
#    0.000    2.143    0.000   11.143    0.000    0.000 
#    0.000    0.000    0.000    0.000    0.000    0.000 
#
# Total GULP energy -347093.443998 kJ/mol
# GULP energy per Si atom -12396.194429 kJ/mol
# Density = 1.932058 g / cm^3
# Si number density = 19.364654 Si / 1000 Ang^3
#
#
#
# Elastic Constant Matrix: (Units=GPa)
#
#
# Indices 1 2 3 4 5 6 
#
# 1 71.0939 73.7235 28.7920 0.0000 -14.8200 0.0000
# 2 73.7235 145.8251 41.6946 0.0000 -21.3419 0.0000
# 3 28.7920 41.6946 42.8838 0.0000 -3.8682 0.0000
# 4 0.0000 0.0000 0.0000 20.8730 0.0000 -3.0936
# 5 -14.8200 -21.3419 -3.8682 0.0000 17.1721 0.0000
# 6 0.0000 0.0000 0.0000 -3.0936 0.0000 25.6277
#
#
#
# Elastic Compliance Matrix: (Units=1/GPa)
#
#
# Indices 1 2 3 4 5 6 
#
# 1 0.032910 -0.012479 -0.008982 0.000000 0.010870 0.000000
# 2 -0.012479 0.016238 -0.006696 0.000000 0.007902 0.000000
# 3 -0.008982 -0.006696 0.035124 0.000000 -0.008162 0.000000
# 4 0.000000 0.000000 0.000000 0.048782 0.000000 0.005889
# 5 0.010870 0.007902 -0.008162 0.000000 0.075597 0.000000
# 6 0.000000 0.000000 0.000000 0.005889 0.000000 0.039731
#
#
# Mechanical properties :
#
#
# Convention : Reuss Voigt Hill
#
# Bulk Modulus (GPa) = 35.76980 60.91367 48.34174
# Shear Modulus (GPa) = 15.92282 20.44072 18.18177
#
# Velocity S-wave (km/s) = 2.87062 3.25248 3.06750
# Velocity P-wave (km/s) = 5.43131 6.75494 6.12896
#
# Compressibility (1/GPa) = 0.02795654
#
# Stress axis : x y z
#
# Youngs Moduli (GPa) = 30.38589 61.58578 28.47087
#
# Poissons Ratio (x) = 0.76853 0.25573
# Poissons Ratio (y) = 0.37919 0.19064
# Poissons Ratio (z) = 0.27293 0.41238
#
# Static dielectric constant tensor:
#      x y z
#    x 3.391430 0.000000 -0.073210 
#    y 0.000000 4.126810 0.000000 
#    z -0.073210 0.000000 3.278240 
# 
# 
# High freq. dielectric constant tensor:
#      x y z
#    x 1.734640 0.000000 -0.004400 
#    y 0.000000 1.771220 0.000000 
#    z -0.004400 0.000000 1.727890 
# 
# From -- ./inp_files/96783.got.cif
#   From: 2010.06.25/outbox.cif.g09.slc.cpg/sg12_49_cif.got.tgz:96783.got - 2010.06.28 00:19:55.
