data_PCOD8114552
_publ_section_title
;
Structure prediction by ZEFSAII (Michael W. Deem and Ramdas Pophale) SiO2 
 PCOD8114552
Probable space group: C 2/M
;
_chemical_formula_sum "Si O2"
_cell_formula_units_Z 64
_cell_length_a 16.565225
_cell_length_b 23.328183
_cell_length_c 13.795830
_cell_angle_alpha 90.000000
_cell_angle_beta 144.958456
_cell_angle_gamma 90.000000
_cell_volume 3061.024195
_symmetry_space_group_name_H-M "C 2/M"
_symmetry_group_IT_number 12
_symmetry_cell_setting 'monoclinic'
loop_
_space_group_symop_operation_xyz
x,y,z
-x,y,-z
-x,-y,-z
x,-y,z
1/2+x,1/2+y,z
1/2-x,1/2+y,-z
1/2-x,1/2-y,-z
1/2+x,1/2-y,z
loop_
_atom_site_type_symbol
_atom_site_label
_atom_site_fract_x
_atom_site_fract_y
_atom_site_fract_z
Si Si1 0.196121 0.626432 0.953777
Si Si2 0.542536 0.787103 0.270576
Si Si3 0.021769 0.844259 0.261804
Si Si4 0.644422 0.623095 0.194467
Si Si5 0.343622 0.065759 0.885342
Si Si6 0.724033 0.660631 0.633178
Si Si7 0.629459 0.934848 0.690227
Si Si8 0.639703 0.218767 0.583209
O O1 0.139793 0.599170 0.799911
O O2 0.113564 0.686434 0.883956
O O3 0.361300 0.636984 0.110788
O O4 0.162273 0.583723 0.008444
O O5 0.531102 0.720627 0.229664
O O6 0.635045 0.824049 0.287177
O O7 0.621986 0.789064 0.451002
O O8 0.110044 0.884152 0.274397
O O9 0.092436 0.853641 0.435015
O O10 0.728537 0.568517 0.235263
O O11 0.738469 0.677808 0.259388
O O12 0.500000 0.632798 0.000000
O O13 0.244241 0.106899 0.723780
O O14 0.291590 0.000000 0.824045
O O15 0.500000 0.072356 0.000000
O O16 0.681595 0.716449 0.654013
O O17 0.500000 0.909835 0.500000
O O18 0.600500 0.000000 0.689714
O O19 0.500000 0.200475 0.500000
#
# Coordination Sequence:
#
# PCOD8114552 Si02
#       8
#     8   8   8   8   8   8   8   8
#     4  12  24  44  68  99 134 174 221 283 337 390
#     4  11  21  42  65  95 135 178 218 265 329 413
#     4  11  24  41  63 103 144 168 214 271 337 411
#     4  12  22  40  64  99 138 175 214 269 333 405
#     4  11  26  47  71  96 126 176 241 290 330 388
#     4  11  23  44  66  94 135 180 223 273 332 395
#     4  11  26  46  69  97 131 177 230 276 331 402
#     4  11  23  38  66 100 140 178 217 270 338 408
#
# _framework density 20.908034000000001
#
# number of rings (size 3 to 8) (size 9 to 14) (size 15 to 20)
#    0.000    0.750    5.000    3.375    3.500    1.750 
#    0.000    2.500    0.000    0.000    0.000    0.000 
#    0.000    0.000    0.000    0.000    0.000    0.000 
#
# Total GULP energy -396889.093445 kJ/mol
# GULP energy per Si atom -12402.784170 kJ/mol
# Density = 2.086045 g / cm^3
# Si number density = 20.908034 Si / 1000 Ang^3
#
#
#
# Elastic Constant Matrix: (Units=GPa)
#
#
# Indices 1 2 3 4 5 6 
#
# 1 108.4523 30.2830 46.0030 0.0000 8.5405 0.0000
# 2 30.2830 86.4114 46.3590 0.0000 -7.5863 0.0000
# 3 46.0030 46.3590 129.5872 0.0000 8.2419 0.0000
# 4 0.0000 0.0000 0.0000 29.4402 0.0000 1.0654
# 5 8.5405 -7.5863 8.2419 0.0000 35.8117 0.0000
# 6 0.0000 0.0000 0.0000 1.0654 0.0000 18.0117
#
#
#
# Elastic Compliance Matrix: (Units=1/GPa)
#
#
# Indices 1 2 3 4 5 6 
#
# 1 0.011412 -0.002653 -0.002936 0.000000 -0.002608 0.000000
# 2 -0.002653 0.015613 -0.004967 0.000000 0.005083 0.000000
# 3 -0.002936 -0.004967 0.010715 0.000000 -0.002818 0.000000
# 4 0.000000 0.000000 0.000000 0.034040 0.000000 -0.002014
# 5 -0.002608 0.005083 -0.002818 0.000000 0.030271 0.000000
# 6 0.000000 0.000000 0.000000 -0.002014 0.000000 0.055639
#
#
# Mechanical properties :
#
#
# Convention : Reuss Voigt Hill
#
# Bulk Modulus (GPa) = 60.13916 63.30456 61.72186
# Shear Modulus (GPa) = 27.12281 30.10645 28.61463
#
# Velocity S-wave (km/s) = 3.60563 3.79878 3.70347
# Velocity P-wave (km/s) = 6.79413 7.04161 6.91898
#
# Compressibility (1/GPa) = 0.01662810
#
# Stress axis : x y z
#
# Youngs Moduli (GPa) = 87.62422 64.04758 93.32385
#
# Poissons Ratio (x) = 0.16992 0.27403
# Poissons Ratio (y) = 0.23248 0.46355
# Poissons Ratio (z) = 0.25730 0.31813
#
# Static dielectric constant tensor:
#      x y z
#    x 4.062430 0.000000 0.047660 
#    y 0.000000 3.764540 0.000000 
#    z 0.047660 0.000000 3.838440 
# 
# 
# High freq. dielectric constant tensor:
#      x y z
#    x 1.831990 0.000000 0.006820 
#    y 0.000000 1.807020 0.000000 
#    z 0.006820 0.000000 1.825620 
# 
# From -- ./inp_files/228186.got.cif
#   From: 2010.06.25/outbox.cif.g09.slc.cpg/sg12_115_cif.got.tgz:228186.got - 2010.06.28 00:19:55.
