data_PCOD8114819
_publ_section_title
;
Structure prediction by ZEFSAII (Michael W. Deem and Ramdas Pophale) SiO2 
 PCOD8114819
Probable space group: C 2/M
;
_chemical_formula_sum "Si O2"
_cell_formula_units_Z 56
_cell_length_a 8.834044
_cell_length_b 20.801861
_cell_length_c 25.935254
_cell_angle_alpha 90.000000
_cell_angle_beta 145.528970
_cell_angle_gamma 90.000000
_cell_volume 2697.494723
_symmetry_space_group_name_H-M "C 2/M"
_symmetry_group_IT_number 12
_symmetry_cell_setting 'monoclinic'
loop_
_space_group_symop_operation_xyz
x,y,z
-x,y,-z
-x,-y,-z
x,-y,z
1/2+x,1/2+y,z
1/2-x,1/2+y,-z
1/2-x,1/2-y,-z
1/2+x,1/2-y,z
loop_
_atom_site_type_symbol
_atom_site_label
_atom_site_fract_x
_atom_site_fract_y
_atom_site_fract_z
Si Si1 0.242954 0.186465 0.462916
Si Si2 0.815985 0.352799 0.098887
Si Si3 0.937041 0.570644 0.039113
Si Si4 0.662192 0.431678 0.145415
Si Si5 0.864366 0.659380 0.280257
Si Si6 0.779915 0.572220 0.551343
Si Si7 0.675140 0.780216 0.274532
O O1 0.500000 0.192555 0.500000
O O2 0.250000 0.250000 0.500000
O O3 0.261367 0.119006 0.497478
O O4 0.965142 0.185004 0.352656
O O5 0.990064 0.375602 0.097862
O O6 0.844533 0.409511 0.148883
O O7 0.981502 0.294635 0.171200
O O8 0.500000 0.334042 0.000000
O O9 0.081662 0.500000 0.087252
O O10 0.626759 0.557546 0.958721
O O11 0.000000 0.598527 0.000000
O O12 0.776319 0.500000 0.198034
O O13 0.644553 0.377847 0.184642
O O14 0.723866 0.703438 0.283843
O O15 0.024784 0.602728 0.351987
O O16 0.046554 0.703526 0.293793
O O17 0.500000 0.566338 0.500000
O O18 0.876218 0.500000 0.562068
#
# Coordination Sequence:
#
# PCOD8114819 Si02
#       7
#     8   8   8   8   8   8   8
#     4  12  23  41  67  93 128 169 213 258 307 375
#     4   9  19  37  58  84 119 156 204 252 305 364
#     4   9  17  32  54  81 114 152 196 247 311 372
#     4   9  18  34  57  82 111 152 199 247 302 369
#     4  11  22  38  59  88 120 158 207 256 304 373
#     4  11  23  41  65  92 126 162 205 260 318 372
#     4  11  23  38  61  92 120 162 213 249 311 372
#
# _framework density 20.760003999999999
#
# number of rings (size 3 to 8) (size 9 to 14) (size 15 to 20)
#    0.000    1.714    2.857    2.143    0.000    3.143 
#    0.000    7.857    0.000    0.000    0.000    0.000 
#    0.000    0.000    0.000    0.000    0.000    0.000 
#
# Total GULP energy -346876.200401 kJ/mol
# GULP energy per Si atom -12388.435729 kJ/mol
# Density = 2.071275 g / cm^3
# Si number density = 20.760004 Si / 1000 Ang^3
#
#
#
# Elastic Constant Matrix: (Units=GPa)
#
#
# Indices 1 2 3 4 5 6 
#
# 1 75.8452 38.8597 11.1127 0.0032 -10.3698 -0.0069
# 2 38.8597 147.2101 38.9315 0.0009 -10.0260 -0.0024
# 3 11.1127 38.9315 92.0216 0.0011 -4.9219 -0.0027
# 4 0.0032 0.0009 0.0011 88.1445 -0.0036 -22.9600
# 5 -10.3698 -10.0260 -4.9219 -0.0036 25.9130 -0.0049
# 6 -0.0069 -0.0024 -0.0027 -22.9600 -0.0049 33.9005
#
#
#
# Elastic Compliance Matrix: (Units=1/GPa)
#
#
# Indices 1 2 3 4 5 6 
#
# 1 0.015817 -0.003838 -0.000027 0.000001 0.004839 0.000004
# 2 -0.003838 0.008727 -0.003162 0.000000 0.001240 0.000000
# 3 -0.000027 -0.003162 0.012267 0.000000 0.001096 0.000001
# 4 0.000001 0.000000 0.000000 0.013775 0.000004 0.009330
# 5 0.004839 0.001240 0.001096 0.000004 0.041215 0.000010
# 6 0.000004 0.000000 0.000001 0.009330 0.000010 0.035817
#
#
# Mechanical properties :
#
#
# Convention : Reuss Voigt Hill
#
# Bulk Modulus (GPa) = 43.94698 54.76498 49.35598
# Shear Modulus (GPa) = 33.49882 44.66979 39.08431
#
# Velocity S-wave (km/s) = 4.02135 4.64370 4.34369
# Velocity P-wave (km/s) = 6.54039 7.42895 6.99878
#
# Compressibility (1/GPa) = 0.02275469
#
# Stress axis : x y z
#
# Youngs Moduli (GPa) = 63.22288 114.58664 81.52107
#
# Poissons Ratio (x) = 0.43984 0.00223
# Poissons Ratio (y) = 0.24268 0.25779
# Poissons Ratio (z) = 0.00173 0.36235
#
# Static dielectric constant tensor:
#      x y z
#    x 3.646700 0.000020 -0.012730 
#    y 0.000020 4.264940 -0.000030 
#    z -0.012730 -0.000030 3.879030 
# 
# 
# High freq. dielectric constant tensor:
#      x y z
#    x 1.802430 0.000000 -0.007950 
#    y 0.000000 1.813170 0.000000 
#    z -0.007950 0.000000 1.806800 
# 
# From -- ./inp_files/356717.got.cif
#   From: 2010.06.25/outbox.cif.g09.slc.cpg/sg12_179_cif.got.tgz:356717.got - 2010.06.28 00:19:55.
