data_PCOD8114885
_publ_section_title
;
Structure prediction by ZEFSAII (Michael W. Deem and Ramdas Pophale) SiO2 
 PCOD8114885
Probable space group: C 2/M
;
_chemical_formula_sum "Si O2"
_cell_formula_units_Z 52
_cell_length_a 26.891419
_cell_length_b 16.994446
_cell_length_c 11.215857
_cell_angle_alpha 90.000000
_cell_angle_beta 31.086791
_cell_angle_gamma 90.000000
_cell_volume 2646.583044
_symmetry_space_group_name_H-M "C 2/M"
_symmetry_group_IT_number 12
_symmetry_cell_setting 'monoclinic'
loop_
_space_group_symop_operation_xyz
x,y,z
-x,y,-z
-x,-y,-z
x,-y,z
1/2+x,1/2+y,z
1/2-x,1/2+y,-z
1/2-x,1/2-y,-z
1/2+x,1/2-y,z
loop_
_atom_site_type_symbol
_atom_site_label
_atom_site_fract_x
_atom_site_fract_y
_atom_site_fract_z
Si Si1 0.461041 0.236734 0.705251
Si Si2 0.393808 0.354108 0.257747
Si Si3 0.200589 0.000000 0.129791
Si Si4 0.117791 0.000000 0.554955
Si Si5 0.145298 0.747350 0.457315
Si Si6 0.096045 0.000000 0.113289
Si Si7 0.331195 0.344499 0.127076
Si Si8 0.231589 0.331987 0.966093
O O1 0.500000 0.273145 0.500000
O O2 0.557135 0.203507 0.571489
O O3 0.379196 0.170120 0.853857
O O4 0.420643 0.303141 0.876227
O O5 0.357061 0.425892 0.413729
O O6 0.390643 0.273729 0.339229
O O7 0.330943 0.336335 0.270192
O O8 0.500000 0.376933 0.000000
O O9 0.185815 0.000000 0.301144
O O10 0.105775 0.000000 0.238747
O O11 0.255863 0.084125 0.990769
O O12 0.010980 0.000000 0.717889
O O13 0.229862 0.684727 0.287399
O O14 0.187247 0.825850 0.304392
O O15 0.160355 0.933047 0.925605
O O16 0.250000 0.250000 0.000000
#
# Coordination Sequence:
#
# PCOD8114885 Si02
#       8
#     8   8   4   4   8   4   8   8
#     4  11  22  38  66  87 123 167 203 262 316 373
#     4  12  21  39  62  91 125 161 205 255 311 381
#     4  12  25  41  62  95 128 168 212 254 320 393
#     4  12  23  40  63  90 129 162 197 256 333 371
#     4  11  22  40  63  90 122 168 208 255 315 370
#     4  12  24  36  57  93 127 154 201 261 315 385
#     4  11  25  39  61  92 125 163 208 257 318 375
#     4  11  23  41  63  93 127 166 211 261 314 377
#
# _framework density 19.647974000000001
#
# number of rings (size 3 to 8) (size 9 to 14) (size 15 to 20)
#    0.000    0.615    6.154    3.231    0.000    0.000 
#    0.000    1.154    0.000    0.000    0.000    1.615 
#    0.000    0.000    0.000    0.000    0.000    0.000 
#
# Total GULP energy -322115.007982 kJ/mol
# GULP energy per Si atom -12389.038769 kJ/mol
# Density = 1.960325 g / cm^3
# Si number density = 19.647974 Si / 1000 Ang^3
#
#
#
# Elastic Constant Matrix: (Units=GPa)
#
#
# Indices 1 2 3 4 5 6 
#
# 1 134.2626 33.9837 48.8673 0.0000 -5.8504 0.0000
# 2 33.9837 100.9326 19.4740 0.0000 -6.0724 0.0000
# 3 48.8673 19.4740 78.0694 0.0000 -7.1591 0.0000
# 4 0.0000 0.0000 0.0000 14.8005 0.0000 4.5934
# 5 -5.8504 -6.0724 -7.1591 0.0000 49.2741 0.0000
# 6 0.0000 0.0000 0.0000 4.5934 0.0000 27.1024
#
#
#
# Elastic Compliance Matrix: (Units=1/GPa)
#
#
# Indices 1 2 3 4 5 6 
#
# 1 0.010129 -0.002294 -0.005760 0.000000 0.000083 0.000000
# 2 -0.002294 0.010969 -0.001218 0.000000 0.000903 0.000000
# 3 -0.005760 -0.001218 0.016867 0.000000 0.001617 0.000000
# 4 0.000000 0.000000 0.000000 0.071316 0.000000 -0.012087
# 5 0.000083 0.000903 0.001617 0.000000 0.020651 0.000000
# 6 0.000000 0.000000 0.000000 -0.012087 0.000000 0.038946
#
#
# Mechanical properties :
#
#
# Convention : Reuss Voigt Hill
#
# Bulk Modulus (GPa) = 51.49028 57.54608 54.51818
# Shear Modulus (GPa) = 25.78720 32.29806 29.04263
#
# Velocity S-wave (km/s) = 3.62672 4.05882 3.84884
# Velocity P-wave (km/s) = 6.61821 7.16363 6.89631
#
# Compressibility (1/GPa) = 0.01942114
#
# Stress axis : x y z
#
# Youngs Moduli (GPa) = 98.72717 91.16443 59.28830
#
# Poissons Ratio (x) = 0.20913 0.34152
# Poissons Ratio (y) = 0.22648 0.07219
# Poissons Ratio (z) = 0.56870 0.11100
#
# Static dielectric constant tensor:
#      x y z
#    x 4.076430 0.000000 0.252430 
#    y 0.000000 3.437210 0.000000 
#    z 0.252430 0.000000 3.738540 
# 
# 
# High freq. dielectric constant tensor:
#      x y z
#    x 1.785620 0.000000 0.010960 
#    y 0.000000 1.742870 0.000000 
#    z 0.010960 0.000000 1.760700 
# 
# From -- ./inp_files/184342.got.cif
#   From: 2010.06.25/outbox.cif.g09.slc.cpg/sg12_93_cif.got.tgz:184342.got - 2010.06.28 00:19:55.
