data_PCOD8115887
_publ_section_title
;
Structure prediction by ZEFSAII (Michael W. Deem and Ramdas Pophale) SiO2 
 PCOD8115887
Probable space group: C 2/M
;
_chemical_formula_sum "Si O2"
_cell_formula_units_Z 48
_cell_length_a 10.076593
_cell_length_b 27.146625
_cell_length_c 17.056054
_cell_angle_alpha 90.000000
_cell_angle_beta 149.665698
_cell_angle_gamma 90.000000
_cell_volume 2356.338679
_symmetry_space_group_name_H-M "C 2/M"
_symmetry_group_IT_number 12
_symmetry_cell_setting 'monoclinic'
loop_
_space_group_symop_operation_xyz
x,y,z
-x,y,-z
-x,-y,-z
x,-y,z
1/2+x,1/2+y,z
1/2-x,1/2+y,-z
1/2-x,1/2-y,-z
1/2+x,1/2-y,z
loop_
_atom_site_type_symbol
_atom_site_label
_atom_site_fract_x
_atom_site_fract_y
_atom_site_fract_z
Si Si1 0.623875 0.054495 0.369917
Si Si2 0.694644 0.553725 0.714357
Si Si3 0.295465 0.318114 0.675971
Si Si4 0.761799 0.856781 0.829776
Si Si5 0.534745 0.778959 0.836455
Si Si6 0.217666 0.652716 0.171019
O O1 0.692878 0.056066 0.314709
O O2 0.432233 0.099177 0.291397
O O3 0.882678 0.063004 0.553855
O O4 0.504492 0.000000 0.329078
O O5 0.755210 0.500000 0.782350
O O6 0.836769 0.595717 0.836774
O O7 0.359513 0.335316 0.796960
O O8 0.352466 0.260213 0.699240
O O9 0.490065 0.344341 0.714231
O O10 0.000000 0.330406 0.500000
O O11 0.658349 0.811983 0.830612
O O12 0.000000 0.881006 0.000000
O O13 0.327420 0.812607 0.777458
O O14 0.750000 0.750000 0.000000
O O15 0.000000 0.671383 0.000000
#
# Coordination Sequence:
#
# PCOD8115887 Si02
#       6
#     8   8   8   8   8   8
#     4   9  19  38  64  93 123 158 210 269 318 375
#     4   9  19  38  64  93 123 158 210 269 318 375
#     4  12  28  42  61  98 136 167 215 273 319 383
#     4  12  23  41  68  92 128 172 212 264 321 387
#     4  12  24  44  65  92 124 172 221 263 323 369
#     4  12  23  41  68  92 128 172 212 264 321 387
#
# _framework density 20.370585999999999
#
# number of rings (size 3 to 8) (size 9 to 14) (size 15 to 20)
#    0.000    1.000    5.000    3.000    0.000    4.667 
#    0.000    0.833    0.000    3.000    0.000    0.000 
#    0.000    0.000    0.000    0.000    0.000    0.000 
#
# Total GULP energy -297511.986916 kJ/mol
# GULP energy per Si atom -12396.332788 kJ/mol
# Density = 2.032422 g / cm^3
# Si number density = 20.370586 Si / 1000 Ang^3
#
#
#
# Elastic Constant Matrix: (Units=GPa)
#
#
# Indices 1 2 3 4 5 6 
#
# 1 91.2692 31.4818 8.2682 0.0001 4.2893 0.0001
# 2 31.4818 120.3601 0.4944 0.0003 -0.1423 0.0003
# 3 8.2682 0.4944 42.1511 0.0001 6.4104 0.0000
# 4 0.0001 0.0003 0.0001 36.8619 0.0000 5.6731
# 5 4.2893 -0.1423 6.4104 0.0000 29.1218 0.0000
# 6 0.0001 0.0003 0.0000 5.6731 0.0000 17.6129
#
#
#
# Elastic Compliance Matrix: (Units=1/GPa)
#
#
# Indices 1 2 3 4 5 6 
#
# 1 0.012327 -0.003217 -0.002175 0.000000 -0.001353 0.000000
# 2 -0.003217 0.009148 0.000460 0.000000 0.000417 0.000000
# 3 -0.002175 0.000460 0.024931 0.000000 -0.005165 0.000000
# 4 0.000000 0.000000 0.000000 0.028543 0.000000 -0.009194
# 5 -0.001353 0.000417 -0.005165 0.000000 0.035677 0.000000
# 6 0.000000 0.000000 0.000000 -0.009194 0.000000 0.059738
#
#
# Mechanical properties :
#
#
# Convention : Reuss Voigt Hill
#
# Bulk Modulus (GPa) = 27.36447 37.14102 32.25274
# Shear Modulus (GPa) = 25.98653 30.95506 28.47079
#
# Velocity S-wave (km/s) = 3.57555 3.90243 3.74256
# Velocity P-wave (km/s) = 5.52346 6.21108 5.87733
#
# Compressibility (1/GPa) = 0.03654374
#
# Stress axis : x y z
#
# Youngs Moduli (GPa) = 81.12426 109.30841 40.11093
#
# Poissons Ratio (x) = 0.35163 0.08722
# Poissons Ratio (y) = 0.26097 -0.01846
# Poissons Ratio (z) = 0.17641 -0.05031
#
# Static dielectric constant tensor:
#      x y z
#    x 3.699850 0.000000 0.124810 
#    y 0.000000 4.393880 0.000000 
#    z 0.124810 0.000000 3.723390 
# 
# 
# High freq. dielectric constant tensor:
#      x y z
#    x 1.791520 0.000000 0.002210 
#    y 0.000000 1.810880 0.000000 
#    z 0.002210 0.000000 1.783220 
# 
# From -- ./inp_files/200234.got.cif
#   From: 2010.06.25/outbox.cif.g09.slc.cpg/sg12_101_cif.got.tgz:200234.got - 2010.06.28 00:19:55.
