data_PCOD8115403
_publ_section_title
;
Structure prediction by ZEFSAII (Michael W. Deem and Ramdas Pophale) SiO2 
 PCOD8115403
Probable space group: C 2/M
;
_chemical_formula_sum "Si O2"
_cell_formula_units_Z 64
_cell_length_a 29.355529
_cell_length_b 16.214336
_cell_length_c 9.044667
_cell_angle_alpha 90.000000
_cell_angle_beta 40.864084
_cell_angle_gamma 90.000000
_cell_volume 2816.674067
_symmetry_space_group_name_H-M "C 2/M"
_symmetry_group_IT_number 12
_symmetry_cell_setting 'monoclinic'
loop_
_space_group_symop_operation_xyz
x,y,z
-x,y,-z
-x,-y,-z
x,-y,z
1/2+x,1/2+y,z
1/2-x,1/2+y,-z
1/2-x,1/2-y,-z
1/2+x,1/2-y,z
loop_
_atom_site_type_symbol
_atom_site_label
_atom_site_fract_x
_atom_site_fract_y
_atom_site_fract_z
Si Si1 0.511128 0.861966 0.809050
Si Si2 0.863207 0.907014 0.649179
Si Si3 0.667395 0.902739 0.379900
Si Si4 0.989335 0.168696 0.194455
Si Si5 0.613938 0.403387 0.064912
Si Si6 0.283623 0.844640 0.039868
Si Si7 0.566992 0.090598 0.257508
Si Si8 0.262108 0.701694 0.318763
O O1 0.585502 0.890669 0.565434
O O2 0.497013 0.765312 0.826808
O O3 0.451538 0.910794 0.868915
O O4 0.500000 0.893403 0.000000
O O5 0.909813 0.848077 0.433301
O O6 0.872662 0.879323 0.796817
O O7 0.889876 0.000000 0.566329
O O8 0.784790 0.901849 0.777153
O O9 0.703246 0.844743 0.167918
O O10 0.698056 0.863132 0.455086
O O11 0.687365 0.000000 0.316227
O O12 0.037536 0.120681 0.194220
O O13 0.000000 0.137577 0.000000
O O14 0.626644 0.500000 0.009608
O O15 0.667946 0.351564 0.833657
O O16 0.356228 0.873815 0.929063
O O17 0.267486 0.759208 0.160367
O O18 0.500000 0.138025 0.500000
O O19 0.571723 0.000000 0.317703
O O20 0.250000 0.750000 0.500000
#
# Coordination Sequence:
#
# PCOD8115403 Si02
#       8
#     8   8   8   8   8   8   8   8
#     4  11  26  44  68 101 146 191 241 291 359 436
#     4  11  24  45  72 104 139 184 243 298 360 435
#     4  12  25  48  77 106 146 195 245 301 365 432
#     4  11  26  45  70 103 146 186 238 301 366 433
#     4  11  25  47  74 103 141 190 245 299 361 435
#     4  12  25  46  75 106 142 188 240 301 364 435
#     4  11  23  42  68 102 140 179 232 296 356 422
#     4  12  29  47  72 108 150 193 240 303 368 442
#
# _framework density 22.721834000000001
#
# number of rings (size 3 to 8) (size 9 to 14) (size 15 to 20)
#    0.000    0.625    2.500    4.500    8.750    4.000 
#    0.000    2.500    0.000    0.000    0.000    0.000 
#    0.000    0.000    0.000    0.000    0.000    0.000 
#
# Total GULP energy -396593.263608 kJ/mol
# GULP energy per Si atom -12393.539488 kJ/mol
# Density = 2.267012 g / cm^3
# Si number density = 22.721834 Si / 1000 Ang^3
#
#
#
# Elastic Constant Matrix: (Units=GPa)
#
#
# Indices 1 2 3 4 5 6 
#
# 1 147.6864 42.6772 53.4318 0.0000 -19.1596 0.0000
# 2 42.6772 88.8588 44.8401 0.0000 10.8467 0.0000
# 3 53.4318 44.8401 115.2729 0.0000 -8.4775 0.0000
# 4 0.0000 0.0000 0.0000 36.0715 0.0000 -6.6178
# 5 -19.1596 10.8467 -8.4775 0.0000 42.9615 0.0000
# 6 0.0000 0.0000 0.0000 -6.6178 0.0000 33.6996
#
#
#
# Elastic Compliance Matrix: (Units=1/GPa)
#
#
# Indices 1 2 3 4 5 6 
#
# 1 0.009387 -0.003798 -0.002532 0.000000 0.004646 0.000000
# 2 -0.003798 0.016531 -0.005177 0.000000 -0.006889 0.000000
# 3 -0.002532 -0.005177 0.012050 0.000000 0.002556 0.000000
# 4 0.000000 0.000000 0.000000 0.028759 0.000000 0.005648
# 5 0.004646 -0.006889 0.002556 0.000000 0.027592 0.000000
# 6 0.000000 0.000000 0.000000 0.005648 0.000000 0.030783
#
#
# Mechanical properties :
#
#
# Convention : Reuss Voigt Hill
#
# Bulk Modulus (GPa) = 66.86596 70.41292 68.63944
# Shear Modulus (GPa) = 32.65807 36.60446 34.63126
#
# Velocity S-wave (km/s) = 3.79529 4.01806 3.90826
# Velocity P-wave (km/s) = 6.97836 7.25140 7.11619
#
# Compressibility (1/GPa) = 0.01495529
#
# Stress axis : x y z
#
# Youngs Moduli (GPa) = 106.52528 60.49248 82.98432
#
# Poissons Ratio (x) = 0.22974 0.21014
# Poissons Ratio (y) = 0.40456 0.42958
# Poissons Ratio (z) = 0.26976 0.31315
#
# Static dielectric constant tensor:
#      x y z
#    x 2.548740 0.000000 1.029100 
#    y 0.000000 4.025570 0.000000 
#    z 1.029100 0.000000 3.422150 
# 
# 
# High freq. dielectric constant tensor:
#      x y z
#    x 1.915460 0.000000 -0.012540 
#    y 0.000000 1.896500 0.000000 
#    z -0.012540 0.000000 1.894390 
# 
# From -- ./inp_files/112851.got.cif
#   From: 2010.06.25/outbox.cif.g09.slc.cpg/sg12_57_cif.got.tgz:112851.got - 2010.06.28 00:19:55.
