data_PCOD8115341
_publ_section_title
;
Structure prediction by ZEFSAII (Michael W. Deem and Ramdas Pophale) SiO2 
 PCOD8115341
Probable space group: C 2/M
;
_chemical_formula_sum "Si O2"
_cell_formula_units_Z 56
_cell_length_a 9.996168
_cell_length_b 16.930164
_cell_length_c 26.215050
_cell_angle_alpha 90.000000
_cell_angle_beta 40.169138
_cell_angle_gamma 90.000000
_cell_volume 2861.779773
_symmetry_space_group_name_H-M "C 2/M"
_symmetry_group_IT_number 12
_symmetry_cell_setting 'monoclinic'
loop_
_space_group_symop_operation_xyz
x,y,z
-x,y,-z
-x,-y,-z
x,-y,z
1/2+x,1/2+y,z
1/2-x,1/2+y,-z
1/2-x,1/2-y,-z
1/2+x,1/2-y,z
loop_
_atom_site_type_symbol
_atom_site_label
_atom_site_fract_x
_atom_site_fract_y
_atom_site_fract_z
Si Si1 0.824957 0.591188 0.091035
Si Si2 0.087662 0.159466 0.827594
Si Si3 0.495760 0.594025 0.329835
Si Si4 0.342287 0.913497 0.499671
Si Si5 0.409769 0.158509 0.173308
Si Si6 0.189190 0.405968 0.329092
Si Si7 0.674738 0.408322 0.909171
O O1 0.760329 0.500000 0.104311
O O2 0.626405 0.645063 0.139412
O O3 0.912394 0.605720 0.121868
O O4 0.000000 0.615304 0.000000
O O5 0.107943 0.250380 0.836900
O O6 0.276287 0.135180 0.735353
O O7 0.090090 0.106333 0.877271
O O8 0.518998 0.500000 0.327643
O O9 0.365236 0.628069 0.417044
O O10 0.719228 0.634885 0.265434
O O11 0.379286 0.615809 0.311192
O O12 0.500000 0.923959 0.500000
O O13 0.469772 0.872043 0.416201
O O14 0.275918 0.000000 0.499472
O O15 0.620027 0.143263 0.142749
O O16 0.176264 0.500000 0.326202
O O17 0.728162 0.500000 0.901174
O O18 0.500000 0.380805 0.000000
#
# Coordination Sequence:
#
# PCOD8115341 Si02
#       7
#     8   8   8   8   8   8   8
#     4  11  23  41  65  86 105 142 199 249 282 327
#     4  12  24  37  57  87 119 150 184 231 290 340
#     4   9  16  31  57  84 111 144 189 236 276 327
#     4   7  12  24  49  85 111 135 180 237 281 317
#     4  12  24  37  57  87 119 150 184 231 290 340
#     4   9  16  31  57  84 111 144 189 236 276 327
#     4  11  25  43  59  78 111 154 193 229 280 343
#
# _framework density 19.568242000000001
#
# number of rings (size 3 to 8) (size 9 to 14) (size 15 to 20)
#    0.000    1.857    1.429    6.000    0.000    5.714 
#    0.000    0.714    0.000    0.857    0.000    4.000 
#    0.000    0.000    0.000    0.000    0.000    0.000 
#
# Total GULP energy -347120.384254 kJ/mol
# GULP energy per Si atom -12397.156580 kJ/mol
# Density = 1.952370 g / cm^3
# Si number density = 19.568242 Si / 1000 Ang^3
#
#
#
# Elastic Constant Matrix: (Units=GPa)
#
#
# Indices 1 2 3 4 5 6 
#
# 1 53.3676 11.8809 31.0820 -0.0011 4.1933 -0.0009
# 2 11.8809 51.0123 43.3849 -0.0106 -0.9706 0.0008
# 3 31.0820 43.3849 170.4254 -0.0323 8.5198 0.0017
# 4 -0.0011 -0.0106 -0.0323 2.1971 0.0059 -0.7225
# 5 4.1933 -0.9706 8.5198 0.0059 30.3304 -0.0012
# 6 -0.0009 0.0008 0.0017 -0.7225 -0.0012 23.0575
#
#
#
# Elastic Compliance Matrix: (Units=1/GPa)
#
#
# Indices 1 2 3 4 5 6 
#
# 1 0.021272 -0.002278 -0.003194 -0.000042 -0.002117 0.000000
# 2 -0.002278 0.025472 -0.006213 0.000023 0.002875 0.000000
# 3 -0.003194 -0.006213 0.008134 0.000094 -0.002042 0.000002
# 4 -0.000042 0.000023 0.000094 0.459884 -0.000109 0.014411
# 5 -0.002117 0.002875 -0.002042 -0.000109 0.033929 -0.000002
# 6 0.000000 0.000000 0.000002 0.014411 -0.000002 0.043821
#
#
# Mechanical properties :
#
#
# Convention : Reuss Voigt Hill
#
# Bulk Modulus (GPa) = 31.73779 49.72233 40.73006
# Shear Modulus (GPa) = 7.98234 23.68085 15.83159
#
# Velocity S-wave (km/s) = 2.02190 3.48252 2.84746
# Velocity P-wave (km/s) = 4.65886 6.45255 5.62763
#
# Compressibility (1/GPa) = 0.03150818
#
# Stress axis : x y z
#
# Youngs Moduli (GPa) = 47.01120 39.25859 122.94437
#
# Poissons Ratio (x) = 0.08944 0.39264
# Poissons Ratio (y) = 0.10711 0.76380
# Poissons Ratio (z) = 0.15014 0.24390
#
# Static dielectric constant tensor:
#      x y z
#    x 3.161600 0.000000 0.083450 
#    y 0.000000 3.215190 0.000010 
#    z 0.083450 0.000010 4.105100 
# 
# 
# High freq. dielectric constant tensor:
#      x y z
#    x 1.729840 0.000000 0.005780 
#    y 0.000000 1.736020 0.000000 
#    z 0.005780 0.000000 1.790260 
# 
# From -- ./inp_files/356636.got.cif
#   From: 2010.06.25/outbox.cif.g09.slc.cpg/sg12_179_cif.got.tgz:356636.got - 2010.06.28 00:19:55.
