data_PCOD8115445
_publ_section_title
;
Structure prediction by ZEFSAII (Michael W. Deem and Ramdas Pophale) SiO2 
 PCOD8115445
Probable space group: C 2/M
;
_chemical_formula_sum "Si O2"
_cell_formula_units_Z 48
_cell_length_a 11.311570
_cell_length_b 17.144400
_cell_length_c 11.824888
_cell_angle_alpha 90.000000
_cell_angle_beta 72.488635
_cell_angle_gamma 90.000000
_cell_volume 2186.928301
_symmetry_space_group_name_H-M "C 2/M"
_symmetry_group_IT_number 12
_symmetry_cell_setting 'monoclinic'
loop_
_space_group_symop_operation_xyz
x,y,z
-x,y,-z
-x,-y,-z
x,-y,z
1/2+x,1/2+y,z
1/2-x,1/2+y,-z
1/2-x,1/2-y,-z
1/2+x,1/2-y,z
loop_
_atom_site_type_symbol
_atom_site_label
_atom_site_fract_x
_atom_site_fract_y
_atom_site_fract_z
Si Si1 0.120471 0.408011 0.692605
Si Si2 0.266105 0.164917 0.142598
Si Si3 0.726402 0.660911 0.783635
Si Si4 0.892587 0.589440 0.907251
Si Si5 0.637924 0.801171 0.479573
Si Si6 0.977869 0.089204 0.873968
O O1 0.125016 0.500000 0.678772
O O2 0.235972 0.375426 0.732392
O O3 0.116125 0.373465 0.569116
O O4 0.004663 0.377153 0.799924
O O5 0.281716 0.256890 0.149861
O O6 0.137953 0.142931 0.121384
O O7 0.378401 0.133853 0.030932
O O8 0.771759 0.598457 0.863317
O O9 0.819280 0.665150 0.652024
O O10 0.594252 0.629687 0.777297
O O11 0.911694 0.500000 0.934026
O O12 0.500000 0.760780 0.500000
O O13 0.750000 0.750000 0.500000
O O14 0.958406 0.000000 0.837919
O O15 0.000000 0.092586 0.000000
#
# Coordination Sequence:
#
# PCOD8115445 Si02
#       6
#     8   8   8   8   8   8
#     4  11  25  44  72 104 138 184 237 290 359 429
#     4  12  25  43  71 104 148 184 232 293 360 430
#     4  12  26  42  73 102 138 183 239 293 348 427
#     4  11  23  43  69 103 144 183 227 287 355 426
#     4  12  27  50  74  99 141 187 241 302 359 421
#     4  11  25  44  68 102 146 187 229 287 360 435
#
# _framework density 21.948594
#
# number of rings (size 3 to 8) (size 9 to 14) (size 15 to 20)
#    0.000    0.500    5.000    3.000    4.667    3.000 
#    0.000    0.000    0.000    2.500    0.000    0.000 
#    0.000    0.000    0.000    0.000    0.000    0.000 
#
# Total GULP energy -297586.718496 kJ/mol
# GULP energy per Si atom -12399.446604 kJ/mol
# Density = 2.189864 g / cm^3
# Si number density = 21.948594 Si / 1000 Ang^3
#
#
#
# Elastic Constant Matrix: (Units=GPa)
#
#
# Indices 1 2 3 4 5 6 
#
# 1 92.4751 27.8064 12.1326 0.0000 -5.0938 0.0000
# 2 27.8064 92.0329 31.9069 0.0000 -2.5202 0.0000
# 3 12.1326 31.9069 113.8302 0.0000 -4.4598 0.0000
# 4 0.0000 0.0000 0.0000 32.8895 0.0000 -3.6997
# 5 -5.0938 -2.5202 -4.4598 0.0000 38.8009 0.0000
# 6 0.0000 0.0000 0.0000 -3.6997 0.0000 19.5650
#
#
#
# Elastic Compliance Matrix: (Units=1/GPa)
#
#
# Indices 1 2 3 4 5 6 
#
# 1 0.011969 -0.003496 -0.000244 0.000000 0.001316 0.000000
# 2 -0.003496 0.013062 -0.003288 0.000000 0.000012 0.000000
# 3 -0.000244 -0.003288 0.009767 0.000000 0.000877 0.000000
# 4 0.000000 0.000000 0.000000 0.031066 0.000000 0.005874
# 5 0.001316 0.000012 0.000877 0.000000 0.026047 0.000000
# 6 0.000000 0.000000 0.000000 0.005874 0.000000 0.052223
#
#
# Mechanical properties :
#
#
# Convention : Reuss Voigt Hill
#
# Bulk Modulus (GPa) = 48.21112 49.11444 48.66278
# Shear Modulus (GPa) = 30.28387 33.35058 31.81722
#
# Velocity S-wave (km/s) = 3.71855 3.90229 3.81152
# Velocity P-wave (km/s) = 6.36003 6.53677 6.44901
#
# Compressibility (1/GPa) = 0.02074210
#
# Stress axis : x y z
#
# Youngs Moduli (GPa) = 83.54656 76.55690 102.38401
#
# Poissons Ratio (x) = 0.26761 0.02502
# Poissons Ratio (y) = 0.29205 0.33667
# Poissons Ratio (z) = 0.02041 0.25174
#
# Static dielectric constant tensor:
#      x y z
#    x 4.410330 0.000000 -0.055230 
#    y 0.000000 3.796690 0.000000 
#    z -0.055230 0.000000 4.108200 
# 
# 
# High freq. dielectric constant tensor:
#      x y z
#    x 1.883050 0.000000 0.004320 
#    y 0.000000 1.853720 0.000000 
#    z 0.004320 0.000000 1.866730 
# 
# From -- ./inp_files/131672.got.cif
#   From: 2010.06.25/outbox.cif.g09.slc.cpg/sg12_66_cif.got.tgz:131672.got - 2010.06.28 00:19:55.
