data_PCOD8115776
_publ_section_title
;
Structure prediction by ZEFSAII (Michael W. Deem and Ramdas Pophale) SiO2 
 PCOD8115776
Probable space group: C 2/M
;
_chemical_formula_sum "Si O2"
_cell_formula_units_Z 32
_cell_length_a 9.601650
_cell_length_b 16.440195
_cell_length_c 14.205061
_cell_angle_alpha 90.000000
_cell_angle_beta 37.144633
_cell_angle_gamma 90.000000
_cell_volume 1353.972955
_symmetry_space_group_name_H-M "C 2/M"
_symmetry_group_IT_number 12
_symmetry_cell_setting 'monoclinic'
loop_
_space_group_symop_operation_xyz
x,y,z
-x,y,-z
-x,-y,-z
x,-y,z
1/2+x,1/2+y,z
1/2-x,1/2+y,-z
1/2-x,1/2-y,-z
1/2+x,1/2-y,z
loop_
_atom_site_type_symbol
_atom_site_label
_atom_site_fract_x
_atom_site_fract_y
_atom_site_fract_z
Si Si1 0.226924 0.331177 0.147803
Si Si2 0.970259 0.406410 0.124896
Si Si3 0.899852 0.409746 0.453584
Si Si4 0.033050 0.187105 0.377829
O O1 0.137193 0.342318 0.088948
O O2 0.141890 0.249301 0.244541
O O3 0.112487 0.406212 0.265934
O O4 0.500000 0.336910 0.000000
O O5 0.031733 0.500000 0.115047
O O6 0.705527 0.389451 0.296386
O O7 0.000000 0.386803 0.000000
O O8 0.791432 0.500000 0.509531
O O9 0.711348 0.342075 0.530315
O O10 0.000000 0.387686 0.500000
O O11 0.000000 0.225747 0.500000
#
# Coordination Sequence:
#
# PCOD8115776 Si02
#       4
#     8   8   8   8
#     4  12  28  47  73 107 152 192 240 301 371 434
#     4  11  27  49  75 108 147 197 248 298 363 437
#     4  11  26  47  74 108 146 193 247 306 369 431
#     4  12  26  48  77 107 146 194 251 301 363 434
#
# _framework density 23.634150999999999
#
# number of rings (size 3 to 8) (size 9 to 14) (size 15 to 20)
#    0.000    0.500    2.500    3.750    7.000    5.000 
#    0.000    0.000    0.000    0.000    0.000    0.000 
#    0.000    0.000    0.000    0.000    0.000    0.000 
#
# Total GULP energy -198416.513122 kJ/mol
# GULP energy per Si atom -12401.032070 kJ/mol
# Density = 2.358036 g / cm^3
# Si number density = 23.634151 Si / 1000 Ang^3
#
#
#
# Elastic Constant Matrix: (Units=GPa)
#
#
# Indices 1 2 3 4 5 6 
#
# 1 186.0745 69.4778 84.9294 -0.0183 3.0181 0.0153
# 2 69.4778 115.2822 40.2059 0.0010 2.9189 0.0213
# 3 84.9294 40.2059 138.5039 -0.0208 -12.8974 0.0281
# 4 -0.0183 0.0010 -0.0208 58.6566 0.0253 1.8706
# 5 3.0181 2.9189 -12.8974 0.0253 48.1795 -0.0267
# 6 0.0153 0.0213 0.0281 1.8706 -0.0267 26.0592
#
#
#
# Elastic Compliance Matrix: (Units=1/GPa)
#
#
# Indices 1 2 3 4 5 6 
#
# 1 0.008833 -0.003723 -0.004478 0.000002 -0.001526 0.000001
# 2 -0.003723 0.011310 -0.001069 -0.000001 -0.000738 -0.000007
# 3 -0.004478 -0.001069 0.010572 0.000001 0.003175 -0.000005
# 4 0.000002 -0.000001 0.000001 0.017088 -0.000009 -0.001227
# 5 -0.001526 -0.000738 0.003175 -0.000009 0.021746 0.000021
# 6 0.000001 -0.000007 -0.000005 -0.001227 0.000021 0.038462
#
#
# Mechanical properties :
#
#
# Convention : Reuss Voigt Hill
#
# Bulk Modulus (GPa) = 82.13505 92.12075 87.12790
# Shear Modulus (GPa) = 38.28282 42.92890 40.60586
#
# Velocity S-wave (km/s) = 4.02905 4.26654 4.14949
# Velocity P-wave (km/s) = 7.51482 7.95824 7.73970
#
# Compressibility (1/GPa) = 0.01217507
#
# Stress axis : x y z
#
# Youngs Moduli (GPa) = 113.21479 88.42039 94.59352
#
# Poissons Ratio (x) = 0.32919 0.42355
# Poissons Ratio (y) = 0.42150 0.10110
# Poissons Ratio (z) = 0.50693 0.09451
#
# Static dielectric constant tensor:
#      x y z
#    x 4.530100 -0.000160 0.001430 
#    y -0.000160 4.232900 0.000210 
#    z 0.001430 0.000210 4.661520 
# 
# 
# High freq. dielectric constant tensor:
#      x y z
#    x 1.950600 0.000000 0.010860 
#    y 0.000000 1.943190 0.000010 
#    z 0.010860 0.000010 1.944770 
# 
# From -- ./inp_files/206491.got.cif
#   From: 2010.06.25/outbox.cif.g09.slc.cpg/sg12_104_cif.got.tgz:206491.got - 2010.06.28 00:19:55.
