data_PCOD8115709
_publ_section_title
;
Structure prediction by ZEFSAII (Michael W. Deem and Ramdas Pophale) SiO2 
 PCOD8115709
Probable space group: C 2/M
;
_chemical_formula_sum "Si O2"
_cell_formula_units_Z 24
_cell_length_a 10.261435
_cell_length_b 12.367226
_cell_length_c 14.514925
_cell_angle_alpha 90.000000
_cell_angle_beta 141.608133
_cell_angle_gamma 90.000000
_cell_volume 1143.963950
_symmetry_space_group_name_H-M "C 2/M"
_symmetry_group_IT_number 12
_symmetry_cell_setting 'monoclinic'
loop_
_space_group_symop_operation_xyz
x,y,z
-x,y,-z
-x,-y,-z
x,-y,z
1/2+x,1/2+y,z
1/2-x,1/2+y,-z
1/2-x,1/2-y,-z
1/2+x,1/2-y,z
loop_
_atom_site_type_symbol
_atom_site_label
_atom_site_fract_x
_atom_site_fract_y
_atom_site_fract_z
Si Si1 0.834825 0.500000 0.231648
Si Si2 0.407573 0.500000 0.091898
Si Si3 0.272654 0.120323 0.851872
Si Si4 0.521557 0.213367 0.404292
O O1 0.652380 0.500000 0.206544
O O2 0.977272 0.605081 0.322686
O O3 0.737908 0.500000 0.077289
O O4 0.356703 0.607406 0.124031
O O5 0.149371 0.195391 0.713330
O O6 0.305278 0.000000 0.824980
O O7 0.500000 0.172592 0.000000
O O8 0.500000 0.188965 0.500000
O O9 0.750000 0.250000 0.500000
#
# Coordination Sequence:
#
# PCOD8115709 Si02
#       4
#     4   4   8   8
#     4  11  25  42  66  99 131 175 221 266 335 388
#     4   9  21  44  70  96 130 169 222 283 308 395
#     4   9  22  43  70  96 127 169 225 272 317 384
#     4  12  28  43  69  96 139 178 212 274 330 401
#
# _framework density 20.979682
#
# number of rings (size 3 to 8) (size 9 to 14) (size 15 to 20)
#    1.000    0.667    0.000    2.500   11.667    2.000 
#    0.000    0.000    0.000    0.000    0.000    0.000 
#    0.000    0.000    0.000    0.000    0.000    0.000 
#
# Total GULP energy -148800.000240 kJ/mol
# GULP energy per Si atom -12400.000020 kJ/mol
# Density = 2.093193 g / cm^3
# Si number density = 20.979682 Si / 1000 Ang^3
#
#
#
# Elastic Constant Matrix: (Units=GPa)
#
#
# Indices 1 2 3 4 5 6 
#
# 1 60.3943 -0.8873 10.1958 0.0001 6.9488 0.0000
# 2 -0.8873 101.5441 54.3797 0.0001 9.2068 0.0001
# 3 10.1958 54.3797 114.8844 0.0003 18.5253 0.0001
# 4 0.0001 0.0001 0.0003 -6.8795 0.0001 -1.4451
# 5 6.9488 9.2068 18.5253 0.0001 40.4397 0.0001
# 6 0.0000 0.0001 0.0001 -1.4451 0.0001 19.6708
#
#
#
# Elastic Compliance Matrix: (Units=1/GPa)
#
#
# Indices 1 2 3 4 5 6 
#
# 1 0.017153 0.001307 -0.001747 0.000000 -0.002445 0.000000
# 2 0.001307 0.013292 -0.006353 0.000000 -0.000341 0.000000
# 3 -0.001747 -0.006353 0.012509 0.000000 -0.003984 0.000000
# 4 0.000000 0.000000 0.000000 -0.143150 0.000000 -0.010517
# 5 -0.002445 -0.000341 -0.003984 0.000000 0.027051 0.000000
# 6 0.000000 0.000000 0.000000 -0.010517 0.000000 0.050064
#
#
# Mechanical properties :
#
#
# Convention : Reuss Voigt Hill
#
# Bulk Modulus (GPa) = 34.04929 44.91102 39.48015
# Shear Modulus (GPa) = 16978.30314 24.85517 8501.57916
#
# Velocity S-wave (km/s) = 90.05723 3.44572 63.72667
# Velocity P-wave (km/s) = 104.06731 6.10606 73.71326
#
# Compressibility (1/GPa) = 0.02936919
#
# Stress axis : x y z
#
# Youngs Moduli (GPa) = 58.29804 75.23092 79.94283
#
# Poissons Ratio (x) = -0.09832 0.13964
# Poissons Ratio (y) = -0.07619 0.50787
# Poissons Ratio (z) = 0.10183 0.47794
#
# Static dielectric constant tensor:
#      x y z
#    x 3.835910 0.000000 0.104460 
#    y 0.000000 3.655730 0.000000 
#    z 0.104460 0.000000 3.792870 
# 
# 
# High freq. dielectric constant tensor:
#      x y z
#    x 1.823810 0.000000 0.008880 
#    y 0.000000 1.814210 0.000000 
#    z 0.008880 0.000000 1.833200 
# 
# From -- ./inp_files/204077.got.cif
#   From: 2010.06.25/outbox.cif.g09.slc.cpg/sg12_103_cif.got.tgz:204077.got - 2010.06.28 00:19:55.
