data_PCOD8115097
_publ_section_title
;
Structure prediction by ZEFSAII (Michael W. Deem and Ramdas Pophale) SiO2 
 PCOD8115097
Probable space group: C 2/M
;
_chemical_formula_sum "Si O2"
_cell_formula_units_Z 60
_cell_length_a 14.681867
_cell_length_b 17.629297
_cell_length_c 11.098800
_cell_angle_alpha 90.000000
_cell_angle_beta 108.805267
_cell_angle_gamma 90.000000
_cell_volume 2719.366932
_symmetry_space_group_name_H-M "C 2/M"
_symmetry_group_IT_number 12
_symmetry_cell_setting 'monoclinic'
loop_
_space_group_symop_operation_xyz
x,y,z
-x,y,-z
-x,-y,-z
x,-y,z
1/2+x,1/2+y,z
1/2-x,1/2+y,-z
1/2-x,1/2-y,-z
1/2+x,1/2-y,z
loop_
_atom_site_type_symbol
_atom_site_label
_atom_site_fract_x
_atom_site_fract_y
_atom_site_fract_z
Si Si1 0.956323 0.412712 0.354963
Si Si2 0.109166 0.655863 0.258392
Si Si3 0.641612 0.683711 0.349028
Si Si4 0.000000 0.731889 0.000000
Si Si5 0.793834 0.913131 0.414973
Si Si6 0.845175 0.176653 0.086480
Si Si7 0.543677 0.415715 0.699381
Si Si8 0.722971 0.817963 0.813586
O O1 0.925323 0.500000 0.352152
O O2 0.862957 0.365830 0.277853
O O3 0.000000 0.383558 0.500000
O O4 0.035705 0.403056 0.286131
O O5 0.122749 0.726818 0.356806
O O6 0.210637 0.611929 0.286209
O O7 0.069781 0.679961 0.111089
O O8 0.713127 0.645694 0.476401
O O9 0.539895 0.643871 0.320240
O O10 0.685695 0.674895 0.234881
O O11 0.066722 0.782707 0.943906
O O12 0.900139 0.906472 0.403019
O O13 0.776606 0.000000 0.450428
O O14 0.880791 0.098566 0.160544
O O15 0.809513 0.230694 0.181479
O O16 0.758010 0.154057 0.960245
O O17 0.500931 0.500000 0.692772
#
# Coordination Sequence:
#
# PCOD8115097 Si02
#       8
#     8   8   8   4   8   8   8   8
#     4  11  25  44  64  96 142 178 214 271 333 399
#     4  12  24  42  71  99 127 174 229 272 333 393
#     4  12  23  42  68  99 132 174 225 274 330 394
#     4  12  22  46  70  98 134 170 218 290 330 384
#     4  11  26  45  66  98 138 177 221 278 333 393
#     4  11  22  43  68  97 134 167 223 285 329 387
#     4  11  24  42  66  97 135 177 219 271 336 398
#     4  11  23  40  70  97 128 177 219 272 337 388
#
# _framework density 22.063958
#
# number of rings (size 3 to 8) (size 9 to 14) (size 15 to 20)
#    0.000    0.667    4.000    3.200    1.867    5.867 
#    0.000    5.000    0.000    0.000    0.000    0.000 
#    0.000    0.000    0.000    0.000    0.000    0.000 
#
# Total GULP energy -371990.693059 kJ/mol
# GULP energy per Si atom -12399.689769 kJ/mol
# Density = 2.201374 g / cm^3
# Si number density = 22.063958 Si / 1000 Ang^3
#
#
#
# Elastic Constant Matrix: (Units=GPa)
#
#
# Indices 1 2 3 4 5 6 
#
# 1 95.8546 33.7091 14.7436 0.0000 -0.2943 0.0000
# 2 33.7091 84.3970 46.6948 0.0000 7.5390 0.0000
# 3 14.7436 46.6948 104.2511 0.0000 9.7395 0.0000
# 4 0.0000 0.0000 0.0000 -13.7457 0.0000 3.0567
# 5 -0.2943 7.5390 9.7395 0.0000 41.3234 0.0000
# 6 0.0000 0.0000 0.0000 3.0567 0.0000 20.7690
#
#
#
# Elastic Compliance Matrix: (Units=1/GPa)
#
#
# Indices 1 2 3 4 5 6 
#
# 1 0.012200 -0.005255 0.000543 0.000000 0.000918 0.000000
# 2 -0.005255 0.018078 -0.007201 0.000000 -0.001638 0.000000
# 3 0.000543 -0.007201 0.012902 0.000000 -0.001723 0.000000
# 4 0.000000 0.000000 0.000000 -0.070444 0.000000 0.010368
# 5 0.000918 -0.001638 -0.001723 0.000000 0.024911 0.000000
# 6 0.000000 0.000000 0.000000 0.010368 0.000000 0.046623
#
#
# Mechanical properties :
#
#
# Convention : Reuss Voigt Hill
#
# Bulk Modulus (GPa) = 51.67138 52.75532 52.21335
# Shear Modulus (GPa) = 67.07154 22.29300 44.68227
#
# Velocity S-wave (km/s) = 5.51948 3.18210 4.50502
# Velocity P-wave (km/s) = 8.00558 6.12071 7.12574
#
# Compressibility (1/GPa) = 0.01935307
#
# Stress axis : x y z
#
# Youngs Moduli (GPa) = 81.96841 55.31518 77.50795
#
# Poissons Ratio (x) = 0.29068 -0.04206
# Poissons Ratio (y) = 0.43074 0.55814
# Poissons Ratio (z) = -0.04448 0.39833
#
# Static dielectric constant tensor:
#      x y z
#    x 4.116190 0.000000 0.147010 
#    y 0.000000 3.928490 0.000000 
#    z 0.147010 0.000000 4.246700 
# 
# 
# High freq. dielectric constant tensor:
#      x y z
#    x 1.884760 0.000000 0.011390 
#    y 0.000000 1.854610 0.000000 
#    z 0.011390 0.000000 1.875400 
# 
# From -- ./inp_files/146195.got.cif
#   From: 2010.06.25/outbox.cif.g09.slc.cpg/sg12_74_cif.got.tgz:146195.got - 2010.06.28 00:19:55.
