data_PCOD8115903
_publ_section_title
;
Structure prediction by ZEFSAII (Michael W. Deem and Ramdas Pophale) SiO2 
 PCOD8115903
Probable space group: C 2/M
;
_chemical_formula_sum "Si O2"
_cell_formula_units_Z 40
_cell_length_a 21.839207
_cell_length_b 16.659122
_cell_length_c 17.804078
_cell_angle_alpha 90.000000
_cell_angle_beta 17.899166
_cell_angle_gamma 90.000000
_cell_volume 1990.817536
_symmetry_space_group_name_H-M "C 2/M"
_symmetry_group_IT_number 12
_symmetry_cell_setting 'monoclinic'
loop_
_space_group_symop_operation_xyz
x,y,z
-x,y,-z
-x,-y,-z
x,-y,z
1/2+x,1/2+y,z
1/2-x,1/2+y,-z
1/2-x,1/2-y,-z
1/2+x,1/2-y,z
loop_
_atom_site_type_symbol
_atom_site_label
_atom_site_fract_x
_atom_site_fract_y
_atom_site_fract_z
Si Si1 0.299067 0.836419 0.909304
Si Si2 0.131935 0.907774 0.957890
Si Si3 0.797222 0.407681 0.603992
Si Si4 0.881887 0.908094 0.739301
Si Si5 0.701956 0.904453 0.798559
O O1 0.196981 0.848501 0.947998
O O2 0.534980 0.849399 0.625330
O O3 0.250000 0.750000 0.000000
O O4 0.210431 0.899810 0.071118
O O5 0.254080 0.884779 0.740665
O O6 0.177657 0.000000 0.926498
O O7 0.898115 0.895701 0.217924
O O8 0.869410 0.500000 0.515543
O O9 0.735322 0.873023 0.845451
O O10 0.106680 0.872219 0.472441
O O11 0.907507 0.000000 0.688678
O O12 0.680483 0.000000 0.819710
O O13 0.500000 0.865244 0.000000
#
# Coordination Sequence:
#
# PCOD8115903 Si02
#       5
#     8   8   8   8   8
#     4  12  24  35  52  84 127 155 178 223 293 358
#     4   9  19  39  66  89 109 144 199 252 290 332
#     4   9  19  39  66  89 109 144 199 252 290 332
#     4   9  18  33  52  76 104 137 187 232 259 313
#     4   8  15  31  54  75  97 130 175 225 267 304
#
# _framework density 20.092248999999999
#
# number of rings (size 3 to 8) (size 9 to 14) (size 15 to 20)
#    0.000    2.600    0.000    4.800    0.000    4.000 
#    7.200    4.000    0.000    0.000    0.000    0.000 
#    0.000    0.000    0.000    0.000    0.000    0.000 
#
# Total GULP energy -247891.233032 kJ/mol
# GULP energy per Si atom -12394.561652 kJ/mol
# Density = 2.004652 g / cm^3
# Si number density = 20.092249 Si / 1000 Ang^3
#
#
#
# Elastic Constant Matrix: (Units=GPa)
#
#
# Indices 1 2 3 4 5 6 
#
# 1 79.2001 20.4512 65.0710 0.2739 -4.1277 -0.1531
# 2 20.4512 55.7923 36.1020 0.2429 1.6590 -0.0061
# 3 65.0710 36.1020 160.8196 0.3418 -5.1180 -0.1511
# 4 0.2739 0.2429 0.3418 20.4867 -0.0698 6.3454
# 5 -4.1277 1.6590 -5.1180 -0.0698 36.7209 0.0224
# 6 -0.1531 -0.0061 -0.1511 6.3454 0.0224 21.7519
#
#
#
# Elastic Compliance Matrix: (Units=1/GPa)
#
#
# Indices 1 2 3 4 5 6 
#
# 1 0.019233 -0.002431 -0.007195 -0.000143 0.001269 0.000125
# 2 -0.002431 0.021373 -0.003871 -0.000166 -0.001779 0.000012
# 3 -0.007195 -0.003871 0.010023 -0.000031 0.000763 0.000026
# 4 -0.000143 -0.000166 -0.000031 0.053666 0.000099 -0.015657
# 5 0.001269 -0.001779 0.000763 0.000099 0.027562 -0.000044
# 6 0.000125 0.000012 0.000026 -0.015657 -0.000044 0.050541
#
#
# Mechanical properties :
#
#
# Convention : Reuss Voigt Hill
#
# Bulk Modulus (GPa) = 42.31122 59.89562 51.10342
# Shear Modulus (GPa) = 23.01286 27.40443 25.20865
#
# Velocity S-wave (km/s) = 3.38799 3.69715 3.54594
# Velocity P-wave (km/s) = 6.03397 6.93543 6.50035
#
# Compressibility (1/GPa) = 0.02363440
#
# Stress axis : x y z
#
# Youngs Moduli (GPa) = 51.99510 46.78826 99.77230
#
# Poissons Ratio (x) = 0.11374 0.71790
# Poissons Ratio (y) = 0.12640 0.38617
# Poissons Ratio (z) = 0.37413 0.18110
#
# Static dielectric constant tensor:
#      x y z
#    x 3.815860 -0.000380 -0.009850 
#    y -0.000380 3.191380 0.000430 
#    z -0.009850 0.000430 3.864310 
# 
# 
# High freq. dielectric constant tensor:
#      x y z
#    x 1.789060 -0.000020 -0.003780 
#    y -0.000020 1.742000 0.000030 
#    z -0.003780 0.000030 1.795130 
# 
# From -- ./inp_files/284419.got.cif
#   From: 2010.06.25/outbox.cif.g09.slc.cpg/sg12_143_cif.got.tgz:284419.got - 2010.06.28 00:19:55.
