data_PCOD8115271
_publ_section_title
;
Structure prediction by ZEFSAII (Michael W. Deem and Ramdas Pophale) SiO2 
 PCOD8115271
Probable space group: C 2/M
;
_chemical_formula_sum "Si O2"
_cell_formula_units_Z 64
_cell_length_a 14.512087
_cell_length_b 9.112092
_cell_length_c 30.537094
_cell_angle_alpha 90.000000
_cell_angle_beta 50.231550
_cell_angle_gamma 90.000000
_cell_volume 3103.818599
_symmetry_space_group_name_H-M "C 2/M"
_symmetry_group_IT_number 12
_symmetry_cell_setting 'monoclinic'
loop_
_space_group_symop_operation_xyz
x,y,z
-x,y,-z
-x,-y,-z
x,-y,z
1/2+x,1/2+y,z
1/2-x,1/2+y,-z
1/2-x,1/2-y,-z
1/2+x,1/2-y,z
loop_
_atom_site_type_symbol
_atom_site_label
_atom_site_fract_x
_atom_site_fract_y
_atom_site_fract_z
Si Si1 0.645662 0.669931 0.582627
Si Si2 0.083145 0.826897 0.290235
Si Si3 0.576785 0.330938 0.881797
Si Si4 0.904223 0.333984 0.990339
Si Si5 0.386241 0.672736 0.506982
Si Si6 0.687035 0.674060 0.755882
Si Si7 0.237969 0.667199 0.098316
Si Si8 0.978006 0.326853 0.777873
O O1 0.679852 0.500000 0.572215
O O2 0.541974 0.706506 0.648348
O O3 0.599633 0.716903 0.548323
O O4 0.763413 0.757131 0.562268
O O5 0.187932 0.758664 0.288231
O O6 0.090798 0.739203 0.242626
O O7 0.103702 0.000000 0.276828
O O8 0.540388 0.500000 0.892492
O O9 0.626716 0.280734 0.819992
O O10 0.680371 0.296442 0.884814
O O11 0.456568 0.241672 0.930773
O O12 0.877058 0.500000 0.986241
O O13 0.778631 0.262519 0.044094
O O14 0.000000 0.316591 0.000000
O O15 0.500000 0.733608 0.500000
O O16 0.375879 0.500000 0.516853
O O17 0.704579 0.500000 0.745168
O O18 0.601528 0.737686 0.744113
O O19 0.253705 0.500000 0.079150
O O20 0.102099 0.701903 0.154295
O O21 0.999334 0.500000 0.764372
#
# Coordination Sequence:
#
# PCOD8115271 Si02
#       8
#     8   8   8   8   8   8   8   8
#     4   9  20  37  57  87 122 155 198 240 284 339
#     4  11  23  40  61  86 121 162 200 247 294 342
#     4   9  17  33  54  75 105 144 184 230 287 353
#     4   9  17  27  46  79 108 134 177 231 286 349
#     4   9  18  35  60  89 122 160 197 236 283 334
#     4  11  23  40  60  86 116 152 198 245 298 358
#     4   9  17  33  54  75 104 143 184 231 290 353
#     4  11  23  40  60  85 114 151 199 248 299 356
#
# _framework density 20.619761
#
# number of rings (size 3 to 8) (size 9 to 14) (size 15 to 20)
#    0.000    2.250    1.250    1.500    0.000    5.750 
#    0.000    1.875    0.000    0.000    0.000    0.000 
#    0.000    0.000    0.000    0.000    0.000    0.000 
#
# Total GULP energy -396847.788154 kJ/mol
# GULP energy per Si atom -12401.493380 kJ/mol
# Density = 2.057283 g / cm^3
# Si number density = 20.619761 Si / 1000 Ang^3
#
#
#
# Elastic Constant Matrix: (Units=GPa)
#
#
# Indices 1 2 3 4 5 6 
#
# 1 90.6620 37.4844 24.3856 0.0000 -24.8225 0.0000
# 2 37.4844 90.5697 44.1846 0.0000 -16.2949 0.0000
# 3 24.3856 44.1846 75.2413 0.0000 -15.8577 0.0000
# 4 0.0000 0.0000 0.0000 32.9453 0.0000 -6.1077
# 5 -24.8225 -16.2949 -15.8577 0.0000 23.1111 0.0000
# 6 0.0000 0.0000 0.0000 -6.1077 0.0000 30.0229
#
#
#
# Elastic Compliance Matrix: (Units=1/GPa)
#
#
# Indices 1 2 3 4 5 6 
#
# 1 0.016968 -0.004426 0.000331 0.000000 0.015332 0.000000
# 2 -0.004426 0.017243 -0.008336 0.000000 0.001684 0.000000
# 3 0.000331 -0.008336 0.019775 0.000000 0.008046 0.000000
# 4 0.000000 0.000000 0.000000 0.031543 0.000000 0.006417
# 5 0.015332 0.001684 0.008046 0.000000 0.066444 0.000000
# 6 0.000000 0.000000 0.000000 0.006417 0.000000 0.034613
#
#
# Mechanical properties :
#
#
# Convention : Reuss Voigt Hill
#
# Bulk Modulus (GPa) = 34.33704 52.06467 43.20086
# Shear Modulus (GPa) = 22.60842 27.24376 24.92609
#
# Velocity S-wave (km/s) = 3.31485 3.63884 3.48062
# Velocity P-wave (km/s) = 5.59818 6.55435 6.09505
#
# Compressibility (1/GPa) = 0.02912307
#
# Stress axis : x y z
#
# Youngs Moduli (GPa) = 58.93275 57.99528 50.57010
#
# Poissons Ratio (x) = 0.25667 -0.01673
# Poissons Ratio (y) = 0.26082 0.42157
# Poissons Ratio (z) = -0.01949 0.48347
#
# Static dielectric constant tensor:
#      x y z
#    x 3.686000 0.000000 -0.128320 
#    y 0.000000 3.621210 0.000000 
#    z -0.128320 0.000000 3.701890 
# 
# 
# High freq. dielectric constant tensor:
#      x y z
#    x 1.804480 0.000000 -0.008080 
#    y 0.000000 1.804040 0.000000 
#    z -0.008080 0.000000 1.800190 
# 
# From -- ./inp_files/375468.got.cif
#   From: 2010.06.25/outbox.cif.g09.slc.cpg/sg12_188_cif.got.tgz:375468.got - 2010.06.28 00:19:55.
