data_PCOD8115548
_publ_section_title
;
Structure prediction by ZEFSAII (Michael W. Deem and Ramdas Pophale) SiO2 
 PCOD8115548
Probable space group: C 2/M
;
_chemical_formula_sum "Si O2"
_cell_formula_units_Z 48
_cell_length_a 28.767467
_cell_length_b 15.093775
_cell_length_c 6.923251
_cell_angle_alpha 90.000000
_cell_angle_beta 127.272853
_cell_angle_gamma 90.000000
_cell_volume 2392.169542
_symmetry_space_group_name_H-M "C 2/M"
_symmetry_group_IT_number 12
_symmetry_cell_setting 'monoclinic'
loop_
_space_group_symop_operation_xyz
x,y,z
-x,y,-z
-x,-y,-z
x,-y,z
1/2+x,1/2+y,z
1/2-x,1/2+y,-z
1/2-x,1/2-y,-z
1/2+x,1/2-y,z
loop_
_atom_site_type_symbol
_atom_site_label
_atom_site_fract_x
_atom_site_fract_y
_atom_site_fract_z
Si Si1 0.060341 0.101961 0.049825
Si Si2 0.359429 0.687810 0.453837
Si Si3 0.750460 0.101063 0.984715
Si Si4 0.565528 0.259906 0.719657
Si Si5 0.209722 0.321484 0.501708
Si Si6 0.353509 0.900320 0.000821
O O1 0.069821 0.162683 0.887500
O O2 0.059486 0.000000 0.979272
O O3 0.112796 0.114968 0.333952
O O4 0.000000 0.129113 0.000000
O O5 0.403553 0.704821 0.392729
O O6 0.347148 0.776706 0.544198
O O7 0.296911 0.658571 0.216810
O O8 0.749420 0.128219 0.758310
O O9 0.686532 0.118378 0.912967
O O10 0.769908 0.000000 0.051987
O O11 0.500000 0.235511 0.500000
O O12 0.594302 0.170120 0.872539
O O13 0.250000 0.250000 0.500000
O O14 0.186480 0.392555 0.289926
O O15 0.379275 0.000000 0.073170
#
# Coordination Sequence:
#
# PCOD8115548 Si02
#       6
#     8   8   8   8   8   8
#     4  11  25  44  66  95 131 173 221 274 329 393
#     4  12  23  41  66  95 131 172 215 265 331 397
#     4  11  24  40  62  97 133 168 215 271 329 393
#     4  12  25  44  69  94 132 177 221 273 330 390
#     4  12  22  40  66  93 132 174 215 264 329 391
#     4  11  24  43  67  97 133 175 221 273 330 389
#
# _framework density 20.065467000000002
#
# number of rings (size 3 to 8) (size 9 to 14) (size 15 to 20)
#    0.000    0.500    6.667    2.500    0.000    2.000 
#    0.000    0.000    0.000    1.500    0.000    0.000 
#    0.000    0.000    0.000    0.000    0.000    0.000 
#
# Total GULP energy -297735.577922 kJ/mol
# GULP energy per Si atom -12405.649080 kJ/mol
# Density = 2.001980 g / cm^3
# Si number density = 20.065467 Si / 1000 Ang^3
#
#
#
# Elastic Constant Matrix: (Units=GPa)
#
#
# Indices 1 2 3 4 5 6 
#
# 1 98.1206 48.4752 31.6650 0.0000 -11.0489 0.0000
# 2 48.4752 102.5838 38.1908 0.0000 -3.3030 0.0000
# 3 31.6650 38.1908 119.6339 0.0000 -0.5535 0.0000
# 4 0.0000 0.0000 0.0000 26.9271 0.0000 -3.3417
# 5 -11.0489 -3.3030 -0.5535 0.0000 37.1618 0.0000
# 6 0.0000 0.0000 0.0000 -3.3417 0.0000 32.9613
#
#
#
# Elastic Compliance Matrix: (Units=1/GPa)
#
#
# Indices 1 2 3 4 5 6 
#
# 1 0.014088 -0.005854 -0.001843 0.000000 0.003641 0.000000
# 2 -0.005854 0.013528 -0.002772 0.000000 -0.000579 0.000000
# 3 -0.001843 -0.002772 0.009729 0.000000 -0.000650 0.000000
# 4 0.000000 0.000000 0.000000 0.037611 0.000000 0.003813
# 5 0.003641 -0.000579 -0.000650 0.000000 0.027931 0.000000
# 6 0.000000 0.000000 0.000000 0.003813 0.000000 0.030725
#
#
# Mechanical properties :
#
#
# Convention : Reuss Voigt Hill
#
# Bulk Modulus (GPa) = 60.95083 61.88893 61.41988
# Shear Modulus (GPa) = 31.24652 32.87719 32.06186
#
# Velocity S-wave (km/s) = 3.95045 4.05223 4.00166
# Velocity P-wave (km/s) = 7.15891 7.26667 7.21299
#
# Compressibility (1/GPa) = 0.01640667
#
# Stress axis : x y z
#
# Youngs Moduli (GPa) = 70.98007 73.92317 102.79038
#
# Poissons Ratio (x) = 0.43274 0.18948
# Poissons Ratio (y) = 0.41551 0.28490
# Poissons Ratio (z) = 0.13084 0.20489
#
# Static dielectric constant tensor:
#      x y z
#    x 3.615070 0.000000 -0.060990 
#    y 0.000000 3.625530 0.000000 
#    z -0.060990 0.000000 3.786520 
# 
# 
# High freq. dielectric constant tensor:
#      x y z
#    x 1.782780 0.000000 -0.010500 
#    y 0.000000 1.785360 0.000000 
#    z -0.010500 0.000000 1.797500 
# 
# From -- ./inp_files/24736.got.cif
#   From: 2010.06.25/outbox.cif.g09.slc.cpg/sg12_13_cif.got.tgz:24736.got - 2010.06.28 00:19:55.
