data_PCOD8115010
_publ_section_title
;
Structure prediction by ZEFSAII (Michael W. Deem and Ramdas Pophale) SiO2 
 PCOD8115010
Probable space group: C 2/M
;
_chemical_formula_sum "Si O2"
_cell_formula_units_Z 40
_cell_length_a 18.111206
_cell_length_b 17.136260
_cell_length_c 11.806672
_cell_angle_alpha 90.000000
_cell_angle_beta 29.908232
_cell_angle_gamma 90.000000
_cell_volume 1827.064534
_symmetry_space_group_name_H-M "C 2/M"
_symmetry_group_IT_number 12
_symmetry_cell_setting 'monoclinic'
loop_
_space_group_symop_operation_xyz
x,y,z
-x,y,-z
-x,-y,-z
x,-y,z
1/2+x,1/2+y,z
1/2-x,1/2+y,-z
1/2-x,1/2-y,-z
1/2+x,1/2-y,z
loop_
_atom_site_type_symbol
_atom_site_label
_atom_site_fract_x
_atom_site_fract_y
_atom_site_fract_z
Si Si1 0.151627 0.679354 0.665421
Si Si2 0.212415 0.343015 0.167237
Si Si3 0.124996 0.909704 0.245334
Si Si4 0.317701 0.816173 0.125673
Si Si5 0.574155 0.910732 0.557152
O O1 0.250000 0.750000 0.500000
O O2 0.217345 0.655118 0.699839
O O3 0.153059 0.609804 0.571619
O O4 0.985565 0.710981 0.896035
O O5 0.219719 0.254634 0.204490
O O6 0.198168 0.400209 0.294254
O O7 0.064533 0.353484 0.286209
O O8 0.359289 0.365080 0.897163
O O9 0.281293 0.893487 0.100931
O O10 0.000000 0.877467 0.500000
O O11 0.100098 0.000000 0.253231
O O12 0.519537 0.000000 0.631748
#
# Coordination Sequence:
#
# PCOD8115010 Si02
#       5
#     8   8   8   8   8
#     4  11  24  43  63  94 132 173 220 264 324 395
#     4  11  22  40  69  99 128 165 224 277 330 386
#     4  11  25  41  63  98 137 173 218 273 333 391
#     4  11  25  40  67  95 131 178 218 272 323 393
#     4  11  23  41  71 100 127 167 216 279 333 385
#
# _framework density 21.893042000000001
#
# number of rings (size 3 to 8) (size 9 to 14) (size 15 to 20)
#    0.000    1.000    4.000    3.000    5.600    0.800 
#    0.000    2.000    0.000    1.200    0.000    0.000 
#    0.000    0.000    0.000    0.000    0.000    0.000 
#
# Total GULP energy -247776.953657 kJ/mol
# GULP energy per Si atom -12388.847683 kJ/mol
# Density = 2.184321 g / cm^3
# Si number density = 21.893042 Si / 1000 Ang^3
#
#
#
# Elastic Constant Matrix: (Units=GPa)
#
#
# Indices 1 2 3 4 5 6 
#
# 1 127.2146 39.5237 33.0765 -0.0006 35.9340 0.0004
# 2 39.5237 67.2801 13.2662 -0.0009 8.6544 0.0003
# 3 33.0765 13.2662 107.7421 -0.0021 33.2312 0.0007
# 4 -0.0006 -0.0009 -0.0021 24.5187 0.0009 1.5202
# 5 35.9340 8.6544 33.2312 0.0009 39.1031 -0.0003
# 6 0.0004 0.0003 0.0007 1.5202 -0.0003 30.5053
#
#
#
# Elastic Compliance Matrix: (Units=1/GPa)
#
#
# Indices 1 2 3 4 5 6 
#
# 1 0.012667 -0.006123 0.000051 0.000000 -0.010329 0.000000
# 2 -0.006123 0.018362 -0.001170 0.000000 0.002557 0.000000
# 3 0.000051 -0.001170 0.012664 0.000001 -0.010550 0.000000
# 4 0.000000 0.000000 0.000001 0.040912 -0.000003 -0.002039
# 5 -0.010329 0.002557 -0.010550 -0.000003 0.043465 0.000001
# 6 0.000000 0.000000 0.000000 -0.002039 0.000001 0.032883
#
#
# Mechanical properties :
#
#
# Convention : Reuss Voigt Hill
#
# Bulk Modulus (GPa) = 34.23565 52.66329 43.44947
# Shear Modulus (GPa) = 27.00184 33.25011 30.12598
#
# Velocity S-wave (km/s) = 3.51572 3.90135 3.71354
# Velocity P-wave (km/s) = 5.67028 6.66341 6.18680
#
# Compressibility (1/GPa) = 0.02920932
#
# Stress axis : x y z
#
# Youngs Moduli (GPa) = 78.94311 54.46070 78.96522
#
# Poissons Ratio (x) = 0.33345 -0.00401
# Poissons Ratio (y) = 0.48336 0.09237
# Poissons Ratio (z) = -0.00401 0.06371
#
# Static dielectric constant tensor:
#      x y z
#    x -1.803890 0.000030 -2.668470 
#    y 0.000030 3.850860 0.000020 
#    z -2.668470 0.000020 2.761960 
# 
# 
# High freq. dielectric constant tensor:
#      x y z
#    x 1.862750 0.000000 0.034600 
#    y 0.000000 1.837580 0.000000 
#    z 0.034600 0.000000 1.872220 
# 
# From -- ./inp_files/158448.got.cif
#   From: 2010.06.25/outbox.cif.g09.slc.cpg/sg12_80_cif.got.tgz:158448.got - 2010.06.28 00:19:55.
