data_PCOD8115284
_publ_section_title
;
Structure prediction by ZEFSAII (Michael W. Deem and Ramdas Pophale) SiO2 
 PCOD8115284
Probable space group: C 2/M
;
_chemical_formula_sum "Si O2"
_cell_formula_units_Z 40
_cell_length_a 9.291255
_cell_length_b 15.976567
_cell_length_c 17.654795
_cell_angle_alpha 90.000000
_cell_angle_beta 48.158962
_cell_angle_gamma 90.000000
_cell_volume 1952.431775
_symmetry_space_group_name_H-M "C 2/M"
_symmetry_group_IT_number 12
_symmetry_cell_setting 'monoclinic'
loop_
_space_group_symop_operation_xyz
x,y,z
-x,y,-z
-x,-y,-z
x,-y,z
1/2+x,1/2+y,z
1/2-x,1/2+y,-z
1/2-x,1/2-y,-z
1/2+x,1/2-y,z
loop_
_atom_site_type_symbol
_atom_site_label
_atom_site_fract_x
_atom_site_fract_y
_atom_site_fract_z
Si Si1 0.781885 0.821861 0.105060
Si Si2 0.473909 0.755330 0.424736
Si Si3 0.491660 0.906575 0.917939
Si Si4 0.885426 0.842761 0.763823
Si Si5 0.738880 0.902842 0.279900
O O1 0.647723 0.850226 0.083157
O O2 0.198827 0.767206 0.157420
O O3 0.769008 0.885396 0.180289
O O4 0.000000 0.815671 0.000000
O O5 0.500000 0.724774 0.500000
O O6 0.250000 0.750000 0.500000
O O7 0.560546 0.687046 0.338434
O O8 0.565278 0.846804 0.375257
O O9 0.712154 0.908038 0.810440
O O10 0.406326 0.000000 0.947163
O O11 0.500000 0.870219 0.000000
O O12 0.064092 0.883924 0.744430
O O13 0.683266 0.000000 0.310090
#
# Coordination Sequence:
#
# PCOD8115284 Si02
#       5
#     8   8   8   8   8
#     4  11  23  40  63  91 126 168 209 248 300 370
#     4  11  23  44  67  92 122 162 206 257 307 368
#     4  11  24  40  60  90 129 165 201 253 310 362
#     4  11  23  41  66  90 123 161 210 255 302 369
#     4  11  24  41  65  95 125 160 204 257 312 365
#
# _framework density 20.487272000000001
#
# number of rings (size 3 to 8) (size 9 to 14) (size 15 to 20)
#    0.000    1.000    2.000    5.400    2.800    6.000 
#    0.000    0.000    0.000    3.000    0.000    0.000 
#    0.000    0.000    0.000    0.000    0.000    0.000 
#
# Total GULP energy -247940.051398 kJ/mol
# GULP energy per Si atom -12397.002570 kJ/mol
# Density = 2.044064 g / cm^3
# Si number density = 20.487272 Si / 1000 Ang^3
#
#
#
# Elastic Constant Matrix: (Units=GPa)
#
#
# Indices 1 2 3 4 5 6 
#
# 1 149.4908 32.3709 58.6593 -0.0003 5.5015 0.0001
# 2 32.3709 61.5805 25.1737 -0.0002 2.5478 0.0000
# 3 58.6593 25.1737 135.3713 0.0000 -1.2175 -0.0006
# 4 -0.0003 -0.0002 0.0000 15.7806 0.0001 -0.6261
# 5 5.5015 2.5478 -1.2175 0.0001 50.8392 0.0002
# 6 0.0001 0.0000 -0.0006 -0.6261 0.0002 8.3517
#
#
#
# Elastic Compliance Matrix: (Units=1/GPa)
#
#
# Indices 1 2 3 4 5 6 
#
# 1 0.008659 -0.003225 -0.003160 0.000000 -0.000851 0.000000
# 2 -0.003225 0.018823 -0.002109 0.000000 -0.000645 0.000000
# 3 -0.003160 -0.002109 0.009155 0.000000 0.000667 0.000001
# 4 0.000000 0.000000 0.000000 0.063558 0.000000 0.004764
# 5 -0.000851 -0.000645 0.000667 0.000000 0.019810 0.000000
# 6 0.000000 0.000000 0.000001 0.004764 0.000000 0.120094
#
#
# Mechanical properties :
#
#
# Convention : Reuss Voigt Hill
#
# Bulk Modulus (GPa) = 50.89273 64.31671 57.60472
# Shear Modulus (GPa) = 18.96560 30.34354 24.65457
#
# Velocity S-wave (km/s) = 3.04588 3.85267 3.47278
# Velocity P-wave (km/s) = 6.10450 7.15908 6.65272
#
# Compressibility (1/GPa) = 0.01964917
#
# Stress axis : x y z
#
# Youngs Moduli (GPa) = 115.48692 53.12721 109.23501
#
# Poissons Ratio (x) = 0.17132 0.34519
# Poissons Ratio (y) = 0.37241 0.23035
# Poissons Ratio (z) = 0.36495 0.11203
#
# Static dielectric constant tensor:
#      x y z
#    x 3.878460 0.000000 0.027570 
#    y 0.000000 3.651000 0.000000 
#    z 0.027570 0.000000 3.950150 
# 
# 
# High freq. dielectric constant tensor:
#      x y z
#    x 1.821380 0.000000 -0.001220 
#    y 0.000000 1.794820 0.000000 
#    z -0.001220 0.000000 1.813550 
# 
# From -- ./inp_files/300569.got.cif
#   From: 2010.06.25/outbox.cif.g09.slc.cpg/sg12_151_cif.got.tgz:300569.got - 2010.06.28 00:19:55.
