data_PCOD8115506
_publ_section_title
;
Structure prediction by ZEFSAII (Michael W. Deem and Ramdas Pophale) SiO2 
 PCOD8115506
Probable space group: C 2/M
;
_chemical_formula_sum "Si O2"
_cell_formula_units_Z 36
_cell_length_a 20.891625
_cell_length_b 9.833182
_cell_length_c 8.610463
_cell_angle_alpha 90.000000
_cell_angle_beta 91.188285
_cell_angle_gamma 90.000000
_cell_volume 1768.476922
_symmetry_space_group_name_H-M "C 2/M"
_symmetry_group_IT_number 12
_symmetry_cell_setting 'monoclinic'
loop_
_space_group_symop_operation_xyz
x,y,z
-x,y,-z
-x,-y,-z
x,-y,z
1/2+x,1/2+y,z
1/2-x,1/2+y,-z
1/2-x,1/2-y,-z
1/2+x,1/2-y,z
loop_
_atom_site_type_symbol
_atom_site_label
_atom_site_fract_x
_atom_site_fract_y
_atom_site_fract_z
Si Si1 0.673741 0.500000 0.786437
Si Si2 0.362866 0.000000 0.261623
Si Si3 0.926878 0.000000 0.949896
Si Si4 0.822186 0.757931 0.448128
Si Si5 0.604681 0.770964 0.240380
Si Si6 0.006912 0.500000 0.316177
Si Si7 0.814228 0.500000 0.916171
O O1 0.668274 0.372108 0.676926
O O2 0.738581 0.500000 0.888232
O O3 0.614232 0.500000 0.897315
O O4 0.343079 0.122356 0.367496
O O5 0.438335 0.000000 0.228614
O O6 0.324746 0.000000 0.099953
O O7 0.912184 0.862792 0.855946
O O8 0.000000 0.000000 0.000000
O O9 0.750000 0.750000 0.500000
O O10 0.867964 0.783206 0.596302
O O11 0.542176 0.863315 0.262925
O O12 0.657503 0.862670 0.156302
O O13 0.000000 0.500000 0.500000
#
# Coordination Sequence:
#
# PCOD8115506 Si02
#       7
#     4   4   4   8   8   4   4
#     4  12  27  46  70 102 147 184 228 286 354 413
#     4  12  26  42  73 104 133 179 238 283 345 413
#     4  12  31  46  66 105 149 186 225 282 356 416
#     4  12  24  44  72 103 137 179 232 289 346 412
#     4  11  25  47  71 100 141 180 233 288 338 415
#     4  11  23  46  75 100 130 181 246 286 332 409
#     4  11  25  45  72 105 133 180 233 287 346 403
#
# _framework density 20.356501000000002
#
# number of rings (size 3 to 8) (size 9 to 14) (size 15 to 20)
#    0.000    0.444    4.444    3.333    9.333    2.667 
#    0.000    1.667    0.000    0.000    0.000    0.000 
#    0.000    0.000    0.000    0.000    0.000    0.000 
#
# Total GULP energy -223279.341083 kJ/mol
# GULP energy per Si atom -12404.407838 kJ/mol
# Density = 2.031017 g / cm^3
# Si number density = 20.356501 Si / 1000 Ang^3
#
#
#
# Elastic Constant Matrix: (Units=GPa)
#
#
# Indices 1 2 3 4 5 6 
#
# 1 177.7556 75.1502 79.0414 0.0000 -1.4951 0.0000
# 2 75.1502 161.1166 68.4537 0.0000 -2.6820 0.0000
# 3 79.0414 68.4537 156.1441 0.0000 7.1131 0.0000
# 4 0.0000 0.0000 0.0000 51.6125 0.0000 0.1927
# 5 -1.4951 -2.6820 7.1131 0.0000 45.6365 0.0000
# 6 0.0000 0.0000 0.0000 0.1927 0.0000 25.9817
#
#
#
# Elastic Compliance Matrix: (Units=1/GPa)
#
#
# Indices 1 2 3 4 5 6 
#
# 1 0.008001 -0.002445 -0.003005 0.000000 0.000587 0.000000
# 2 -0.002445 0.008418 -0.002489 0.000000 0.000803 0.000000
# 3 -0.003005 -0.002489 0.009092 0.000000 -0.001662 0.000000
# 4 0.000000 0.000000 0.000000 0.019376 0.000000 -0.000144
# 5 0.000587 0.000803 -0.001662 0.000000 0.022238 0.000000
# 6 0.000000 0.000000 0.000000 -0.000144 0.000000 0.038490
#
#
# Mechanical properties :
#
#
# Convention : Reuss Voigt Hill
#
# Bulk Modulus (GPa) = 103.81422 104.47856 104.14639
# Shear Modulus (GPa) = 40.09512 42.80421 41.44967
#
# Velocity S-wave (km/s) = 4.44289 4.59053 4.51731
# Velocity P-wave (km/s) = 8.79930 8.91813 8.85892
#
# Compressibility (1/GPa) = 0.00963259
#
# Stress axis : x y z
#
# Youngs Moduli (GPa) = 124.99206 118.78924 109.98320
#
# Poissons Ratio (x) = 0.29048 0.33045
# Poissons Ratio (y) = 0.30565 0.27378
# Poissons Ratio (z) = 0.37555 0.29570
#
# Static dielectric constant tensor:
#      x y z
#    x 3.895730 0.000000 -0.009550 
#    y 0.000000 3.907130 0.000000 
#    z -0.009550 0.000000 3.915910 
# 
# 
# High freq. dielectric constant tensor:
#      x y z
#    x 1.808510 0.000000 0.000670 
#    y 0.000000 1.814250 0.000000 
#    z 0.000670 0.000000 1.816600 
# 
# From -- ./inp_files/82106.got.cif
#   From: 2010.06.25/outbox.cif.g09.slc.cpg/sg12_42_cif.got.tgz:82106.got - 2010.06.28 00:19:55.
