data_PCOD8115096
_publ_section_title
;
Structure prediction by ZEFSAII (Michael W. Deem and Ramdas Pophale) SiO2 
 PCOD8115096
Probable space group: C 2/M
;
_chemical_formula_sum "Si O2"
_cell_formula_units_Z 48
_cell_length_a 18.348045
_cell_length_b 26.355079
_cell_length_c 9.660896
_cell_angle_alpha 90.000000
_cell_angle_beta 150.978289
_cell_angle_gamma 90.000000
_cell_volume 2266.415378
_symmetry_space_group_name_H-M "C 2/M"
_symmetry_group_IT_number 12
_symmetry_cell_setting 'monoclinic'
loop_
_space_group_symop_operation_xyz
x,y,z
-x,y,-z
-x,-y,-z
x,-y,z
1/2+x,1/2+y,z
1/2-x,1/2+y,-z
1/2-x,1/2-y,-z
1/2+x,1/2-y,z
loop_
_atom_site_type_symbol
_atom_site_label
_atom_site_fract_x
_atom_site_fract_y
_atom_site_fract_z
Si Si1 0.395580 0.208091 0.455864
Si Si2 0.122171 0.591249 0.599614
Si Si3 0.079687 0.941689 0.770449
Si Si4 0.080983 0.112694 0.278479
Si Si5 0.142954 0.443744 0.332068
Si Si6 0.540964 0.719307 0.906570
O O1 0.500000 0.227261 0.500000
O O2 0.416734 0.148400 0.507775
O O3 0.461068 0.234018 0.700708
O O4 0.217046 0.220660 0.156000
O O5 0.114633 0.557658 0.449557
O O6 0.000000 0.568157 0.500000
O O7 0.277328 0.590737 0.943146
O O8 0.000000 0.920106 0.500000
O O9 0.958916 0.934584 0.690295
O O10 0.126059 0.000000 0.828047
O O11 0.256207 0.104754 0.541012
O O12 0.036657 0.166556 0.273502
O O13 0.000000 0.105648 0.000000
O O14 0.211513 0.500000 0.417075
O O15 0.000000 0.436081 0.000000
O O16 0.500000 0.724660 0.000000
#
# Coordination Sequence:
#
# PCOD8115096 Si02
#       6
#     8   8   8   8   8   8
#     4  11  24  44  66  98 134 177 225 275 339 402
#     4  11  24  44  64  93 138 177 220 271 335 403
#     4  11  24  41  66  95 126 171 224 274 330 389
#     4  11  22  43  68  95 130 172 223 276 338 397
#     4  11  25  42  65  99 134 174 222 273 338 408
#     4  11  23  43  69  99 133 173 226 281 336 403
#
# _framework density 21.178818
#
# number of rings (size 3 to 8) (size 9 to 14) (size 15 to 20)
#    0.000    1.000    3.333    3.000    2.333    4.667 
#    3.000    0.000    0.000    0.000    0.000    0.000 
#    0.000    0.000    0.000    0.000    0.000    0.000 
#
# Total GULP energy -297427.571142 kJ/mol
# GULP energy per Si atom -12392.815464 kJ/mol
# Density = 2.113061 g / cm^3
# Si number density = 21.178818 Si / 1000 Ang^3
#
#
#
# Elastic Constant Matrix: (Units=GPa)
#
#
# Indices 1 2 3 4 5 6 
#
# 1 124.9787 40.3351 58.5170 0.0000 17.1335 0.0000
# 2 40.3351 87.5362 59.3196 0.0000 2.3095 0.0000
# 3 58.5170 59.3196 130.5257 0.0000 -2.5336 0.0000
# 4 0.0000 0.0000 0.0000 46.8809 0.0000 -6.1294
# 5 17.1335 2.3095 -2.5336 0.0000 34.3172 0.0000
# 6 0.0000 0.0000 0.0000 -6.1294 0.0000 32.9722
#
#
#
# Elastic Compliance Matrix: (Units=1/GPa)
#
#
# Indices 1 2 3 4 5 6 
#
# 1 0.011540 -0.002279 -0.004253 0.000000 -0.005922 0.000000
# 2 -0.002279 0.017054 -0.006738 0.000000 -0.000507 0.000000
# 3 -0.004253 -0.006738 0.012698 0.000000 0.003514 0.000000
# 4 0.000000 0.000000 0.000000 0.021862 0.000000 0.004064
# 5 -0.005922 -0.000507 0.003514 0.000000 0.032390 0.000000
# 6 0.000000 0.000000 0.000000 0.004064 0.000000 0.031084
#
#
# Mechanical properties :
#
#
# Convention : Reuss Voigt Hill
#
# Bulk Modulus (GPa) = 67.78953 73.26490 70.52721
# Shear Modulus (GPa) = 31.62823 35.15864 33.39343
#
# Velocity S-wave (km/s) = 3.86863 4.07883 3.97512
# Velocity P-wave (km/s) = 7.21337 7.53997 7.37848
#
# Compressibility (1/GPa) = 0.01475154
#
# Stress axis : x y z
#
# Youngs Moduli (GPa) = 86.65481 58.63793 78.74972
#
# Poissons Ratio (x) = 0.13366 0.33490
# Poissons Ratio (y) = 0.19752 0.53064
# Poissons Ratio (z) = 0.36852 0.39512
#
# Static dielectric constant tensor:
#      x y z
#    x 4.201510 0.000000 0.098740 
#    y 0.000000 3.819090 0.000000 
#    z 0.098740 0.000000 3.850060 
# 
# 
# High freq. dielectric constant tensor:
#      x y z
#    x 1.844930 0.000000 0.003560 
#    y 0.000000 1.830140 0.000000 
#    z 0.003560 0.000000 1.829350 
# 
# From -- ./inp_files/80805.got.cif
#   From: 2010.06.25/outbox.cif.g09.slc.cpg/sg12_41_cif.got.tgz:80805.got - 2010.06.28 00:19:55.
