data_PCOD8115893
_publ_section_title
;
Structure prediction by ZEFSAII (Michael W. Deem and Ramdas Pophale) SiO2 
 PCOD8115893
Probable space group: C 2/M
;
_chemical_formula_sum "Si O2"
_cell_formula_units_Z 32
_cell_length_a 5.295502
_cell_length_b 22.907863
_cell_length_c 11.204204
_cell_angle_alpha 90.000000
_cell_angle_beta 72.649747
_cell_angle_gamma 90.000000
_cell_volume 1297.324073
_symmetry_space_group_name_H-M "C 2/M"
_symmetry_group_IT_number 12
_symmetry_cell_setting 'monoclinic'
loop_
_space_group_symop_operation_xyz
x,y,z
-x,y,-z
-x,-y,-z
x,-y,z
1/2+x,1/2+y,z
1/2-x,1/2+y,-z
1/2-x,1/2-y,-z
1/2+x,1/2-y,z
loop_
_atom_site_type_symbol
_atom_site_label
_atom_site_fract_x
_atom_site_fract_y
_atom_site_fract_z
Si Si1 0.922375 0.104662 0.645175
Si Si2 0.151433 0.564601 0.236522
Si Si3 0.418119 0.732998 0.692231
Si Si4 0.704515 0.178266 0.079134
O O1 0.654628 0.067632 0.680951
O O2 0.866364 0.164824 0.725552
O O3 0.000000 0.121338 0.500000
O O4 0.161057 0.070480 0.674011
O O5 0.198848 0.500000 0.175142
O O6 0.221701 0.613106 0.129684
O O7 0.728685 0.741783 0.614512
O O8 0.395689 0.773033 0.813915
O O9 0.500000 0.177538 0.000000
O O10 0.000000 0.196971 0.000000
#
# Coordination Sequence:
#
# PCOD8115893 Si02
#       4
#     8   8   8   8
#     4  12  26  48  74 104 142 185 230 286 359 413
#     4  12  27  50  71 103 143 180 244 294 333 412
#     4  12  23  45  69 106 142 177 231 284 349 422
#     4  12  26  45  73 101 143 187 230 282 355 413
#
# _framework density 24.666157999999999
#
# number of rings (size 3 to 8) (size 9 to 14) (size 15 to 20)
#    0.000    0.000    5.000    4.500    0.000    8.000 
#    0.000    0.000    0.000    0.000    0.000    0.000 
#    0.000    0.000    0.000    0.000    0.000    0.000 
#
# Total GULP energy -198333.323126 kJ/mol
# GULP energy per Si atom -12395.832695 kJ/mol
# Density = 2.461002 g / cm^3
# Si number density = 24.666158 Si / 1000 Ang^3
#
#
#
# Elastic Constant Matrix: (Units=GPa)
#
#
# Indices 1 2 3 4 5 6 
#
# 1 225.4154 11.2173 31.0690 0.0000 32.9403 0.0000
# 2 11.2173 182.8551 43.2696 0.0000 18.0717 0.0000
# 3 31.0690 43.2696 88.6875 0.0000 15.2315 0.0000
# 4 0.0000 0.0000 0.0000 8.2807 0.0000 -4.5440
# 5 32.9403 18.0717 15.2315 0.0000 17.9677 0.0000
# 6 0.0000 0.0000 0.0000 -4.5440 0.0000 11.7924
#
#
#
# Elastic Compliance Matrix: (Units=1/GPa)
#
#
# Indices 1 2 3 4 5 6 
#
# 1 0.006194 0.000926 -0.000599 0.000000 -0.011779 0.000000
# 2 0.000926 0.006616 -0.002479 0.000000 -0.006251 0.000000
# 3 -0.000599 -0.002479 0.014136 0.000000 -0.008393 0.000000
# 4 0.000000 0.000000 0.000000 0.153144 0.000000 0.059011
# 5 -0.011779 -0.006251 -0.008393 0.000000 0.090652 0.000000
# 6 0.000000 0.000000 0.000000 0.059011 0.000000 0.107539
#
#
# Mechanical properties :
#
#
# Convention : Reuss Voigt Hill
#
# Bulk Modulus (GPa) = 44.16345 74.22998 59.19671
# Shear Modulus (GPa) = 12.81618 35.03498 23.92558
#
# Velocity S-wave (km/s) = 2.28192 3.77286 3.11782
# Velocity P-wave (km/s) = 4.98861 7.00989 6.08378
#
# Compressibility (1/GPa) = 0.02264316
#
# Stress axis : x y z
#
# Youngs Moduli (GPa) = 161.44658 151.14084 70.74107
#
# Poissons Ratio (x) = -0.13993 0.04234
# Poissons Ratio (y) = -0.14947 0.17536
# Poissons Ratio (z) = 0.09664 0.37466
#
# Static dielectric constant tensor:
#      x y z
#    x 5.734080 0.000000 -0.005230 
#    y 0.000000 4.531050 0.000000 
#    z -0.005230 0.000000 4.010290 
# 
# 
# High freq. dielectric constant tensor:
#      x y z
#    x 2.031190 0.000000 0.007680 
#    y 0.000000 1.990340 0.000000 
#    z 0.007680 0.000000 1.952820 
# 
# From -- ./inp_files/114807.got.cif
#   From: 2010.06.25/outbox.cif.g09.slc.cpg/sg12_58_cif.got.tgz:114807.got - 2010.06.28 00:19:55.
