data_PCOD8115799
_publ_section_title
;
Structure prediction by ZEFSAII (Michael W. Deem and Ramdas Pophale) SiO2 
 PCOD8115799
Probable space group: C 2/M
;
_chemical_formula_sum "Si O2"
_cell_formula_units_Z 40
_cell_length_a 26.478072
_cell_length_b 9.713381
_cell_length_c 20.652720
_cell_angle_alpha 90.000000
_cell_angle_beta 22.791365
_cell_angle_gamma 90.000000
_cell_volume 2057.630921
_symmetry_space_group_name_H-M "C 2/M"
_symmetry_group_IT_number 12
_symmetry_cell_setting 'monoclinic'
loop_
_space_group_symop_operation_xyz
x,y,z
-x,y,-z
-x,-y,-z
x,-y,z
1/2+x,1/2+y,z
1/2-x,1/2+y,-z
1/2-x,1/2-y,-z
1/2+x,1/2-y,z
loop_
_atom_site_type_symbol
_atom_site_label
_atom_site_fract_x
_atom_site_fract_y
_atom_site_fract_z
Si Si1 0.132437 0.500000 0.187498
Si Si2 0.722817 0.225061 0.365871
Si Si3 0.506701 0.224983 0.265106
Si Si4 0.869556 0.500000 0.345341
Si Si5 0.591131 0.500000 0.098022
Si Si6 0.364034 0.000000 0.197316
Si Si7 0.143039 0.000000 0.709440
Si Si8 0.904636 0.500000 0.553062
O O1 0.130392 0.638154 0.146253
O O2 0.990062 0.500000 0.387399
O O3 0.251477 0.500000 0.098348
O O4 0.597440 0.262273 0.556621
O O5 0.788136 0.364430 0.263515
O O6 0.824483 0.135956 0.288092
O O7 0.683210 0.137914 0.348140
O O8 0.440032 0.137761 0.286544
O O9 0.559760 0.366733 0.176304
O O10 0.873352 0.500000 0.263796
O O11 0.721662 0.500000 0.548121
O O12 0.511550 0.500000 0.124650
O O13 0.500000 0.000000 0.000000
O O14 0.000000 0.500000 0.500000
#
# Coordination Sequence:
#
# PCOD8115799 Si02
#       8
#     4   8   8   4   4   4   4   4
#     4   9  20  34  48  78 109 135 173 230 274 313
#     4   9  19  38  58  79 107 139 189 223 267 317
#     4   9  18  33  57  76 105 141 178 226 265 315
#     4   9  18  36  54  76 110 145 180 211 267 326
#     4  12  18  26  49  88 113 129 166 211 293 331
#     4  12  23  35  51  84 126 148 165 214 283 337
#     4   9  18  33  60  87 101 137 183 235 262 320
#     4   9  19  42  62  72  93 147 199 233 248 301
#
# _framework density 19.439833
#
# number of rings (size 3 to 8) (size 9 to 14) (size 15 to 20)
#    0.000    2.400    0.000    6.000    0.000    3.200 
#    7.200    1.500    0.000    0.000    0.000    0.000 
#    0.000    0.000    0.000    0.000    0.000    0.000 
#
# Total GULP energy -247908.028413 kJ/mol
# GULP energy per Si atom -12395.401421 kJ/mol
# Density = 1.939559 g / cm^3
# Si number density = 19.439833 Si / 1000 Ang^3
#
#
#
# Elastic Constant Matrix: (Units=GPa)
#
#
# Indices 1 2 3 4 5 6 
#
# 1 101.0635 38.2955 23.6490 0.0001 -24.5161 0.0000
# 2 38.2955 158.2921 46.0462 0.0006 -9.9069 0.0000
# 3 23.6490 46.0462 67.8785 0.0003 -22.2949 -0.0001
# 4 0.0001 0.0006 0.0003 27.8478 -0.0001 -19.5852
# 5 -24.5161 -9.9069 -22.2949 -0.0001 34.2691 0.0000
# 6 0.0000 0.0000 -0.0001 -19.5852 0.0000 26.9475
#
#
#
# Elastic Compliance Matrix: (Units=1/GPa)
#
#
# Indices 1 2 3 4 5 6 
#
# 1 0.012944 -0.002618 0.000075 0.000000 0.008552 0.000000
# 2 -0.002618 0.008463 -0.005902 0.000000 -0.003266 0.000000
# 3 0.000075 -0.005902 0.023104 0.000000 0.013379 0.000000
# 4 0.000000 0.000000 0.000000 0.073457 0.000000 0.053388
# 5 0.008552 -0.003266 0.013379 0.000000 0.043059 0.000000
# 6 0.000000 0.000000 0.000000 0.053388 0.000000 0.075911
#
#
# Mechanical properties :
#
#
# Convention : Reuss Voigt Hill
#
# Bulk Modulus (GPa) = 36.20321 60.35729 48.28025
# Shear Modulus (GPa) = 19.00899 32.42911 25.71905
#
# Velocity S-wave (km/s) = 3.13043 4.08877 3.64126
# Velocity P-wave (km/s) = 5.63292 7.30796 6.52442
#
# Compressibility (1/GPa) = 0.02762186
#
# Stress axis : x y z
#
# Youngs Moduli (GPa) = 77.25700 118.15867 43.28318
#
# Poissons Ratio (x) = 0.30936 -0.00326
# Poissons Ratio (y) = 0.20227 0.25544
# Poissons Ratio (z) = -0.00583 0.69733
#
# Static dielectric constant tensor:
#      x y z
#    x 3.362710 0.000000 -0.209880 
#    y 0.000000 3.754580 0.000000 
#    z -0.209880 0.000000 3.413810 
# 
# 
# High freq. dielectric constant tensor:
#      x y z
#    x 1.737230 0.000000 -0.022240 
#    y 0.000000 1.773810 0.000000 
#    z -0.022240 0.000000 1.736450 
# 
# From -- ./inp_files/162575.got.cif
#   From: 2010.06.25/outbox.cif.g09.slc.cpg/sg12_82_cif.got.tgz:162575.got - 2010.06.28 00:19:55.
