data_PCOD8115289
_publ_section_title
;
Structure prediction by ZEFSAII (Michael W. Deem and Ramdas Pophale) SiO2 
 PCOD8115289
Probable space group: C 2/M
;
_chemical_formula_sum "Si O2"
_cell_formula_units_Z 56
_cell_length_a 18.346517
_cell_length_b 8.828038
_cell_length_c 16.911466
_cell_angle_alpha 90.000000
_cell_angle_beta 81.319163
_cell_angle_gamma 90.000000
_cell_volume 2707.667101
_symmetry_space_group_name_H-M "C 2/M"
_symmetry_group_IT_number 12
_symmetry_cell_setting 'monoclinic'
loop_
_space_group_symop_operation_xyz
x,y,z
-x,y,-z
-x,-y,-z
x,-y,z
1/2+x,1/2+y,z
1/2-x,1/2+y,-z
1/2-x,1/2-y,-z
1/2+x,1/2-y,z
loop_
_atom_site_type_symbol
_atom_site_label
_atom_site_fract_x
_atom_site_fract_y
_atom_site_fract_z
Si Si1 0.872300 0.825423 0.199751
Si Si2 0.280580 0.678495 0.766302
Si Si3 0.584408 0.833237 0.969194
Si Si4 0.600124 0.825449 0.363207
Si Si5 0.187351 0.822444 0.062408
Si Si6 0.829896 0.324220 0.478931
Si Si7 0.553834 0.324444 0.650684
O O1 0.795624 0.758216 0.244645
O O2 0.899207 0.742100 0.117162
O O3 0.934259 0.805804 0.257120
O O4 0.859663 0.000000 0.180806
O O5 0.269096 0.500000 0.763260
O O6 0.344628 0.725585 0.696797
O O7 0.304848 0.732705 0.849252
O O8 0.622280 0.000000 0.961807
O O9 0.500000 0.852161 0.000000
O O10 0.610977 0.734064 0.038759
O O11 0.621905 0.805013 0.450382
O O12 0.517096 0.769020 0.364767
O O13 0.605369 0.000000 0.336027
O O14 0.191865 0.000000 0.055638
O O15 0.250000 0.750000 0.000000
O O16 0.819820 0.500000 0.458331
O O17 0.750000 0.250000 0.500000
O O18 0.873241 0.239052 0.402841
O O19 0.542981 0.500000 0.629797
#
# Coordination Sequence:
#
# PCOD8115289 Si02
#       7
#     8   8   8   8   8   8   8
#     4  11  24  42  64  91 125 165 209 259 314 374
#     4  11  24  41  64  94 126 163 212 260 311 375
#     4  11  25  42  62  91 125 164 212 261 316 378
#     4  11  25  43  65  95 130 167 209 256 311 372
#     4  11  23  40  64  92 124 164 212 263 316 374
#     4  11  24  43  68  98 129 167 211 255 309 372
#     4  11  25  43  65  96 130 166 210 258 313 373
#
# _framework density 20.682009000000001
#
# number of rings (size 3 to 8) (size 9 to 14) (size 15 to 20)
#    0.000    1.000    1.429    4.286    2.000   12.571 
#    0.000    0.000    0.000    0.000    0.000    0.000 
#    0.000    0.000    0.000    0.000    0.000    0.000 
#
# Total GULP energy -347330.788106 kJ/mol
# GULP energy per Si atom -12404.671004 kJ/mol
# Density = 2.063494 g / cm^3
# Si number density = 20.682009 Si / 1000 Ang^3
#
#
#
# Elastic Constant Matrix: (Units=GPa)
#
#
# Indices 1 2 3 4 5 6 
#
# 1 103.9827 28.3486 14.5291 0.0000 3.0610 0.0000
# 2 28.3486 88.0906 28.8113 0.0000 8.7762 0.0000
# 3 14.5291 28.8113 70.8199 0.0000 1.0719 0.0000
# 4 0.0000 0.0000 0.0000 36.2687 0.0000 -2.0983
# 5 3.0610 8.7762 1.0719 0.0000 38.4113 0.0000
# 6 0.0000 0.0000 0.0000 -2.0983 0.0000 39.4824
#
#
#
# Elastic Compliance Matrix: (Units=1/GPa)
#
#
# Indices 1 2 3 4 5 6 
#
# 1 0.010593 -0.003100 -0.000910 0.000000 -0.000110 0.000000
# 2 -0.003100 0.014320 -0.005146 0.000000 -0.002881 0.000000
# 3 -0.000910 -0.005146 0.016389 0.000000 0.000791 0.000000
# 4 0.000000 0.000000 0.000000 0.027657 0.000000 0.001470
# 5 -0.000110 -0.002881 0.000791 0.000000 0.026679 0.000000
# 6 0.000000 0.000000 0.000000 0.001470 0.000000 0.025406
#
#
# Mechanical properties :
#
#
# Convention : Reuss Voigt Hill
#
# Bulk Modulus (GPa) = 43.50058 45.14123 44.32091
# Shear Modulus (GPa) = 34.00939 35.57944 34.79442
#
# Velocity S-wave (km/s) = 4.05951 4.15216 4.10610
# Velocity P-wave (km/s) = 6.56137 6.69783 6.62995
#
# Compressibility (1/GPa) = 0.02298820
#
# Stress axis : x y z
#
# Youngs Moduli (GPa) = 94.40558 69.83386 61.01795
#
# Poissons Ratio (x) = 0.21649 0.05554
# Poissons Ratio (y) = 0.29267 0.31400
# Poissons Ratio (z) = 0.08593 0.35936
#
# Static dielectric constant tensor:
#      x y z
#    x 4.038830 0.000000 -0.508670 
#    y 0.000000 4.462600 0.000000 
#    z -0.508670 0.000000 3.978820 
# 
# 
# High freq. dielectric constant tensor:
#      x y z
#    x 1.822220 0.000000 0.004800 
#    y 0.000000 1.828060 0.000000 
#    z 0.004800 0.000000 1.818380 
# 
# From -- ./inp_files/275030.got.cif
#   From: 2010.06.25/outbox.cif.g09.slc.cpg/sg12_138_cif.got.tgz:275030.got - 2010.06.28 00:19:55.
