data_PCOD8115260
_publ_section_title
;
Structure prediction by ZEFSAII (Michael W. Deem and Ramdas Pophale) SiO2 
 PCOD8115260
Probable space group: C 2/M
;
_chemical_formula_sum "Si O2"
_cell_formula_units_Z 48
_cell_length_a 26.501767
_cell_length_b 10.913912
_cell_length_c 9.648643
_cell_angle_alpha 90.000000
_cell_angle_beta 117.216864
_cell_angle_gamma 90.000000
_cell_volume 2481.766507
_symmetry_space_group_name_H-M "C 2/M"
_symmetry_group_IT_number 12
_symmetry_cell_setting 'monoclinic'
loop_
_space_group_symop_operation_xyz
x,y,z
-x,y,-z
-x,-y,-z
x,-y,z
1/2+x,1/2+y,z
1/2-x,1/2+y,-z
1/2-x,1/2-y,-z
1/2+x,1/2-y,z
loop_
_atom_site_type_symbol
_atom_site_label
_atom_site_fract_x
_atom_site_fract_y
_atom_site_fract_z
Si Si1 0.782706 0.141770 0.219188
Si Si2 0.332285 0.238908 0.023032
Si Si3 0.883607 0.500000 0.228639
Si Si4 0.125547 0.500000 0.456233
Si Si5 0.000000 0.297785 0.000000
Si Si6 0.605428 0.642187 0.143788
Si Si7 0.993867 0.500000 0.210105
Si Si8 0.314899 0.750684 0.536333
O O1 0.721702 0.207312 0.140067
O O2 0.820644 0.197861 0.389171
O O3 0.773022 0.000000 0.234341
O O4 0.815409 0.161801 0.116890
O O5 0.378123 0.303201 0.984364
O O6 0.355807 0.117848 0.124410
O O7 0.868176 0.500000 0.370675
O O8 0.951722 0.500000 0.289605
O O9 0.059260 0.500000 0.336444
O O10 0.156736 0.384684 0.425472
O O11 0.049353 0.212351 0.122054
O O12 0.978751 0.381083 0.100300
O O13 0.592206 0.500000 0.110120
O O14 0.653152 0.660660 0.319139
O O15 0.250000 0.750000 0.500000
#
# Coordination Sequence:
#
# PCOD8115260 Si02
#       8
#     8   8   4   4   4   8   4   8
#     4  11  23  40  60  90 133 172 215 263 322 390
#     4  11  23  39  65  94 123 173 219 265 320 386
#     4  12  22  43  70  95 127 174 222 277 328 384
#     4  12  26  45  66  95 139 167 220 278 326 395
#     4  11  23  42  68  96 121 169 218 274 332 389
#     4  12  25  43  65  93 132 171 216 267 329 397
#     4  11  23  42  72  94 127 167 223 280 332 382
#     4  12  26  40  64  95 131 175 211 262 335 392
#
# _framework density 19.341062000000001
#
# number of rings (size 3 to 8) (size 9 to 14) (size 15 to 20)
#    0.000    0.500    7.500    1.500    2.333    0.667 
#    0.000    0.000    0.000    0.000    0.000    7.000 
#    0.000    0.000    0.000    0.000    0.000    0.000 
#
# Total GULP energy -297723.622209 kJ/mol
# GULP energy per Si atom -12405.150925 kJ/mol
# Density = 1.929704 g / cm^3
# Si number density = 19.341062 Si / 1000 Ang^3
#
#
#
# Elastic Constant Matrix: (Units=GPa)
#
#
# Indices 1 2 3 4 5 6 
#
# 1 83.7043 22.2978 11.4336 0.0000 10.5828 0.0000
# 2 22.2978 109.1537 31.9487 0.0000 -6.3798 0.0000
# 3 11.4336 31.9487 77.9654 0.0000 16.8656 0.0000
# 4 0.0000 0.0000 0.0000 27.1845 0.0000 6.5243
# 5 10.5828 -6.3798 16.8656 0.0000 23.5582 0.0000
# 6 0.0000 0.0000 0.0000 6.5243 0.0000 22.1825
#
#
#
# Elastic Compliance Matrix: (Units=1/GPa)
#
#
# Indices 1 2 3 4 5 6 
#
# 1 0.013766 -0.003635 0.001209 0.000000 -0.008034 0.000000
# 2 -0.003635 0.012429 -0.006675 0.000000 0.009778 0.000000
# 3 0.001209 -0.006675 0.018805 0.000000 -0.015814 0.000000
# 4 0.000000 0.000000 0.000000 0.039579 0.000000 -0.011641
# 5 -0.008034 0.009778 -0.015814 0.000000 0.060026 0.000000
# 6 0.000000 0.000000 0.000000 -0.011641 0.000000 0.048504
#
#
# Mechanical properties :
#
#
# Convention : Reuss Voigt Hill
#
# Bulk Modulus (GPa) = 37.31829 44.68705 41.00267
# Shear Modulus (GPa) = 22.70179 28.26127 25.48153
#
# Velocity S-wave (km/s) = 3.42974 3.82672 3.63365
# Velocity P-wave (km/s) = 5.91784 6.53299 6.23301
#
# Compressibility (1/GPa) = 0.02679651
#
# Stress axis : x y z
#
# Youngs Moduli (GPa) = 72.64338 80.45427 53.17671
#
# Poissons Ratio (x) = 0.29249 -0.06429
# Poissons Ratio (y) = 0.26409 0.35498
# Poissons Ratio (z) = -0.08782 0.53707
#
# Static dielectric constant tensor:
#      x y z
#    x 3.500140 0.000000 0.005950 
#    y 0.000000 3.524200 0.000000 
#    z 0.005950 0.000000 3.643880 
# 
# 
# High freq. dielectric constant tensor:
#      x y z
#    x 1.754390 0.000000 -0.001480 
#    y 0.000000 1.761190 0.000000 
#    z -0.001480 0.000000 1.760290 
# 
# From -- ./inp_files/95048.got.cif
#   From: 2010.06.25/outbox.cif.g09.slc.cpg/sg12_48_cif.got.tgz:95048.got - 2010.06.28 00:19:55.
