data_PCOD8115816
_publ_section_title
;
Structure prediction by ZEFSAII (Michael W. Deem and Ramdas Pophale) SiO2 
 PCOD8115816
Probable space group: C 2/M
;
_chemical_formula_sum "Si O2"
_cell_formula_units_Z 48
_cell_length_a 19.319618
_cell_length_b 13.990235
_cell_length_c 19.413321
_cell_angle_alpha 90.000000
_cell_angle_beta 29.437726
_cell_angle_gamma 90.000000
_cell_volume 2578.854482
_symmetry_space_group_name_H-M "C 2/M"
_symmetry_group_IT_number 12
_symmetry_cell_setting 'monoclinic'
loop_
_space_group_symop_operation_xyz
x,y,z
-x,y,-z
-x,-y,-z
x,-y,z
1/2+x,1/2+y,z
1/2-x,1/2+y,-z
1/2-x,1/2-y,-z
1/2+x,1/2-y,z
loop_
_atom_site_type_symbol
_atom_site_label
_atom_site_fract_x
_atom_site_fract_y
_atom_site_fract_z
Si Si1 0.048345 0.701550 0.882067
Si Si2 0.610008 0.000000 0.641103
Si Si3 0.445240 0.000000 0.921549
Si Si4 0.371484 0.302312 0.564248
Si Si5 0.601071 0.500000 0.532653
Si Si6 0.630701 0.500000 0.150317
Si Si7 0.609178 0.793173 0.592211
Si Si8 0.901558 0.795425 0.877746
O O1 0.217691 0.708830 0.731909
O O2 0.001999 0.592205 0.912326
O O3 0.975822 0.766409 0.885493
O O4 0.000000 0.736436 0.000000
O O5 0.494977 0.000000 0.800147
O O6 0.763282 0.000000 0.538651
O O7 0.592446 0.093425 0.610642
O O8 0.278108 0.000000 0.062456
O O9 0.500000 0.271852 0.500000
O O10 0.397781 0.409613 0.517505
O O11 0.389357 0.226839 0.488769
O O12 0.471971 0.500000 0.696054
O O13 0.608932 0.409851 0.118726
O O14 0.750000 0.750000 0.500000
O O15 0.484051 0.742116 0.740265
O O16 0.750000 0.750000 0.000000
#
# Coordination Sequence:
#
# PCOD8115816 Si02
#       8
#     8   4   4   8   4   4   8   8
#     4  12  26  43  63  93 138 177 208 264 331 391
#     4  12  20  40  70  94 123 166 221 274 320 375
#     4  12  21  42  63  96 130 168 212 264 332 391
#     4  12  26  42  63  97 134 172 216 266 328 387
#     4  12  21  38  67  96 128 160 214 280 327 379
#     4  12  24  36  70 104 123 164 221 274 317 373
#     4  12  21  42  67  93 126 170 217 274 317 378
#     4  12  23  42  67  95 131 169 221 264 317 387
#
# _framework density 18.612915000000001
#
# number of rings (size 3 to 8) (size 9 to 14) (size 15 to 20)
#    0.000    0.000   10.000    0.500    4.667    0.000 
#    0.000    0.833    0.000    0.000    0.000    0.000 
#    0.000    0.000    0.000    0.000    0.000    0.000 
#
# Total GULP energy -297595.844521 kJ/mol
# GULP energy per Si atom -12399.826855 kJ/mol
# Density = 1.857055 g / cm^3
# Si number density = 18.612915 Si / 1000 Ang^3
#
#
#
# Elastic Constant Matrix: (Units=GPa)
#
#
# Indices 1 2 3 4 5 6 
#
# 1 126.0212 38.9408 67.1051 -0.0058 -6.1703 0.0018
# 2 38.9408 127.3727 40.1233 -0.0044 2.4005 0.0015
# 3 67.1051 40.1233 178.4341 -0.0093 -8.9620 0.0032
# 4 -0.0058 -0.0044 -0.0093 -10.8543 0.0060 20.5894
# 5 -6.1703 2.4005 -8.9620 0.0060 41.0449 -0.0019
# 6 0.0018 0.0015 0.0032 20.5894 -0.0019 23.4991
#
#
#
# Elastic Compliance Matrix: (Units=1/GPa)
#
#
# Indices 1 2 3 4 5 6 
#
# 1 0.010456 -0.002143 -0.003402 -0.000001 0.000954 0.000000
# 2 -0.002143 0.008923 -0.001257 -0.000001 -0.001118 0.000001
# 3 -0.003402 -0.001257 0.007224 -0.000002 0.001139 0.000001
# 4 -0.000001 -0.000001 -0.000002 -0.034609 0.000006 0.030324
# 5 0.000954 -0.001118 0.001139 0.000006 0.024821 -0.000004
# 6 0.000000 0.000001 0.000001 0.030324 -0.000004 0.015986
#
#
# Mechanical properties :
#
#
# Convention : Reuss Voigt Hill
#
# Bulk Modulus (GPa) = 76.93159 80.46293 78.69726
# Shear Modulus (GPa) = 98.54602 29.78185 64.16394
#
# Velocity S-wave (km/s) = 7.28422 4.00442 5.87772
# Velocity P-wave (km/s) = 10.59097 8.04388 9.40406
#
# Compressibility (1/GPa) = 0.01299856
#
# Stress axis : x y z
#
# Youngs Moduli (GPa) = 95.64090 112.06931 138.43292
#
# Poissons Ratio (x) = 0.24014 0.47101
# Poissons Ratio (y) = 0.20494 0.17398
# Poissons Ratio (z) = 0.32541 0.14085
#
# Static dielectric constant tensor:
#      x y z
#    x 3.326170 0.000000 -0.069260 
#    y 0.000000 3.861320 0.000000 
#    z -0.069260 0.000000 3.751120 
# 
# 
# High freq. dielectric constant tensor:
#      x y z
#    x 1.715880 0.000000 -0.007950 
#    y 0.000000 1.724000 0.000000 
#    z -0.007950 0.000000 1.749000 
# 
# From -- ./inp_files/278108.got.cif
#   From: 2010.06.25/outbox.cif.g09.slc.cpg/sg12_140_cif.got.tgz:278108.got - 2010.06.28 00:19:55.
