data_PCOD8115587
_publ_section_title
;
Structure prediction by ZEFSAII (Michael W. Deem and Ramdas Pophale) SiO2 
 PCOD8115587
Probable space group: C 2/M
;
_chemical_formula_sum "Si O2"
_cell_formula_units_Z 48
_cell_length_a 9.075775
_cell_length_b 16.822526
_cell_length_c 16.618314
_cell_angle_alpha 90.000000
_cell_angle_beta 84.612198
_cell_angle_gamma 90.000000
_cell_volume 2526.032393
_symmetry_space_group_name_H-M "C 2/M"
_symmetry_group_IT_number 12
_symmetry_cell_setting 'monoclinic'
loop_
_space_group_symop_operation_xyz
x,y,z
-x,y,-z
-x,-y,-z
x,-y,z
1/2+x,1/2+y,z
1/2-x,1/2+y,-z
1/2-x,1/2-y,-z
1/2+x,1/2-y,z
loop_
_atom_site_type_symbol
_atom_site_label
_atom_site_fract_x
_atom_site_fract_y
_atom_site_fract_z
Si Si1 0.209610 0.812568 0.210169
Si Si2 0.252538 0.908449 0.678581
Si Si3 0.547306 0.407179 0.838778
Si Si4 0.515169 0.807522 0.699610
Si Si5 0.869763 0.764302 0.059057
Si Si6 0.122820 0.204507 0.553659
O O1 0.121188 0.889439 0.181935
O O2 0.318499 0.829959 0.279542
O O3 0.329256 0.786127 0.138635
O O4 0.083879 0.746833 0.235185
O O5 0.423106 0.887893 0.689016
O O6 0.194310 0.864619 0.602743
O O7 0.154983 0.882812 0.760158
O O8 0.237980 0.000000 0.660277
O O9 0.561118 0.500000 0.860737
O O10 0.593089 0.355080 0.914637
O O11 0.531892 0.764679 0.613992
O O12 0.750000 0.750000 0.000000
O O13 0.000000 0.727006 0.000000
O O14 0.250000 0.250000 0.500000
O O15 0.000000 0.167337 0.500000
#
# Coordination Sequence:
#
# PCOD8115587 Si02
#       6
#     8   8   8   8   8   8
#     4  12  20  39  66  90 119 163 218 244 295 376
#     4  11  24  42  63  92 126 162 207 263 313 360
#     4  11  24  42  64  93 127 162 207 262 311 360
#     4  12  20  39  66  89 120 166 213 253 289 380
#     4  12  22  37  63  94 119 161 204 253 303 369
#     4  12  22  37  64  94 119 162 208 256 308 369
#
# _framework density 19.002132
#
# number of rings (size 3 to 8) (size 9 to 14) (size 15 to 20)
#    0.000    0.333   10.000    0.000    0.000    1.333 
#    0.000    1.667    0.000    1.000    0.000    0.000 
#    0.000    0.000    0.000    0.000    0.000    0.000 
#
# Total GULP energy -297416.169861 kJ/mol
# GULP energy per Si atom -12392.340411 kJ/mol
# Density = 1.895888 g / cm^3
# Si number density = 19.002132 Si / 1000 Ang^3
#
#
#
# Elastic Constant Matrix: (Units=GPa)
#
#
# Indices 1 2 3 4 5 6 
#
# 1 137.2848 42.9585 41.4269 0.0000 21.0130 0.0000
# 2 42.9585 63.9784 35.3529 0.0000 3.8247 0.0000
# 3 41.4269 35.3529 90.7841 0.0000 1.9503 0.0000
# 4 0.0000 0.0000 0.0000 29.8357 0.0000 4.6525
# 5 21.0130 3.8247 1.9503 0.0000 55.1061 0.0000
# 6 0.0000 0.0000 0.0000 4.6525 0.0000 31.0489
#
#
#
# Elastic Compliance Matrix: (Units=1/GPa)
#
#
# Indices 1 2 3 4 5 6 
#
# 1 0.010223 -0.005251 -0.002546 0.000000 -0.003444 0.000000
# 2 -0.005251 0.022681 -0.006450 0.000000 0.000657 0.000000
# 3 -0.002546 -0.006450 0.014669 0.000000 0.000899 0.000000
# 4 0.000000 0.000000 0.000000 0.034319 0.000000 -0.005142
# 5 -0.003444 0.000657 0.000899 0.000000 0.019383 0.000000
# 6 0.000000 0.000000 0.000000 -0.005142 0.000000 0.032978
#
#
# Mechanical properties :
#
#
# Convention : Reuss Voigt Hill
#
# Bulk Modulus (GPa) = 52.41549 59.05823 55.73686
# Shear Modulus (GPa) = 29.56705 34.68541 32.12623
#
# Velocity S-wave (km/s) = 3.94888 4.27704 4.11623
# Velocity P-wave (km/s) = 6.95955 7.45238 7.21018
#
# Compressibility (1/GPa) = 0.01907833
#
# Stress axis : x y z
#
# Youngs Moduli (GPa) = 97.82154 44.08903 68.16898
#
# Poissons Ratio (x) = 0.23153 0.17355
# Poissons Ratio (y) = 0.51370 0.43971
# Poissons Ratio (z) = 0.24904 0.28439
#
# Static dielectric constant tensor:
#      x y z
#    x 3.700870 0.000000 -0.102070 
#    y 0.000000 3.251330 0.000000 
#    z -0.102070 0.000000 3.570150 
# 
# 
# High freq. dielectric constant tensor:
#      x y z
#    x 1.762540 0.000000 -0.000270 
#    y 0.000000 1.704280 0.000000 
#    z -0.000270 0.000000 1.752550 
# 
# From -- ./inp_files/195980.got.cif
#   From: 2010.06.25/outbox.cif.g09.slc.cpg/sg12_98_cif.got.tgz:195980.got - 2010.06.28 00:19:55.
