data_PCOD8115175
_publ_section_title
;
Structure prediction by ZEFSAII (Michael W. Deem and Ramdas Pophale) SiO2 
 PCOD8115175
Probable space group: C 2/M
;
_chemical_formula_sum "Si O2"
_cell_formula_units_Z 56
_cell_length_a 9.118764
_cell_length_b 19.616710
_cell_length_c 29.596870
_cell_angle_alpha 90.000000
_cell_angle_beta 149.977618
_cell_angle_gamma 90.000000
_cell_volume 2648.937134
_symmetry_space_group_name_H-M "C 2/M"
_symmetry_group_IT_number 12
_symmetry_cell_setting 'monoclinic'
loop_
_space_group_symop_operation_xyz
x,y,z
-x,y,-z
-x,-y,-z
x,-y,z
1/2+x,1/2+y,z
1/2-x,1/2+y,-z
1/2-x,1/2-y,-z
1/2+x,1/2-y,z
loop_
_atom_site_type_symbol
_atom_site_label
_atom_site_fract_x
_atom_site_fract_y
_atom_site_fract_z
Si Si1 0.889747 0.827354 0.670963
Si Si2 0.679268 0.075957 0.006078
Si Si3 0.161988 0.157504 0.087377
Si Si4 0.108429 0.421895 0.437800
Si Si5 0.152319 0.304171 0.280778
Si Si6 0.784518 0.577984 0.635815
Si Si7 0.637470 0.073987 0.168926
O O1 0.592949 0.871122 0.586446
O O2 0.818216 0.757653 0.677160
O O3 0.036244 0.811802 0.661648
O O4 0.109754 0.871086 0.759684
O O5 0.439148 0.069942 0.903435
O O6 0.808483 0.000000 0.050768
O O7 0.500000 0.106200 0.000000
O O8 0.929229 0.130285 0.061275
O O9 0.386213 0.208126 0.173640
O O10 0.347151 0.093161 0.119358
O O11 0.000000 0.191870 0.000000
O O12 0.020721 0.500000 0.424692
O O13 0.068814 0.406913 0.373710
O O14 0.439308 0.408169 0.540698
O O15 0.081022 0.372659 0.290214
O O16 0.846433 0.500000 0.666656
O O17 0.745656 0.000000 0.215330
#
# Coordination Sequence:
#
# PCOD8115175 Si02
#       7
#     8   8   8   8   8   8   8
#     4  11  23  38  56  82 116 153 195 238 285 341
#     4   9  17  29  49  79 108 136 177 229 284 339
#     4   9  19  37  56  77 108 149 191 236 289 340
#     4   9  19  39  65  90 119 152 187 233 288 343
#     4  11  24  39  58  85 117 155 198 241 289 344
#     4   9  20  39  63  91 119 150 189 234 287 345
#     4   9  18  34  55  78 105 140 184 233 285 339
#
# _framework density 21.140554000000002
#
# number of rings (size 3 to 8) (size 9 to 14) (size 15 to 20)
#    0.000    2.429    0.000    2.571    0.000    8.571 
#    0.000   11.429    0.000    0.000    0.000    0.000 
#    0.000    0.000    0.000    0.000    0.000    0.000 
#
# Total GULP energy -347116.812449 kJ/mol
# GULP energy per Si atom -12397.029016 kJ/mol
# Density = 2.109244 g / cm^3
# Si number density = 21.140554 Si / 1000 Ang^3
#
#
#
# Elastic Constant Matrix: (Units=GPa)
#
#
# Indices 1 2 3 4 5 6 
#
# 1 98.8538 25.4029 7.0235 -0.0008 8.1701 -0.0014
# 2 25.4029 85.8920 13.0244 -0.0117 -0.6170 -0.0007
# 3 7.0235 13.0244 47.8703 -0.0429 0.8413 0.0098
# 4 -0.0008 -0.0117 -0.0429 15.8940 0.0005 9.1325
# 5 8.1701 -0.6170 0.8413 0.0005 29.3265 -0.0002
# 6 -0.0014 -0.0007 0.0098 9.1325 -0.0002 18.4342
#
#
#
# Elastic Compliance Matrix: (Units=1/GPa)
#
#
# Indices 1 2 3 4 5 6 
#
# 1 0.011264 -0.003246 -0.000713 -0.000006 -0.003186 0.000004
# 2 -0.003246 0.013083 -0.003105 0.000000 0.001269 0.000002
# 3 -0.000713 -0.003105 0.021848 0.000089 -0.000493 -0.000056
# 4 -0.000006 0.000000 0.000089 0.087954 -0.000003 -0.043574
# 5 -0.003186 0.001269 -0.000493 -0.000003 0.035027 0.000002
# 6 0.000004 0.000002 -0.000056 -0.043574 0.000002 0.075834
#
#
# Mechanical properties :
#
#
# Convention : Reuss Voigt Hill
#
# Bulk Modulus (GPa) = 31.18695 35.94640 33.56668
# Shear Modulus (GPa) = 18.53026 25.20861 21.86944
#
# Velocity S-wave (km/s) = 2.96383 3.45690 3.21982
# Velocity P-wave (km/s) = 5.14749 5.74230 5.45301
#
# Compressibility (1/GPa) = 0.03206469
#
# Stress axis : x y z
#
# Youngs Moduli (GPa) = 88.77745 76.43740 45.77045
#
# Poissons Ratio (x) = 0.24812 0.03266
# Poissons Ratio (y) = 0.28818 0.14214
# Poissons Ratio (z) = 0.06334 0.23738
#
# Static dielectric constant tensor:
#      x y z
#    x 3.877290 0.000000 0.009610 
#    y 0.000000 3.670550 -0.000020 
#    z 0.009610 -0.000020 3.770220 
# 
# 
# High freq. dielectric constant tensor:
#      x y z
#    x 1.835440 0.000000 0.004140 
#    y 0.000000 1.814160 0.000000 
#    z 0.004140 0.000000 1.816050 
# 
# From -- ./inp_files/373182.got.cif
#   From: 2010.06.25/outbox.cif.g09.slc.cpg/sg12_187_cif.got.tgz:373182.got - 2010.06.28 00:19:55.
