data_PCOD8115875
_publ_section_title
;
Structure prediction by ZEFSAII (Michael W. Deem and Ramdas Pophale) SiO2 
 PCOD8115875
Probable space group: C 2/M
;
_chemical_formula_sum "Si O2"
_cell_formula_units_Z 40
_cell_length_a 19.388838
_cell_length_b 24.937064
_cell_length_c 8.625320
_cell_angle_alpha 90.000000
_cell_angle_beta 149.427170
_cell_angle_gamma 90.000000
_cell_volume 2121.177510
_symmetry_space_group_name_H-M "C 2/M"
_symmetry_group_IT_number 12
_symmetry_cell_setting 'monoclinic'
loop_
_space_group_symop_operation_xyz
x,y,z
-x,y,-z
-x,-y,-z
x,-y,z
1/2+x,1/2+y,z
1/2-x,1/2+y,-z
1/2-x,1/2-y,-z
1/2+x,1/2-y,z
loop_
_atom_site_type_symbol
_atom_site_label
_atom_site_fract_x
_atom_site_fract_y
_atom_site_fract_z
Si Si1 0.397431 0.115633 0.535331
Si Si2 0.869202 0.279549 0.642422
Si Si3 0.359821 0.281991 0.313828
Si Si4 0.805098 0.615870 0.003148
Si Si5 0.891128 0.500000 0.507655
Si Si6 0.196712 0.500000 0.986894
O O1 0.333600 0.158491 0.531352
O O2 0.328344 0.118598 0.233048
O O3 0.557058 0.127615 0.823664
O O4 0.373190 0.056223 0.565806
O O5 0.750000 0.250000 0.500000
O O6 0.900291 0.251095 0.541873
O O7 0.000000 0.276244 0.000000
O O8 0.500000 0.291919 0.500000
O O9 0.250000 0.250000 0.000000
O O10 0.301900 0.339430 0.253899
O O11 0.743849 0.556869 0.835875
O O12 0.782952 0.500000 0.158883
O O13 0.038374 0.500000 0.716888
#
# Coordination Sequence:
#
# PCOD8115875 Si02
#       6
#     8   8   8   8   4   4
#     4   9  16  31  55  82 112 142 180 228 277 330
#     4  12  25  38  53  80 117 151 182 231 286 331
#     4  12  23  38  59  82 107 149 196 232 274 333
#     4   9  16  30  56  84 110 140 182 232 277 326
#     4   7  12  24  49  82 108 137 175 222 277 327
#     4   7  12  24  47  84 114 130 167 235 287 313
#
# _framework density 18.857451999999999
#
# number of rings (size 3 to 8) (size 9 to 14) (size 15 to 20)
#    0.000    2.200    2.000    6.000    0.000    0.000 
#    0.000    1.000    0.000    1.200    0.000    1.400 
#    0.000    0.000    0.000    0.000    0.000    0.000 
#
# Total GULP energy -247771.668464 kJ/mol
# GULP energy per Si atom -12388.583423 kJ/mol
# Density = 1.881453 g / cm^3
# Si number density = 18.857452 Si / 1000 Ang^3
#
#
#
# Elastic Constant Matrix: (Units=GPa)
#
#
# Indices 1 2 3 4 5 6 
#
# 1 46.4073 39.6402 -1.2470 0.0000 -1.6723 0.0000
# 2 39.6402 198.8925 31.4270 0.0000 1.7604 0.0000
# 3 -1.2470 31.4270 36.7186 0.0000 -9.3663 0.0000
# 4 0.0000 0.0000 0.0000 21.7520 0.0000 4.1696
# 5 -1.6723 1.7604 -9.3663 0.0000 22.9667 0.0000
# 6 0.0000 0.0000 0.0000 4.1696 0.0000 30.6781
#
#
#
# Elastic Compliance Matrix: (Units=1/GPa)
#
#
# Indices 1 2 3 4 5 6 
#
# 1 0.027929 -0.006952 0.008430 0.000000 0.006004 0.000000
# 2 -0.006952 0.007706 -0.007937 0.000000 -0.004334 0.000000
# 3 0.008430 -0.007937 0.038645 0.000000 0.016983 0.000000
# 4 0.000000 0.000000 0.000000 0.047203 0.000000 -0.006416
# 5 0.006004 -0.004334 0.016983 0.000000 0.051237 0.000000
# 6 0.000000 0.000000 0.000000 -0.006416 0.000000 0.033469
#
#
# Mechanical properties :
#
#
# Convention : Reuss Voigt Hill
#
# Bulk Modulus (GPa) = 16.29638 46.85096 31.57367
# Shear Modulus (GPa) = 20.87165 29.22589 25.04877
#
# Velocity S-wave (km/s) = 3.33049 3.94106 3.64857
# Velocity P-wave (km/s) = 4.84254 6.75337 5.87615
#
# Compressibility (1/GPa) = 0.06136333
#
# Stress axis : x y z
#
# Youngs Moduli (GPa) = 35.80497 129.77302 25.87627
#
# Poissons Ratio (x) = 0.90212 -0.21813
# Poissons Ratio (y) = 0.24890 0.20537
# Poissons Ratio (z) = -0.30183 1.02998
#
# Static dielectric constant tensor:
#      x y z
#    x 3.207070 0.000000 -0.203980 
#    y 0.000000 4.318540 0.000000 
#    z -0.203980 0.000000 3.407550 
# 
# 
# High freq. dielectric constant tensor:
#      x y z
#    x 1.696460 0.000000 -0.007740 
#    y 0.000000 1.766500 0.000000 
#    z -0.007740 0.000000 1.689650 
# 
# From -- ./inp_files/90573.got.cif
#   From: 2010.06.25/outbox.cif.g09.slc.cpg/sg12_46_cif.got.tgz:90573.got - 2010.06.28 00:19:55.
