data_PCOD8115035
_publ_section_title
;
Structure prediction by ZEFSAII (Michael W. Deem and Ramdas Pophale) SiO2 
 PCOD8115035
Probable space group: C 2/M
;
_chemical_formula_sum "Si O2"
_cell_formula_units_Z 64
_cell_length_a 18.323634
_cell_length_b 28.161167
_cell_length_c 9.432587
_cell_angle_alpha 90.000000
_cell_angle_beta 140.860890
_cell_angle_gamma 90.000000
_cell_volume 3072.301081
_symmetry_space_group_name_H-M "C 2/M"
_symmetry_group_IT_number 12
_symmetry_cell_setting 'monoclinic'
loop_
_space_group_symop_operation_xyz
x,y,z
-x,y,-z
-x,-y,-z
x,-y,z
1/2+x,1/2+y,z
1/2-x,1/2+y,-z
1/2-x,1/2-y,-z
1/2+x,1/2-y,z
loop_
_atom_site_type_symbol
_atom_site_label
_atom_site_fract_x
_atom_site_fract_y
_atom_site_fract_z
Si Si1 0.748497 0.610344 0.955365
Si Si2 0.104082 0.384599 0.268340
Si Si3 0.838856 0.884491 0.482968
Si Si4 0.459957 0.447288 0.278101
Si Si5 0.659708 0.780154 0.456002
Si Si6 0.989337 0.801883 0.817239
Si Si7 0.738374 0.295375 0.083431
Si Si8 0.977990 0.444886 0.301631
O O1 0.682581 0.625535 0.714154
O O2 0.658536 0.582138 0.919978
O O3 0.797589 0.658275 0.102310
O O4 0.853287 0.575716 0.073959
O O5 0.222561 0.404391 0.379999
O O6 0.130987 0.330933 0.349619
O O7 0.075726 0.416494 0.362306
O O8 0.000000 0.387399 0.000000
O O9 0.882659 0.834883 0.611384
O O10 0.938424 0.923375 0.660352
O O11 0.500000 0.449589 0.500000
O O12 0.438023 0.500000 0.185319
O O13 0.750000 0.750000 0.500000
O O14 0.539298 0.752052 0.269005
O O15 0.701688 0.783299 0.679502
O O16 0.000000 0.808076 0.000000
O O17 0.106967 0.812624 0.911258
O O18 0.750000 0.250000 0.000000
O O19 0.982353 0.500000 0.264429
O O20 0.000000 0.437408 0.500000
#
# Coordination Sequence:
#
# PCOD8115035 Si02
#       8
#     8   8   8   8   8   8   8   8
#     4  11  22  42  67  99 135 174 223 277 338 401
#     4  12  25  44  69  98 133 179 227 282 334 410
#     4  11  22  41  67 100 132 172 221 283 338 394
#     4   9  19  36  63  94 125 163 209 267 331 391
#     4  12  25  42  66  95 132 179 224 267 337 402
#     4  12  24  43  67  93 136 179 221 270 335 407
#     4  12  27  41  66 102 133 176 225 284 333 403
#     4  11  26  47  71  99 138 183 227 283 347 409
#
# _framework density 20.831291
#
# number of rings (size 3 to 8) (size 9 to 14) (size 15 to 20)
#    0.000    0.750    5.000    2.250    1.750    2.750 
#    0.000    0.000    0.000    0.375    0.000    0.000 
#    0.000    0.000    0.000    0.000    0.000    0.000 
#
# Total GULP energy -396880.870917 kJ/mol
# GULP energy per Si atom -12402.527216 kJ/mol
# Density = 2.078388 g / cm^3
# Si number density = 20.831291 Si / 1000 Ang^3
#
#
#
# Elastic Constant Matrix: (Units=GPa)
#
#
# Indices 1 2 3 4 5 6 
#
# 1 129.6412 62.2887 37.6842 0.0000 15.0484 0.0000
# 2 62.2887 155.1805 32.6236 0.0000 -3.0542 0.0000
# 3 37.6842 32.6236 78.3505 0.0000 -5.5820 0.0000
# 4 0.0000 0.0000 0.0000 29.4646 0.0000 5.5377
# 5 15.0484 -3.0542 -5.5820 0.0000 39.0147 0.0000
# 6 0.0000 0.0000 0.0000 5.5377 0.0000 33.5999
#
#
#
# Elastic Compliance Matrix: (Units=1/GPa)
#
#
# Indices 1 2 3 4 5 6 
#
# 1 0.011388 -0.003775 -0.004283 0.000000 -0.005301 0.000000
# 2 -0.003775 0.008314 -0.001512 0.000000 0.001891 0.000000
# 3 -0.004283 -0.001512 0.015722 0.000000 0.003783 0.000000
# 4 0.000000 0.000000 0.000000 0.035024 0.000000 -0.005772
# 5 -0.005301 0.001891 0.003783 0.000000 0.028365 0.000000
# 6 0.000000 0.000000 0.000000 -0.005772 0.000000 0.030713
#
#
# Mechanical properties :
#
#
# Convention : Reuss Voigt Hill
#
# Bulk Modulus (GPa) = 61.40581 69.81836 65.61209
# Shear Modulus (GPa) = 32.44783 35.78754 34.11768
#
# Velocity S-wave (km/s) = 3.95099 4.14934 4.05138
# Velocity P-wave (km/s) = 7.09615 7.51963 7.31096
#
# Compressibility (1/GPa) = 0.01628510
#
# Stress axis : x y z
#
# Youngs Moduli (GPa) = 87.81537 120.27457 63.60487
#
# Poissons Ratio (x) = 0.45402 0.27241
# Poissons Ratio (y) = 0.33149 0.09615
# Poissons Ratio (z) = 0.37611 0.18181
#
# Static dielectric constant tensor:
#      x y z
#    x 3.826440 0.000000 -0.037130 
#    y 0.000000 3.815380 0.000000 
#    z -0.037130 0.000000 3.292380 
# 
# 
# High freq. dielectric constant tensor:
#      x y z
#    x 1.819730 0.000000 0.009400 
#    y 0.000000 1.824260 0.000000 
#    z 0.009400 0.000000 1.814800 
# 
# From -- ./inp_files/80764.got.cif
#   From: 2010.06.25/outbox.cif.g09.slc.cpg/sg12_41_cif.got.tgz:80764.got - 2010.06.28 00:19:55.
