data_PCOD8115454
_publ_section_title
;
Structure prediction by ZEFSAII (Michael W. Deem and Ramdas Pophale) SiO2 
 PCOD8115454
Probable space group: C 2/M
;
_chemical_formula_sum "Si O2"
_cell_formula_units_Z 56
_cell_length_a 17.237822
_cell_length_b 18.271414
_cell_length_c 7.155041
_cell_angle_alpha 90.000000
_cell_angle_beta 74.737396
_cell_angle_gamma 90.000000
_cell_volume 2174.063415
_symmetry_space_group_name_H-M "C 2/M"
_symmetry_group_IT_number 12
_symmetry_cell_setting 'monoclinic'
loop_
_space_group_symop_operation_xyz
x,y,z
-x,y,-z
-x,-y,-z
x,-y,z
1/2+x,1/2+y,z
1/2-x,1/2+y,-z
1/2-x,1/2-y,-z
1/2+x,1/2-y,z
loop_
_atom_site_type_symbol
_atom_site_label
_atom_site_fract_x
_atom_site_fract_y
_atom_site_fract_z
Si Si1 0.351467 0.677357 0.946857
Si Si2 0.022790 0.790034 0.698392
Si Si3 0.365488 0.578910 0.247635
Si Si4 0.804435 0.615533 0.567769
Si Si5 0.536604 0.129345 0.675904
Si Si6 0.872144 0.414811 0.914996
Si Si7 0.788498 0.695570 0.230257
O O1 0.441588 0.705193 0.869201
O O2 0.301956 0.678515 0.786630
O O3 0.352383 0.595920 0.034896
O O4 0.311176 0.724821 0.140392
O O5 0.081369 0.857571 0.698039
O O6 0.061652 0.711425 0.735035
O O7 0.000000 0.795567 0.500000
O O8 0.408533 0.500000 0.242136
O O9 0.277150 0.569698 0.398737
O O10 0.883301 0.579573 0.414262
O O11 0.828498 0.627786 0.770210
O O12 0.788936 0.690846 0.457988
O O13 0.500000 0.148519 0.500000
O O14 0.469743 0.088515 0.842492
O O15 0.845873 0.500000 0.936258
O O16 0.847050 0.370258 0.115365
#
# Coordination Sequence:
#
# PCOD8115454 Si02
#       7
#     8   8   8   8   8   8   8
#     4  11  24  44  70 102 142 182 239 292 343 416
#     4  11  23  43  71 102 138 179 233 294 344 416
#     4  12  27  45  67  98 139 189 234 289 355 410
#     4  11  24  43  68  99 139 183 230 281 340 420
#     4   9  21  40  69 100 135 179 227 277 352 411
#     4  11  23  44  68 100 143 182 227 289 354 419
#     4  11  24  43  72 105 137 188 238 283 350 411
#
# _framework density 25.758219
#
# number of rings (size 3 to 8) (size 9 to 14) (size 15 to 20)
#    0.000    1.143    2.857    2.571    0.000    8.571 
#    0.000    2.143    0.000    0.000    0.000    0.000 
#    0.000    0.000    0.000    0.000    0.000    0.000 
#
# Total GULP energy -346867.005686 kJ/mol
# GULP energy per Si atom -12388.107346 kJ/mol
# Density = 2.569959 g / cm^3
# Si number density = 25.758219 Si / 1000 Ang^3
#
#
#
# Elastic Constant Matrix: (Units=GPa)
#
#
# Indices 1 2 3 4 5 6 
#
# 1 70.8214 19.5350 19.5869 0.0000 -15.3250 0.0000
# 2 19.5350 134.1605 31.0431 0.0000 3.5164 0.0000
# 3 19.5869 31.0431 59.7487 0.0000 14.6284 0.0000
# 4 0.0000 0.0000 0.0000 24.0736 0.0000 -0.9472
# 5 -15.3250 3.5164 14.6284 0.0000 50.6596 0.0000
# 6 0.0000 0.0000 0.0000 -0.9472 0.0000 24.7825
#
#
#
# Elastic Compliance Matrix: (Units=1/GPa)
#
#
# Indices 1 2 3 4 5 6 
#
# 1 0.018080 -0.001170 -0.007186 0.000000 0.007626 0.000000
# 2 -0.001170 0.008573 -0.004131 0.000000 0.000244 0.000000
# 3 -0.007186 -0.004131 0.023352 0.000000 -0.008630 0.000000
# 4 0.000000 0.000000 0.000000 0.041602 0.000000 0.001590
# 5 0.007626 0.000244 -0.008630 0.000000 0.024522 0.000000
# 6 0.000000 0.000000 0.000000 0.001590 0.000000 0.040412
#
#
# Mechanical properties :
#
#
# Convention : Reuss Voigt Hill
#
# Bulk Modulus (GPa) = 39.94897 45.00673 42.47785
# Shear Modulus (GPa) = 26.33541 32.87417 29.60479
#
# Velocity S-wave (km/s) = 3.20098 3.57635 3.39386
# Velocity P-wave (km/s) = 5.40413 5.87915 5.64664
#
# Compressibility (1/GPa) = 0.02503193
#
# Stress axis : x y z
#
# Youngs Moduli (GPa) = 55.30869 116.63880 42.82340
#
# Poissons Ratio (x) = 0.13643 0.30775
# Poissons Ratio (y) = 0.06469 0.17689
# Poissons Ratio (z) = 0.39747 0.48180
#
# Static dielectric constant tensor:
#      x y z
#    x 5.278870 0.000000 -0.319230 
#    y 0.000000 4.157570 0.000000 
#    z -0.319230 0.000000 5.463460 
# 
# 
# High freq. dielectric constant tensor:
#      x y z
#    x 2.060210 0.000000 0.000160 
#    y 0.000000 1.997600 0.000000 
#    z 0.000160 0.000000 2.033250 
# 
# From -- ./inp_files/75911.got.cif
#   From: 2010.06.25/outbox.cif.g09.slc.cpg/sg12_38_cif.got.tgz:75911.got - 2010.06.28 00:19:55.
