data_PCOD8115992
_publ_section_title
;
Structure prediction by ZEFSAII (Michael W. Deem and Ramdas Pophale) SiO2 
 PCOD8115992
Probable space group: C 2/M
;
_chemical_formula_sum "Si O2"
_cell_formula_units_Z 64
_cell_length_a 27.933043
_cell_length_b 9.759181
_cell_length_c 20.777897
_cell_angle_alpha 90.000000
_cell_angle_beta 138.060104
_cell_angle_gamma 90.000000
_cell_volume 3785.625074
_symmetry_space_group_name_H-M "C 2/M"
_symmetry_group_IT_number 12
_symmetry_cell_setting 'monoclinic'
loop_
_space_group_symop_operation_xyz
x,y,z
-x,y,-z
-x,-y,-z
x,-y,z
1/2+x,1/2+y,z
1/2-x,1/2+y,-z
1/2-x,1/2-y,-z
1/2+x,1/2-y,z
loop_
_atom_site_type_symbol
_atom_site_label
_atom_site_fract_x
_atom_site_fract_y
_atom_site_fract_z
Si Si1 0.079924 0.662923 0.462531
Si Si2 0.664836 0.662860 0.164836
Si Si3 0.414788 0.152623 0.155730
Si Si4 0.826368 0.336345 0.326368
Si Si5 0.915903 0.158456 0.789761
Si Si6 0.915903 0.158457 0.042044
Si Si7 0.585212 0.152623 0.326153
Si Si8 0.079924 0.337077 0.697317
O O1 0.076017 0.500000 0.462428
O O2 0.133366 0.721182 0.570134
O O3 0.109420 0.704981 0.421250
O O4 1.000000 0.722616 0.394687
O O5 0.663227 0.500000 0.163227
O O6 0.745584 0.720361 0.245584
O O7 0.624055 0.716464 0.187325
O O8 0.624054 0.716465 0.060785
O O9 0.386151 0.257073 0.073287
O O10 0.500000 0.147718 0.240435
O O11 0.390579 0.204982 0.202409
O O12 0.384465 0.000000 0.111335
O O13 0.826393 0.500000 0.326393
O O14 0.866634 0.278818 0.303403
O O15 0.886151 0.242927 0.699015
O O16 1.000000 0.180745 0.884665
O O17 0.897710 0.000000 0.758841
O O18 0.897709 0.000000 0.036577
O O19 0.615535 0.000000 0.342405
O O20 0.076018 0.500000 0.689608
#
# Coordination Sequence:
#
# PCOD8115992 Si02
#       8
#     8   8   8   8   8   8   8   8
#     4   8  13  22  38  60  84 107 130 160 200 242
#     4   9  17  27  38  55  79 105 136 173 204 230
#     4   8  14  25  41  62  85 104 127 164 204 239
#     4   9  15  23  37  58  83 108 134 165 200 238
#     4   9  16  27  43  60  79 106 138 169 201 237
#     4   9  16  27  43  60  79 106 138 169 201 237
#     4   8  14  25  41  62  85 104 127 164 204 239
#     4   8  13  22  38  60  84 107 130 160 200 242
#
# _framework density 16.906058999999999
#
# number of rings (size 3 to 8) (size 9 to 14) (size 15 to 20)
#    0.000    3.500    0.000    2.250    0.000    3.000 
#    0.000    1.875    0.000    3.000    0.000    2.625 
#    0.000    6.000    0.000    0.000    0.000    0.000 
#
# Total GULP energy -396598.670919 kJ/mol
# GULP energy per Si atom -12393.708466 kJ/mol
# Density = 1.686758 g / cm^3
# Si number density = 16.906059 Si / 1000 Ang^3
#
#
#
# Elastic Constant Matrix: (Units=GPa)
#
#
# Indices 1 2 3 4 5 6 
#
# 1 104.3995 35.3150 91.1134 0.0000 -29.9644 0.0000
# 2 35.3150 35.3306 36.0360 0.0000 -13.9235 0.0000
# 3 91.1134 36.0360 107.5703 0.0000 -31.2578 0.0000
# 4 0.0000 0.0000 0.0000 14.6280 0.0000 -7.1963
# 5 -29.9644 -13.9235 -31.2578 0.0000 32.3942 0.0000
# 6 0.0000 0.0000 0.0000 -7.1963 0.0000 14.2552
#
#
#
# Elastic Compliance Matrix: (Units=1/GPa)
#
#
# Indices 1 2 3 4 5 6 
#
# 1 0.038610 -0.007257 -0.028906 0.000000 0.004704 0.000000
# 2 -0.007257 0.045325 -0.007402 0.000000 0.005626 0.000000
# 3 -0.028906 -0.007402 0.038306 0.000000 0.007043 0.000000
# 4 0.000000 0.000000 0.000000 0.090949 0.000000 0.045913
# 5 0.004704 0.005626 0.007043 0.000000 0.044435 0.000000
# 6 0.000000 0.000000 0.000000 0.045913 0.000000 0.093327
#
#
# Mechanical properties :
#
#
# Convention : Reuss Voigt Hill
#
# Bulk Modulus (GPa) = 28.48044 63.58101 46.03073
# Shear Modulus (GPa) = 11.11638 17.91121 14.51380
#
# Velocity S-wave (km/s) = 2.56703 3.25846 2.93319
# Velocity P-wave (km/s) = 5.06647 7.20047 6.22559
#
# Compressibility (1/GPa) = 0.03511182
#
# Stress axis : x y z
#
# Youngs Moduli (GPa) = 25.89972 22.06277 26.10548
#
# Poissons Ratio (x) = 0.16011 0.75460
# Poissons Ratio (y) = 0.18795 0.19324
# Poissons Ratio (z) = 0.74865 0.16332
#
# Static dielectric constant tensor:
#      x y z
#    x 3.322620 0.000000 -0.290690 
#    y 0.000000 2.772260 0.000000 
#    z -0.290690 0.000000 3.337680 
# 
# 
# High freq. dielectric constant tensor:
#      x y z
#    x 1.646980 0.000000 -0.023540 
#    y 0.000000 1.590450 0.000000 
#    z -0.023540 0.000000 1.648200 
# 
# From -- ./inp_files/289146.got.cif
#   From: 2010.06.25/outbox.cif.g09.slc.cpg/sg12_145_cif.got.tgz:289146.got - 2010.06.28 00:19:55.
