data_PCOD8115950
_publ_section_title
;
Structure prediction by ZEFSAII (Michael W. Deem and Ramdas Pophale) SiO2 
 PCOD8115950
Probable space group: C 2/M
;
_chemical_formula_sum "Si O2"
_cell_formula_units_Z 64
_cell_length_a 24.243592
_cell_length_b 9.849804
_cell_length_c 18.812576
_cell_angle_alpha 90.000000
_cell_angle_beta 101.628201
_cell_angle_gamma 90.000000
_cell_volume 4400.142006
_symmetry_space_group_name_H-M "C 2/M"
_symmetry_group_IT_number 12
_symmetry_cell_setting 'monoclinic'
loop_
_space_group_symop_operation_xyz
x,y,z
-x,y,-z
-x,-y,-z
x,-y,z
1/2+x,1/2+y,z
1/2-x,1/2+y,-z
1/2-x,1/2-y,-z
1/2+x,1/2-y,z
loop_
_atom_site_type_symbol
_atom_site_label
_atom_site_fract_x
_atom_site_fract_y
_atom_site_fract_z
Si Si1 0.007433 0.652858 0.327596
Si Si2 0.962993 0.842570 0.203668
Si Si3 0.672004 0.656902 0.018272
Si Si4 0.952968 0.838591 0.041298
Si Si5 0.845184 0.154944 0.247616
Si Si6 0.555366 0.160803 0.480541
Si Si7 0.386327 0.152535 0.370795
Si Si8 0.740815 0.345031 0.894552
O O1 0.018837 0.500000 0.302538
O O2 0.007334 0.755915 0.261501
O O3 0.948331 0.657430 0.353303
O O4 0.056800 0.699230 0.396686
O O5 0.966705 0.787443 0.124195
O O6 0.899709 0.817676 0.213617
O O7 0.980115 0.000000 0.214089
O O8 0.675692 0.500000 0.042576
O O9 0.705953 0.745840 0.084399
O O10 0.608105 0.711609 0.000661
O O11 0.696717 0.678847 0.946362
O O12 0.952456 0.000000 0.042249
O O13 0.000000 0.780400 0.000000
O O14 0.844490 0.248570 0.317457
O O15 0.790287 0.189893 0.187065
O O16 0.844155 0.000000 0.273272
O O17 0.500000 0.230467 0.500000
O O18 0.608770 0.201621 0.544607
O O19 0.549014 0.000000 0.484341
O O20 0.361798 0.000000 0.359604
O O21 0.762335 0.500000 0.900802
#
# Coordination Sequence:
#
# PCOD8115950 Si02
#       8
#     8   8   8   8   8   8   8   8
#     4   8  13  21  33  47  64  90 121 150 180 212
#     4   9  15  24  36  51  70  91 120 155 185 215
#     4   9  16  27  41  57  72  91 124 159 187 220
#     4   9  16  27  43  58  73  97 127 158 192 227
#     4   9  15  23  34  49  72  98 119 146 184 219
#     4   7  10  18  30  43  62  89 119 148 175 205
#     4   8  13  20  31  47  66  90 122 152 175 205
#     4   9  16  26  39  54  75  99 120 150 191 226
#
# _framework density 14.544985
#
# number of rings (size 3 to 8) (size 9 to 14) (size 15 to 20)
#    0.000    3.500    1.250    1.500    0.000    0.500 
#    0.000    1.250    0.000    5.250    0.000    0.000 
#    0.000    0.000    0.000    1.125    0.000   12.875 
#
# Total GULP energy -396454.265133 kJ/mol
# GULP energy per Si atom -12389.195785 kJ/mol
# Density = 1.451188 g / cm^3
# Si number density = 14.544985 Si / 1000 Ang^3
#
#
#
# Elastic Constant Matrix: (Units=GPa)
#
#
# Indices 1 2 3 4 5 6 
#
# 1 52.9081 31.1901 47.9517 0.0000 14.4391 0.0000
# 2 31.1901 61.9404 58.2494 0.0000 20.4123 0.0000
# 3 47.9517 58.2494 118.0200 0.0000 35.3132 0.0000
# 4 0.0000 0.0000 0.0000 24.2031 0.0000 9.1143
# 5 14.4391 20.4123 35.3132 0.0000 20.8279 0.0000
# 6 0.0000 0.0000 0.0000 9.1143 0.0000 11.9902
#
#
#
# Elastic Compliance Matrix: (Units=1/GPa)
#
#
# Indices 1 2 3 4 5 6 
#
# 1 0.031560 -0.007320 -0.009763 0.000000 0.001847 0.000000
# 2 -0.007320 0.032634 -0.010314 0.000000 -0.009422 0.000000
# 3 -0.009763 -0.010314 0.025332 0.000000 -0.026073 0.000000
# 4 0.000000 0.000000 0.000000 0.057888 0.000000 -0.044003
# 5 0.001847 -0.009422 -0.026073 0.000000 0.100173 0.000000
# 6 0.000000 0.000000 0.000000 -0.044003 0.000000 0.116851
#
#
# Mechanical properties :
#
#
# Convention : Reuss Voigt Hill
#
# Bulk Modulus (GPa) = 28.79051 56.40568 42.59809
# Shear Modulus (GPa) = 11.60610 17.76937 14.68773
#
# Velocity S-wave (km/s) = 2.82786 3.49905 3.18121
# Velocity P-wave (km/s) = 5.52263 7.42892 6.54554
#
# Compressibility (1/GPa) = 0.03473366
#
# Stress axis : x y z
#
# Youngs Moduli (GPa) = 31.68568 30.64242 39.47631
#
# Poissons Ratio (x) = 0.22429 0.38541
# Poissons Ratio (y) = 0.23193 0.40715
# Poissons Ratio (z) = 0.30935 0.31604
#
# Static dielectric constant tensor:
#      x y z
#    x 2.491530 0.000000 0.317330 
#    y 0.000000 2.720320 0.000000 
#    z 0.317330 0.000000 3.089410 
# 
# 
# High freq. dielectric constant tensor:
#      x y z
#    x 1.498800 0.000000 0.035710 
#    y 0.000000 1.537080 0.000000 
#    z 0.035710 0.000000 1.556800 
# 
# From -- ./inp_files/291590.got.cif
#   From: 2010.06.25/outbox.cif.g09.slc.cpg/sg12_146_cif.got.tgz:291590.got - 2010.06.28 00:19:55.
