data_PCOD8115072
_publ_section_title
;
Structure prediction by ZEFSAII (Michael W. Deem and Ramdas Pophale) SiO2 
 PCOD8115072
Probable space group: C 2/M
;
_chemical_formula_sum "Si O2"
_cell_formula_units_Z 40
_cell_length_a 14.085308
_cell_length_b 17.742545
_cell_length_c 14.276733
_cell_angle_alpha 90.000000
_cell_angle_beta 148.979526
_cell_angle_gamma 90.000000
_cell_volume 1838.690416
_symmetry_space_group_name_H-M "C 2/M"
_symmetry_group_IT_number 12
_symmetry_cell_setting 'monoclinic'
loop_
_space_group_symop_operation_xyz
x,y,z
-x,y,-z
-x,-y,-z
x,-y,z
1/2+x,1/2+y,z
1/2-x,1/2+y,-z
1/2-x,1/2-y,-z
1/2+x,1/2-y,z
loop_
_atom_site_type_symbol
_atom_site_label
_atom_site_fract_x
_atom_site_fract_y
_atom_site_fract_z
Si Si1 0.371838 0.661537 0.172543
Si Si2 0.267923 0.162772 0.543837
Si Si3 0.494422 0.913798 0.104631
Si Si4 0.158078 0.202007 0.059846
Si Si5 0.951498 0.583849 0.351725
O O1 0.560884 0.628808 0.376065
O O2 0.302846 0.729401 0.180601
O O3 0.424168 0.692676 0.113790
O O4 0.213816 0.597829 0.033613
O O5 0.250000 0.250000 0.500000
O O6 0.370818 0.145675 0.729361
O O7 0.379203 0.121769 0.557265
O O8 0.554176 0.000000 0.175244
O O9 0.500000 0.895072 0.000000
O O10 0.259782 0.126224 0.175988
O O11 0.000000 0.221297 0.000000
O O12 0.924446 0.500000 0.288532
O O13 0.000000 0.582224 0.500000
#
# Coordination Sequence:
#
# PCOD8115072 Si02
#       5
#     8   8   8   8   8
#     4  11  23  42  70 101 137 186 238 294 360 419
#     4  12  23  45  73 104 140 187 236 298 360 423
#     4  11  26  47  70 102 145 190 240 297 357 429
#     4  11  22  42  67 100 142 183 236 290 355 430
#     4  11  24  42  66 101 144 186 231 290 357 429
#
# _framework density 21.754614
#
# number of rings (size 3 to 8) (size 9 to 14) (size 15 to 20)
#    0.000    0.800    4.000    3.600    0.000    4.400 
#    0.000    2.000    0.000    0.000    0.000    0.000 
#    0.000    0.000    0.000    0.000    0.000    0.000 
#
# Total GULP energy -248026.933367 kJ/mol
# GULP energy per Si atom -12401.346668 kJ/mol
# Density = 2.170510 g / cm^3
# Si number density = 21.754614 Si / 1000 Ang^3
#
#
#
# Elastic Constant Matrix: (Units=GPa)
#
#
# Indices 1 2 3 4 5 6 
#
# 1 154.2866 36.6443 53.0253 0.0000 -0.4757 -0.0001
# 2 36.6443 140.6010 45.8039 0.0000 -8.8929 -0.0001
# 3 53.0253 45.8039 150.5716 -0.0001 12.1300 -0.0007
# 4 0.0000 0.0000 -0.0001 34.7020 0.0000 -0.6236
# 5 -0.4757 -8.8929 12.1300 0.0000 33.4541 -0.0003
# 6 -0.0001 -0.0001 -0.0007 -0.6236 -0.0003 32.9460
#
#
#
# Elastic Compliance Matrix: (Units=1/GPa)
#
#
# Indices 1 2 3 4 5 6 
#
# 1 0.007573 -0.001161 -0.002366 0.000000 0.000657 0.000000
# 2 -0.001161 0.008389 -0.002391 0.000000 0.003080 0.000000
# 3 -0.002366 -0.002391 0.008504 0.000000 -0.003753 0.000000
# 4 0.000000 0.000000 0.000000 0.028827 0.000000 0.000546
# 5 0.000657 0.003080 -0.003753 0.000000 0.032081 0.000000
# 6 0.000000 0.000000 0.000000 0.000546 0.000000 0.030363
#
#
# Mechanical properties :
#
#
# Convention : Reuss Voigt Hill
#
# Bulk Modulus (GPa) = 79.18705 79.60070 79.39387
# Shear Modulus (GPa) = 37.94122 40.88613 39.41368
#
# Velocity S-wave (km/s) = 4.18072 4.33993 4.26107
# Velocity P-wave (km/s) = 7.73199 7.86022 7.79637
#
# Compressibility (1/GPa) = 0.01262833
#
# Stress axis : x y z
#
# Youngs Moduli (GPa) = 132.05586 119.20759 117.58565
#
# Poissons Ratio (x) = 0.13841 0.27826
# Poissons Ratio (y) = 0.15333 0.28116
# Poissons Ratio (z) = 0.31251 0.28504
#
# Static dielectric constant tensor:
#      x y z
#    x 4.045760 0.000000 0.054600 
#    y 0.000000 4.069890 0.000000 
#    z 0.054600 0.000000 4.069970 
# 
# 
# High freq. dielectric constant tensor:
#      x y z
#    x 1.865340 0.000000 -0.001680 
#    y 0.000000 1.855860 0.000000 
#    z -0.001680 0.000000 1.856750 
# 
# From -- ./inp_files/216938.got.cif
#   From: 2010.06.25/outbox.cif.g09.slc.cpg/sg12_109_cif.got.tgz:216938.got - 2010.06.28 00:19:55.
