data_PCOD8115339
_publ_section_title
;
Structure prediction by ZEFSAII (Michael W. Deem and Ramdas Pophale) SiO2 
 PCOD8115339
Probable space group: C 2/M
;
_chemical_formula_sum "Si O2"
_cell_formula_units_Z 36
_cell_length_a 13.909953
_cell_length_b 10.561482
_cell_length_c 24.482924
_cell_angle_alpha 90.000000
_cell_angle_beta 151.905806
_cell_angle_gamma 90.000000
_cell_volume 1693.804341
_symmetry_space_group_name_H-M "C 2/M"
_symmetry_group_IT_number 12
_symmetry_cell_setting 'monoclinic'
loop_
_space_group_symop_operation_xyz
x,y,z
-x,y,-z
-x,-y,-z
x,-y,z
1/2+x,1/2+y,z
1/2-x,1/2+y,-z
1/2-x,1/2-y,-z
1/2+x,1/2-y,z
loop_
_atom_site_type_symbol
_atom_site_label
_atom_site_fract_x
_atom_site_fract_y
_atom_site_fract_z
Si Si1 0.259373 0.500000 0.884918
Si Si2 0.059258 0.000000 0.466115
Si Si3 0.485443 0.000000 0.345135
Si Si4 0.155903 0.238772 0.695052
Si Si5 0.215942 0.358328 0.128019
Si Si6 0.393475 0.761911 0.123887
O O1 0.189229 0.500000 0.787458
O O2 0.173810 0.381094 0.874508
O O3 0.500000 0.500000 0.000000
O O4 0.300777 0.000000 0.579257
O O5 0.000000 0.000000 0.500000
O O6 0.978982 0.873230 0.397164
O O7 0.456604 0.874628 0.368928
O O8 0.187108 0.223627 0.775384
O O9 0.372022 0.232262 0.773848
O O10 0.183100 0.500000 0.133613
O O11 0.364049 0.358093 0.149422
O O12 0.000000 0.299323 0.000000
O O13 0.250000 0.750000 0.000000
#
# Coordination Sequence:
#
# PCOD8115339 Si02
#       6
#     4   4   4   8   8   8
#     4  12  24  42  69 102 142 183 229 285 351 418
#     4  12  28  52  73  98 130 191 248 293 349 428
#     4  12  26  48  70 100 140 176 236 301 353 417
#     4  12  25  46  73 102 139 187 232 291 359 418
#     4  11  23  41  65 101 146 186 226 278 347 426
#     4  12  24  38  65 104 144 181 223 281 347 424
#
# _framework density 21.253928999999999
#
# number of rings (size 3 to 8) (size 9 to 14) (size 15 to 20)
#    0.000    0.222    5.556    4.667    3.111    0.000 
#    0.000    0.556    0.000    0.000    0.000    0.000 
#    0.000    0.000    0.000    0.000    0.000    0.000 
#
# Total GULP energy -223201.868050 kJ/mol
# GULP energy per Si atom -12400.103781 kJ/mol
# Density = 2.120555 g / cm^3
# Si number density = 21.253929 Si / 1000 Ang^3
#
#
#
# Elastic Constant Matrix: (Units=GPa)
#
#
# Indices 1 2 3 4 5 6 
#
# 1 129.8390 41.8306 44.0459 0.0001 15.6287 0.0001
# 2 41.8306 150.8541 40.9149 0.0001 0.9272 0.0000
# 3 44.0459 40.9149 111.2509 -0.0010 19.3557 -0.0003
# 4 0.0001 0.0001 -0.0010 13.4196 0.0000 12.1941
# 5 15.6287 0.9272 19.3557 0.0000 48.7662 -0.0001
# 6 0.0001 0.0000 -0.0003 12.1941 -0.0001 31.0711
#
#
#
# Elastic Compliance Matrix: (Units=1/GPa)
#
#
# Indices 1 2 3 4 5 6 
#
# 1 0.009460 -0.001873 -0.002723 0.000000 -0.001915 0.000000
# 2 -0.001873 0.007780 -0.002362 0.000000 0.001390 0.000000
# 3 -0.002723 -0.002362 0.011575 0.000001 -0.003677 0.000000
# 4 0.000000 0.000000 0.000001 0.115822 0.000000 -0.045455
# 5 -0.001915 0.001390 -0.003677 0.000000 0.022553 0.000000
# 6 0.000000 0.000000 0.000000 -0.045455 0.000000 0.050024
#
#
# Mechanical properties :
#
#
# Convention : Reuss Voigt Hill
#
# Bulk Modulus (GPa) = 67.11592 71.72521 69.42056
# Shear Modulus (GPa) = 21.17792 36.32821 28.75307
#
# Velocity S-wave (km/s) = 3.16004 4.13879 3.68208
# Velocity P-wave (km/s) = 6.70531 7.52725 7.12814
#
# Compressibility (1/GPa) = 0.01489960
#
# Stress axis : x y z
#
# Youngs Moduli (GPa) = 105.71364 128.53147 86.39246
#
# Poissons Ratio (x) = 0.24070 0.23527
# Poissons Ratio (y) = 0.19797 0.20403
# Poissons Ratio (z) = 0.28788 0.30355
#
# Static dielectric constant tensor:
#      x y z
#    x 4.033110 0.000000 0.027390 
#    y 0.000000 4.112180 0.000000 
#    z 0.027390 0.000000 3.795010 
# 
# 
# High freq. dielectric constant tensor:
#      x y z
#    x 1.845600 0.000000 0.007530 
#    y 0.000000 1.853760 0.000000 
#    z 0.007530 0.000000 1.827060 
# 
# From -- ./inp_files/175478.got.cif
#   From: 2010.06.25/outbox.cif.g09.slc.cpg/sg12_88_cif.got.tgz:175478.got - 2010.06.28 00:19:55.
