data_PCOD8115559
_publ_section_title
;
Structure prediction by ZEFSAII (Michael W. Deem and Ramdas Pophale) SiO2 
 PCOD8115559
Probable space group: C 2/M
;
_chemical_formula_sum "Si O2"
_cell_formula_units_Z 40
_cell_length_a 9.839181
_cell_length_b 8.934292
_cell_length_c 21.934201
_cell_angle_alpha 90.000000
_cell_angle_beta 83.015328
_cell_angle_gamma 90.000000
_cell_volume 1913.841074
_symmetry_space_group_name_H-M "C 2/M"
_symmetry_group_IT_number 12
_symmetry_cell_setting 'monoclinic'
loop_
_space_group_symop_operation_xyz
x,y,z
-x,y,-z
-x,-y,-z
x,-y,z
1/2+x,1/2+y,z
1/2-x,1/2+y,-z
1/2-x,1/2-y,-z
1/2+x,1/2-y,z
loop_
_atom_site_type_symbol
_atom_site_label
_atom_site_fract_x
_atom_site_fract_y
_atom_site_fract_z
Si Si1 0.815155 0.827562 0.438471
Si Si2 0.066003 0.327652 0.365340
Si Si3 0.678008 0.172473 0.832827
Si Si4 0.466445 0.327388 0.760688
Si Si5 0.853652 0.169333 0.038675
O O1 0.750000 0.750000 0.500000
O O2 0.716079 0.811378 0.385879
O O3 0.957941 0.748424 0.416273
O O4 0.843117 0.000000 0.452599
O O5 0.024399 0.500000 0.358748
O O6 0.071750 0.246978 0.300651
O O7 0.598901 0.249558 0.781681
O O8 0.839926 0.190458 0.813871
O O9 0.636417 0.248385 0.897832
O O10 0.634438 0.000000 0.837853
O O11 0.501873 0.500000 0.746787
O O12 0.803701 0.000000 0.052393
O O13 0.750000 0.250000 0.000000
O O14 0.000000 0.172388 0.000000
#
# Coordination Sequence:
#
# PCOD8115559 Si02
#       5
#     8   8   8   8   8
#     4  11  24  41  63  91 123 160 202 249 301 357
#     4  11  24  41  62  90 122 158 202 248 298 358
#     4  11  24  41  63  91 122 159 202 248 301 359
#     4  11  24  41  62  90 122 157 200 248 299 357
#     4  11  24  41  62  90 123 159 202 250 300 358
#
# _framework density 20.900378
#
# number of rings (size 3 to 8) (size 9 to 14) (size 15 to 20)
#    0.000    1.000    0.000    6.000    0.000   18.400 
#    0.000    0.000    0.000    0.000    0.000    0.000 
#    0.000    0.000    0.000    0.000    0.000    0.000 
#
# Total GULP energy -248170.667406 kJ/mol
# GULP energy per Si atom -12408.533370 kJ/mol
# Density = 2.085281 g / cm^3
# Si number density = 20.900378 Si / 1000 Ang^3
#
#
#
# Elastic Constant Matrix: (Units=GPa)
#
#
# Indices 1 2 3 4 5 6 
#
# 1 61.9736 37.2698 -8.4392 0.0000 6.2117 0.0000
# 2 37.2698 175.6419 42.5275 0.0000 4.2575 0.0000
# 3 -8.4392 42.5275 91.7945 0.0000 5.1298 0.0000
# 4 0.0000 0.0000 0.0000 45.5127 0.0000 1.9781
# 5 6.2117 4.2575 5.1298 0.0000 37.5903 0.0000
# 6 0.0000 0.0000 0.0000 1.9781 0.0000 36.3990
#
#
#
# Elastic Compliance Matrix: (Units=1/GPa)
#
#
# Indices 1 2 3 4 5 6 
#
# 1 0.020285 -0.005316 0.004516 0.000000 -0.003366 0.000000
# 2 -0.005316 0.007810 -0.004138 0.000000 0.000559 0.000000
# 3 0.004516 -0.004138 0.013344 0.000000 -0.002098 0.000000
# 4 0.000000 0.000000 0.000000 0.022024 0.000000 -0.001197
# 5 -0.003366 0.000559 -0.002098 0.000000 0.027382 0.000000
# 6 0.000000 0.000000 0.000000 -0.001197 0.000000 0.027538
#
#
# Mechanical properties :
#
#
# Convention : Reuss Voigt Hill
#
# Bulk Modulus (GPa) = 31.68375 52.45848 42.07111
# Shear Modulus (GPa) = 36.02811 41.10385 38.56598
#
# Velocity S-wave (km/s) = 4.15637 4.43951 4.30027
# Velocity P-wave (km/s) = 6.18274 7.17167 6.69548
#
# Compressibility (1/GPa) = 0.03156192
#
# Stress axis : x y z
#
# Youngs Moduli (GPa) = 49.29667 128.04271 74.94255
#
# Poissons Ratio (x) = 0.68071 -0.33844
# Poissons Ratio (y) = 0.26207 0.31013
# Poissons Ratio (z) = -0.22262 0.52987
#
# Static dielectric constant tensor:
#      x y z
#    x 4.262960 0.000000 -0.128560 
#    y 0.000000 4.117600 0.000000 
#    z -0.128560 0.000000 3.742390 
# 
# 
# High freq. dielectric constant tensor:
#      x y z
#    x 1.829500 0.000000 0.000810 
#    y 0.000000 1.839400 0.000000 
#    z 0.000810 0.000000 1.832700 
# 
# From -- ./inp_files/331751.got.cif
#   From: 2010.06.25/outbox.cif.g09.slc.cpg/sg12_166_cif.got.tgz:331751.got - 2010.06.28 00:19:55.
