data_PCOD8115280
_publ_section_title
;
Structure prediction by ZEFSAII (Michael W. Deem and Ramdas Pophale) SiO2 
 PCOD8115280
Probable space group: C 2/M
;
_chemical_formula_sum "Si O2"
_cell_formula_units_Z 64
_cell_length_a 12.304772
_cell_length_b 16.461963
_cell_length_c 28.605643
_cell_angle_alpha 90.000000
_cell_angle_beta 149.341277
_cell_angle_gamma 90.000000
_cell_volume 2954.689097
_symmetry_space_group_name_H-M "C 2/M"
_symmetry_group_IT_number 12
_symmetry_cell_setting 'monoclinic'
loop_
_space_group_symop_operation_xyz
x,y,z
-x,y,-z
-x,-y,-z
x,-y,z
1/2+x,1/2+y,z
1/2-x,1/2+y,-z
1/2-x,1/2-y,-z
1/2+x,1/2-y,z
loop_
_atom_site_type_symbol
_atom_site_label
_atom_site_fract_x
_atom_site_fract_y
_atom_site_fract_z
Si Si1 0.358272 0.905626 0.991924
Si Si2 0.978259 0.904357 0.727414
Si Si3 0.397923 0.157864 0.834252
Si Si4 0.778397 0.683319 0.437022
Si Si5 0.181600 0.907849 0.487017
Si Si6 0.549455 0.156224 0.335496
Si Si7 0.305130 0.907685 0.702562
Si Si8 0.906988 0.840300 0.800244
O O1 0.107770 0.892328 0.891773
O O2 0.408393 0.000000 0.017562
O O3 0.500000 0.873545 0.000000
O O4 0.407883 0.859214 0.058681
O O5 0.797248 0.894911 0.620910
O O6 0.192799 0.862460 0.789177
O O7 0.900853 0.850468 0.742323
O O8 0.011942 0.000000 0.751757
O O9 0.399438 0.100358 0.789403
O O10 0.420299 0.248455 0.823107
O O11 0.817338 0.652319 0.504118
O O12 0.591488 0.750330 0.365114
O O13 0.000000 0.719916 0.500000
O O14 0.269044 0.898070 0.571932
O O15 0.939079 0.879018 0.391115
O O16 0.207322 0.000000 0.479998
O O17 0.563465 0.147233 0.284925
O O18 0.316149 0.124497 0.263521
O O19 0.326484 0.000000 0.694176
#
# Coordination Sequence:
#
# PCOD8115280 Si02
#       8
#     8   8   8   8   8   8   8   8
#     4  11  24  45  76 108 138 177 230 289 355 421
#     4  12  24  44  73 103 140 186 238 293 352 410
#     4  12  24  46  72 102 139 180 232 287 348 419
#     4  12  24  40  64  96 139 182 237 296 350 404
#     4  11  23  40  62  93 133 182 239 287 342 412
#     4  12  25  43  63  98 142 188 228 284 353 421
#     4  11  23  41  67  95 134 185 236 281 341 422
#     4  12  26  44  71 104 141 180 229 291 346 418
#
# _framework density 21.660485999999999
#
# number of rings (size 3 to 8) (size 9 to 14) (size 15 to 20)
#    0.000    0.375    3.750    5.625    0.000    5.000 
#    0.000    0.625    0.000    1.500    0.000    0.000 
#    0.000    0.000    0.000    0.000    0.000    0.000 
#
# Total GULP energy -396829.623312 kJ/mol
# GULP energy per Si atom -12400.925729 kJ/mol
# Density = 2.161119 g / cm^3
# Si number density = 21.660486 Si / 1000 Ang^3
#
#
#
# Elastic Constant Matrix: (Units=GPa)
#
#
# Indices 1 2 3 4 5 6 
#
# 1 140.1937 40.8836 40.0580 0.0000 -2.8675 0.0000
# 2 40.8836 92.5848 11.1075 0.0001 0.4458 0.0000
# 3 40.0580 11.1075 100.3881 -0.0006 -8.3172 -0.0002
# 4 0.0000 0.0001 -0.0006 32.9361 -0.0001 -4.7429
# 5 -2.8675 0.4458 -8.3172 -0.0001 33.4378 0.0000
# 6 0.0000 0.0000 -0.0002 -4.7429 0.0000 36.2931
#
#
#
# Elastic Compliance Matrix: (Units=1/GPa)
#
#
# Indices 1 2 3 4 5 6 
#
# 1 0.009119 -0.003639 -0.003234 0.000000 0.000026 0.000000
# 2 -0.003639 0.012405 0.000041 0.000000 -0.000467 0.000000
# 3 -0.003234 0.000041 0.011460 0.000000 0.002573 0.000000
# 4 0.000000 0.000000 0.000000 0.030944 0.000000 0.004044
# 5 0.000026 -0.000467 0.002573 0.000000 0.030555 0.000000
# 6 0.000000 0.000000 0.000000 0.004044 0.000000 0.028082
#
#
# Mechanical properties :
#
#
# Convention : Reuss Voigt Hill
#
# Bulk Modulus (GPa) = 51.75903 57.47387 54.61645
# Shear Modulus (GPa) = 35.04615 36.60788 35.82702
#
# Velocity S-wave (km/s) = 4.02677 4.11551 4.07138
# Velocity P-wave (km/s) = 6.75036 7.01248 6.88267
#
# Compressibility (1/GPa) = 0.01932030
#
# Stress axis : x y z
#
# Youngs Moduli (GPa) = 109.66478 80.61203 87.25695
#
# Poissons Ratio (x) = 0.29333 0.28218
# Poissons Ratio (y) = 0.39905 -0.00355
# Poissons Ratio (z) = 0.35464 -0.00328
#
# Static dielectric constant tensor:
#      x y z
#    x 3.995820 0.000000 -0.154240 
#    y 0.000000 3.830370 0.000000 
#    z -0.154240 0.000000 4.018740 
# 
# 
# High freq. dielectric constant tensor:
#      x y z
#    x 1.857860 0.000000 -0.010840 
#    y 0.000000 1.850530 0.000000 
#    z -0.010840 0.000000 1.848990 
# 
# From -- ./inp_files/374495.got.cif
#   From: 2010.06.25/outbox.cif.g09.slc.cpg/sg12_188_cif.got.tgz:374495.got - 2010.06.28 00:19:55.
