data_PCOD8115229
_publ_section_title
;
Structure prediction by ZEFSAII (Michael W. Deem and Ramdas Pophale) SiO2 
 PCOD8115229
Probable space group: C 2/M
;
_chemical_formula_sum "Si O2"
_cell_formula_units_Z 48
_cell_length_a 27.737655
_cell_length_b 15.123153
_cell_length_c 12.594992
_cell_angle_alpha 90.000000
_cell_angle_beta 26.327470
_cell_angle_gamma 90.000000
_cell_volume 2343.174009
_symmetry_space_group_name_H-M "C 2/M"
_symmetry_group_IT_number 12
_symmetry_cell_setting 'monoclinic'
loop_
_space_group_symop_operation_xyz
x,y,z
-x,y,-z
-x,-y,-z
x,-y,z
1/2+x,1/2+y,z
1/2-x,1/2+y,-z
1/2-x,1/2-y,-z
1/2+x,1/2-y,z
loop_
_atom_site_type_symbol
_atom_site_label
_atom_site_fract_x
_atom_site_fract_y
_atom_site_fract_z
Si Si1 0.061283 0.500000 0.139851
Si Si2 0.230634 0.326529 0.124514
Si Si3 0.276205 0.000000 0.371156
Si Si4 0.218640 0.332501 0.493960
Si Si5 0.945088 0.317308 0.356457
Si Si6 0.470598 0.500000 0.185919
Si Si7 0.599108 0.655826 0.039055
Si Si8 0.871388 0.500000 0.772478
O O1 0.148897 0.500000 0.061391
O O2 0.983245 0.415960 0.306029
O O3 0.127160 0.500000 0.902532
O O4 0.143786 0.287887 0.380592
O O5 0.342058 0.358226 0.963134
O O6 0.183216 0.412762 0.164110
O O7 0.250000 0.250000 0.000000
O O8 0.294069 0.915385 0.406590
O O9 0.158868 0.000000 0.547658
O O10 0.250000 0.250000 0.500000
O O11 0.104693 0.313671 0.662663
O O12 0.309975 0.351100 0.228571
O O13 0.046421 0.251831 0.153990
O O14 0.500000 0.500000 0.000000
O O15 0.511391 0.583905 0.173604
O O16 0.000000 0.500000 0.500000
#
# Coordination Sequence:
#
# PCOD8115229 Si02
#       8
#     4   8   4   8   8   4   8   4
#     4  12  25  42  67 100 131 169 231 287 345 410
#     4  11  25  44  71 103 138 179 237 296 349 417
#     4  12  25  40  63  98 131 171 229 285 334 410
#     4  11  23  39  60  90 129 173 219 268 336 407
#     4  11  24  42  66  97 135 178 228 284 344 417
#     4  12  23  43  67  89 135 188 224 277 350 413
#     4  11  24  41  65  95 130 179 230 272 347 422
#     4  12  23  45  75  95 135 186 228 281 361 411
#
# _framework density 20.485033999999999
#
# number of rings (size 3 to 8) (size 9 to 14) (size 15 to 20)
#    0.000    0.667    3.333    4.000    0.000    9.333 
#    0.000    0.000    0.000    3.000    0.000    0.000 
#    0.000    0.000    0.000    0.000    0.000    0.000 
#
# Total GULP energy -297594.349558 kJ/mol
# GULP energy per Si atom -12399.764565 kJ/mol
# Density = 2.043841 g / cm^3
# Si number density = 20.485034 Si / 1000 Ang^3
#
#
#
# Elastic Constant Matrix: (Units=GPa)
#
#
# Indices 1 2 3 4 5 6 
#
# 1 182.7947 76.0807 44.3501 0.0000 -6.0121 0.0000
# 2 76.0807 145.9338 32.7513 0.0000 3.8488 0.0000
# 3 44.3501 32.7513 84.6133 0.0000 0.4081 0.0000
# 4 0.0000 0.0000 0.0000 35.9035 0.0000 -19.3297
# 5 -6.0121 3.8488 0.4081 0.0000 33.1612 0.0000
# 6 0.0000 0.0000 0.0000 -19.3297 0.0000 74.3236
#
#
#
# Elastic Compliance Matrix: (Units=1/GPa)
#
#
# Indices 1 2 3 4 5 6 
#
# 1 0.007597 -0.003409 -0.002671 0.000000 0.001806 0.000000
# 2 -0.003409 0.009057 -0.001711 0.000000 -0.001648 0.000000
# 3 -0.002671 -0.001711 0.013883 0.000000 -0.000457 0.000000
# 4 0.000000 0.000000 0.000000 0.032387 0.000000 0.008423
# 5 0.001806 -0.001648 -0.000457 0.000000 0.030680 0.000000
# 6 0.000000 0.000000 0.000000 0.008423 0.000000 0.015645
#
#
# Mechanical properties :
#
#
# Convention : Reuss Voigt Hill
#
# Bulk Modulus (GPa) = 66.86726 79.96734 73.41730
# Shear Modulus (GPa) = 38.51597 46.02164 42.26881
#
# Velocity S-wave (km/s) = 4.34083 4.74497 4.54739
# Velocity P-wave (km/s) = 7.60504 8.31513 7.96800
#
# Compressibility (1/GPa) = 0.01495500
#
# Stress axis : x y z
#
# Youngs Moduli (GPa) = 131.63436 110.41245 72.03006
#
# Poissons Ratio (x) = 0.37636 0.19241
# Poissons Ratio (y) = 0.44869 0.12325
# Poissons Ratio (z) = 0.35162 0.18893
#
# Static dielectric constant tensor:
#      x y z
#    x 4.403590 0.000000 -0.020630 
#    y 0.000000 3.767370 0.000000 
#    z -0.020630 0.000000 3.707740 
# 
# 
# High freq. dielectric constant tensor:
#      x y z
#    x 1.828470 0.000000 -0.004920 
#    y 0.000000 1.811940 0.000000 
#    z -0.004920 0.000000 1.797930 
# 
# From -- ./inp_files/183719.got.cif
#   From: 2010.06.25/outbox.cif.g09.slc.cpg/sg12_92_cif.got.tgz:183719.got - 2010.06.28 00:19:55.
