data_PCOD8115429
_publ_section_title
;
Structure prediction by ZEFSAII (Michael W. Deem and Ramdas Pophale) SiO2 
 PCOD8115429
Probable space group: C 2/M
;
_chemical_formula_sum "Si O2"
_cell_formula_units_Z 44
_cell_length_a 16.667707
_cell_length_b 27.817206
_cell_length_c 7.541217
_cell_angle_alpha 90.000000
_cell_angle_beta 39.624587
_cell_angle_gamma 90.000000
_cell_volume 2229.894858
_symmetry_space_group_name_H-M "C 2/M"
_symmetry_group_IT_number 12
_symmetry_cell_setting 'monoclinic'
loop_
_space_group_symop_operation_xyz
x,y,z
-x,y,-z
-x,-y,-z
x,-y,z
1/2+x,1/2+y,z
1/2-x,1/2+y,-z
1/2-x,1/2-y,-z
1/2+x,1/2-y,z
loop_
_atom_site_type_symbol
_atom_site_label
_atom_site_fract_x
_atom_site_fract_y
_atom_site_fract_z
Si Si1 0.500000 0.129944 0.500000
Si Si2 0.928117 0.552917 0.859730
Si Si3 0.698004 0.197246 0.285483
Si Si4 0.143831 0.853601 0.701417
Si Si5 0.299520 0.053377 0.440193
Si Si6 0.862023 0.194565 0.660366
O O1 0.399231 0.095026 0.769379
O O2 0.575901 0.163171 0.508442
O O3 0.917608 0.500000 0.789478
O O4 0.070411 0.562117 0.680984
O O5 0.826450 0.556671 0.186134
O O6 0.790050 0.186981 0.291817
O O7 0.649133 0.251195 0.390096
O O8 0.761297 0.186441 0.987397
O O9 0.198484 0.905951 0.659286
O O10 0.164539 0.841026 0.459252
O O11 0.000000 0.853793 0.000000
O O12 0.245805 0.000000 0.577320
O O13 0.000000 0.184150 0.500000
#
# Coordination Sequence:
#
# PCOD8115429 Si02
#       6
#     4   8   8   8   8   8
#     4  12  19  34  60  90 118 146 193 246 290 344
#     4   9  18  33  57  85 119 150 184 240 297 344
#     4  11  24  40  60  90 119 152 195 242 290 345
#     4  12  23  40  64  85 116 159 199 234 287 350
#     4   9  19  37  56  83 117 151 191 239 290 343
#     4  11  23  43  60  84 122 156 193 242 290 342
#
# _framework density 19.731871000000002
#
# number of rings (size 3 to 8) (size 9 to 14) (size 15 to 20)
#    0.000    1.455    4.545    3.000    0.000    0.364 
#    0.000    0.000    0.000    0.545    0.000    0.000 
#    0.000    0.000    0.000    0.000    0.000    0.000 
#
# Total GULP energy -272759.460574 kJ/mol
# GULP energy per Si atom -12398.157299 kJ/mol
# Density = 1.968696 g / cm^3
# Si number density = 19.731871 Si / 1000 Ang^3
#
#
#
# Elastic Constant Matrix: (Units=GPa)
#
#
# Indices 1 2 3 4 5 6 
#
# 1 70.6198 24.1311 6.2152 0.0000 -0.7880 0.0000
# 2 24.1311 102.4836 4.7653 0.0000 -3.5228 0.0000
# 3 6.2152 4.7653 34.5213 0.0000 2.2563 0.0000
# 4 0.0000 0.0000 0.0000 18.8576 0.0000 3.3503
# 5 -0.7880 -3.5228 2.2563 0.0000 30.5444 0.0000
# 6 0.0000 0.0000 0.0000 3.3503 0.0000 25.7615
#
#
#
# Elastic Compliance Matrix: (Units=1/GPa)
#
#
# Indices 1 2 3 4 5 6 
#
# 1 0.015582 -0.003555 -0.002325 0.000000 0.000164 0.000000
# 2 -0.003555 0.010679 -0.000913 0.000000 0.001207 0.000000
# 3 -0.002325 -0.000913 0.029666 0.000000 -0.002357 0.000000
# 4 0.000000 0.000000 0.000000 0.054283 0.000000 -0.007060
# 5 0.000164 0.001207 -0.002357 0.000000 0.033057 0.000000
# 6 0.000000 0.000000 0.000000 -0.007060 0.000000 0.039736
#
#
# Mechanical properties :
#
#
# Convention : Reuss Voigt Hill
#
# Bulk Modulus (GPa) = 23.61833 30.87197 27.24515
# Shear Modulus (GPa) = 23.73014 26.53356 25.13185
#
# Velocity S-wave (km/s) = 3.47166 3.67100 3.57272
# Velocity P-wave (km/s) = 5.29769 5.80069 5.55489
#
# Compressibility (1/GPa) = 0.04234000
#
# Stress axis : x y z
#
# Youngs Moduli (GPa) = 64.17816 93.64420 33.70828
#
# Poissons Ratio (x) = 0.33292 0.07838
# Poissons Ratio (y) = 0.22816 0.03077
# Poissons Ratio (z) = 0.14923 0.08549
#
# Static dielectric constant tensor:
#      x y z
#    x 3.528810 0.000000 0.136280 
#    y 0.000000 3.746720 0.000000 
#    z 0.136280 0.000000 3.414490 
# 
# 
# High freq. dielectric constant tensor:
#      x y z
#    x 1.762500 0.000000 0.009710 
#    y 0.000000 1.783840 0.000000 
#    z 0.009710 0.000000 1.751760 
# 
# From -- ./inp_files/78995.got.cif
#   From: 2010.06.25/outbox.cif.g09.slc.cpg/sg12_40_cif.got.tgz:78995.got - 2010.06.28 00:19:55.
