data_PCOD8115405
_publ_section_title
;
Structure prediction by ZEFSAII (Michael W. Deem and Ramdas Pophale) SiO2 
 PCOD8115405
Probable space group: C 2/M
;
_chemical_formula_sum "Si O2"
_cell_formula_units_Z 48
_cell_length_a 8.937654
_cell_length_b 16.721067
_cell_length_c 24.909758
_cell_angle_alpha 90.000000
_cell_angle_beta 141.847373
_cell_angle_gamma 90.000000
_cell_volume 2299.723966
_symmetry_space_group_name_H-M "C 2/M"
_symmetry_group_IT_number 12
_symmetry_cell_setting 'monoclinic'
loop_
_space_group_symop_operation_xyz
x,y,z
-x,y,-z
-x,-y,-z
x,-y,z
1/2+x,1/2+y,z
1/2-x,1/2+y,-z
1/2-x,1/2-y,-z
1/2+x,1/2-y,z
loop_
_atom_site_type_symbol
_atom_site_label
_atom_site_fract_x
_atom_site_fract_y
_atom_site_fract_z
Si Si1 0.815765 0.090312 0.813406
Si Si2 0.549815 0.202893 0.229046
Si Si3 0.468875 0.590226 0.337209
Si Si4 0.681841 0.336049 0.502206
Si Si5 0.734541 0.298442 0.941568
Si Si6 0.781591 0.637866 0.329086
O O1 0.605745 0.150091 0.773596
O O2 0.825976 0.090551 0.751872
O O3 0.073635 0.122948 0.906937
O O4 0.776846 0.000000 0.823844
O O5 0.380230 0.242000 0.136467
O O6 0.697855 0.269273 0.304396
O O7 0.746254 0.146188 0.255673
O O8 0.372963 0.500000 0.310440
O O9 0.559054 0.610604 0.422057
O O10 0.687360 0.599252 0.357214
O O11 0.500000 0.328436 0.500000
O O12 0.750000 0.250000 0.500000
O O13 0.931003 0.375699 0.592021
O O14 0.750000 0.250000 0.000000
O O15 0.000000 0.327764 0.000000
#
# Coordination Sequence:
#
# PCOD8115405 Si02
#       6
#     8   8   8   8   8   8
#     4  11  24  42  66  98 134 169 213 271 329 379
#     4  11  23  42  69  93 131 177 217 263 322 397
#     4  12  26  42  66 101 135 171 219 276 328 378
#     4  12  25  42  68  96 129 177 226 270 320 387
#     4  11  23  44  70  97 126 169 217 263 318 396
#     4  11  23  42  68  95 131 178 221 264 320 393
#
# _framework density 20.872069
#
# number of rings (size 3 to 8) (size 9 to 14) (size 15 to 20)
#    0.000    0.667    3.333    5.500    2.333    2.667 
#    0.000    2.500    0.000    0.000    0.000    0.000 
#    0.000    0.000    0.000    0.000    0.000    0.000 
#
# Total GULP energy -297720.597694 kJ/mol
# GULP energy per Si atom -12405.024904 kJ/mol
# Density = 2.082456 g / cm^3
# Si number density = 20.872069 Si / 1000 Ang^3
#
#
#
# Elastic Constant Matrix: (Units=GPa)
#
#
# Indices 1 2 3 4 5 6 
#
# 1 130.2392 20.6362 35.0957 -0.0001 8.1133 -0.0001
# 2 20.6362 121.0013 25.5087 -0.0001 5.0580 0.0000
# 3 35.0957 25.5087 99.4817 -0.0017 14.0559 -0.0002
# 4 -0.0001 -0.0001 -0.0017 18.9004 -0.0005 0.8159
# 5 8.1133 5.0580 14.0559 -0.0005 45.7288 -0.0001
# 6 -0.0001 0.0000 -0.0002 0.8159 -0.0001 24.3210
#
#
#
# Elastic Compliance Matrix: (Units=1/GPa)
#
#
# Indices 1 2 3 4 5 6 
#
# 1 0.008586 -0.000865 -0.002724 0.000000 -0.000590 0.000000
# 2 -0.000865 0.008828 -0.001926 0.000000 -0.000231 0.000000
# 3 -0.002724 -0.001926 0.011926 0.000001 -0.002970 0.000000
# 4 0.000000 0.000000 0.000001 0.052986 0.000000 -0.001778
# 5 -0.000590 -0.000231 -0.002970 0.000000 0.022911 0.000000
# 6 0.000000 0.000000 0.000000 -0.001778 0.000000 0.041176
#
#
# Mechanical properties :
#
#
# Convention : Reuss Voigt Hill
#
# Bulk Modulus (GPa) = 54.61347 57.02258 55.81802
# Shear Modulus (GPa) = 30.57245 35.75550 33.16397
#
# Velocity S-wave (km/s) = 3.83136 4.14343 3.99045
# Velocity P-wave (km/s) = 6.76721 7.09013 6.93055
#
# Compressibility (1/GPa) = 0.01831050
#
# Stress axis : x y z
#
# Youngs Moduli (GPa) = 116.46807 113.28152 83.84824
#
# Poissons Ratio (x) = 0.09804 0.22838
# Poissons Ratio (y) = 0.10080 0.16146
# Poissons Ratio (z) = 0.31722 0.21813
#
# Static dielectric constant tensor:
#      x y z
#    x 3.893240 0.000000 0.066250 
#    y 0.000000 3.850220 0.000000 
#    z 0.066250 0.000000 3.619020 
# 
# 
# High freq. dielectric constant tensor:
#      x y z
#    x 1.830430 0.000000 0.008240 
#    y 0.000000 1.811870 0.000000 
#    z 0.008240 0.000000 1.822500 
# 
# From -- ./inp_files/356363.got.cif
#   From: 2010.06.25/outbox.cif.g09.slc.cpg/sg12_179_cif.got.tgz:356363.got - 2010.06.28 00:19:55.
