data_PCOD8115159
_publ_section_title
;
Structure prediction by ZEFSAII (Michael W. Deem and Ramdas Pophale) SiO2 
 PCOD8115159
Probable space group: C 2/M
;
_chemical_formula_sum "Si O2"
_cell_formula_units_Z 56
_cell_length_a 9.145660
_cell_length_b 18.550555
_cell_length_c 25.473655
_cell_angle_alpha 90.000000
_cell_angle_beta 44.107309
_cell_angle_gamma 90.000000
_cell_volume 3007.981819
_symmetry_space_group_name_H-M "C 2/M"
_symmetry_group_IT_number 12
_symmetry_cell_setting 'monoclinic'
loop_
_space_group_symop_operation_xyz
x,y,z
-x,y,-z
-x,-y,-z
x,-y,z
1/2+x,1/2+y,z
1/2-x,1/2+y,-z
1/2-x,1/2-y,-z
1/2+x,1/2-y,z
loop_
_atom_site_type_symbol
_atom_site_label
_atom_site_fract_x
_atom_site_fract_y
_atom_site_fract_z
Si Si1 0.665146 0.085771 0.499995
Si Si2 0.243788 0.174127 0.791889
Si Si3 0.876748 0.917165 0.646798
Si Si4 0.463920 0.082835 0.353210
Si Si5 0.507578 0.082800 0.912513
Si Si6 0.657642 0.582799 0.087487
Si Si7 0.911372 0.325869 0.208107
O O1 0.500000 0.114469 0.500000
O O2 0.594719 0.115148 0.574860
O O3 0.894168 0.115147 0.425127
O O4 0.673797 0.000000 0.499996
O O5 0.342166 0.127223 0.719757
O O6 0.181024 0.249997 0.784480
O O7 0.405629 0.185570 0.797180
O O8 0.041850 0.133768 0.866722
O O9 0.741497 0.909386 0.629253
O O10 0.778779 0.872774 0.719766
O O11 0.889643 0.000000 0.661934
O O12 0.537352 0.000000 0.338079
O O13 0.722167 0.097881 0.888913
O O14 0.491234 0.133773 0.866728
O O15 0.499801 0.000000 0.896013
O O16 0.309816 0.100756 0.000000
O O17 0.583868 0.500000 0.103987
#
# Coordination Sequence:
#
# PCOD8115159 Si02
#       7
#     8   8   8   8   8   8   8
#     4   9  17  29  50  81 108 131 167 215 264 313
#     4  11  23  37  54  78 109 145 183 221 265 317
#     4   9  18  34  55  77 103 136 174 217 265 316
#     4   9  18  34  55  77 103 136 174 217 265 316
#     4   9  19  37  60  84 109 138 174 218 268 319
#     4   9  19  37  60  84 109 138 174 218 268 319
#     4  11  23  37  54  78 109 145 183 221 265 317
#
# _framework density 18.617134
#
# number of rings (size 3 to 8) (size 9 to 14) (size 15 to 20)
#    0.000    2.429    0.000    3.000    0.000    6.857 
#    0.000    5.000    0.000    0.000    0.000    0.000 
#    0.000    0.000    0.000    0.000    0.000    0.000 
#
# Total GULP energy -347278.542494 kJ/mol
# GULP energy per Si atom -12402.805089 kJ/mol
# Density = 1.857476 g / cm^3
# Si number density = 18.617134 Si / 1000 Ang^3
#
#
#
# Elastic Constant Matrix: (Units=GPa)
#
#
# Indices 1 2 3 4 5 6 
#
# 1 91.5595 56.3065 68.8554 0.0155 3.3806 0.0020
# 2 56.3065 97.6863 68.4018 0.0187 0.9329 -0.0045
# 3 68.8554 68.4018 128.7506 0.0331 -0.5008 -0.0098
# 4 0.0155 0.0187 0.0331 2.4575 -0.0011 0.4174
# 5 3.3806 0.9329 -0.5008 -0.0011 32.8318 0.0103
# 6 0.0020 -0.0045 -0.0098 0.4174 0.0103 -2.8683
#
#
#
# Elastic Compliance Matrix: (Units=1/GPa)
#
#
# Indices 1 2 3 4 5 6 
#
# 1 0.020804 -0.006649 -0.007601 0.000013 -0.002069 0.000045
# 2 -0.006649 0.018437 -0.006239 -0.000012 0.000066 -0.000014
# 3 -0.007601 -0.006239 0.015152 -0.000098 0.001191 -0.000057
# 4 0.000013 -0.000012 -0.000098 0.397104 -0.000008 0.057781
# 5 -0.002069 0.000066 0.001191 -0.000008 0.030688 0.000104
# 6 0.000045 -0.000014 -0.000057 0.057781 0.000104 -0.340230
#
#
# Mechanical properties :
#
#
# Convention : Reuss Voigt Hill
#
# Bulk Modulus (GPa) = 74.55121 78.34709 76.44915
# Shear Modulus (GPa) = 26.68033 14.77972 20.73002
#
# Velocity S-wave (km/s) = 3.78975 2.82064 3.34052
# Velocity P-wave (km/s) = 7.69941 7.26517 7.48544
#
# Compressibility (1/GPa) = 0.01341360
#
# Stress axis : x y z
#
# Youngs Moduli (GPa) = 48.06878 54.23731 65.99959
#
# Poissons Ratio (x) = 0.36061 0.50169
# Poissons Ratio (y) = 0.31960 0.41179
# Poissons Ratio (z) = 0.36539 0.33841
#
# Static dielectric constant tensor:
#      x y z
#    x 3.411620 0.000000 0.007280 
#    y 0.000000 3.264740 0.000000 
#    z 0.007280 0.000000 3.505610 
# 
# 
# High freq. dielectric constant tensor:
#      x y z
#    x 1.725220 0.000000 0.000730 
#    y 0.000000 1.703810 0.000000 
#    z 0.000730 0.000000 1.734610 
# 
# From -- ./inp_files/257192.got.cif
#   From: 2010.06.25/outbox.cif.g09.slc.cpg/sg12_129_cif.got.tgz:257192.got - 2010.06.28 00:19:55.
