data_PCOD8115374
_publ_section_title
;
Structure prediction by ZEFSAII (Michael W. Deem and Ramdas Pophale) SiO2 
 PCOD8115374
Probable space group: C 2/M
;
_chemical_formula_sum "Si O2"
_cell_formula_units_Z 48
_cell_length_a 17.837077
_cell_length_b 14.288836
_cell_length_c 8.875426
_cell_angle_alpha 90.000000
_cell_angle_beta 82.978366
_cell_angle_gamma 90.000000
_cell_volume 2245.123780
_symmetry_space_group_name_H-M "C 2/M"
_symmetry_group_IT_number 12
_symmetry_cell_setting 'monoclinic'
loop_
_space_group_symop_operation_xyz
x,y,z
-x,y,-z
-x,-y,-z
x,-y,z
1/2+x,1/2+y,z
1/2-x,1/2+y,-z
1/2-x,1/2-y,-z
1/2+x,1/2-y,z
loop_
_atom_site_type_symbol
_atom_site_label
_atom_site_fract_x
_atom_site_fract_y
_atom_site_fract_z
Si Si1 0.851342 0.000000 0.280613
Si Si2 0.587238 0.000000 0.269486
Si Si3 0.039749 0.316499 0.144909
Si Si4 0.195915 0.500000 0.503032
Si Si5 0.048439 0.174358 0.631371
Si Si6 0.809064 0.312643 0.058421
Si Si7 0.318611 0.203519 0.395670
Si Si8 0.738498 0.000000 0.037663
O O1 0.776782 0.000000 0.401449
O O2 0.903859 0.090481 0.301841
O O3 0.817007 0.000000 0.117487
O O4 0.535879 0.091927 0.253211
O O5 0.618045 0.000000 0.429849
O O6 0.664307 0.000000 0.157279
O O7 0.005404 0.224028 0.231855
O O8 0.124790 0.299040 0.077459
O O9 0.000000 0.344290 0.000000
O O10 0.189406 0.592602 0.603086
O O11 0.105438 0.253325 0.550297
O O12 0.000000 0.136844 0.500000
O O13 0.826633 0.270699 0.218136
O O14 0.750000 0.250000 0.000000
O O15 0.769346 0.413651 0.074083
O O16 0.250000 0.250000 0.500000
#
# Coordination Sequence:
#
# PCOD8115374 Si02
#       8
#     4   4   8   4   8   8   8   4
#     4  11  23  46  67 100 139 181 227 280 328 407
#     4   9  21  39  68  98 131 171 213 282 341 400
#     4  11  23  43  67  98 138 176 218 280 348 398
#     4  11  23  41  70 100 135 171 232 279 334 398
#     4  12  26  44  69  99 142 183 224 275 344 406
#     4  11  24  42  70  99 131 174 230 281 335 402
#     4  12  25  43  70  99 135 177 227 283 334 402
#     4   9  21  40  68  98 129 169 226 280 335 391
#
# _framework density 21.379669
#
# number of rings (size 3 to 8) (size 9 to 14) (size 15 to 20)
#    0.000    1.000    3.333    3.000    7.000    0.667 
#    0.000    2.917    0.000    0.000    0.000    0.000 
#    0.000    0.000    0.000    0.000    0.000    0.000 
#
# Total GULP energy -297344.449213 kJ/mol
# GULP energy per Si atom -12389.352051 kJ/mol
# Density = 2.133101 g / cm^3
# Si number density = 21.379669 Si / 1000 Ang^3
#
#
#
# Elastic Constant Matrix: (Units=GPa)
#
#
# Indices 1 2 3 4 5 6 
#
# 1 115.6127 60.6900 34.2202 0.0000 11.2509 0.0000
# 2 60.6900 133.7450 22.7288 0.0000 -6.8783 0.0000
# 3 34.2202 22.7288 73.1253 0.0000 1.1700 0.0000
# 4 0.0000 0.0000 0.0000 32.9203 0.0000 3.9736
# 5 11.2509 -6.8783 1.1700 0.0000 35.0306 0.0000
# 6 0.0000 0.0000 0.0000 3.9736 0.0000 43.1140
#
#
#
# Elastic Compliance Matrix: (Units=1/GPa)
#
#
# Indices 1 2 3 4 5 6 
#
# 1 0.013422 -0.005604 -0.004455 0.000000 -0.005262 0.000000
# 2 -0.005604 0.010328 -0.000649 0.000000 0.003850 0.000000
# 3 -0.004455 -0.000649 0.015949 0.000000 0.000771 0.000000
# 4 0.000000 0.000000 0.000000 0.030718 0.000000 -0.002831
# 5 -0.005262 0.003850 0.000771 0.000000 0.030967 0.000000
# 6 0.000000 0.000000 0.000000 -0.002831 0.000000 0.023455
#
#
# Mechanical properties :
#
#
# Convention : Reuss Voigt Hill
#
# Bulk Modulus (GPa) = 54.69584 61.97344 58.33464
# Shear Modulus (GPa) = 32.81890 35.86925 34.34408
#
# Velocity S-wave (km/s) = 3.92222 4.10045 4.01233
# Velocity P-wave (km/s) = 6.79341 7.17414 6.98637
#
# Compressibility (1/GPa) = 0.01828293
#
# Stress axis : x y z
#
# Youngs Moduli (GPa) = 74.50351 96.82178 62.69819
#
# Poissons Ratio (x) = 0.54261 0.27932
# Poissons Ratio (y) = 0.41753 0.04071
# Poissons Ratio (z) = 0.33192 0.06286
#
# Static dielectric constant tensor:
#      x y z
#    x 3.974210 0.000000 0.215320 
#    y 0.000000 4.003460 0.000000 
#    z 0.215320 0.000000 3.675510 
# 
# 
# High freq. dielectric constant tensor:
#      x y z
#    x 1.851100 0.000000 0.013960 
#    y 0.000000 1.849020 0.000000 
#    z 0.013960 0.000000 1.830640 
# 
# From -- ./inp_files/73711.got.cif
#   From: 2010.06.25/outbox.cif.g09.slc.cpg/sg12_37_cif.got.tgz:73711.got - 2010.06.28 00:19:55.
