data_PCOD8115804
_publ_section_title
;
Structure prediction by ZEFSAII (Michael W. Deem and Ramdas Pophale) SiO2 
 PCOD8115804
Probable space group: C 2/M
;
_chemical_formula_sum "Si O2"
_cell_formula_units_Z 40
_cell_length_a 15.454520
_cell_length_b 9.428835
_cell_length_c 32.564390
_cell_angle_alpha 90.000000
_cell_angle_beta 25.924587
_cell_angle_gamma 90.000000
_cell_volume 2074.552876
_symmetry_space_group_name_H-M "C 2/M"
_symmetry_group_IT_number 12
_symmetry_cell_setting 'monoclinic'
loop_
_space_group_symop_operation_xyz
x,y,z
-x,y,-z
-x,-y,-z
x,-y,z
1/2+x,1/2+y,z
1/2-x,1/2+y,-z
1/2-x,1/2-y,-z
1/2+x,1/2-y,z
loop_
_atom_site_type_symbol
_atom_site_label
_atom_site_fract_x
_atom_site_fract_y
_atom_site_fract_z
Si Si1 0.673694 0.500000 0.159999
Si Si2 0.371788 0.740039 0.289811
Si Si3 0.499933 0.000000 0.365632
Si Si4 0.665395 0.268427 0.785583
Si Si5 0.081914 0.500000 0.870193
Si Si6 0.352527 0.500000 0.924515
Si Si7 0.239272 0.000000 0.399956
Si Si8 0.434640 0.000000 0.574362
O O1 0.557248 0.642731 0.223246
O O2 0.877662 0.500000 0.098105
O O3 0.709887 0.500000 0.096379
O O4 0.390963 0.796037 0.235030
O O5 0.338268 0.865088 0.336204
O O6 0.181134 0.643151 0.370316
O O7 0.634281 0.138941 0.299982
O O8 0.307763 0.000000 0.418270
O O9 0.418506 0.000000 0.448135
O O10 0.481507 0.362338 0.880062
O O11 0.689107 0.136791 0.805624
O O12 0.845856 0.500000 0.963357
O O13 0.000000 0.000000 0.500000
O O14 0.500000 0.000000 0.500000
#
# Coordination Sequence:
#
# PCOD8115804 Si02
#       8
#     4   8   4   8   4   4   4   4
#     4   9  19  34  53  72  99 140 175 203 247 309
#     4   9  19  36  52  70 101 137 170 204 256 313
#     4   9  20  38  54  72 105 142 171 204 263 322
#     4   9  19  35  54  73 101 141 174 204 251 310
#     4  12  18  28  53  85 101 124 177 223 242 288
#     4   9  19  34  49  74 110 138 161 208 264 297
#     4  12  22  34  52  81 108 130 164 224 272 300
#     4   9  17  36  58  72  93 134 175 212 252 304
#
# _framework density 19.281262999999999
#
# number of rings (size 3 to 8) (size 9 to 14) (size 15 to 20)
#    0.000    2.400    0.000    5.700    0.000    0.000 
#    0.000   13.000    0.000    0.000    0.000   16.800 
#    0.000    0.000    0.000    0.000    0.000    0.000 
#
# Total GULP energy -247782.444597 kJ/mol
# GULP energy per Si atom -12389.122230 kJ/mol
# Density = 1.923738 g / cm^3
# Si number density = 19.281263 Si / 1000 Ang^3
#
#
#
# Elastic Constant Matrix: (Units=GPa)
#
#
# Indices 1 2 3 4 5 6 
#
# 1 118.2301 36.2070 24.4069 -0.0422 -1.8424 -0.4330
# 2 36.2070 107.2765 20.2420 -0.0567 9.7314 0.1315
# 3 24.4069 20.2420 64.5780 -0.3986 -0.4489 0.6069
# 4 -0.0422 -0.0567 -0.3986 8.0318 0.1560 9.2876
# 5 -1.8424 9.7314 -0.4489 0.1560 26.2934 -0.1378
# 6 -0.4330 0.1315 0.6069 9.2876 -0.1378 14.1629
#
#
#
# Elastic Compliance Matrix: (Units=1/GPa)
#
#
# Indices 1 2 3 4 5 6 
#
# 1 0.010005 -0.003003 -0.002868 -0.002871 0.001793 0.002357
# 2 -0.003003 0.011187 -0.002391 0.000774 -0.004400 -0.000644
# 3 -0.002868 -0.002391 0.017421 0.007214 0.000910 -0.005534
# 4 -0.002871 0.000774 0.007214 0.519138 -0.005231 -0.340888
# 5 0.001793 -0.004400 0.000910 -0.005231 0.039853 0.003875
# 6 0.002357 -0.000644 -0.005534 -0.340888 0.003875 0.294502
#
#
# Mechanical properties :
#
#
# Convention : Reuss Voigt Hill
#
# Bulk Modulus (GPa) = 45.26977 50.19959 47.73468
# Shear Modulus (GPa) = 5.45856 23.64622 14.55239
#
# Velocity S-wave (km/s) = 1.68439 3.50577 2.75024
# Velocity P-wave (km/s) = 5.22614 6.51761 5.90727
#
# Compressibility (1/GPa) = 0.02208979
#
# Stress axis : x y z
#
# Youngs Moduli (GPa) = 99.94817 89.39182 57.40083
#
# Poissons Ratio (x) = 0.26843 0.16460
# Poissons Ratio (y) = 0.30013 0.13726
# Poissons Ratio (z) = 0.28661 0.21377
#
# Static dielectric constant tensor:
#      x y z
#    x 3.765070 0.000990 0.377090 
#    y 0.000990 3.470540 0.000230 
#    z 0.377090 0.000230 3.566450 
# 
# 
# High freq. dielectric constant tensor:
#      x y z
#    x 1.751960 0.000010 0.010160 
#    y 0.000010 1.752980 -0.000030 
#    z 0.010160 -0.000030 1.730240 
# 
# From -- ./inp_files/211423.got.cif
#   From: 2010.06.25/outbox.cif.g09.slc.cpg/sg12_106_cif.got.tgz:211423.got - 2010.06.28 00:19:55.
