data_PCOD8115453
_publ_section_title
;
Structure prediction by ZEFSAII (Michael W. Deem and Ramdas Pophale) SiO2 
 PCOD8115453
Probable space group: C 2/M
;
_chemical_formula_sum "Si O2"
_cell_formula_units_Z 40
_cell_length_a 16.787982
_cell_length_b 22.192357
_cell_length_c 9.773110
_cell_angle_alpha 90.000000
_cell_angle_beta 29.750565
_cell_angle_gamma 90.000000
_cell_volume 1806.813843
_symmetry_space_group_name_H-M "C 2/M"
_symmetry_group_IT_number 12
_symmetry_cell_setting 'monoclinic'
loop_
_space_group_symop_operation_xyz
x,y,z
-x,y,-z
-x,-y,-z
x,-y,z
1/2+x,1/2+y,z
1/2-x,1/2+y,-z
1/2-x,1/2-y,-z
1/2+x,1/2-y,z
loop_
_atom_site_type_symbol
_atom_site_label
_atom_site_fract_x
_atom_site_fract_y
_atom_site_fract_z
Si Si1 0.601771 0.370121 0.066460
Si Si2 0.896586 0.375264 0.421087
Si Si3 0.218520 0.069255 0.445295
Si Si4 0.722865 0.069831 0.955371
Si Si5 0.062021 0.254441 0.758576
O O1 0.462258 0.417108 0.236037
O O2 0.524127 0.303824 0.177403
O O3 0.744558 0.378016 0.746515
O O4 0.666475 0.386112 0.120252
O O5 0.844764 0.393589 0.345940
O O6 0.971369 0.308234 0.299130
O O7 0.035394 0.419260 0.269901
O O8 0.258257 0.000000 0.410174
O O9 0.241293 0.087882 0.253925
O O10 0.765794 0.000000 0.921129
O O11 0.250000 0.250000 0.500000
O O12 0.000000 0.269813 0.000000
#
# Coordination Sequence:
#
# PCOD8115453 Si02
#       5
#     8   8   8   8   8
#     4  12  25  43  67 102 137 180 224 282 350 395
#     4  12  25  43  72 100 134 181 231 282 336 405
#     4  11  23  43  70  99 134 183 233 277 336 408
#     4  11  26  46  68 100 143 181 222 282 346 408
#     4  12  23  45  71 102 138 177 228 288 336 403
#
# _framework density 22.138417
#
# number of rings (size 3 to 8) (size 9 to 14) (size 15 to 20)
#    0.000    0.400    4.000    4.800    0.000    8.800 
#    0.000    2.000    0.000    0.000    0.000    0.000 
#    0.000    0.000    0.000    0.000    0.000    0.000 
#
# Total GULP energy -248057.884669 kJ/mol
# GULP energy per Si atom -12402.894233 kJ/mol
# Density = 2.208803 g / cm^3
# Si number density = 22.138417 Si / 1000 Ang^3
#
#
#
# Elastic Constant Matrix: (Units=GPa)
#
#
# Indices 1 2 3 4 5 6 
#
# 1 97.9391 41.1379 8.6946 0.0017 -8.9194 -0.0039
# 2 41.1379 95.4644 35.0422 -0.0012 7.8722 -0.0022
# 3 8.6946 35.0422 101.2282 -0.0084 -13.2574 -0.0035
# 4 0.0017 -0.0012 -0.0084 30.6009 -0.0080 0.9193
# 5 -8.9194 7.8722 -13.2574 -0.0080 36.3947 0.0082
# 6 -0.0039 -0.0022 -0.0035 0.9193 0.0082 41.6819
#
#
#
# Elastic Compliance Matrix: (Units=1/GPa)
#
#
# Indices 1 2 3 4 5 6 
#
# 1 0.013476 -0.006994 0.001989 0.000001 0.005540 0.000000
# 2 -0.006994 0.016312 -0.006020 -0.000003 -0.007435 0.000001
# 3 0.001989 -0.006020 0.012628 0.000005 0.006390 0.000000
# 4 0.000001 -0.000003 0.000005 0.032700 0.000010 -0.000721
# 5 0.005540 -0.007435 0.006390 0.000010 0.032770 -0.000006
# 6 0.000000 0.000001 0.000000 -0.000721 -0.000006 0.024007
#
#
# Mechanical properties :
#
#
# Convention : Reuss Voigt Hill
#
# Bulk Modulus (GPa) = 49.09848 51.59789 50.34819
# Shear Modulus (GPa) = 31.10752 35.71929 33.41340
#
# Velocity S-wave (km/s) = 3.75258 4.02114 3.88918
# Velocity P-wave (km/s) = 6.40328 6.70201 6.55435
#
# Compressibility (1/GPa) = 0.02036723
#
# Stress axis : x y z
#
# Youngs Moduli (GPa) = 74.20470 61.30489 79.18601
#
# Poissons Ratio (x) = 0.42879 -0.15753
# Poissons Ratio (y) = 0.51901 0.47668
# Poissons Ratio (z) = -0.14762 0.36904
#
# Static dielectric constant tensor:
#      x y z
#    x 4.018090 -0.000170 -0.091020 
#    y -0.000170 4.607510 0.000280 
#    z -0.091020 0.000280 4.148120 
# 
# 
# High freq. dielectric constant tensor:
#      x y z
#    x 1.869750 0.000000 -0.008690 
#    y 0.000000 1.876750 0.000000 
#    z -0.008690 0.000000 1.890160 
# 
# From -- ./inp_files/79247.got.cif
#   From: 2010.06.25/outbox.cif.g09.slc.cpg/sg12_40_cif.got.tgz:79247.got - 2010.06.28 00:19:55.
