data_PCOD8115582
_publ_section_title
;
Structure prediction by ZEFSAII (Michael W. Deem and Ramdas Pophale) SiO2 
 PCOD8115582
Probable space group: C 2/M
;
_chemical_formula_sum "Si O2"
_cell_formula_units_Z 32
_cell_length_a 10.138728
_cell_length_b 13.934171
_cell_length_c 14.837395
_cell_angle_alpha 90.000000
_cell_angle_beta 132.343231
_cell_angle_gamma 90.000000
_cell_volume 1549.312522
_symmetry_space_group_name_H-M "C 2/M"
_symmetry_group_IT_number 12
_symmetry_cell_setting 'monoclinic'
loop_
_space_group_symop_operation_xyz
x,y,z
-x,y,-z
-x,-y,-z
x,-y,z
1/2+x,1/2+y,z
1/2-x,1/2+y,-z
1/2-x,1/2-y,-z
1/2+x,1/2-y,z
loop_
_atom_site_type_symbol
_atom_site_label
_atom_site_fract_x
_atom_site_fract_y
_atom_site_fract_z
Si Si1 0.318072 0.000000 0.861257
Si Si2 0.836673 0.202593 0.624500
Si Si3 0.286465 0.000000 0.393166
Si Si4 0.476792 0.500000 0.123963
Si Si5 0.756180 0.206128 0.228825
Si Si6 0.500000 0.335541 0.000000
O O1 0.144611 0.000000 0.844261
O O2 0.311530 0.904152 0.796944
O O3 0.500000 0.000000 0.000000
O O4 0.750000 0.250000 0.500000
O O5 0.785213 0.092371 0.589086
O O6 0.758095 0.247808 0.679405
O O7 0.046454 0.213904 0.718493
O O8 0.500000 0.000000 0.500000
O O9 0.189818 0.000000 0.248869
O O10 0.427185 0.595620 0.045780
O O11 0.652558 0.266887 0.106699
#
# Coordination Sequence:
#
# PCOD8115582 Si02
#       6
#     4   8   4   4   8   4
#     4  12  25  40  66 103 142 172 214 279 350 402
#     4  12  27  46  71  99 134 181 234 279 338 399
#     4  12  23  46  70  94 137 182 231 276 329 405
#     4  11  24  46  66 104 138 180 225 278 339 417
#     4  12  24  45  69 101 138 177 223 282 340 411
#     4  11  24  41  74  98 136 179 228 271 346 414
#
# _framework density 20.654323999999999
#
# number of rings (size 3 to 8) (size 9 to 14) (size 15 to 20)
#    0.000    0.250    6.250    2.250    3.500    3.000 
#    0.000    3.750    0.000    0.000    0.000    0.000 
#    0.000    0.000    0.000    0.000    0.000    0.000 
#
# Total GULP energy -198385.953024 kJ/mol
# GULP energy per Si atom -12399.122064 kJ/mol
# Density = 2.060731 g / cm^3
# Si number density = 20.654324 Si / 1000 Ang^3
#
#
#
# Elastic Constant Matrix: (Units=GPa)
#
#
# Indices 1 2 3 4 5 6 
#
# 1 105.3937 49.2827 45.2464 0.0000 11.1687 0.0000
# 2 49.2827 196.2267 72.8356 0.0000 -4.1404 0.0000
# 3 45.2464 72.8356 144.9982 0.0000 6.6677 0.0000
# 4 0.0000 0.0000 0.0000 37.1033 0.0000 6.7416
# 5 11.1687 -4.1404 6.6677 0.0000 37.8907 0.0000
# 6 0.0000 0.0000 0.0000 6.7416 0.0000 17.6122
#
#
#
# Elastic Compliance Matrix: (Units=1/GPa)
#
#
# Indices 1 2 3 4 5 6 
#
# 1 0.011906 -0.002136 -0.002491 0.000000 -0.003305 0.000000
# 2 -0.002136 0.006706 -0.002787 0.000000 0.001853 0.000000
# 3 -0.002491 -0.002787 0.009128 0.000000 -0.001177 0.000000
# 4 0.000000 0.000000 0.000000 0.028966 0.000000 -0.011088
# 5 -0.003305 0.001853 -0.001177 0.000000 0.027775 0.000000
# 6 0.000000 0.000000 0.000000 -0.011088 0.000000 0.061023
#
#
# Mechanical properties :
#
#
# Convention : Reuss Voigt Hill
#
# Bulk Modulus (GPa) = 77.43933 86.81644 82.12789
# Shear Modulus (GPa) = 30.36982 37.13817 33.75399
#
# Velocity S-wave (km/s) = 3.83872 4.24498 4.04695
# Velocity P-wave (km/s) = 7.56453 8.13331 7.85407
#
# Compressibility (1/GPa) = 0.01291333
#
# Stress axis : x y z
#
# Youngs Moduli (GPa) = 83.98938 149.11471 109.55096
#
# Poissons Ratio (x) = 0.31844 0.27285
# Poissons Ratio (y) = 0.17936 0.30537
# Poissons Ratio (z) = 0.20919 0.41566
#
# Static dielectric constant tensor:
#      x y z
#    x 3.732240 0.000000 0.043340 
#    y 0.000000 4.328510 0.000000 
#    z 0.043340 0.000000 4.231080 
# 
# 
# High freq. dielectric constant tensor:
#      x y z
#    x 1.793180 0.000000 0.011210 
#    y 0.000000 1.839280 0.000000 
#    z 0.011210 0.000000 1.827140 
# 
# From -- ./inp_files/204743.got.cif
#   From: 2010.06.25/outbox.cif.g09.slc.cpg/sg12_103_cif.got.tgz:204743.got - 2010.06.28 00:19:55.
