data_PCOD8115446
_publ_section_title
;
Structure prediction by ZEFSAII (Michael W. Deem and Ramdas Pophale) SiO2 
 PCOD8115446
Probable space group: C 2/M
;
_chemical_formula_sum "Si O2"
_cell_formula_units_Z 32
_cell_length_a 15.319725
_cell_length_b 7.584272
_cell_length_c 20.064842
_cell_angle_alpha 90.000000
_cell_angle_beta 42.716157
_cell_angle_gamma 90.000000
_cell_volume 1581.485637
_symmetry_space_group_name_H-M "C 2/M"
_symmetry_group_IT_number 12
_symmetry_cell_setting 'monoclinic'
loop_
_space_group_symop_operation_xyz
x,y,z
-x,y,-z
-x,-y,-z
x,-y,z
1/2+x,1/2+y,z
1/2-x,1/2+y,-z
1/2-x,1/2-y,-z
1/2+x,1/2-y,z
loop_
_atom_site_type_symbol
_atom_site_label
_atom_site_fract_x
_atom_site_fract_y
_atom_site_fract_z
Si Si1 0.514483 0.500000 0.882471
Si Si2 0.210924 0.000000 0.891761
Si Si3 0.896546 0.702088 0.262617
Si Si4 0.613625 0.205908 0.388583
Si Si5 0.401656 0.698126 0.752587
O O1 0.628067 0.500000 0.871766
O O2 0.527576 0.322573 0.832513
O O3 0.375112 0.500000 0.994091
O O4 0.295901 0.824216 0.844852
O O5 0.914966 0.500000 0.230417
O O6 0.746724 0.749863 0.350475
O O7 0.957712 0.738432 0.301103
O O8 0.500000 0.273031 0.500000
O O9 0.601641 0.303528 0.325239
O O10 0.603033 0.000000 0.379738
O O11 0.372844 0.500000 0.793596
#
# Coordination Sequence:
#
# PCOD8115446 Si02
#       5
#     4   4   8   8   8
#     4  11  24  44  66  95 130 167 217 264 317 377
#     4  11  24  44  66  95 130 167 217 264 317 377
#     4  12  23  42  67  93 132 171 211 263 319 375
#     4  11  23  43  69  95 129 168 213 264 320 382
#     4  12  23  42  67  93 132 171 211 263 319 375
#
# _framework density 20.234138999999999
#
# number of rings (size 3 to 8) (size 9 to 14) (size 15 to 20)
#    0.000    0.500    7.500    0.750    0.000    5.000 
#    0.000    2.500    0.000    0.000    0.000    0.000 
#    0.000    0.000    0.000    0.000    0.000    0.000 
#
# Total GULP energy -198477.545760 kJ/mol
# GULP energy per Si atom -12404.846610 kJ/mol
# Density = 2.018808 g / cm^3
# Si number density = 20.234139 Si / 1000 Ang^3
#
#
#
# Elastic Constant Matrix: (Units=GPa)
#
#
# Indices 1 2 3 4 5 6 
#
# 1 120.2926 8.5306 55.9994 0.0005 -29.9650 -0.0001
# 2 8.5306 139.5077 49.7051 0.0010 -8.3322 -0.0002
# 3 55.9994 49.7051 130.2123 -0.0002 -19.9079 0.0000
# 4 0.0005 0.0010 -0.0002 -22.3711 -0.0001 5.1085
# 5 -29.9650 -8.3322 -19.9079 -0.0001 18.7521 0.0000
# 6 -0.0001 -0.0002 0.0000 5.1085 0.0000 32.2966
#
#
#
# Elastic Compliance Matrix: (Units=1/GPa)
#
#
# Indices 1 2 3 4 5 6 
#
# 1 0.015277 0.001755 -0.004045 0.000000 0.020898 0.000000
# 2 0.001755 0.008500 -0.003573 0.000000 0.002788 0.000000
# 3 -0.004045 -0.003573 0.011403 0.000000 0.004054 0.000000
# 4 0.000000 0.000000 0.000000 -0.043142 0.000000 0.006824
# 5 0.020898 0.002788 0.004054 0.000000 0.092265 0.000000
# 6 0.000000 0.000000 0.000000 0.006824 0.000000 0.029884
#
#
# Mechanical properties :
#
#
# Convention : Reuss Voigt Hill
#
# Bulk Modulus (GPa) = 42.63566 68.72031 55.67798
# Shear Modulus (GPa) = 37.38813 24.12068 30.75440
#
# Velocity S-wave (km/s) = 4.30324 3.45639 3.90285
# Velocity P-wave (km/s) = 6.76811 7.06860 6.91999
#
# Compressibility (1/GPa) = 0.02345455
#
# Stress axis : x y z
#
# Youngs Moduli (GPa) = 65.45588 117.64118 87.69337
#
# Poissons Ratio (x) = -0.20649 0.35474
# Poissons Ratio (y) = -0.11489 0.31336
# Poissons Ratio (z) = 0.26478 0.42038
#
# Static dielectric constant tensor:
#      x y z
#    x 3.970140 0.000000 -0.129440 
#    y 0.000000 3.848120 0.000000 
#    z -0.129440 0.000000 3.592370 
# 
# 
# High freq. dielectric constant tensor:
#      x y z
#    x 1.809840 0.000000 -0.009260 
#    y 0.000000 1.809750 0.000000 
#    z -0.009260 0.000000 1.770920 
# 
# From -- ./inp_files/308140.got.cif
#   From: 2010.06.25/outbox.cif.g09.slc.cpg/sg12_155_cif.got.tgz:308140.got - 2010.06.28 00:19:55.
