data_PCOD8115059
_publ_section_title
;
Structure prediction by ZEFSAII (Michael W. Deem and Ramdas Pophale) SiO2 
 PCOD8115059
Probable space group: C 2/M
;
_chemical_formula_sum "Si O2"
_cell_formula_units_Z 40
_cell_length_a 19.605490
_cell_length_b 12.678891
_cell_length_c 8.767973
_cell_angle_alpha 90.000000
_cell_angle_beta 68.647524
_cell_angle_gamma 90.000000
_cell_volume 2029.901147
_symmetry_space_group_name_H-M "C 2/M"
_symmetry_group_IT_number 12
_symmetry_cell_setting 'monoclinic'
loop_
_space_group_symop_operation_xyz
x,y,z
-x,y,-z
-x,-y,-z
x,-y,z
1/2+x,1/2+y,z
1/2-x,1/2+y,-z
1/2-x,1/2-y,-z
1/2+x,1/2-y,z
loop_
_atom_site_type_symbol
_atom_site_label
_atom_site_fract_x
_atom_site_fract_y
_atom_site_fract_z
Si Si1 0.555351 0.500000 0.164406
Si Si2 0.112623 0.000000 0.778238
Si Si3 0.078731 0.383303 0.136586
Si Si4 0.408527 0.116371 0.208899
Si Si5 0.169795 0.201297 0.567499
Si Si6 0.921500 0.805036 0.644184
O O1 0.467250 0.500000 0.233065
O O2 0.580000 0.396151 0.230597
O O3 0.597985 0.500000 0.970119
O O4 0.159516 0.897256 0.690722
O O5 0.103480 0.500000 0.171040
O O6 0.099149 0.303282 0.253768
O O7 0.994322 0.383817 0.163369
O O8 0.116411 0.353951 0.943758
O O9 0.381143 0.202434 0.346844
O O10 0.376945 0.000000 0.273971
O O11 0.250000 0.250000 0.500000
O O12 0.143024 0.166979 0.421640
O O13 0.000000 0.796483 0.500000
#
# Coordination Sequence:
#
# PCOD8115059 Si02
#       6
#     4   4   8   8   8   8
#     4  11  22  41  74  95 118 156 220 278 305 358
#     4  11  23  44  67  96 124 164 210 259 322 373
#     4   9  18  34  60  89 118 152 200 246 292 358
#     4   9  18  36  59  86 118 159 196 240 300 360
#     4  12  26  40  60  89 129 164 199 253 325 380
#     4  12  21  37  62  96 121 152 210 266 314 359
#
# _framework density 19.705394999999999
#
# number of rings (size 3 to 8) (size 9 to 14) (size 15 to 20)
#    0.000    1.400    4.000    3.300    1.400    4.400 
#    0.000    4.000    0.000    0.000    0.000    0.000 
#    0.000    0.000    0.000    0.000    0.000    0.000 
#
# Total GULP energy -247911.704579 kJ/mol
# GULP energy per Si atom -12395.585229 kJ/mol
# Density = 1.966054 g / cm^3
# Si number density = 19.705395 Si / 1000 Ang^3
#
#
#
# Elastic Constant Matrix: (Units=GPa)
#
#
# Indices 1 2 3 4 5 6 
#
# 1 74.6057 25.6084 34.9402 0.0000 5.3812 0.0000
# 2 25.6084 130.7572 59.6598 0.0000 4.4727 0.0000
# 3 34.9402 59.6598 92.2780 0.0000 14.4885 0.0000
# 4 0.0000 0.0000 0.0000 31.1768 0.0000 -12.9942
# 5 5.3812 4.4727 14.4885 0.0000 21.4965 0.0000
# 6 0.0000 0.0000 0.0000 -12.9942 0.0000 -10.3370
#
#
#
# Elastic Compliance Matrix: (Units=1/GPa)
#
#
# Indices 1 2 3 4 5 6 
#
# 1 0.016319 -0.000537 -0.005825 0.000000 -0.000048 0.000000
# 2 -0.000537 0.011014 -0.007357 0.000000 0.002802 0.000000
# 3 -0.005825 -0.007357 0.019381 0.000000 -0.010073 0.000000
# 4 0.000000 0.000000 0.000000 0.021048 0.000000 -0.026458
# 5 -0.000048 0.002802 -0.010073 0.000000 0.052738 0.000000
# 6 0.000000 0.000000 0.000000 -0.026458 0.000000 -0.063480
#
#
# Mechanical properties :
#
#
# Convention : Reuss Voigt Hill
#
# Bulk Modulus (GPa) = 51.87731 59.78419 55.83075
# Shear Modulus (GPa) = 55.01654 20.29609 37.65631
#
# Velocity S-wave (km/s) = 5.28963 3.21281 4.37620
# Velocity P-wave (km/s) = 7.98063 6.64588 7.34364
#
# Compressibility (1/GPa) = 0.01927625
#
# Stress axis : x y z
#
# Youngs Moduli (GPa) = 61.27690 90.79364 51.59820
#
# Poissons Ratio (x) = 0.04875 0.30053
# Poissons Ratio (y) = 0.03290 0.37963
# Poissons Ratio (z) = 0.35691 0.66800
#
# Static dielectric constant tensor:
#      x y z
#    x 3.190160 0.000000 0.263240 
#    y 0.000000 3.623940 0.000000 
#    z 0.263240 0.000000 3.589410 
# 
# 
# High freq. dielectric constant tensor:
#      x y z
#    x 1.726550 0.000000 0.014600 
#    y 0.000000 1.788430 0.000000 
#    z 0.014600 0.000000 1.776330 
# 
# From -- ./inp_files/83981.got.cif
#   From: 2010.06.25/outbox.cif.g09.slc.cpg/sg12_42_cif.got.tgz:83981.got - 2010.06.28 00:19:55.
