data_PCOD8115408
_publ_section_title
;
Structure prediction by ZEFSAII (Michael W. Deem and Ramdas Pophale) SiO2 
 PCOD8115408
Probable space group: C 2/M
;
_chemical_formula_sum "Si O2"
_cell_formula_units_Z 56
_cell_length_a 18.014076
_cell_length_b 17.586618
_cell_length_c 8.861963
_cell_angle_alpha 90.000000
_cell_angle_beta 110.415635
_cell_angle_gamma 90.000000
_cell_volume 2631.179234
_symmetry_space_group_name_H-M "C 2/M"
_symmetry_group_IT_number 12
_symmetry_cell_setting 'monoclinic'
loop_
_space_group_symop_operation_xyz
x,y,z
-x,y,-z
-x,-y,-z
x,-y,z
1/2+x,1/2+y,z
1/2-x,1/2+y,-z
1/2-x,1/2-y,-z
1/2+x,1/2-y,z
loop_
_atom_site_type_symbol
_atom_site_label
_atom_site_fract_x
_atom_site_fract_y
_atom_site_fract_z
Si Si1 0.152799 0.086865 0.801873
Si Si2 0.961275 0.324425 0.131536
Si Si3 0.003609 0.840250 0.822831
Si Si4 0.279546 0.826924 0.433474
Si Si5 0.359894 0.411066 0.543304
Si Si6 0.438675 0.087287 0.588828
Si Si7 0.781952 0.671297 0.075776
O O1 0.146785 0.124576 0.630641
O O2 0.071028 0.100144 0.828280
O O3 0.166327 0.000000 0.776903
O O4 0.225239 0.109534 0.960547
O O5 0.868895 0.345729 0.071469
O O6 0.972881 0.243386 0.224680
O O7 0.009779 0.396213 0.227429
O O8 0.000000 0.308567 0.000000
O O9 0.922838 0.864099 0.685366
O O10 0.000000 0.842582 0.000000
O O11 0.250000 0.750000 0.500000
O O12 0.224466 0.897436 0.439479
O O13 0.368028 0.851534 0.540837
O O14 0.277625 0.823177 0.252199
O O15 0.382220 0.500000 0.561469
O O16 0.500000 0.104495 0.500000
O O17 0.408192 0.000000 0.564915
O O18 0.750000 0.750000 0.000000
#
# Coordination Sequence:
#
# PCOD8115408 Si02
#       7
#     8   8   8   8   8   8   8
#     4  11  25  43  67  98 138 180 222 278 338 405
#     4  11  26  44  71  99 133 176 228 279 337 403
#     4  11  23  42  69 100 136 177 226 278 340 405
#     4  12  26  44  72 102 135 179 228 284 348 404
#     4  11  25  43  66 100 138 178 222 275 338 409
#     4  11  25  47  70 100 138 181 230 285 344 408
#     4  12  25  45  67 101 135 176 227 281 339 409
#
# _framework density 21.283234
#
# number of rings (size 3 to 8) (size 9 to 14) (size 15 to 20)
#    0.000    0.714    2.857    3.857    6.000    6.571 
#    0.000    0.000    0.000    0.000    0.000    0.000 
#    0.000    0.000    0.000    0.000    0.000    0.000 
#
# Total GULP energy -347053.513267 kJ/mol
# GULP energy per Si atom -12394.768331 kJ/mol
# Density = 2.123479 g / cm^3
# Si number density = 21.283234 Si / 1000 Ang^3
#
#
#
# Elastic Constant Matrix: (Units=GPa)
#
#
# Indices 1 2 3 4 5 6 
#
# 1 144.1905 35.1588 62.7575 0.0000 5.5274 0.0000
# 2 35.1588 70.8948 29.3891 0.0000 4.8962 0.0000
# 3 62.7575 29.3891 129.9728 0.0000 5.6996 0.0000
# 4 0.0000 0.0000 0.0000 14.4286 0.0000 1.1188
# 5 5.5274 4.8962 5.6996 0.0000 38.3562 0.0000
# 6 0.0000 0.0000 0.0000 1.1188 0.0000 37.4148
#
#
#
# Elastic Compliance Matrix: (Units=1/GPa)
#
#
# Indices 1 2 3 4 5 6 
#
# 1 0.009348 -0.003029 -0.003811 0.000000 -0.000394 0.000000
# 2 -0.003029 0.016629 -0.002238 0.000000 -0.001354 0.000000
# 3 -0.003811 -0.002238 0.010069 0.000000 -0.000661 0.000000
# 4 0.000000 0.000000 0.000000 0.069468 0.000000 -0.002077
# 5 -0.000394 -0.001354 -0.000661 0.000000 0.026399 0.000000
# 6 0.000000 0.000000 0.000000 -0.002077 0.000000 0.026790
#
#
# Mechanical properties :
#
#
# Convention : Reuss Voigt Hill
#
# Bulk Modulus (GPa) = 55.89984 66.62987 61.26486
# Shear Modulus (GPa) = 27.34892 32.55676 29.95284
#
# Velocity S-wave (km/s) = 3.58858 3.91537 3.75553
# Velocity P-wave (km/s) = 6.59487 7.19822 6.90314
#
# Compressibility (1/GPa) = 0.01788914
#
# Stress axis : x y z
#
# Youngs Moduli (GPa) = 106.97738 60.13684 99.31055
#
# Poissons Ratio (x) = 0.18213 0.37852
# Poissons Ratio (y) = 0.32399 0.22229
# Poissons Ratio (z) = 0.40774 0.13461
#
# Static dielectric constant tensor:
#      x y z
#    x 3.937970 0.000000 0.002000 
#    y 0.000000 3.786300 0.000000 
#    z 0.002000 0.000000 3.327330 
# 
# 
# High freq. dielectric constant tensor:
#      x y z
#    x 1.851130 0.000000 0.000370 
#    y 0.000000 1.837580 0.000000 
#    z 0.000370 0.000000 1.846340 
# 
# From -- ./inp_files/75959.got.cif
#   From: 2010.06.25/outbox.cif.g09.slc.cpg/sg12_38_cif.got.tgz:75959.got - 2010.06.28 00:19:55.
