data_PCOD8115144
_publ_section_title
;
Structure prediction by ZEFSAII (Michael W. Deem and Ramdas Pophale) SiO2 
 PCOD8115144
Probable space group: C 2/M
;
_chemical_formula_sum "Si O2"
_cell_formula_units_Z 64
_cell_length_a 20.823697
_cell_length_b 9.200076
_cell_length_c 21.413892
_cell_angle_alpha 90.000000
_cell_angle_beta 119.551143
_cell_angle_gamma 90.000000
_cell_volume 3568.798932
_symmetry_space_group_name_H-M "C 2/M"
_symmetry_group_IT_number 12
_symmetry_cell_setting 'monoclinic'
loop_
_space_group_symop_operation_xyz
x,y,z
-x,y,-z
-x,-y,-z
x,-y,z
1/2+x,1/2+y,z
1/2-x,1/2+y,-z
1/2-x,1/2-y,-z
1/2+x,1/2-y,z
loop_
_atom_site_type_symbol
_atom_site_label
_atom_site_fract_x
_atom_site_fract_y
_atom_site_fract_z
Si Si1 0.467930 0.668617 0.169566
Si Si2 0.711262 0.172194 0.424366
Si Si3 0.956893 0.826923 0.919510
Si Si4 0.150724 0.332283 0.822980
Si Si5 0.723149 0.666402 0.674206
Si Si6 0.792497 0.829969 0.823128
Si Si7 0.913903 0.163810 0.319019
Si Si8 0.937820 0.835531 0.661566
O O1 0.452111 0.500000 0.153849
O O2 0.505497 0.733298 0.125528
O O3 0.387645 0.743424 0.139488
O O4 0.521240 0.700088 0.253709
O O5 0.750000 0.250000 0.500000
O O6 0.754804 0.224110 0.383354
O O7 0.626548 0.220872 0.379581
O O8 0.714765 0.000000 0.435506
O O9 0.872628 0.771706 0.881566
O O10 0.958985 0.000000 0.921043
O O11 0.000000 0.763250 0.000000
O O12 0.135680 0.500000 0.828673
O O13 0.238022 0.298829 0.855900
O O14 0.113636 0.287535 0.740342
O O15 0.747791 0.500000 0.692439
O O16 0.767353 0.752379 0.747956
O O17 0.633603 0.682678 0.640020
O O18 0.793955 0.000000 0.807797
O O19 0.002800 0.181498 0.367279
O O20 0.898994 0.000000 0.284442
O O21 0.905948 0.000000 0.647314
#
# Coordination Sequence:
#
# PCOD8115144 Si02
#       8
#     8   8   8   8   8   8   8   8
#     4   9  17  30  50  73  95 124 161 198 237 282
#     4  11  23  36  50  70  98 130 161 194 234 281
#     4   9  17  30  48  69  94 127 168 206 235 274
#     4   9  16  26  44  71  99 122 149 193 243 287
#     4   9  18  33  53  75  96 123 160 197 235 281
#     4   9  17  30  50  74  96 122 158 199 242 282
#     4   8  15  30  51  73  96 121 154 195 234 278
#     4   9  17  31  52  74  95 121 155 197 240 281
#
# _framework density 17.933204
#
# number of rings (size 3 to 8) (size 9 to 14) (size 15 to 20)
#    0.000    2.875    0.000    2.250    0.000    4.500 
#    0.000    1.875    0.000    5.250    0.000    0.000 
#    0.000    0.000    0.000    0.000    0.000    0.000 
#
# Total GULP energy -396541.451571 kJ/mol
# GULP energy per Si atom -12391.920362 kJ/mol
# Density = 1.789239 g / cm^3
# Si number density = 17.933204 Si / 1000 Ang^3
#
#
#
# Elastic Constant Matrix: (Units=GPa)
#
#
# Indices 1 2 3 4 5 6 
#
# 1 180.2831 49.7396 69.8291 0.0000 1.8908 0.0000
# 2 49.7396 49.8508 33.4431 0.0000 3.6317 0.0000
# 3 69.8291 33.4431 81.7789 0.0000 -0.2438 0.0000
# 4 0.0000 0.0000 0.0000 14.8184 0.0000 0.2307
# 5 1.8908 3.6317 -0.2438 0.0000 5.8391 0.0000
# 6 0.0000 0.0000 0.0000 0.2307 0.0000 28.7725
#
#
#
# Elastic Compliance Matrix: (Units=1/GPa)
#
#
# Indices 1 2 3 4 5 6 
#
# 1 0.009238 -0.005425 -0.005669 0.000000 0.000146 0.000000
# 2 -0.005425 0.032780 -0.008830 0.000000 -0.019000 0.000000
# 3 -0.005669 -0.008830 0.020704 0.000000 0.008192 0.000000
# 4 0.000000 0.000000 0.000000 0.067492 0.000000 -0.000541
# 5 0.000146 -0.019000 0.008192 0.000000 0.183370 0.000000
# 6 0.000000 0.000000 0.000000 -0.000541 0.000000 0.034760
#
#
# Mechanical properties :
#
#
# Convention : Reuss Voigt Hill
#
# Bulk Modulus (GPa) = 43.71627 68.65958 56.18792
# Shear Modulus (GPa) = 12.63212 20.47941 16.55577
#
# Velocity S-wave (km/s) = 2.65693 3.38299 3.04170
# Velocity P-wave (km/s) = 5.81744 7.32318 6.61330
#
# Compressibility (1/GPa) = 0.02287478
#
# Stress axis : x y z
#
# Youngs Moduli (GPa) = 108.25157 30.50617 48.29925
#
# Poissons Ratio (x) = 0.16548 0.27381
# Poissons Ratio (y) = 0.58722 0.42649
# Poissons Ratio (z) = 0.61369 0.26937
#
# Static dielectric constant tensor:
#      x y z
#    x 3.938820 0.000000 -0.008270 
#    y 0.000000 3.191050 0.000000 
#    z -0.008270 0.000000 3.056570 
# 
# 
# High freq. dielectric constant tensor:
#      x y z
#    x 1.721670 0.000000 -0.003080 
#    y 0.000000 1.680500 0.000000 
#    z -0.003080 0.000000 1.647540 
# 
# From -- ./inp_files/320148.got.cif
#   From: 2010.06.25/outbox.cif.g09.slc.cpg/sg12_161_cif.got.tgz:320148.got - 2010.06.28 00:19:55.
