data_PCOD8115342
_publ_section_title
;
Structure prediction by ZEFSAII (Michael W. Deem and Ramdas Pophale) SiO2 
 PCOD8115342
Probable space group: C 2/M
;
_chemical_formula_sum "Si O2"
_cell_formula_units_Z 40
_cell_length_a 9.149000
_cell_length_b 28.103165
_cell_length_c 14.802980
_cell_angle_alpha 90.000000
_cell_angle_beta 150.517993
_cell_angle_gamma 90.000000
_cell_volume 1873.163513
_symmetry_space_group_name_H-M "C 2/M"
_symmetry_group_IT_number 12
_symmetry_cell_setting 'monoclinic'
loop_
_space_group_symop_operation_xyz
x,y,z
-x,y,-z
-x,-y,-z
x,-y,z
1/2+x,1/2+y,z
1/2-x,1/2+y,-z
1/2-x,1/2-y,-z
1/2+x,1/2-y,z
loop_
_atom_site_type_symbol
_atom_site_label
_atom_site_fract_x
_atom_site_fract_y
_atom_site_fract_z
Si Si1 0.754715 0.692198 0.302913
Si Si2 0.609761 0.606085 0.964065
Si Si3 0.314682 0.727600 0.207363
Si Si4 0.708336 0.370172 0.697296
Si Si5 0.648528 0.552729 0.806903
O O1 0.577220 0.653954 0.149759
O O2 0.533082 0.724428 0.241151
O O3 0.928406 0.729305 0.331751
O O4 0.000000 0.667539 0.500000
O O5 0.527462 0.570356 0.838587
O O6 0.500000 0.583454 0.000000
O O7 0.960346 0.616709 0.155793
O O8 0.284436 0.677239 0.240413
O O9 0.000000 0.743854 0.000000
O O10 0.500000 0.362586 0.500000
O O11 0.558754 0.411511 0.678232
O O12 0.518789 0.500000 0.717418
O O13 0.000000 0.551178 0.000000
#
# Coordination Sequence:
#
# PCOD8115342 Si02
#       5
#     8   8   8   8   8
#     4  12  26  40  63  90 131 168 211 259 311 368
#     4  11  24  40  63  96 129 164 206 261 316 369
#     4  12  23  43  61  90 129 169 212 259 306 370
#     4  11  23  41  65  93 128 167 212 256 307 378
#     4   9  19  42  68  91 124 165 208 259 314 373
#
# _framework density 21.354248999999999
#
# number of rings (size 3 to 8) (size 9 to 14) (size 15 to 20)
#    0.000    1.000    4.000    3.000    5.600    0.800 
#    0.000    0.000    0.000    4.200    0.000    0.000 
#    0.000    0.000    0.000    0.000    0.000    0.000 
#
# Total GULP energy -248043.983767 kJ/mol
# GULP energy per Si atom -12402.199188 kJ/mol
# Density = 2.130565 g / cm^3
# Si number density = 21.354249 Si / 1000 Ang^3
#
#
#
# Elastic Constant Matrix: (Units=GPa)
#
#
# Indices 1 2 3 4 5 6 
#
# 1 119.3368 31.1324 -2.3010 0.0000 -11.7837 0.0000
# 2 31.1324 103.9404 -2.7393 0.0000 -9.3639 0.0000
# 3 -2.3010 -2.7393 64.8926 0.0001 -9.2679 0.0000
# 4 0.0000 0.0000 0.0001 -38.4801 0.0000 -28.9452
# 5 -11.7837 -9.3639 -9.2679 0.0000 26.6544 0.0000
# 6 0.0000 0.0000 0.0000 -28.9452 0.0000 11.2472
#
#
#
# Elastic Compliance Matrix: (Units=1/GPa)
#
#
# Indices 1 2 3 4 5 6 
#
# 1 0.009388 -0.002474 0.000734 0.000000 0.003536 0.000000
# 2 -0.002474 0.010645 0.000778 0.000000 0.002917 0.000000
# 3 0.000734 0.000778 0.016367 0.000000 0.006289 0.000000
# 4 0.000000 0.000000 0.000000 -0.008852 0.000000 -0.022780
# 5 0.003536 0.002917 0.006289 0.000000 0.042292 0.000000
# 6 0.000000 0.000000 0.000000 -0.022780 0.000000 0.030285
#
#
# Mechanical properties :
#
#
# Convention : Reuss Voigt Hill
#
# Bulk Modulus (GPa) = 29.00578 37.81711 33.41145
# Shear Modulus (GPa) = 44.03650 17.35615 30.69633
#
# Velocity S-wave (km/s) = 4.54606 2.85401 3.79553
# Velocity P-wave (km/s) = 6.41624 5.34868 5.90663
#
# Compressibility (1/GPa) = 0.03447588
#
# Stress axis : x y z
#
# Youngs Moduli (GPa) = 106.51411 93.93908 61.09828
#
# Poissons Ratio (x) = 0.23242 -0.04482
# Poissons Ratio (y) = 0.26353 -0.04754
# Poissons Ratio (z) = -0.07813 -0.07310
#
# Static dielectric constant tensor:
#      x y z
#    x 4.078560 0.000000 -0.065660 
#    y 0.000000 3.992620 0.000000 
#    z -0.065660 0.000000 3.768970 
# 
# 
# High freq. dielectric constant tensor:
#      x y z
#    x 1.853090 0.000000 -0.009200 
#    y 0.000000 1.825610 0.000000 
#    z -0.009200 0.000000 1.829010 
# 
# From -- ./inp_files/41422.got.cif
#   From: 2010.06.25/outbox.cif.g09.slc.cpg/sg12_21_cif.got.tgz:41422.got - 2010.06.28 00:19:55.
