data_PCOD8115845
_publ_section_title
;
Structure prediction by ZEFSAII (Michael W. Deem and Ramdas Pophale) SiO2 
 PCOD8115845
Probable space group: C 2/M
;
_chemical_formula_sum "Si O2"
_cell_formula_units_Z 52
_cell_length_a 22.353430
_cell_length_b 18.995420
_cell_length_c 12.319505
_cell_angle_alpha 90.000000
_cell_angle_beta 153.239641
_cell_angle_gamma 90.000000
_cell_volume 2355.318186
_symmetry_space_group_name_H-M "C 2/M"
_symmetry_group_IT_number 12
_symmetry_cell_setting 'monoclinic'
loop_
_space_group_symop_operation_xyz
x,y,z
-x,y,-z
-x,-y,-z
x,-y,z
1/2+x,1/2+y,z
1/2-x,1/2+y,-z
1/2-x,1/2-y,-z
1/2+x,1/2-y,z
loop_
_atom_site_type_symbol
_atom_site_label
_atom_site_fract_x
_atom_site_fract_y
_atom_site_fract_z
Si Si1 0.126114 0.365726 0.131934
Si Si2 0.152124 0.758249 0.571149
Si Si3 0.034171 0.884944 0.672832
Si Si4 0.988809 0.631891 0.691505
Si Si5 0.746279 0.000000 0.444234
Si Si6 0.313697 0.000000 0.407072
Si Si7 0.975603 0.000000 0.170068
Si Si8 0.801965 0.680416 0.137335
O O1 0.222182 0.297529 0.277341
O O2 0.201605 0.430519 0.308455
O O3 0.000000 0.343620 0.000000
O O4 0.085985 0.391799 0.946206
O O5 0.084354 0.702747 0.377539
O O6 0.186837 0.699568 0.718459
O O7 0.044381 0.811669 0.444707
O O8 0.991584 0.933500 0.702249
O O9 0.000000 0.918263 0.500000
O O10 0.192060 0.879069 0.939520
O O11 0.890151 0.569918 0.493269
O O12 0.065101 0.652944 0.704835
O O13 0.680067 0.000000 0.453489
O O14 0.904915 0.000000 0.723243
O O15 0.166242 0.000000 0.117919
O O16 0.750000 0.750000 0.000000
#
# Coordination Sequence:
#
# PCOD8115845 Si02
#       8
#     8   8   8   8   4   4   4   8
#     4  12  24  45  74 107 137 183 245 297 355 421
#     4  12  23  43  71 104 145 184 232 286 357 430
#     4  12  22  42  66 102 143 182 233 285 347 431
#     4  12  25  44  74 105 144 189 232 297 360 419
#     4  12  25  51  78  96 136 192 245 302 355 415
#     4  12  28  52  69 102 142 189 247 301 352 420
#     4  12  28  44  70 101 141 189 237 292 360 421
#     4  12  22  40  70 103 139 186 228 286 354 421
#
# _framework density 22.077697000000001
#
# number of rings (size 3 to 8) (size 9 to 14) (size 15 to 20)
#    0.000    0.000    7.692    2.538    0.000    1.231 
#    0.000    2.308    0.000    0.000    0.000    0.000 
#    0.000    0.000    0.000    0.000    0.000    0.000 
#
# Total GULP energy -322298.995288 kJ/mol
# GULP energy per Si atom -12396.115203 kJ/mol
# Density = 2.202745 g / cm^3
# Si number density = 22.077697 Si / 1000 Ang^3
#
#
#
# Elastic Constant Matrix: (Units=GPa)
#
#
# Indices 1 2 3 4 5 6 
#
# 1 108.7388 53.8696 45.7108 0.0000 16.6953 0.0000
# 2 53.8696 116.5406 54.2663 0.0000 16.8077 0.0000
# 3 45.7108 54.2663 122.2604 0.0000 15.0026 0.0000
# 4 0.0000 0.0000 0.0000 30.6080 0.0000 5.9266
# 5 16.6953 16.8077 15.0026 0.0000 50.0691 0.0000
# 6 0.0000 0.0000 0.0000 5.9266 0.0000 36.4197
#
#
#
# Elastic Compliance Matrix: (Units=1/GPa)
#
#
# Indices 1 2 3 4 5 6 
#
# 1 0.012773 -0.004419 -0.002568 0.000000 -0.002006 0.000000
# 2 -0.004419 0.012601 -0.003740 0.000000 -0.001636 0.000000
# 3 -0.002568 -0.003740 0.010943 0.000000 -0.001167 0.000000
# 4 0.000000 0.000000 0.000000 0.033734 0.000000 -0.005490
# 5 -0.002006 -0.001636 -0.001167 0.000000 0.021540 0.000000
# 6 0.000000 0.000000 0.000000 -0.005490 0.000000 0.028351
#
#
# Mechanical properties :
#
#
# Convention : Reuss Voigt Hill
#
# Bulk Modulus (GPa) = 67.28424 72.80368 70.04396
# Shear Modulus (GPa) = 34.16460 36.33223 35.24841
#
# Velocity S-wave (km/s) = 3.93806 4.06107 4.00004
# Velocity P-wave (km/s) = 7.15682 7.41872 7.28894
#
# Compressibility (1/GPa) = 0.01486232
#
# Stress axis : x y z
#
# Youngs Moduli (GPa) = 78.28923 79.35977 91.38571
#
# Poissons Ratio (x) = 0.35070 0.23468
# Poissons Ratio (y) = 0.34597 0.34179
# Poissons Ratio (z) = 0.20104 0.29681
#
# Static dielectric constant tensor:
#      x y z
#    x 3.178200 0.000000 0.332240 
#    y 0.000000 2.320740 0.000000 
#    z 0.332240 0.000000 3.767030 
# 
# 
# High freq. dielectric constant tensor:
#      x y z
#    x 1.860480 0.000000 0.004200 
#    y 0.000000 1.871540 0.000000 
#    z 0.004200 0.000000 1.891800 
# 
# From -- ./inp_files/169899.got.cif
#   From: 2010.06.25/outbox.cif.g09.slc.cpg/sg12_85_cif.got.tgz:169899.got - 2010.06.28 00:19:55.
