data_PCOD8115772
_publ_section_title
;
Structure prediction by ZEFSAII (Michael W. Deem and Ramdas Pophale) SiO2 
 PCOD8115772
Probable space group: C 2/M
;
_chemical_formula_sum "Si O2"
_cell_formula_units_Z 40
_cell_length_a 18.284194
_cell_length_b 23.713672
_cell_length_c 8.183465
_cell_angle_alpha 90.000000
_cell_angle_beta 31.489524
_cell_angle_gamma 90.000000
_cell_volume 1853.392297
_symmetry_space_group_name_H-M "C 2/M"
_symmetry_group_IT_number 12
_symmetry_cell_setting 'monoclinic'
loop_
_space_group_symop_operation_xyz
x,y,z
-x,y,-z
-x,-y,-z
x,-y,z
1/2+x,1/2+y,z
1/2-x,1/2+y,-z
1/2-x,1/2-y,-z
1/2+x,1/2-y,z
loop_
_atom_site_type_symbol
_atom_site_label
_atom_site_fract_x
_atom_site_fract_y
_atom_site_fract_z
Si Si1 0.149614 0.113590 0.797467
Si Si2 0.971742 0.308919 0.738270
Si Si3 0.254673 0.731182 0.304725
Si Si4 0.384497 0.088221 0.103653
Si Si5 0.387726 0.500000 0.939542
Si Si6 0.290770 0.500000 0.753957
O O1 0.172649 0.169791 0.861752
O O2 0.265608 0.116954 0.437438
O O3 0.167363 0.056141 0.867022
O O4 0.000000 0.115335 0.000000
O O5 0.000000 0.327233 0.500000
O O6 0.094423 0.267588 0.558375
O O7 0.828350 0.275522 0.043347
O O8 0.975791 0.365208 0.837539
O O9 0.250000 0.750000 0.500000
O O10 0.303931 0.052066 0.121491
O O11 0.500000 0.056304 0.000000
O O12 0.317810 0.500000 0.894818
O O13 0.557099 0.500000 0.621986
#
# Coordination Sequence:
#
# PCOD8115772 Si02
#       6
#     8   8   8   8   4   4
#     4  12  23  44  75 101 139 188 239 284 338 426
#     4  12  27  46  68 106 147 177 232 292 356 416
#     4  12  24  47  73 103 138 190 234 284 345 422
#     4  12  24  46  72 104 139 185 237 290 350 424
#     4  11  26  46  68 108 141 184 238 290 354 420
#     4  11  26  45  70 103 148 181 230 300 359 415
#
# _framework density 21.582049000000001
#
# number of rings (size 3 to 8) (size 9 to 14) (size 15 to 20)
#    0.000    0.200    6.000    3.600    2.800    0.000 
#    3.600    1.500    0.000    0.000    0.000    0.000 
#    0.000    0.000    0.000    0.000    0.000    0.000 
#
# Total GULP energy -247972.268910 kJ/mol
# GULP energy per Si atom -12398.613445 kJ/mol
# Density = 2.153293 g / cm^3
# Si number density = 21.582049 Si / 1000 Ang^3
#
#
#
# Elastic Constant Matrix: (Units=GPa)
#
#
# Indices 1 2 3 4 5 6 
#
# 1 104.0989 21.6071 59.5495 0.0001 -9.6243 -0.0001
# 2 21.6071 109.2184 27.1000 0.0001 7.7278 -0.0003
# 3 59.5495 27.1000 117.5718 0.0003 1.7112 -0.0023
# 4 0.0001 0.0001 0.0003 47.3280 0.0000 15.2917
# 5 -9.6243 7.7278 1.7112 0.0000 46.3295 0.0009
# 6 -0.0001 -0.0003 -0.0023 15.2917 0.0009 70.5210
#
#
#
# Elastic Compliance Matrix: (Units=1/GPa)
#
#
# Indices 1 2 3 4 5 6 
#
# 1 0.014151 -0.001326 -0.006911 0.000000 0.003416 0.000000
# 2 -0.001326 0.009946 -0.001594 0.000000 -0.001876 0.000000
# 3 -0.006911 -0.001594 0.012397 0.000000 -0.001628 0.000000
# 4 0.000000 0.000000 0.000000 0.022721 0.000000 -0.004927
# 5 0.003416 -0.001876 -0.001628 0.000000 0.022667 0.000000
# 6 0.000000 0.000000 0.000000 -0.004927 0.000000 0.015249
#
#
# Mechanical properties :
#
#
# Convention : Reuss Voigt Hill
#
# Bulk Modulus (GPa) = 59.41096 60.82248 60.11672
# Shear Modulus (GPa) = 40.84814 47.67786 44.26300
#
# Velocity S-wave (km/s) = 4.35523 4.70525 4.53362
# Velocity P-wave (km/s) = 7.27175 7.60016 7.43777
#
# Compressibility (1/GPa) = 0.01683191
#
# Stress axis : x y z
#
# Youngs Moduli (GPa) = 70.66603 100.53807 80.66437
#
# Poissons Ratio (x) = 0.13335 0.55751
# Poissons Ratio (y) = 0.09373 0.12854
# Poissons Ratio (z) = 0.48840 0.16021
#
# Static dielectric constant tensor:
#      x y z
#    x 3.345300 0.000010 -0.073280 
#    y 0.000010 4.046050 0.000000 
#    z -0.073280 0.000000 4.094490 
# 
# 
# High freq. dielectric constant tensor:
#      x y z
#    x 1.849520 0.000000 -0.011940 
#    y 0.000000 1.851790 0.000000 
#    z -0.011940 0.000000 1.862340 
# 
# From -- ./inp_files/40484.got.cif
#   From: 2010.06.25/outbox.cif.g09.slc.cpg/sg12_21_cif.got.tgz:40484.got - 2010.06.28 00:19:55.
