data_PCOD8115633
_publ_section_title
;
Structure prediction by ZEFSAII (Michael W. Deem and Ramdas Pophale) SiO2 
 PCOD8115633
Probable space group: C 2/M
;
_chemical_formula_sum "Si O2"
_cell_formula_units_Z 40
_cell_length_a 24.444228
_cell_length_b 17.179069
_cell_length_c 8.579992
_cell_angle_alpha 90.000000
_cell_angle_beta 30.260301
_cell_angle_gamma 90.000000
_cell_volume 1815.651202
_symmetry_space_group_name_H-M "C 2/M"
_symmetry_group_IT_number 12
_symmetry_cell_setting 'monoclinic'
loop_
_space_group_symop_operation_xyz
x,y,z
-x,y,-z
-x,-y,-z
x,-y,z
1/2+x,1/2+y,z
1/2-x,1/2+y,-z
1/2-x,1/2-y,-z
1/2+x,1/2-y,z
loop_
_atom_site_type_symbol
_atom_site_label
_atom_site_fract_x
_atom_site_fract_y
_atom_site_fract_z
Si Si1 0.015793 0.911362 0.285745
Si Si2 0.182946 0.839953 0.340691
Si Si3 0.098196 0.591486 0.659284
Si Si4 0.098193 0.691376 0.375631
Si Si5 0.207019 0.163714 0.634696
O O1 0.000000 0.882209 0.500000
O O2 0.892122 0.910825 0.529762
O O3 0.061545 0.000000 0.160683
O O4 0.091914 0.849053 0.006730
O O5 0.119787 0.760556 0.447169
O O6 0.194815 0.865691 0.490305
O O7 0.300364 0.832872 0.978263
O O8 0.098367 0.500000 0.662708
O O9 0.076694 0.616458 0.534658
O O10 0.210358 0.619351 0.457206
O O11 0.000000 0.627175 0.000000
O O12 0.000000 0.711035 0.500000
O O13 0.250000 0.250000 0.500000
#
# Coordination Sequence:
#
# PCOD8115633 Si02
#       5
#     8   8   8   8   8
#     4  11  26  47  72 104 146 188 235 295 359 426
#     4  11  25  41  69 104 138 184 232 293 351 423
#     4  11  25  44  67  98 139 185 232 287 351 418
#     4  11  24  43  68 102 142 185 241 291 352 429
#     4  12  25  43  71 104 139 187 231 291 349 420
#
# _framework density 22.030664999999999
#
# number of rings (size 3 to 8) (size 9 to 14) (size 15 to 20)
#    0.000    0.800    2.000    4.200    8.400    5.200 
#    0.000    0.000    0.000    0.000    0.000    0.000 
#    0.000    0.000    0.000    0.000    0.000    0.000 
#
# Total GULP energy -247795.218275 kJ/mol
# GULP energy per Si atom -12389.760914 kJ/mol
# Density = 2.198052 g / cm^3
# Si number density = 22.030665 Si / 1000 Ang^3
#
#
#
# Elastic Constant Matrix: (Units=GPa)
#
#
# Indices 1 2 3 4 5 6 
#
# 1 134.0606 19.8224 44.1196 0.0000 15.1706 0.0000
# 2 19.8224 70.3158 42.7624 0.0000 9.9652 0.0000
# 3 44.1196 42.7624 145.3518 0.0000 6.7770 0.0000
# 4 0.0000 0.0000 0.0000 35.6999 0.0000 -5.0188
# 5 15.1706 9.9652 6.7770 0.0000 43.8325 0.0000
# 6 0.0000 0.0000 0.0000 -5.0188 0.0000 100.7505
#
#
#
# Elastic Compliance Matrix: (Units=1/GPa)
#
#
# Indices 1 2 3 4 5 6 
#
# 1 0.008594 -0.000678 -0.002294 0.000000 -0.002465 0.000000
# 2 -0.000678 0.017823 -0.004895 0.000000 -0.003061 0.000000
# 3 -0.002294 -0.004895 0.008992 0.000000 0.000517 0.000000
# 4 0.000000 0.000000 0.000000 0.028209 0.000000 0.001405
# 5 -0.002465 -0.003061 0.000517 0.000000 0.024283 0.000000
# 6 0.000000 0.000000 0.000000 0.001405 0.000000 0.009996
#
#
# Mechanical properties :
#
#
# Convention : Reuss Voigt Hill
#
# Bulk Modulus (GPa) = 50.82650 62.57076 56.69863
# Shear Modulus (GPa) = 41.60099 52.25817 46.92958
#
# Velocity S-wave (km/s) = 4.35020 4.87567 4.62041
# Velocity P-wave (km/s) = 6.95364 7.75626 7.36589
#
# Compressibility (1/GPa) = 0.01967478
#
# Stress axis : x y z
#
# Youngs Moduli (GPa) = 116.36658 56.10608 111.20714
#
# Poissons Ratio (x) = 0.03804 0.25511
# Poissons Ratio (y) = 0.07890 0.54437
# Poissons Ratio (z) = 0.26695 0.27465
#
# Static dielectric constant tensor:
#      x y z
#    x 3.482370 0.000000 0.138160 
#    y 0.000000 4.008090 0.000000 
#    z 0.138160 0.000000 4.246730 
# 
# 
# High freq. dielectric constant tensor:
#      x y z
#    x 1.887710 0.000000 -0.000580 
#    y 0.000000 1.857490 0.000000 
#    z -0.000580 0.000000 1.880700 
# 
# From -- ./inp_files/46956.got.cif
#   From: 2010.06.25/outbox.cif.g09.slc.cpg/sg12_24_cif.got.tgz:46956.got - 2010.06.28 00:19:55.
