data_PCOD8115141
_publ_section_title
;
Structure prediction by ZEFSAII (Michael W. Deem and Ramdas Pophale) SiO2 
 PCOD8115141
Probable space group: C 2/M
;
_chemical_formula_sum "Si O2"
_cell_formula_units_Z 56
_cell_length_a 21.432345
_cell_length_b 15.069427
_cell_length_c 9.567303
_cell_angle_alpha 90.000000
_cell_angle_beta 71.282426
_cell_angle_gamma 90.000000
_cell_volume 2926.558767
_symmetry_space_group_name_H-M "C 2/M"
_symmetry_group_IT_number 12
_symmetry_cell_setting 'monoclinic'
loop_
_space_group_symop_operation_xyz
x,y,z
-x,y,-z
-x,-y,-z
x,-y,z
1/2+x,1/2+y,z
1/2-x,1/2+y,-z
1/2-x,1/2-y,-z
1/2+x,1/2-y,z
loop_
_atom_site_type_symbol
_atom_site_label
_atom_site_fract_x
_atom_site_fract_y
_atom_site_fract_z
Si Si1 0.309259 0.903543 0.274191
Si Si2 0.270156 0.731553 0.143831
Si Si3 0.695327 0.194386 0.455477
Si Si4 0.491604 0.400828 0.231638
Si Si5 0.958242 0.400680 0.160341
Si Si6 0.045834 0.733368 0.589054
Si Si7 0.608422 0.600331 0.946912
O O1 0.271458 0.827075 0.218447
O O2 0.310728 0.893124 0.443078
O O3 0.383179 0.901489 0.164121
O O4 0.277056 0.000000 0.264984
O O5 0.218442 0.676009 0.278318
O O6 0.337017 0.676386 0.095448
O O7 0.250000 0.750000 0.000000
O O8 0.750000 0.250000 0.500000
O O9 0.623439 0.239745 0.498183
O O10 0.485502 0.500000 0.296998
O O11 0.479383 0.332637 0.364320
O O12 0.436247 0.384730 0.155437
O O13 0.564321 0.386695 0.116217
O O14 0.980207 0.500000 0.191305
O O15 0.970316 0.330991 0.272529
O O16 0.000000 0.366223 0.000000
O O17 0.000000 0.694793 0.500000
O O18 0.638409 0.500000 0.924534
#
# Coordination Sequence:
#
# PCOD8115141 Si02
#       7
#     8   8   8   8   8   8   8
#     4   9  19  37  57  78 109 151 199 238 278 343
#     4  11  23  35  58  86 122 150 190 244 301 351
#     4   9  20  40  55  78 112 156 202 233 278 357
#     4   9  19  36  59  85 115 150 199 242 286 353
#     4   9  19  35  57  83 107 146 198 240 278 339
#     4  11  23  34  58  87 122 153 186 239 313 349
#     4   9  19  36  59  86 112 152 200 245 289 344
#
# _framework density 19.135103000000001
#
# number of rings (size 3 to 8) (size 9 to 14) (size 15 to 20)
#    0.000    2.429    0.000    3.429    6.000    1.714 
#    0.000    4.286    0.000    0.000    0.000    0.000 
#    0.000    0.000    0.000    0.000    0.000    0.000 
#
# Total GULP energy -346969.771307 kJ/mol
# GULP energy per Si atom -12391.777547 kJ/mol
# Density = 1.909155 g / cm^3
# Si number density = 19.135103 Si / 1000 Ang^3
#
#
#
# Elastic Constant Matrix: (Units=GPa)
#
#
# Indices 1 2 3 4 5 6 
#
# 1 81.2590 35.7555 51.8224 0.0000 -11.0183 0.0000
# 2 35.7555 104.8977 41.2525 0.0000 -3.2758 0.0000
# 3 51.8224 41.2525 125.1268 0.0000 -6.8404 0.0000
# 4 0.0000 0.0000 0.0000 -14.9088 0.0000 -21.4489
# 5 -11.0183 -3.2758 -6.8404 0.0000 27.5657 0.0000
# 6 0.0000 0.0000 0.0000 -21.4489 0.0000 3.3913
#
#
#
# Elastic Compliance Matrix: (Units=1/GPa)
#
#
# Indices 1 2 3 4 5 6 
#
# 1 0.018644 -0.003751 -0.006186 0.000000 0.005471 0.000000
# 2 -0.003751 0.011713 -0.002345 0.000000 -0.000690 0.000000
# 3 -0.006186 -0.002345 0.011330 0.000000 0.000060 0.000000
# 4 0.000000 0.000000 0.000000 -0.006642 0.000000 -0.042006
# 5 0.005471 -0.000690 0.000060 0.000000 0.038397 0.000000
# 6 0.000000 0.000000 0.000000 -0.042006 0.000000 0.029198
#
#
# Mechanical properties :
#
#
# Convention : Reuss Voigt Hill
#
# Bulk Modulus (GPa) = 58.40564 63.21602 60.81083
# Shear Modulus (GPa) = 37.61879 15.37317 26.49598
#
# Velocity S-wave (km/s) = 4.43872 2.83751 3.72516
# Velocity P-wave (km/s) = 7.54047 6.62146 7.09586
#
# Compressibility (1/GPa) = 0.01712164
#
# Stress axis : x y z
#
# Youngs Moduli (GPa) = 53.63722 85.37747 88.25900
#
# Poissons Ratio (x) = 0.32029 0.54593
# Poissons Ratio (y) = 0.20122 0.20701
# Poissons Ratio (z) = 0.33178 0.20025
#
# Static dielectric constant tensor:
#      x y z
#    x 3.455710 0.000000 -0.226570 
#    y 0.000000 3.721130 0.000000 
#    z -0.226570 0.000000 3.711100 
# 
# 
# High freq. dielectric constant tensor:
#      x y z
#    x 1.727130 0.000000 -0.016640 
#    y 0.000000 1.746430 0.000000 
#    z -0.016640 0.000000 1.745230 
# 
# From -- ./inp_files/96237.got.cif
#   From: 2010.06.25/outbox.cif.g09.slc.cpg/sg12_49_cif.got.tgz:96237.got - 2010.06.28 00:19:55.
