data_PCOD8115516
_publ_section_title
;
Structure prediction by ZEFSAII (Michael W. Deem and Ramdas Pophale) SiO2 
 PCOD8115516
Probable space group: C 2/M
;
_chemical_formula_sum "Si O2"
_cell_formula_units_Z 64
_cell_length_a 26.372369
_cell_length_b 13.885226
_cell_length_c 9.987426
_cell_angle_alpha 90.000000
_cell_angle_beta 68.545093
_cell_angle_gamma 90.000000
_cell_volume 3403.831523
_symmetry_space_group_name_H-M "C 2/M"
_symmetry_group_IT_number 12
_symmetry_cell_setting 'monoclinic'
loop_
_space_group_symop_operation_xyz
x,y,z
-x,y,-z
-x,-y,-z
x,-y,z
1/2+x,1/2+y,z
1/2-x,1/2+y,-z
1/2-x,1/2-y,-z
1/2+x,1/2-y,z
loop_
_atom_site_type_symbol
_atom_site_label
_atom_site_fract_x
_atom_site_fract_y
_atom_site_fract_z
Si Si1 0.278011 0.610722 0.870106
Si Si2 0.154172 0.392827 0.997734
Si Si3 0.345805 0.108082 0.320137
Si Si4 0.777489 0.111426 0.567901
Si Si5 0.436709 0.387824 0.585912
Si Si6 0.617305 0.299753 0.613453
Si Si7 0.061101 0.113413 0.915699
Si Si8 0.381195 0.302619 0.891674
O O1 0.295958 0.500000 0.855240
O O2 0.282916 0.650626 0.714283
O O3 0.318792 0.668144 0.926338
O O4 0.216663 0.622363 0.982864
O O5 0.134328 0.500000 0.058047
O O6 0.116593 0.314250 0.108865
O O7 0.149898 0.379845 0.842838
O O8 0.283646 0.126553 0.427061
O O9 0.385029 0.185097 0.355325
O O10 0.364063 0.000000 0.344068
O O11 0.819822 0.167036 0.431136
O O12 0.793202 0.000000 0.549445
O O13 0.500000 0.373484 0.500000
O O14 0.419969 0.500000 0.591006
O O15 0.402492 0.323662 0.516330
O O16 0.423134 0.347649 0.745701
O O17 0.578088 0.357599 0.750271
O O18 0.063921 0.000000 0.930461
O O19 0.102989 0.161099 0.977279
O O20 0.000000 0.151402 0.000000
#
# Coordination Sequence:
#
# PCOD8115516 Si02
#       8
#     8   8   8   8   8   8   8   8
#     4   9  17  31  54  84 117 149 182 221 273 338
#     4   9  19  36  56  83 117 151 187 227 272 328
#     4   9  19  36  56  83 117 151 187 227 272 328
#     4   9  17  31  54  84 117 149 182 221 273 338
#     4  11  24  40  60  85 113 147 186 230 284 343
#     4  12  20  36  60  84 110 150 192 225 277 338
#     4  11  24  38  54  81 115 143 180 240 292 329
#     4  12  20  36  60  84 110 150 192 225 277 338
#
# _framework density 18.802340000000001
#
# number of rings (size 3 to 8) (size 9 to 14) (size 15 to 20)
#    0.000    1.750    2.500    5.250    0.000    2.000 
#    0.000    0.625    0.000    7.500    0.000    0.000 
#    0.000    0.000    0.000    0.000    0.000    0.000 
#
# Total GULP energy -396804.803276 kJ/mol
# GULP energy per Si atom -12400.150102 kJ/mol
# Density = 1.875955 g / cm^3
# Si number density = 18.802340 Si / 1000 Ang^3
#
#
#
# Elastic Constant Matrix: (Units=GPa)
#
#
# Indices 1 2 3 4 5 6 
#
# 1 46.6337 43.4797 11.3116 0.0000 -3.0078 0.0000
# 2 43.4797 117.3745 21.3031 0.0000 -4.1450 0.0000
# 3 11.3116 21.3031 45.2798 0.0000 -6.6128 0.0000
# 4 0.0000 0.0000 0.0000 29.4474 0.0000 1.8336
# 5 -3.0078 -4.1450 -6.6128 0.0000 19.1005 0.0000
# 6 0.0000 0.0000 0.0000 1.8336 0.0000 22.3203
#
#
#
# Elastic Compliance Matrix: (Units=1/GPa)
#
#
# Indices 1 2 3 4 5 6 
#
# 1 0.033122 -0.011756 -0.002480 0.000000 0.001806 0.000000
# 2 -0.011756 0.013493 -0.003427 0.000000 -0.000110 0.000000
# 3 -0.002480 -0.003427 0.025437 0.000000 0.007672 0.000000
# 4 0.000000 0.000000 0.000000 0.034133 0.000000 -0.002804
# 5 0.001806 -0.000110 0.007672 0.000000 0.055272 0.000000
# 6 0.000000 0.000000 0.000000 -0.002804 0.000000 0.045033
#
#
# Mechanical properties :
#
#
# Convention : Reuss Voigt Hill
#
# Bulk Modulus (GPa) = 27.22821 40.16408 33.69615
# Shear Modulus (GPa) = 19.68052 23.05322 21.36687
#
# Velocity S-wave (km/s) = 3.23879 3.50534 3.37470
# Velocity P-wave (km/s) = 5.33846 6.14743 5.75717
#
# Compressibility (1/GPa) = 0.03672661
#
# Stress axis : x y z
#
# Youngs Moduli (GPa) = 30.19096 74.11417 39.31226
#
# Poissons Ratio (x) = 0.87128 0.09749
# Poissons Ratio (y) = 0.35492 0.13473
# Poissons Ratio (z) = 0.07487 0.25401
#
# Static dielectric constant tensor:
#      x y z
#    x 3.360460 0.000000 -0.074690 
#    y 0.000000 3.499830 0.000000 
#    z -0.074690 0.000000 3.258950 
# 
# 
# High freq. dielectric constant tensor:
#      x y z
#    x 1.719360 0.000000 -0.003680 
#    y 0.000000 1.730890 0.000000 
#    z -0.003680 0.000000 1.714910 
# 
# From -- ./inp_files/104502.got.cif
#   From: 2010.06.25/outbox.cif.g09.slc.cpg/sg12_53_cif.got.tgz:104502.got - 2010.06.28 00:19:55.
