data_PCOD8115974
_publ_section_title
;
Structure prediction by ZEFSAII (Michael W. Deem and Ramdas Pophale) SiO2 
 PCOD8115974
Probable space group: C 2/M
;
_chemical_formula_sum "Si O2"
_cell_formula_units_Z 64
_cell_length_a 27.278291
_cell_length_b 9.811056
_cell_length_c 18.459572
_cell_angle_alpha 90.000000
_cell_angle_beta 112.727683
_cell_angle_gamma 90.000000
_cell_volume 4556.706028
_symmetry_space_group_name_H-M "C 2/M"
_symmetry_group_IT_number 12
_symmetry_cell_setting 'monoclinic'
loop_
_space_group_symop_operation_xyz
x,y,z
-x,y,-z
-x,-y,-z
x,-y,z
1/2+x,1/2+y,z
1/2-x,1/2+y,-z
1/2-x,1/2-y,-z
1/2+x,1/2-y,z
loop_
_atom_site_type_symbol
_atom_site_label
_atom_site_fract_x
_atom_site_fract_y
_atom_site_fract_z
Si Si1 0.889452 0.343512 0.271864
Si Si2 0.038957 0.846910 0.417236
Si Si3 0.010557 0.661686 0.119289
Si Si4 0.494159 0.841490 0.721363
Si Si5 0.417058 0.838387 0.966558
Si Si6 0.303988 0.842005 0.951972
Si Si7 0.579544 0.347237 0.590971
Si Si8 0.706929 0.843592 0.886153
O O1 0.885022 0.500000 0.292825
O O2 0.944368 0.315267 0.261816
O O3 0.884060 0.255675 0.342275
O O4 0.842541 0.300450 0.191381
O O5 0.078940 0.805663 0.505505
O O6 0.044865 0.741409 0.354452
O O7 0.979751 0.840601 0.413321
O O8 0.051917 0.000000 0.397595
O O9 0.005737 0.500000 0.119761
O O10 0.061950 0.705545 0.101089
O O11 0.016076 0.717339 0.203914
O O12 0.957227 0.720130 0.050678
O O13 0.479266 0.000000 0.705751
O O14 0.357560 0.784151 0.945254
O O15 0.416611 0.000000 0.973586
O O16 0.255940 0.752935 0.892956
O O17 0.293421 0.000000 0.926925
O O18 0.310514 0.820600 0.041296
O O19 0.602335 0.500000 0.612770
O O20 0.723653 0.000000 0.882422
#
# Coordination Sequence:
#
# PCOD8115974 Si02
#       8
#     8   8   8   8   8   8   8   8
#     4   9  16  24  35  52  74  98 122 150 182 213
#     4   8  14  24  35  48  70  99 124 145 175 213
#     4   8  13  21  35  56  77  95 119 152 186 214
#     4   9  15  22  35  55  75  95 122 153 179 208
#     4   8  13  22  37  55  74  96 122 153 185 213
#     4   9  16  26  40  55  71  95 127 156 179 210
#     4   8  14  24  36  49  68  96 126 150 173 208
#     4   9  17  27  37  52  75  99 122 151 186 217
#
# _framework density 14.045234000000001
#
# number of rings (size 3 to 8) (size 9 to 14) (size 15 to 20)
#    0.000    3.500    0.000    2.250    0.000    4.000 
#    0.000    2.500    0.000    3.000    0.000    1.750 
#    0.000    1.000    0.000    2.250    0.000    3.500 
#
# Total GULP energy -396584.363841 kJ/mol
# GULP energy per Si atom -12393.261370 kJ/mol
# Density = 1.401327 g / cm^3
# Si number density = 14.045234 Si / 1000 Ang^3
#
#
#
# Elastic Constant Matrix: (Units=GPa)
#
#
# Indices 1 2 3 4 5 6 
#
# 1 67.5671 29.8011 36.3239 0.0000 -1.6825 0.0000
# 2 29.8011 51.9438 53.0922 0.0000 1.7422 0.0000
# 3 36.3239 53.0922 117.4223 0.0000 -3.5679 0.0000
# 4 0.0000 0.0000 0.0000 21.2154 0.0000 4.6985
# 5 -1.6825 1.7422 -3.5679 0.0000 16.9976 0.0000
# 6 0.0000 0.0000 0.0000 4.6985 0.0000 12.3369
#
#
#
# Elastic Compliance Matrix: (Units=1/GPa)
#
#
# Indices 1 2 3 4 5 6 
#
# 1 0.020147 -0.009967 -0.001644 0.000000 0.002671 0.000000
# 2 -0.009967 0.041599 -0.015987 0.000000 -0.008606 0.000000
# 3 -0.001644 -0.015987 0.016403 0.000000 0.004919 0.000000
# 4 0.000000 0.000000 0.000000 0.051477 0.000000 -0.019605
# 5 0.002671 -0.008606 0.004919 0.000000 0.061011 0.000000
# 6 0.000000 0.000000 0.000000 -0.019605 0.000000 0.088524
#
#
# Mechanical properties :
#
#
# Convention : Reuss Voigt Hill
#
# Bulk Modulus (GPa) = 43.57077 52.81862 48.19469
# Shear Modulus (GPa) = 14.61945 17.95773 16.28859
#
# Velocity S-wave (km/s) = 3.22977 3.57958 3.40917
# Velocity P-wave (km/s) = 6.70803 7.40083 7.06293
#
# Compressibility (1/GPa) = 0.02295117
#
# Stress axis : x y z
#
# Youngs Moduli (GPa) = 49.63552 24.03888 60.96448
#
# Poissons Ratio (x) = 0.23960 0.10025
# Poissons Ratio (y) = 0.49474 0.97465
# Poissons Ratio (z) = 0.08162 0.38431
#
# Static dielectric constant tensor:
#      x y z
#    x 2.588010 0.000000 -0.043510 
#    y 0.000000 2.663250 0.000000 
#    z -0.043510 0.000000 2.976700 
# 
# 
# High freq. dielectric constant tensor:
#      x y z
#    x 1.495960 0.000000 -0.000710 
#    y 0.000000 1.516500 0.000000 
#    z -0.000710 0.000000 1.536270 
# 
# From -- ./inp_files/294600.got.cif
#   From: 2010.06.25/outbox.cif.g09.slc.cpg/sg12_148_cif.got.tgz:294600.got - 2010.06.28 00:19:55.
