data_PCOD8115257
_publ_section_title
;
Structure prediction by ZEFSAII (Michael W. Deem and Ramdas Pophale) SiO2 
 PCOD8115257
Probable space group: C 2/M
;
_chemical_formula_sum "Si O2"
_cell_formula_units_Z 40
_cell_length_a 8.799358
_cell_length_b 21.200197
_cell_length_c 9.787035
_cell_angle_alpha 90.000000
_cell_angle_beta 84.866956
_cell_angle_gamma 90.000000
_cell_volume 1818.431068
_symmetry_space_group_name_H-M "C 2/M"
_symmetry_group_IT_number 12
_symmetry_cell_setting 'monoclinic'
loop_
_space_group_symop_operation_xyz
x,y,z
-x,y,-z
-x,-y,-z
x,-y,z
1/2+x,1/2+y,z
1/2-x,1/2+y,-z
1/2-x,1/2-y,-z
1/2+x,1/2-y,z
loop_
_atom_site_type_symbol
_atom_site_label
_atom_site_fract_x
_atom_site_fract_y
_atom_site_fract_z
Si Si1 0.335313 0.931436 0.467156
Si Si2 0.802945 0.893103 0.264547
Si Si3 0.852044 0.141911 0.741290
Si Si4 0.140548 0.727881 0.393684
Si Si5 0.321297 0.071843 0.015870
O O1 0.500000 0.904455 0.500000
O O2 0.237074 0.941228 0.611653
O O3 0.246448 0.883300 0.377844
O O4 0.353539 0.000000 0.393643
O O5 0.711965 0.828371 0.299935
O O6 0.748675 0.922233 0.127766
O O7 0.984687 0.889374 0.252246
O O8 0.885485 0.216000 0.714440
O O9 0.755587 0.125324 0.883707
O O10 0.250000 0.750000 0.500000
O O11 0.000000 0.707022 0.500000
O O12 0.291737 0.000000 0.071137
O O13 0.500000 0.086608 0.000000
#
# Coordination Sequence:
#
# PCOD8115257 Si02
#       5
#     8   8   8   8   8
#     4  11  23  39  64  96 130 174 226 278 338 403
#     4  12  25  42  69  99 134 179 224 279 340 398
#     4  12  25  43  68 100 133 177 226 279 340 400
#     4  12  24  44  70 104 141 176 221 283 340 401
#     4  11  27  48  69  97 137 182 228 279 341 409
#
# _framework density 21.996983
#
# number of rings (size 3 to 8) (size 9 to 14) (size 15 to 20)
#    0.000    0.400    4.000    4.200    2.800    8.800 
#    0.000    0.000    0.000    0.000    0.000    0.000 
#    0.000    0.000    0.000    0.000    0.000    0.000 
#
# Total GULP energy -247844.186464 kJ/mol
# GULP energy per Si atom -12392.209323 kJ/mol
# Density = 2.194692 g / cm^3
# Si number density = 21.996983 Si / 1000 Ang^3
#
#
#
# Elastic Constant Matrix: (Units=GPa)
#
#
# Indices 1 2 3 4 5 6 
#
# 1 159.3582 10.7063 20.7043 0.0000 -1.3203 0.0000
# 2 10.7063 88.7557 1.9339 0.0000 -9.0184 0.0000
# 3 20.7043 1.9339 99.6287 0.0000 -5.7469 0.0000
# 4 0.0000 0.0000 0.0000 28.5806 0.0000 -0.0841
# 5 -1.3203 -9.0184 -5.7469 0.0000 44.5412 0.0000
# 6 0.0000 0.0000 0.0000 -0.0841 0.0000 25.5000
#
#
#
# Elastic Compliance Matrix: (Units=1/GPa)
#
#
# Indices 1 2 3 4 5 6 
#
# 1 0.006500 -0.000769 -0.001344 0.000000 -0.000136 0.000000
# 2 -0.000769 0.011595 0.000069 0.000000 0.002334 0.000000
# 3 -0.001344 0.000069 0.010391 0.000000 0.001315 0.000000
# 4 0.000000 0.000000 0.000000 0.034989 0.000000 0.000115
# 5 -0.000136 0.002334 0.001315 0.000000 0.023089 0.000000
# 6 0.000000 0.000000 0.000000 0.000115 0.000000 0.039216
#
#
# Mechanical properties :
#
#
# Convention : Reuss Voigt Hill
#
# Bulk Modulus (GPa) = 40.98331 46.04795 43.51563
# Shear Modulus (GPa) = 36.23168 40.68424 38.45796
#
# Velocity S-wave (km/s) = 4.06288 4.30529 4.18584
# Velocity P-wave (km/s) = 6.37817 6.75968 6.57169
#
# Compressibility (1/GPa) = 0.02440018
#
# Stress axis : x y z
#
# Youngs Moduli (GPa) = 153.83969 86.24230 96.23689
#
# Poissons Ratio (x) = 0.06629 0.12932
# Poissons Ratio (y) = 0.11825 -0.00667
# Poissons Ratio (z) = 0.20673 -0.00598
#
# Static dielectric constant tensor:
#      x y z
#    x 4.106040 0.000000 -0.028750 
#    y 0.000000 3.684380 0.000000 
#    z -0.028750 0.000000 3.911390 
# 
# 
# High freq. dielectric constant tensor:
#      x y z
#    x 1.887100 0.000000 -0.000600 
#    y 0.000000 1.878120 0.000000 
#    z -0.000600 0.000000 1.859630 
# 
# From -- ./inp_files/39235.got.cif
#   From: 2010.06.25/outbox.cif.g09.slc.cpg/sg12_20_cif.got.tgz:39235.got - 2010.06.28 00:19:55.
