data_PCOD8115675
_publ_section_title
;
Structure prediction by ZEFSAII (Michael W. Deem and Ramdas Pophale) SiO2 
 PCOD8115675
Probable space group: C 2/M
;
_chemical_formula_sum "Si O2"
_cell_formula_units_Z 48
_cell_length_a 14.005524
_cell_length_b 17.105772
_cell_length_c 8.637433
_cell_angle_alpha 90.000000
_cell_angle_beta 90.487960
_cell_angle_gamma 90.000000
_cell_volume 2069.240560
_symmetry_space_group_name_H-M "C 2/M"
_symmetry_group_IT_number 12
_symmetry_cell_setting 'monoclinic'
loop_
_space_group_symop_operation_xyz
x,y,z
-x,y,-z
-x,-y,-z
x,-y,z
1/2+x,1/2+y,z
1/2-x,1/2+y,-z
1/2-x,1/2-y,-z
1/2+x,1/2-y,z
loop_
_atom_site_type_symbol
_atom_site_label
_atom_site_fract_x
_atom_site_fract_y
_atom_site_fract_z
Si Si1 0.266884 0.773776 0.826523
Si Si2 0.968996 0.088105 0.833775
Si Si3 0.329674 0.000000 0.481727
Si Si4 0.980011 0.673634 0.826830
Si Si5 0.195128 0.136438 0.368041
Si Si6 0.514162 0.000000 0.270518
Si Si7 0.594926 0.695705 0.660641
O O1 0.370318 0.806620 0.788451
O O2 0.239811 0.701066 0.713110
O O3 0.182877 0.831555 0.773108
O O4 0.250000 0.750000 0.000000
O O5 0.858278 0.096017 0.781024
O O6 0.017927 0.129780 0.691205
O O7 0.003826 0.000000 0.838827
O O8 0.000000 0.126698 0.000000
O O9 0.262544 0.924338 0.458764
O O10 0.420831 0.000000 0.373783
O O11 0.380437 0.000000 0.649756
O O12 0.994530 0.580085 0.826385
O O13 0.047766 0.719277 0.704480
O O14 0.000000 0.704393 0.000000
O O15 0.124899 0.185086 0.482387
#
# Coordination Sequence:
#
# PCOD8115675 Si02
#       7
#     8   8   4   8   8   4   8
#     4  12  25  44  71 107 147 191 247 300 363 447
#     4  11  24  45  70 103 144 186 233 296 368 440
#     4  11  26  48  72 110 152 190 246 314 370 446
#     4  12  25  48  75 106 151 197 254 308 369 441
#     4  12  25  45  75 106 144 191 242 301 373 442
#     4  11  27  50  74 104 148 198 253 310 370 432
#     4  12  25  44  73 107 145 192 243 305 372 438
#
# _framework density 23.196918
#
# number of rings (size 3 to 8) (size 9 to 14) (size 15 to 20)
#    0.000    0.333    4.167    4.750    1.167    3.333 
#    1.500    0.000    0.000    0.000    0.000    0.000 
#    0.000    0.000    0.000    0.000    0.000    0.000 
#
# Total GULP energy -297323.604235 kJ/mol
# GULP energy per Si atom -12388.483510 kJ/mol
# Density = 2.314412 g / cm^3
# Si number density = 23.196918 Si / 1000 Ang^3
#
#
#
# Elastic Constant Matrix: (Units=GPa)
#
#
# Indices 1 2 3 4 5 6 
#
# 1 120.6974 26.6965 27.5608 0.0000 13.2949 0.0000
# 2 26.6965 122.2124 28.2069 0.0000 -12.9846 0.0000
# 3 27.5608 28.2069 118.5628 0.0000 3.3103 0.0000
# 4 0.0000 0.0000 0.0000 28.7325 0.0000 8.4005
# 5 13.2949 -12.9846 3.3103 0.0000 44.7935 0.0000
# 6 0.0000 0.0000 0.0000 8.4005 0.0000 17.8040
#
#
#
# Elastic Compliance Matrix: (Units=1/GPa)
#
#
# Indices 1 2 3 4 5 6 
#
# 1 0.009469 -0.002043 -0.001624 0.000000 -0.003283 0.000000
# 2 -0.002043 0.009429 -0.001865 0.000000 0.003477 0.000000
# 3 -0.001624 -0.001865 0.009276 0.000000 -0.000744 0.000000
# 4 0.000000 0.000000 0.000000 0.040373 0.000000 -0.019049
# 5 -0.003283 0.003477 -0.000744 0.000000 0.024362 0.000000
# 6 0.000000 0.000000 0.000000 -0.019049 0.000000 0.065155
#
#
# Mechanical properties :
#
#
# Convention : Reuss Voigt Hill
#
# Bulk Modulus (GPa) = 58.44152 58.48901 58.46526
# Shear Modulus (GPa) = 28.59897 36.86656 32.73276
#
# Velocity S-wave (km/s) = 3.51505 3.99091 3.76051
# Velocity P-wave (km/s) = 6.45929 6.81948 6.64183
#
# Compressibility (1/GPa) = 0.01711112
#
# Stress axis : x y z
#
# Youngs Moduli (GPa) = 105.60450 106.05977 107.80100
#
# Poissons Ratio (x) = 0.21663 0.17503
# Poissons Ratio (y) = 0.21570 0.20109
# Poissons Ratio (z) = 0.17146 0.19785
#
# Static dielectric constant tensor:
#      x y z
#    x 4.547160 0.000000 0.294460 
#    y 0.000000 4.197720 0.000000 
#    z 0.294460 0.000000 4.205430 
# 
# 
# High freq. dielectric constant tensor:
#      x y z
#    x 1.938780 0.000000 0.014420 
#    y 0.000000 1.909790 0.000000 
#    z 0.014420 0.000000 1.919500 
# 
# From -- ./inp_files/61776.got.cif
#   From: 2010.06.25/outbox.cif.g09.slc.cpg/sg12_31_cif.got.tgz:61776.got - 2010.06.28 00:19:55.
