data_PCOD8115717
_publ_section_title
;
Structure prediction by ZEFSAII (Michael W. Deem and Ramdas Pophale) SiO2 
 PCOD8115717
Probable space group: C 2/M
;
_chemical_formula_sum "Si O2"
_cell_formula_units_Z 64
_cell_length_a 14.611764
_cell_length_b 18.419057
_cell_length_c 17.423628
_cell_angle_alpha 90.000000
_cell_angle_beta 140.421988
_cell_angle_gamma 90.000000
_cell_volume 2987.689715
_symmetry_space_group_name_H-M "C 2/M"
_symmetry_group_IT_number 12
_symmetry_cell_setting 'monoclinic'
loop_
_space_group_symop_operation_xyz
x,y,z
-x,y,-z
-x,-y,-z
x,-y,z
1/2+x,1/2+y,z
1/2-x,1/2+y,-z
1/2-x,1/2-y,-z
1/2+x,1/2-y,z
loop_
_atom_site_type_symbol
_atom_site_label
_atom_site_fract_x
_atom_site_fract_y
_atom_site_fract_z
Si Si1 0.059689 0.294225 0.956927
Si Si2 0.648117 0.709490 0.780605
Si Si3 0.865645 0.171650 0.769719
Si Si4 0.166484 0.788879 0.618442
Si Si5 0.946764 0.917141 0.682632
Si Si6 0.221503 0.581550 0.408741
Si Si7 0.671778 0.583855 0.116106
Si Si8 0.070461 0.647219 0.801048
O O1 0.036053 0.348350 0.870027
O O2 0.994933 0.215937 0.893590
O O3 0.229861 0.287041 0.076189
O O4 0.000000 0.324793 0.000000
O O5 0.714373 0.716993 0.738612
O O6 0.566524 0.633291 0.721626
O O7 0.545639 0.775400 0.741680
O O8 0.764263 0.222744 0.649818
O O9 0.930019 0.108218 0.759038
O O10 0.773970 0.130252 0.775864
O O11 0.208032 0.864929 0.608157
O O12 0.000000 0.772055 0.500000
O O13 0.798959 0.908420 0.540440
O O14 0.001705 0.000000 0.717767
O O15 0.245811 0.500000 0.393376
O O16 0.052691 0.595179 0.312796
O O17 0.707541 0.500000 0.150375
O O18 0.769549 0.614200 0.109129
O O19 0.500000 0.596219 0.000000
#
# Coordination Sequence:
#
# PCOD8115717 Si02
#       8
#     8   8   8   8   8   8   8   8
#     4  12  23  41  69 104 133 175 222 279 343 397
#     4  12  23  40  69  97 133 171 228 277 333 398
#     4  12  23  42  67  96 136 171 224 283 336 400
#     4  12  24  41  69 101 128 175 228 282 330 398
#     4  11  26  43  64  96 136 178 222 280 341 401
#     4  11  25  45  66  94 134 182 228 275 344 405
#     4  11  25  43  66 100 138 179 223 271 340 412
#     4  12  23  43  70 101 133 178 225 283 332 404
#
# _framework density 21.421233000000001
#
# number of rings (size 3 to 8) (size 9 to 14) (size 15 to 20)
#    0.000    0.375    6.250    2.250    3.500    1.750 
#    0.000    0.625    0.000    5.625    0.000    0.000 
#    0.000    0.000    0.000    0.000    0.000    0.000 
#
# Total GULP energy -396719.521115 kJ/mol
# GULP energy per Si atom -12397.485035 kJ/mol
# Density = 2.137248 g / cm^3
# Si number density = 21.421233 Si / 1000 Ang^3
#
#
#
# Elastic Constant Matrix: (Units=GPa)
#
#
# Indices 1 2 3 4 5 6 
#
# 1 101.7884 45.1613 25.4058 0.0004 -4.6612 0.0002
# 2 45.1613 152.3285 49.4869 0.0003 7.4402 0.0001
# 3 25.4058 49.4869 100.3054 0.0010 12.1202 0.0006
# 4 0.0004 0.0003 0.0010 30.6940 0.0007 -2.3904
# 5 -4.6612 7.4402 12.1202 0.0007 34.7298 0.0003
# 6 0.0002 0.0001 0.0006 -2.3904 0.0003 34.4033
#
#
#
# Elastic Compliance Matrix: (Units=1/GPa)
#
#
# Indices 1 2 3 4 5 6 
#
# 1 0.011757 -0.003032 -0.001828 0.000000 0.002865 0.000000
# 2 -0.003032 0.008603 -0.003346 0.000000 -0.001082 0.000000
# 3 -0.001828 -0.003346 0.012556 0.000000 -0.003910 0.000000
# 4 0.000000 0.000000 0.000000 0.032757 -0.000001 0.002276
# 5 0.002865 -0.001082 -0.003910 -0.000001 0.030775 0.000000
# 6 0.000000 0.000000 0.000000 0.002276 0.000000 0.029225
#
#
# Mechanical properties :
#
#
# Convention : Reuss Voigt Hill
#
# Bulk Modulus (GPa) = 60.59010 66.05891 63.32450
# Shear Modulus (GPa) = 33.87843 35.58998 34.73421
#
# Velocity S-wave (km/s) = 3.98117 4.08049 4.03114
# Velocity P-wave (km/s) = 7.03416 7.28736 7.16188
#
# Compressibility (1/GPa) = 0.01650435
#
# Stress axis : x y z
#
# Youngs Moduli (GPa) = 85.05619 116.23301 79.64355
#
# Poissons Ratio (x) = 0.35237 0.14562
# Poissons Ratio (y) = 0.25785 0.26648
# Poissons Ratio (z) = 0.15552 0.38891
#
# Static dielectric constant tensor:
#      x y z
#    x 3.858740 0.000000 0.022020 
#    y 0.000000 3.931010 0.000000 
#    z 0.022020 0.000000 3.885440 
# 
# 
# High freq. dielectric constant tensor:
#      x y z
#    x 1.845930 0.000000 0.004060 
#    y 0.000000 1.838240 0.000000 
#    z 0.004060 0.000000 1.841150 
# 
# From -- ./inp_files/271747.got.cif
#   From: 2010.06.25/outbox.cif.g09.slc.cpg/sg12_136_cif.got.tgz:271747.got - 2010.06.28 00:19:55.
