data_PCOD8115354
_publ_section_title
;
Structure prediction by ZEFSAII (Michael W. Deem and Ramdas Pophale) SiO2 
 PCOD8115354
Probable space group: C 2/M
;
_chemical_formula_sum "Si O2"
_cell_formula_units_Z 48
_cell_length_a 11.666426
_cell_length_b 15.066831
_cell_length_c 27.278204
_cell_angle_alpha 90.000000
_cell_angle_beta 151.461744
_cell_angle_gamma 90.000000
_cell_volume 2290.720306
_symmetry_space_group_name_H-M "C 2/M"
_symmetry_group_IT_number 12
_symmetry_cell_setting 'monoclinic'
loop_
_space_group_symop_operation_xyz
x,y,z
-x,y,-z
-x,-y,-z
x,-y,z
1/2+x,1/2+y,z
1/2-x,1/2+y,-z
1/2-x,1/2-y,-z
1/2+x,1/2-y,z
loop_
_atom_site_type_symbol
_atom_site_label
_atom_site_fract_x
_atom_site_fract_y
_atom_site_fract_z
Si Si1 0.394985 0.000000 0.103685
Si Si2 0.527929 0.836540 0.710847
Si Si3 0.582816 0.653557 0.220555
Si Si4 0.258766 0.000000 0.939829
Si Si5 0.768041 0.681366 0.110737
Si Si6 0.795150 0.000000 0.384065
Si Si7 0.561310 0.500000 0.672785
Si Si8 0.720867 0.655320 0.383963
O O1 0.307003 0.085770 0.100705
O O2 0.679910 0.000000 0.204497
O O3 0.287076 0.000000 0.009002
O O4 0.674933 0.863599 0.718313
O O5 0.717583 0.817977 0.825076
O O6 0.361293 0.754120 0.633586
O O7 0.362881 0.913790 0.668873
O O8 0.380519 0.586978 0.127806
O O9 0.475132 0.751611 0.169641
O O10 0.657168 0.634665 0.304040
O O11 0.500000 0.000000 0.000000
O O12 0.500000 0.716680 0.000000
O O13 0.000000 0.000000 0.500000
O O14 0.915442 0.000000 0.376532
O O15 0.420180 0.587749 0.634689
O O16 0.000000 0.644500 0.500000
#
# Coordination Sequence:
#
# PCOD8115354 Si02
#       8
#     4   8   8   4   8   4   4   8
#     4  12  23  42  68  92 136 177 222 273 339 399
#     4  11  24  45  68 101 140 174 232 279 334 409
#     4  11  25  43  66  99 139 171 229 280 335 401
#     4  12  25  41  65  97 129 180 221 279 338 401
#     4  11  23  41  66  99 132 181 222 272 339 400
#     4  12  27  45  71 102 134 183 227 286 341 396
#     4  12  25  46  70 100 139 176 231 277 338 414
#     4  11  26  44  72 100 134 183 224 282 347 397
#
# _framework density 20.954108999999999
#
# number of rings (size 3 to 8) (size 9 to 14) (size 15 to 20)
#    0.000    0.667    1.667    5.500    4.667    6.000 
#    0.000    0.000    0.000    0.000    0.000    0.000 
#    0.000    0.000    0.000    0.000    0.000    0.000 
#
# Total GULP energy -297710.439732 kJ/mol
# GULP energy per Si atom -12404.601655 kJ/mol
# Density = 2.090642 g / cm^3
# Si number density = 20.954109 Si / 1000 Ang^3
#
#
#
# Elastic Constant Matrix: (Units=GPa)
#
#
# Indices 1 2 3 4 5 6 
#
# 1 163.4434 62.4694 54.9610 0.0002 1.8856 0.0002
# 2 62.4694 130.4208 41.9167 0.0003 -7.8293 0.0003
# 3 54.9610 41.9167 148.2892 0.0030 1.7645 -0.0015
# 4 0.0002 0.0003 0.0030 19.3799 0.0011 7.4130
# 5 1.8856 -7.8293 1.7645 0.0011 31.4967 0.0001
# 6 0.0002 0.0003 -0.0015 7.4130 0.0001 33.0624
#
#
#
# Elastic Compliance Matrix: (Units=1/GPa)
#
#
# Indices 1 2 3 4 5 6 
#
# 1 0.008075 -0.003280 -0.002052 0.000000 -0.001184 0.000000
# 2 -0.003280 0.009925 -0.001623 0.000000 0.002754 0.000000
# 3 -0.002052 -0.001623 0.007971 -0.000001 -0.000727 0.000001
# 4 0.000000 0.000000 -0.000001 0.056440 -0.000002 -0.012655
# 5 -0.001184 0.002754 -0.000727 -0.000002 0.032546 0.000000
# 6 0.000000 0.000000 0.000001 -0.012655 0.000000 0.033083
#
#
# Mechanical properties :
#
#
# Convention : Reuss Voigt Hill
#
# Bulk Modulus (GPa) = 82.89434 84.53865 83.71649
# Shear Modulus (GPa) = 30.12572 35.64155 32.88364
#
# Velocity S-wave (km/s) = 3.79581 4.12871 3.96576
# Velocity P-wave (km/s) = 7.67182 7.94736 7.81081
#
# Compressibility (1/GPa) = 0.01206355
#
# Stress axis : x y z
#
# Youngs Moduli (GPa) = 123.83186 100.75282 125.44757
#
# Poissons Ratio (x) = 0.33043 0.25741
# Poissons Ratio (y) = 0.40612 0.20358
# Poissons Ratio (z) = 0.25409 0.16350
#
# Static dielectric constant tensor:
#      x y z
#    x 3.893040 0.000000 -0.023890 
#    y 0.000000 3.999460 0.000000 
#    z -0.023890 0.000000 3.946280 
# 
# 
# High freq. dielectric constant tensor:
#      x y z
#    x 1.832960 0.000000 0.000450 
#    y 0.000000 1.836340 0.000000 
#    z 0.000450 0.000000 1.836580 
# 
# From -- ./inp_files/358378.got.cif
#   From: 2010.06.25/outbox.cif.g09.slc.cpg/sg12_180_cif.got.tgz:358378.got - 2010.06.28 00:19:55.
