data_PCOD8115063
_publ_section_title
;
Structure prediction by ZEFSAII (Michael W. Deem and Ramdas Pophale) SiO2 
 PCOD8115063
Probable space group: C 2/M
;
_chemical_formula_sum "Si O2"
_cell_formula_units_Z 48
_cell_length_a 20.558258
_cell_length_b 19.725769
_cell_length_c 8.854149
_cell_angle_alpha 90.000000
_cell_angle_beta 137.709506
_cell_angle_gamma 90.000000
_cell_volume 2416.078388
_symmetry_space_group_name_H-M "C 2/M"
_symmetry_group_IT_number 12
_symmetry_cell_setting 'monoclinic'
loop_
_space_group_symop_operation_xyz
x,y,z
-x,y,-z
-x,-y,-z
x,-y,z
1/2+x,1/2+y,z
1/2-x,1/2+y,-z
1/2-x,1/2-y,-z
1/2+x,1/2-y,z
loop_
_atom_site_type_symbol
_atom_site_label
_atom_site_fract_x
_atom_site_fract_y
_atom_site_fract_z
Si Si1 0.638166 0.188106 0.120596
Si Si2 0.346432 0.577296 0.079580
Si Si3 0.934929 0.280220 0.684953
Si Si4 0.030194 0.877455 0.216918
Si Si5 0.789504 0.075125 0.316088
Si Si6 0.736681 0.791840 0.822080
O O1 0.621885 0.186673 0.272089
O O2 0.699111 0.124406 0.171127
O O3 0.694885 0.257638 0.184876
O O4 0.539222 0.183606 0.853440
O O5 0.319662 0.500000 0.985962
O O6 0.452218 0.597024 0.203817
O O7 0.348327 0.585298 0.262630
O O8 0.265347 0.629303 0.879692
O O9 0.957245 0.202483 0.754893
O O10 0.874399 0.288896 0.426479
O O11 0.133604 0.911788 0.420644
O O12 0.000000 0.901504 0.000000
O O13 0.746442 0.000000 0.256694
O O14 0.750000 0.750000 0.000000
#
# Coordination Sequence:
#
# PCOD8115063 Si02
#       6
#     8   8   8   8   8   8
#     4  11  22  42  64  91 123 170 210 264 312 372
#     4  11  24  42  61  94 134 164 204 262 325 383
#     4  11  23  39  65  95 127 159 217 270 310 370
#     4  12  22  39  65  97 129 163 207 265 325 383
#     4  11  25  43  62  88 130 175 212 258 320 383
#     4  12  22  39  65  95 124 168 214 258 316 380
#
# _framework density 19.866907000000001
#
# number of rings (size 3 to 8) (size 9 to 14) (size 15 to 20)
#    0.000    0.667    6.667    1.500    2.333    3.333 
#    0.000    2.500    0.000    2.000    0.000    0.000 
#    0.000    0.000    0.000    0.000    0.000    0.000 
#
# Total GULP energy -297644.560786 kJ/mol
# GULP energy per Si atom -12401.856699 kJ/mol
# Density = 1.982169 g / cm^3
# Si number density = 19.866907 Si / 1000 Ang^3
#
#
#
# Elastic Constant Matrix: (Units=GPa)
#
#
# Indices 1 2 3 4 5 6 
#
# 1 87.2705 53.6818 44.1207 0.0000 12.5517 0.0000
# 2 53.6818 124.0153 45.6116 0.0000 9.5963 0.0000
# 3 44.1207 45.6116 164.1613 0.0000 10.2200 0.0000
# 4 0.0000 0.0000 0.0000 0.6286 0.0000 -1.5857
# 5 12.5517 9.5963 10.2200 0.0000 24.8236 0.0000
# 6 0.0000 0.0000 0.0000 -1.5857 0.0000 16.9220
#
#
#
# Elastic Compliance Matrix: (Units=1/GPa)
#
#
# Indices 1 2 3 4 5 6 
#
# 1 0.017311 -0.006118 -0.002622 0.000000 -0.005308 0.000000
# 2 -0.006118 0.011299 -0.001453 0.000000 -0.000676 0.000000
# 3 -0.002622 -0.001453 0.007269 0.000000 -0.001105 0.000000
# 4 0.000000 0.000000 0.000000 2.083399 0.000000 0.195231
# 5 -0.005308 -0.000676 -0.001105 0.000000 0.043685 0.000000
# 6 0.000000 0.000000 0.000000 0.195231 0.000000 0.077389
#
#
# Mechanical properties :
#
#
# Convention : Reuss Voigt Hill
#
# Bulk Modulus (GPa) = 64.54932 73.58614 69.06773
# Shear Modulus (GPa) = 2.20663 23.94370 13.07517
#
# Velocity S-wave (km/s) = 1.05504 3.47537 2.56820
# Velocity P-wave (km/s) = 5.83486 7.29550 6.60567
#
# Compressibility (1/GPa) = 0.01549203
#
# Stress axis : x y z
#
# Youngs Moduli (GPa) = 57.76590 88.50716 137.57453
#
# Poissons Ratio (x) = 0.54151 0.36075
# Poissons Ratio (y) = 0.35342 0.19987
# Poissons Ratio (z) = 0.15148 0.12858
#
# Static dielectric constant tensor:
#      x y z
#    x 3.700840 0.000000 -0.028040 
#    y 0.000000 3.682530 0.000000 
#    z -0.028040 0.000000 3.832740 
# 
# 
# High freq. dielectric constant tensor:
#      x y z
#    x 1.778330 0.000000 -0.001140 
#    y 0.000000 1.770540 0.000000 
#    z -0.001140 0.000000 1.776880 
# 
# From -- ./inp_files/89413.got.cif
#   From: 2010.06.25/outbox.cif.g09.slc.cpg/sg12_45_cif.got.tgz:89413.got - 2010.06.28 00:19:55.
