data_PCOD8115094
_publ_section_title
;
Structure prediction by ZEFSAII (Michael W. Deem and Ramdas Pophale) SiO2 
 PCOD8115094
Probable space group: C 2/M
;
_chemical_formula_sum "Si O2"
_cell_formula_units_Z 56
_cell_length_a 26.391186
_cell_length_b 17.851920
_cell_length_c 9.065133
_cell_angle_alpha 90.000000
_cell_angle_beta 36.525863
_cell_angle_gamma 90.000000
_cell_volume 2541.970010
_symmetry_space_group_name_H-M "C 2/M"
_symmetry_group_IT_number 12
_symmetry_cell_setting 'monoclinic'
loop_
_space_group_symop_operation_xyz
x,y,z
-x,y,-z
-x,-y,-z
x,-y,z
1/2+x,1/2+y,z
1/2-x,1/2+y,-z
1/2-x,1/2-y,-z
1/2+x,1/2-y,z
loop_
_atom_site_type_symbol
_atom_site_label
_atom_site_fract_x
_atom_site_fract_y
_atom_site_fract_z
Si Si1 0.330669 0.087409 0.937348
Si Si2 0.004023 0.170576 0.656452
Si Si3 0.133574 0.586609 0.485869
Si Si4 0.537152 0.165793 0.170760
Si Si5 0.582555 0.416715 0.908201
Si Si6 0.827714 0.706730 0.393692
Si Si7 0.162833 0.151282 0.461520
O O1 0.333390 0.100137 0.756573
O O2 0.417140 0.116689 0.809540
O O3 0.316986 0.000000 0.007900
O O4 0.254474 0.138405 0.176656
O O5 0.089610 0.130559 0.516690
O O6 0.000000 0.141694 0.500000
O O7 0.002915 0.260339 0.662077
O O8 0.923621 0.139023 0.938037
O O9 0.137244 0.500000 0.520836
O O10 0.193114 0.630540 0.465975
O O11 0.036844 0.615578 0.727234
O O12 0.601202 0.189355 0.892467
O O13 0.593506 0.500000 0.944398
O O14 0.661623 0.396176 0.617149
O O15 0.500000 0.406829 0.000000
O O16 0.750000 0.750000 0.500000
O O17 0.860219 0.762955 0.444492
#
# Coordination Sequence:
#
# PCOD8115094 Si02
#       7
#     8   8   8   8   8   8   8
#     4  11  25  45  70 101 141 184 226 281 349 411
#     4  11  23  38  66 101 133 176 229 284 342 408
#     4  11  26  46  70 104 141 179 229 287 343 404
#     4  12  23  42  72 102 139 180 228 279 340 415
#     4   9  19  37  62  89 125 173 225 279 332 396
#     4  12  25  44  68  99 135 179 228 281 337 406
#     4  11  22  43  67  94 133 181 230 277 339 411
#
# _framework density 22.030156999999999
#
# number of rings (size 3 to 8) (size 9 to 14) (size 15 to 20)
#    0.000    1.000    4.286    2.571    0.000    5.429 
#    0.000    0.000    0.000    0.000    0.000    0.000 
#    0.000    0.000    0.000    0.000    0.000    0.000 
#
# Total GULP energy -347178.360688 kJ/mol
# GULP energy per Si atom -12399.227167 kJ/mol
# Density = 2.198002 g / cm^3
# Si number density = 22.030157 Si / 1000 Ang^3
#
#
#
# Elastic Constant Matrix: (Units=GPa)
#
#
# Indices 1 2 3 4 5 6 
#
# 1 112.6672 50.0570 42.8270 0.0000 17.5865 0.0000
# 2 50.0570 133.6324 41.2865 0.0000 16.6495 0.0000
# 3 42.8270 41.2865 109.7703 0.0000 10.7029 0.0000
# 4 0.0000 0.0000 0.0000 31.3808 0.0000 7.4143
# 5 17.5865 16.6495 10.7029 0.0000 27.5403 0.0000
# 6 0.0000 0.0000 0.0000 7.4143 0.0000 37.4758
#
#
#
# Elastic Compliance Matrix: (Units=1/GPa)
#
#
# Indices 1 2 3 4 5 6 
#
# 1 0.012137 -0.002984 -0.003152 0.000000 -0.004721 0.000000
# 2 -0.002984 0.009655 -0.002166 0.000000 -0.003090 0.000000
# 3 -0.003152 -0.002166 0.011257 0.000000 -0.001052 0.000000
# 4 0.000000 0.000000 0.000000 0.033429 0.000000 -0.006614
# 5 -0.004721 -0.003090 -0.001052 0.000000 0.041602 0.000000
# 6 0.000000 0.000000 0.000000 -0.006614 0.000000 0.027992
#
#
# Mechanical properties :
#
#
# Convention : Reuss Voigt Hill
#
# Bulk Modulus (GPa) = 60.81267 69.37900 65.09584
# Shear Modulus (GPa) = 31.61377 34.07268 32.84322
#
# Velocity S-wave (km/s) = 3.79228 3.93700 3.86532
# Velocity P-wave (km/s) = 6.84393 7.22687 7.03801
#
# Compressibility (1/GPa) = 0.01644394
#
# Stress axis : x y z
#
# Youngs Moduli (GPa) = 82.39444 103.57154 88.83255
#
# Poissons Ratio (x) = 0.30907 0.28004
# Poissons Ratio (y) = 0.24587 0.19241
# Poissons Ratio (z) = 0.25975 0.22433
#
# Static dielectric constant tensor:
#      x y z
#    x 3.930070 0.000000 0.139700 
#    y 0.000000 4.182040 0.000000 
#    z 0.139700 0.000000 3.912190 
# 
# 
# High freq. dielectric constant tensor:
#      x y z
#    x 1.861360 0.000000 0.012340 
#    y 0.000000 1.872240 0.000000 
#    z 0.012340 0.000000 1.868880 
# 
# From -- ./inp_files/105937.got.cif
#   From: 2010.06.25/outbox.cif.g09.slc.cpg/sg12_53_cif.got.tgz:105937.got - 2010.06.28 00:19:55.
