data_PCOD8115822
_publ_section_title
;
Structure prediction by ZEFSAII (Michael W. Deem and Ramdas Pophale) SiO2 
 PCOD8115822
Probable space group: C 2/M
;
_chemical_formula_sum "Si O2"
_cell_formula_units_Z 48
_cell_length_a 20.554972
_cell_length_b 15.228632
_cell_length_c 16.243480
_cell_angle_alpha 90.000000
_cell_angle_beta 29.603761
_cell_angle_gamma 90.000000
_cell_volume 2511.787399
_symmetry_space_group_name_H-M "C 2/M"
_symmetry_group_IT_number 12
_symmetry_cell_setting 'monoclinic'
loop_
_space_group_symop_operation_xyz
x,y,z
-x,y,-z
-x,-y,-z
x,-y,z
1/2+x,1/2+y,z
1/2-x,1/2+y,-z
1/2-x,1/2-y,-z
1/2+x,1/2-y,z
loop_
_atom_site_type_symbol
_atom_site_label
_atom_site_fract_x
_atom_site_fract_y
_atom_site_fract_z
Si Si1 0.967540 0.844551 0.261210
Si Si2 0.659117 0.500000 0.837939
Si Si3 0.239665 0.350650 0.382625
Si Si4 0.955082 0.646322 0.259900
Si Si5 0.163221 0.500000 0.019244
Si Si6 0.161977 0.000000 0.022045
Si Si7 0.158039 0.000000 0.334285
Si Si8 0.723675 0.651555 0.386159
O O1 0.860281 0.864388 0.310874
O O2 0.013036 0.744545 0.198466
O O3 0.908434 0.861198 0.416208
O O4 0.086394 0.910342 0.122432
O O5 0.733530 0.415696 0.720927
O O6 0.500000 0.500000 0.000000
O O7 0.703166 0.500000 0.882929
O O8 0.109535 0.373514 0.579444
O O9 0.232708 0.253728 0.350062
O O10 0.849413 0.630125 0.304068
O O11 0.076195 0.585928 0.103643
O O12 0.212185 0.500000 0.058684
O O13 0.281774 0.500000 0.823345
O O14 0.212436 0.913060 0.320718
O O15 0.000000 0.000000 0.500000
#
# Coordination Sequence:
#
# PCOD8115822 Si02
#       8
#     8   4   8   8   4   4   4   8
#     4   9  17  36  62  87 111 151 190 241 286 344
#     4  12  21  34  59  92 115 144 186 237 290 342
#     4   9  18  37  62  91 114 143 192 244 294 339
#     4   9  20  38  62  85 117 149 195 235 289 346
#     4  12  26  39  53  82 117 163 191 238 292 345
#     4  12  24  36  53  82 120 150 196 233 290 346
#     4  12  25  41  58  84 120 158 201 239 289 348
#     4   9  19  37  64  88 112 152 194 241 289 337
#
# _framework density 19.109897
#
# number of rings (size 3 to 8) (size 9 to 14) (size 15 to 20)
#    0.000    2.000    1.667    4.500    0.000    6.000 
#    0.000    5.000    0.000    0.000    0.000    0.000 
#    0.000    0.000    0.000    0.000    0.000    0.000 
#
# Total GULP energy -297501.405645 kJ/mol
# GULP energy per Si atom -12395.891902 kJ/mol
# Density = 1.906640 g / cm^3
# Si number density = 19.109897 Si / 1000 Ang^3
#
#
#
# Elastic Constant Matrix: (Units=GPa)
#
#
# Indices 1 2 3 4 5 6 
#
# 1 92.8455 54.5568 45.2047 0.0000 15.5511 0.0000
# 2 54.5568 129.9535 63.5350 0.0001 3.8982 -0.0001
# 3 45.2047 63.5350 103.1098 0.0001 6.3287 -0.0001
# 4 0.0000 0.0001 0.0001 37.4714 0.0000 -2.6931
# 5 15.5511 3.8982 6.3287 0.0000 24.3668 0.0000
# 6 0.0000 -0.0001 -0.0001 -2.6931 0.0000 19.5690
#
#
#
# Elastic Compliance Matrix: (Units=1/GPa)
#
#
# Indices 1 2 3 4 5 6 
#
# 1 0.017133 -0.005038 -0.003846 0.000000 -0.009129 0.000000
# 2 -0.005038 0.012494 -0.005655 0.000000 0.002685 0.000000
# 3 -0.003846 -0.005655 0.014900 0.000000 -0.000511 0.000000
# 4 0.000000 0.000000 0.000000 0.026954 0.000000 0.003709
# 5 -0.009129 0.002685 -0.000511 0.000000 0.046569 0.000000
# 6 0.000000 0.000000 0.000000 0.003709 0.000000 0.051612
#
#
# Mechanical properties :
#
#
# Convention : Reuss Voigt Hill
#
# Bulk Modulus (GPa) = 64.73042 72.50020 68.61531
# Shear Modulus (GPa) = 24.52290 27.12224 25.82257
#
# Velocity S-wave (km/s) = 3.58614 3.77142 3.67995
# Velocity P-wave (km/s) = 7.14797 7.54889 7.35116
#
# Compressibility (1/GPa) = 0.01544869
#
# Stress axis : x y z
#
# Youngs Moduli (GPa) = 58.36679 80.03597 67.11185
#
# Poissons Ratio (x) = 0.40325 0.25814
# Poissons Ratio (y) = 0.29407 0.37951
# Poissons Ratio (z) = 0.22450 0.45259
#
# Static dielectric constant tensor:
#      x y z
#    x 3.337790 0.000000 0.108990 
#    y 0.000000 15.632230 0.000000 
#    z 0.108990 0.000000 3.567260 
# 
# 
# High freq. dielectric constant tensor:
#      x y z
#    x 1.723440 0.000000 0.010110 
#    y 0.000000 1.761770 0.000000 
#    z 0.010110 0.000000 1.734990 
# 
# From -- ./inp_files/226809.got.cif
#   From: 2010.06.25/outbox.cif.g09.slc.cpg/sg12_114_cif.got.tgz:226809.got - 2010.06.28 00:19:55.
