data_PCOD8115074
_publ_section_title
;
Structure prediction by ZEFSAII (Michael W. Deem and Ramdas Pophale) SiO2 
 PCOD8115074
Probable space group: C 2/M
;
_chemical_formula_sum "Si O2"
_cell_formula_units_Z 44
_cell_length_a 11.258577
_cell_length_b 27.530099
_cell_length_c 11.217220
_cell_angle_alpha 90.000000
_cell_angle_beta 143.179436
_cell_angle_gamma 90.000000
_cell_volume 2083.668978
_symmetry_space_group_name_H-M "C 2/M"
_symmetry_group_IT_number 12
_symmetry_cell_setting 'monoclinic'
loop_
_space_group_symop_operation_xyz
x,y,z
-x,y,-z
-x,-y,-z
x,-y,z
1/2+x,1/2+y,z
1/2-x,1/2+y,-z
1/2-x,1/2-y,-z
1/2+x,1/2-y,z
loop_
_atom_site_type_symbol
_atom_site_label
_atom_site_fract_x
_atom_site_fract_y
_atom_site_fract_z
Si Si1 0.133304 0.553901 0.990854
Si Si2 0.319511 0.310387 0.263996
Si Si3 0.369037 0.797086 0.278693
Si Si4 0.495794 0.389238 0.258528
Si Si5 0.500000 0.634353 0.000000
Si Si6 0.896569 0.360851 0.707692
O O1 0.122707 0.500000 0.925030
O O2 0.053326 0.594925 0.836161
O O3 0.364382 0.566273 0.206114
O O4 0.000000 0.555295 0.000000
O O5 0.500000 0.309599 0.500000
O O6 0.273634 0.256253 0.179971
O O7 0.372584 0.339781 0.186578
O O8 0.143439 0.338187 0.193134
O O9 0.500000 0.794866 0.500000
O O10 0.515054 0.814995 0.291798
O O11 0.193807 0.833723 0.157224
O O12 0.706065 0.385304 0.492257
O O13 0.513359 0.397891 0.130520
#
# Coordination Sequence:
#
# PCOD8115074 Si02
#       6
#     8   8   8   8   4   8
#     4  11  24  43  69  98 125 157 209 272 328 376
#     4   9  22  37  60  93 128 169 213 260 304 373
#     4  11  23  38  60  92 133 174 211 256 308 375
#     4  11  23  41  62  92 129 167 213 261 311 376
#     4  12  24  36  61  90 122 174 217 248 304 374
#     4  11  22  42  67  90 133 170 209 261 320 372
#
# _framework density 21.116596999999999
#
# number of rings (size 3 to 8) (size 9 to 14) (size 15 to 20)
#    0.000    1.273    5.455    0.000    2.545    5.091 
#    0.000    2.273    0.000    1.636    0.000    0.000 
#    0.000    0.000    0.000    0.000    0.000    0.000 
#
# Total GULP energy -272698.734032 kJ/mol
# GULP energy per Si atom -12395.397001 kJ/mol
# Density = 2.106853 g / cm^3
# Si number density = 21.116597 Si / 1000 Ang^3
#
#
#
# Elastic Constant Matrix: (Units=GPa)
#
#
# Indices 1 2 3 4 5 6 
#
# 1 94.3717 28.9782 31.8958 0.0000 3.3903 0.0000
# 2 28.9782 124.9431 41.2412 0.0000 6.9620 0.0000
# 3 31.8958 41.2412 68.3909 0.0000 4.3556 0.0000
# 4 0.0000 0.0000 0.0000 20.0599 0.0000 7.6636
# 5 3.3903 6.9620 4.3556 0.0000 33.3975 0.0000
# 6 0.0000 0.0000 0.0000 7.6636 0.0000 7.1295
#
#
#
# Elastic Compliance Matrix: (Units=1/GPa)
#
#
# Indices 1 2 3 4 5 6 
#
# 1 0.012735 -0.001224 -0.005178 0.000000 -0.000362 0.000000
# 2 -0.001224 0.010167 -0.005479 0.000000 -0.001281 0.000000
# 3 -0.005178 -0.005479 0.020404 0.000000 -0.000993 0.000000
# 4 0.000000 0.000000 0.000000 0.084588 0.000000 -0.090925
# 5 -0.000362 -0.001281 -0.000993 0.000000 0.030376 0.000000
# 6 0.000000 0.000000 0.000000 -0.090925 0.000000 0.238001
#
#
# Mechanical properties :
#
#
# Convention : Reuss Voigt Hill
#
# Bulk Modulus (GPa) = 51.16537 54.65955 52.91246
# Shear Modulus (GPa) = 11.72202 24.49006 18.10604
#
# Velocity S-wave (km/s) = 2.35863 3.40921 2.93137
# Velocity P-wave (km/s) = 5.63028 6.43722 6.04722
#
# Compressibility (1/GPa) = 0.01954447
#
# Stress axis : x y z
#
# Youngs Moduli (GPa) = 78.52080 98.35419 49.01070
#
# Poissons Ratio (x) = 0.12042 0.25378
# Poissons Ratio (y) = 0.09614 0.26851
# Poissons Ratio (z) = 0.40659 0.53884
#
# Static dielectric constant tensor:
#      x y z
#    x 4.098160 0.000000 0.249440 
#    y 0.000000 4.007510 0.000000 
#    z 0.249440 0.000000 3.788610 
# 
# 
# High freq. dielectric constant tensor:
#      x y z
#    x 1.832220 0.000000 0.013220 
#    y 0.000000 1.807710 0.000000 
#    z 0.013220 0.000000 1.833860 
# 
# From -- ./inp_files/136080.got.cif
#   From: 2010.06.25/outbox.cif.g09.slc.cpg/sg12_69_cif.got.tgz:136080.got - 2010.06.28 00:19:55.
