data_PCOD8115179
_publ_section_title
;
Structure prediction by ZEFSAII (Michael W. Deem and Ramdas Pophale) SiO2 
 PCOD8115179
Probable space group: C 2/M
;
_chemical_formula_sum "Si O2"
_cell_formula_units_Z 48
_cell_length_a 8.957136
_cell_length_b 20.834294
_cell_length_c 12.848278
_cell_angle_alpha 90.000000
_cell_angle_beta 108.179436
_cell_angle_gamma 90.000000
_cell_volume 2278.006334
_symmetry_space_group_name_H-M "C 2/M"
_symmetry_group_IT_number 12
_symmetry_cell_setting 'monoclinic'
loop_
_space_group_symop_operation_xyz
x,y,z
-x,y,-z
-x,-y,-z
x,-y,z
1/2+x,1/2+y,z
1/2-x,1/2+y,-z
1/2-x,1/2-y,-z
1/2+x,1/2-y,z
loop_
_atom_site_type_symbol
_atom_site_label
_atom_site_fract_x
_atom_site_fract_y
_atom_site_fract_z
Si Si1 0.620619 0.930146 0.120700
Si Si2 0.979249 0.927462 0.180770
Si Si3 0.183349 0.309808 0.550663
Si Si4 0.186658 0.187586 0.192103
Si Si5 0.021039 0.305843 0.880890
Si Si6 0.381186 0.570642 0.567117
O O1 0.795871 0.913624 0.118111
O O2 0.559050 0.871977 0.180739
O O3 0.624485 0.000000 0.179863
O O4 0.500000 0.935625 0.000000
O O5 0.091011 0.877598 0.144430
O O6 0.012724 0.915445 0.309202
O O7 0.023400 0.000000 0.155499
O O8 0.250000 0.250000 0.500000
O O9 0.216135 0.311395 0.680687
O O10 0.249320 0.376059 0.518351
O O11 0.000000 0.308293 0.500000
O O12 0.299052 0.198066 0.117209
O O13 0.064608 0.244505 0.182848
O O14 0.000000 0.306441 0.000000
O O15 0.500000 0.573782 0.500000
O O16 0.301272 0.500000 0.557227
#
# Coordination Sequence:
#
# PCOD8115179 Si02
#       6
#     8   8   8   8   8   8
#     4   9  19  37  59  84 114 147 186 234 286 338
#     4   9  19  37  60  85 114 149 190 234 281 337
#     4  11  23  38  58  86 119 152 190 237 286 341
#     4  11  23  39  61  85 114 153 194 236 287 341
#     4  11  23  39  59  84 115 149 192 241 285 339
#     4   9  19  36  58  84 114 151 191 231 280 337
#
# _framework density 21.071058000000001
#
# number of rings (size 3 to 8) (size 9 to 14) (size 15 to 20)
#    0.000    2.000    0.000    3.000    0.000    7.667 
#    0.000    0.000    0.000    9.500    0.000    0.000 
#    0.000    0.000    0.000    0.000    0.000    0.000 
#
# Total GULP energy -297458.882704 kJ/mol
# GULP energy per Si atom -12394.120113 kJ/mol
# Density = 2.102310 g / cm^3
# Si number density = 21.071058 Si / 1000 Ang^3
#
#
#
# Elastic Constant Matrix: (Units=GPa)
#
#
# Indices 1 2 3 4 5 6 
#
# 1 152.6909 80.4063 38.7061 0.0000 20.1875 0.0000
# 2 80.4063 173.6171 23.8080 0.0000 16.2172 0.0000
# 3 38.7061 23.8080 47.9522 0.0000 9.4125 0.0000
# 4 0.0000 0.0000 0.0000 23.8187 0.0000 -0.6639
# 5 20.1875 16.2172 9.4125 0.0000 35.0706 0.0000
# 6 0.0000 0.0000 0.0000 -0.6639 0.0000 37.5490
#
#
#
# Elastic Compliance Matrix: (Units=1/GPa)
#
#
# Indices 1 2 3 4 5 6 
#
# 1 0.010393 -0.003742 -0.006013 0.000000 -0.002638 0.000000
# 2 -0.003742 0.007685 -0.000549 0.000000 -0.001252 0.000000
# 3 -0.006013 -0.000549 0.026655 0.000000 -0.003439 0.000000
# 4 0.000000 0.000000 0.000000 0.042004 0.000000 0.000743
# 5 -0.002638 -0.001252 -0.003439 0.000000 0.031534 0.000000
# 6 0.000000 0.000000 0.000000 0.000743 0.000000 0.026645
#
#
# Mechanical properties :
#
#
# Convention : Reuss Voigt Hill
#
# Bulk Modulus (GPa) = 41.45176 73.34455 57.39815
# Shear Modulus (GPa) = 28.80717 34.71033 31.75875
#
# Velocity S-wave (km/s) = 3.70150 4.06310 3.88651
# Velocity P-wave (km/s) = 6.16305 7.54291 6.88762
#
# Compressibility (1/GPa) = 0.02412443
#
# Stress axis : x y z
#
# Youngs Moduli (GPa) = 96.21983 130.12043 37.51578
#
# Poissons Ratio (x) = 0.48694 0.22559
# Poissons Ratio (y) = 0.36007 0.02060
# Poissons Ratio (z) = 0.57858 0.07147
#
# Static dielectric constant tensor:
#      x y z
#    x 3.690140 0.000000 0.156320 
#    y 0.000000 5.064820 0.000000 
#    z 0.156320 0.000000 3.664380 
# 
# 
# High freq. dielectric constant tensor:
#      x y z
#    x 1.822250 0.000000 0.012400 
#    y 0.000000 1.855250 0.000000 
#    z 0.012400 0.000000 1.806710 
# 
# From -- ./inp_files/197199.got.cif
#   From: 2010.06.25/outbox.cif.g09.slc.cpg/sg12_99_cif.got.tgz:197199.got - 2010.06.28 00:19:55.
