data_PCOD8115580
_publ_section_title
;
Structure prediction by ZEFSAII (Michael W. Deem and Ramdas Pophale) SiO2 
 PCOD8115580
Probable space group: C 2/M
;
_chemical_formula_sum "Si O2"
_cell_formula_units_Z 40
_cell_length_a 11.939985
_cell_length_b 23.044712
_cell_length_c 11.545166
_cell_angle_alpha 90.000000
_cell_angle_beta 143.885973
_cell_angle_gamma 90.000000
_cell_volume 1872.324277
_symmetry_space_group_name_H-M "C 2/M"
_symmetry_group_IT_number 12
_symmetry_cell_setting 'monoclinic'
loop_
_space_group_symop_operation_xyz
x,y,z
-x,y,-z
-x,-y,-z
x,-y,z
1/2+x,1/2+y,z
1/2-x,1/2+y,-z
1/2-x,1/2-y,-z
1/2+x,1/2-y,z
loop_
_atom_site_type_symbol
_atom_site_label
_atom_site_fract_x
_atom_site_fract_y
_atom_site_fract_z
Si Si1 0.307248 0.434950 0.984277
Si Si2 0.648907 0.171729 0.449107
Si Si3 0.755770 0.933866 0.680620
Si Si4 0.112099 0.654719 0.979710
Si Si5 0.014014 0.789192 0.637655
O O1 0.232606 0.500000 0.933391
O O2 0.250106 0.411624 0.808956
O O3 0.215380 0.400516 0.012273
O O4 0.531948 0.432332 0.188832
O O5 0.626039 0.109822 0.495752
O O6 0.545062 0.177074 0.239596
O O7 0.551186 0.222825 0.440829
O O8 0.873106 0.182034 0.614188
O O9 0.676674 0.000000 0.603169
O O10 0.269220 0.704820 0.135459
O O11 0.000000 0.635341 0.000000
O O12 0.000000 0.820483 0.500000
#
# Coordination Sequence:
#
# PCOD8115580 Si02
#       5
#     8   8   8   8   8
#     4   9  20  39  65  98 134 169 217 270 323 383
#     4  11  24  41  68  95 124 172 219 273 321 381
#     4   9  19  41  70  99 129 167 215 276 328 372
#     4  12  24  41  64  93 135 173 213 266 321 390
#     4  11  24  45  61  91 133 170 222 265 322 382
#
# _framework density 21.36382
#
# number of rings (size 3 to 8) (size 9 to 14) (size 15 to 20)
#    0.000    1.600    4.000    1.800    2.800    1.200 
#    0.000    2.000    0.000    3.600    0.000    0.000 
#    0.000    0.000    0.000    0.000    0.000    0.000 
#
# Total GULP energy -247909.937880 kJ/mol
# GULP energy per Si atom -12395.496894 kJ/mol
# Density = 2.131519 g / cm^3
# Si number density = 21.363820 Si / 1000 Ang^3
#
#
#
# Elastic Constant Matrix: (Units=GPa)
#
#
# Indices 1 2 3 4 5 6 
#
# 1 131.2891 37.4163 43.3983 0.0000 8.4296 0.0000
# 2 37.4163 103.3029 42.0108 0.0000 1.4991 0.0000
# 3 43.3983 42.0108 109.5283 0.0000 0.2142 0.0000
# 4 0.0000 0.0000 0.0000 24.4021 0.0000 -7.0796
# 5 8.4296 1.4991 0.2142 0.0000 33.3907 0.0000
# 6 0.0000 0.0000 0.0000 -7.0796 0.0000 21.0250
#
#
#
# Elastic Compliance Matrix: (Units=1/GPa)
#
#
# Indices 1 2 3 4 5 6 
#
# 1 0.009326 -0.002185 -0.002853 0.000000 -0.002238 0.000000
# 2 -0.002185 0.011989 -0.003733 0.000000 0.000037 0.000000
# 3 -0.002853 -0.003733 0.011691 0.000000 0.000813 0.000000
# 4 0.000000 0.000000 0.000000 0.045417 0.000000 0.015293
# 5 -0.002238 0.000037 0.000813 0.000000 0.030507 0.000000
# 6 0.000000 0.000000 0.000000 0.015293 0.000000 0.052712
#
#
# Mechanical properties :
#
#
# Convention : Reuss Voigt Hill
#
# Bulk Modulus (GPa) = 64.66492 65.53013 65.09753
# Shear Modulus (GPa) = 27.12409 30.51657 28.82033
#
# Velocity S-wave (km/s) = 3.56705 3.78355 3.67689
# Velocity P-wave (km/s) = 6.87745 7.05882 6.96872
#
# Compressibility (1/GPa) = 0.01546434
#
# Stress axis : x y z
#
# Youngs Moduli (GPa) = 107.22404 83.40769 85.53906
#
# Poissons Ratio (x) = 0.18228 0.24402
# Poissons Ratio (y) = 0.23432 0.31930
# Poissons Ratio (z) = 0.30588 0.31134
#
# Static dielectric constant tensor:
#      x y z
#    x 3.844620 0.000000 0.088130 
#    y 0.000000 3.709500 0.000000 
#    z 0.088130 0.000000 3.882040 
# 
# 
# High freq. dielectric constant tensor:
#      x y z
#    x 1.849590 0.000000 0.011780 
#    y 0.000000 1.820950 0.000000 
#    z 0.011780 0.000000 1.845370 
# 
# From -- ./inp_files/133648.got.cif
#   From: 2010.06.25/outbox.cif.g09.slc.cpg/sg12_67_cif.got.tgz:133648.got - 2010.06.28 00:19:55.
