data_PCOD8115032
_publ_section_title
;
Structure prediction by ZEFSAII (Michael W. Deem and Ramdas Pophale) SiO2 
 PCOD8115032
Probable space group: C 2/M
;
_chemical_formula_sum "Si O2"
_cell_formula_units_Z 40
_cell_length_a 11.584148
_cell_length_b 13.997786
_cell_length_c 12.662370
_cell_angle_alpha 90.000000
_cell_angle_beta 111.472923
_cell_angle_gamma 90.000000
_cell_volume 1910.720394
_symmetry_space_group_name_H-M "C 2/M"
_symmetry_group_IT_number 12
_symmetry_cell_setting 'monoclinic'
loop_
_space_group_symop_operation_xyz
x,y,z
-x,y,-z
-x,-y,-z
x,-y,z
1/2+x,1/2+y,z
1/2-x,1/2+y,-z
1/2-x,1/2-y,-z
1/2+x,1/2-y,z
loop_
_atom_site_type_symbol
_atom_site_label
_atom_site_fract_x
_atom_site_fract_y
_atom_site_fract_z
Si Si1 0.532566 0.500000 0.723190
Si Si2 0.274444 0.363715 0.279367
Si Si3 0.500536 0.892790 0.117962
Si Si4 0.166872 0.000000 0.515893
Si Si5 0.690769 0.846644 0.781374
Si Si6 0.630182 0.000000 0.595715
Si Si7 0.114258 0.000000 0.116653
O O1 0.622115 0.407643 0.765048
O O2 0.469797 0.500000 0.584856
O O3 0.428647 0.500000 0.776635
O O4 0.138327 0.401071 0.208396
O O5 0.310590 0.403183 0.408135
O O6 0.270226 0.250652 0.262791
O O7 0.412329 0.828262 0.162595
O O8 0.443716 0.000000 0.096143
O O9 0.500000 0.848020 0.000000
O O10 0.262121 0.000000 0.452568
O O11 0.806807 0.902971 0.873032
O O12 0.632989 0.907256 0.668756
O O13 0.500000 0.000000 0.500000
O O14 0.000000 0.000000 0.000000
#
# Coordination Sequence:
#
# PCOD8115032 Si02
#       7
#     4   8   8   4   8   4   4
#     4  11  24  46  65  97 138 185 224 272 341 405
#     4  11  25  41  69  97 133 177 225 278 332 396
#     4  11  23  43  69  94 132 177 224 273 334 399
#     4  11  22  45  66  95 139 181 227 271 340 399
#     4  11  25  44  65 105 131 170 231 275 330 405
#     4  11  22  41  66  93 136 172 218 277 334 388
#     4  11  26  46  69  94 142 181 214 280 348 396
#
# _framework density 20.934512000000002
#
# number of rings (size 3 to 8) (size 9 to 14) (size 15 to 20)
#    0.000    1.000    6.000    2.400    5.600    4.000 
#    0.000    0.000    0.000    0.000    0.000    0.000 
#    0.000    0.000    0.000    0.000    0.000    0.000 
#
# Total GULP energy -247947.075099 kJ/mol
# GULP energy per Si atom -12397.353755 kJ/mol
# Density = 2.088686 g / cm^3
# Si number density = 20.934512 Si / 1000 Ang^3
#
#
#
# Elastic Constant Matrix: (Units=GPa)
#
#
# Indices 1 2 3 4 5 6 
#
# 1 120.2901 30.9872 55.9297 0.0000 2.1720 0.0000
# 2 30.9872 132.7420 49.7184 0.0000 4.0739 0.0000
# 3 55.9297 49.7184 126.5268 0.0000 10.9231 0.0000
# 4 0.0000 0.0000 0.0000 -28.9852 0.0000 -3.3825
# 5 2.1720 4.0739 10.9231 0.0000 55.6047 0.0000
# 6 0.0000 0.0000 0.0000 -3.3825 0.0000 13.1454
#
#
#
# Elastic Compliance Matrix: (Units=1/GPa)
#
#
# Indices 1 2 3 4 5 6 
#
# 1 0.010557 -0.000839 -0.004381 0.000000 0.000510 0.000000
# 2 -0.000839 0.008900 -0.003126 0.000000 -0.000005 0.000000
# 3 -0.004381 -0.003126 0.011224 0.000000 -0.001805 0.000000
# 4 0.000000 0.000000 0.000000 -0.033495 0.000000 -0.008619
# 5 0.000510 -0.000005 -0.001805 0.000000 0.018319 0.000000
# 6 0.000000 0.000000 0.000000 -0.008619 0.000000 0.073854
#
#
# Mechanical properties :
#
#
# Convention : Reuss Voigt Hill
#
# Bulk Modulus (GPa) = 71.48243 72.53662 72.00952
# Shear Modulus (GPa) = 45.16074 24.14789 34.65431
#
# Velocity S-wave (km/s) = 4.64965 3.40000 4.07303
# Velocity P-wave (km/s) = 7.94012 7.08081 7.52274
#
# Compressibility (1/GPa) = 0.01398945
#
# Stress axis : x y z
#
# Youngs Moduli (GPa) = 94.72257 112.35581 89.09393
#
# Poissons Ratio (x) = 0.09429 0.39031
# Poissons Ratio (y) = 0.07949 0.27850
# Poissons Ratio (z) = 0.41497 0.35122
#
# Static dielectric constant tensor:
#      x y z
#    x 3.888240 0.000000 -0.065620 
#    y 0.000000 3.861100 0.000000 
#    z -0.065620 0.000000 3.810870 
# 
# 
# High freq. dielectric constant tensor:
#      x y z
#    x 1.843910 0.000000 0.001810 
#    y 0.000000 1.801330 0.000000 
#    z 0.001810 0.000000 1.823930 
# 
# From -- ./inp_files/129870.got.cif
#   From: 2010.06.25/outbox.cif.g09.slc.cpg/sg12_65_cif.got.tgz:129870.got - 2010.06.28 00:19:55.
