data_PCOD8115206
_publ_section_title
;
Structure prediction by ZEFSAII (Michael W. Deem and Ramdas Pophale) SiO2 
 PCOD8115206
Probable space group: C 2/M
;
_chemical_formula_sum "Si O2"
_cell_formula_units_Z 44
_cell_length_a 24.570029
_cell_length_b 14.184256
_cell_length_c 19.616738
_cell_angle_alpha 90.000000
_cell_angle_beta 161.091935
_cell_angle_gamma 90.000000
_cell_volume 2215.398380
_symmetry_space_group_name_H-M "C 2/M"
_symmetry_group_IT_number 12
_symmetry_cell_setting 'monoclinic'
loop_
_space_group_symop_operation_xyz
x,y,z
-x,y,-z
-x,-y,-z
x,-y,z
1/2+x,1/2+y,z
1/2-x,1/2+y,-z
1/2-x,1/2-y,-z
1/2+x,1/2-y,z
loop_
_atom_site_type_symbol
_atom_site_label
_atom_site_fract_x
_atom_site_fract_y
_atom_site_fract_z
Si Si1 0.726853 0.500000 0.392270
Si Si2 0.188272 0.148705 0.901194
Si Si3 0.191069 0.848744 0.234553
Si Si4 0.840989 0.500000 0.862328
Si Si5 0.195303 0.500000 0.732746
Si Si6 0.905042 0.000000 0.104540
Si Si7 0.571143 0.000000 0.875098
Si Si8 0.593732 0.326175 0.542843
O O1 0.728682 0.407620 0.347196
O O2 0.560529 0.500000 0.238877
O O3 0.877086 0.500000 0.624197
O O4 0.096727 0.095199 0.854150
O O5 0.052345 0.145865 0.681084
O O6 0.250000 0.250000 0.000000
O O7 0.348817 0.093058 0.063162
O O8 0.229701 0.907826 0.213098
O O9 0.306635 0.757884 0.374413
O O10 0.000000 0.815623 0.000000
O O11 0.723104 0.410178 0.710589
O O12 0.912184 0.500000 0.023502
O O13 0.000000 0.500000 0.000000
O O14 0.000000 0.500000 0.500000
O O15 0.235919 0.500000 0.860300
O O16 0.500000 0.292730 0.500000
#
# Coordination Sequence:
#
# PCOD8115206 Si02
#       8
#     4   8   8   4   4   4   4   8
#     4  11  23  45  67  98 141 171 210 276 346 400
#     4  11  26  44  66 101 132 173 227 273 326 393
#     4  11  23  43  66 101 135 171 216 274 338 409
#     4  12  26  46  69  96 130 178 231 278 329 391
#     4  11  23  38  70  97 132 175 220 269 336 399
#     4  11  25  44  68  95 138 176 218 273 334 396
#     4  11  24  45  69  95 136 176 221 278 331 391
#     4  12  25  45  71  94 131 178 227 275 327 392
#
# _framework density 19.860987999999999
#
# number of rings (size 3 to 8) (size 9 to 14) (size 15 to 20)
#    0.000    0.727    3.636    4.091   12.727    0.000 
#    3.273    1.818    0.000    0.000    0.000    0.000 
#    0.000    0.000    0.000    0.000    0.000    0.000 
#
# Total GULP energy -272850.257936 kJ/mol
# GULP energy per Si atom -12402.284452 kJ/mol
# Density = 1.981578 g / cm^3
# Si number density = 19.860988 Si / 1000 Ang^3
#
#
#
# Elastic Constant Matrix: (Units=GPa)
#
#
# Indices 1 2 3 4 5 6 
#
# 1 134.8632 54.5296 50.3567 0.0009 -5.8489 0.0019
# 2 54.5296 129.7951 36.7504 0.0027 0.2733 0.0046
# 3 50.3567 36.7504 143.2135 0.0031 -13.5002 0.0077
# 4 0.0009 0.0027 0.0031 33.2435 0.0019 4.9924
# 5 -5.8489 0.2733 -13.5002 0.0019 45.7684 0.0043
# 6 0.0019 0.0046 0.0077 4.9924 0.0043 22.3337
#
#
#
# Elastic Compliance Matrix: (Units=1/GPa)
#
#
# Indices 1 2 3 4 5 6 
#
# 1 0.009742 -0.003384 -0.002508 0.000000 0.000526 0.000001
# 2 -0.003384 0.009505 -0.001332 0.000000 -0.000882 -0.000001
# 3 -0.002508 -0.001332 0.008411 0.000000 0.002168 -0.000003
# 4 0.000000 0.000000 0.000000 0.031126 -0.000001 -0.006958
# 5 0.000526 -0.000882 0.002168 -0.000001 0.022561 -0.000005
# 6 0.000001 -0.000001 -0.000003 -0.006958 -0.000005 0.046331
#
#
# Mechanical properties :
#
#
# Convention : Reuss Voigt Hill
#
# Bulk Modulus (GPa) = 75.70045 76.79392 76.24718
# Shear Modulus (GPa) = 34.12322 38.01812 36.07067
#
# Velocity S-wave (km/s) = 4.14950 4.37992 4.26626
# Velocity P-wave (km/s) = 7.82021 8.02047 7.92097
#
# Compressibility (1/GPa) = 0.01320996
#
# Stress axis : x y z
#
# Youngs Moduli (GPa) = 102.64485 105.20466 118.89687
#
# Poissons Ratio (x) = 0.35602 0.29815
# Poissons Ratio (y) = 0.34735 0.15842
# Poissons Ratio (z) = 0.25740 0.14018
#
# Static dielectric constant tensor:
#      x y z
#    x 3.538050 -0.000020 -0.082450 
#    y -0.000020 3.778480 -0.000020 
#    z -0.082450 -0.000020 3.771360 
# 
# 
# High freq. dielectric constant tensor:
#      x y z
#    x 1.787510 0.000000 -0.001250 
#    y 0.000000 1.779730 0.000000 
#    z -0.001250 0.000000 1.796020 
# 
# From -- ./inp_files/73174.got.cif
#   From: 2010.06.25/outbox.cif.g09.slc.cpg/sg12_37_cif.got.tgz:73174.got - 2010.06.28 00:19:55.
