data_PCOD8115949
_publ_section_title
;
Structure prediction by ZEFSAII (Michael W. Deem and Ramdas Pophale) SiO2 
 PCOD8115949
Probable space group: C 2/M
;
_chemical_formula_sum "Si O2"
_cell_formula_units_Z 56
_cell_length_a 32.521448
_cell_length_b 9.563674
_cell_length_c 13.676470
_cell_angle_alpha 90.000000
_cell_angle_beta 65.131530
_cell_angle_gamma 90.000000
_cell_volume 3859.294084
_symmetry_space_group_name_H-M "C 2/M"
_symmetry_group_IT_number 12
_symmetry_cell_setting 'monoclinic'
loop_
_space_group_symop_operation_xyz
x,y,z
-x,y,-z
-x,-y,-z
x,-y,z
1/2+x,1/2+y,z
1/2-x,1/2+y,-z
1/2-x,1/2-y,-z
1/2+x,1/2-y,z
loop_
_atom_site_type_symbol
_atom_site_label
_atom_site_fract_x
_atom_site_fract_y
_atom_site_fract_z
Si Si1 0.272222 0.838308 0.615485
Si Si2 0.227778 0.661692 0.159929
Si Si3 0.817492 0.162857 0.952320
Si Si4 0.097204 0.167483 0.793149
Si Si5 0.402796 0.332517 0.987557
Si Si6 0.500000 0.653125 0.116052
Si Si7 0.682508 0.337143 0.587304
O O1 0.273542 0.791726 0.726458
O O2 0.309085 0.747551 0.520459
O O3 0.222044 0.808013 0.625752
O O4 0.285045 0.000000 0.589831
O O5 0.214955 0.500000 0.159921
O O6 0.190915 0.752449 0.138629
O O7 0.277956 0.691987 0.069839
O O8 0.864009 0.220145 0.952955
O O9 0.820655 0.000000 0.922583
O O10 0.047753 0.227755 0.806613
O O11 0.135991 0.220145 0.680972
O O12 0.095498 0.000000 0.796215
O O13 0.108204 0.221418 0.891796
O O14 0.404502 0.500000 0.987210
O O15 0.452247 0.272245 0.902118
O O16 0.500000 0.500000 0.165110
O O17 0.500000 0.636971 0.000000
O O18 0.679345 0.500000 0.563893
#
# Coordination Sequence:
#
# PCOD8115949 Si02
#       7
#     8   8   8   8   8   8   8
#     4   9  17  28  39  52  74 102 127 151 181 217
#     4   9  17  28  39  52  74 102 127 151 181 217
#     4   9  16  25  39  58  76  96 124 154 182 213
#     4   8  12  19  33  54  79 102 121 144 178 220
#     4   8  12  19  33  54  79 102 121 144 178 220
#     4   7  10  16  28  50  78 101 118 140 175 219
#     4   9  16  25  39  58  76  96 124 154 182 213
#
# _framework density 14.510426000000001
#
# number of rings (size 3 to 8) (size 9 to 14) (size 15 to 20)
#    0.000    3.571    0.000    2.571    0.000    4.000 
#    0.000    0.000    0.000    2.571    0.000    2.000 
#    0.000   11.429    0.000    0.000    0.000    0.000 
#
# Total GULP energy -346897.814911 kJ/mol
# GULP energy per Si atom -12389.207675 kJ/mol
# Density = 1.447740 g / cm^3
# Si number density = 14.510426 Si / 1000 Ang^3
#
#
#
# Elastic Constant Matrix: (Units=GPa)
#
#
# Indices 1 2 3 4 5 6 
#
# 1 123.2376 30.4620 61.5745 0.0000 -6.1014 0.0000
# 2 30.4620 25.3057 33.2797 0.0000 1.3456 0.0000
# 3 61.5745 33.2797 103.8647 0.0000 -3.1502 0.0000
# 4 0.0000 0.0000 0.0000 18.8455 0.0000 2.9452
# 5 -6.1014 1.3456 -3.1502 0.0000 25.8527 0.0000
# 6 0.0000 0.0000 0.0000 2.9452 0.0000 12.6780
#
#
#
# Elastic Compliance Matrix: (Units=1/GPa)
#
#
# Indices 1 2 3 4 5 6 
#
# 1 0.012909 -0.009949 -0.004373 0.000000 0.003032 0.000000
# 2 -0.009949 0.076983 -0.019031 0.000000 -0.008674 0.000000
# 3 -0.004373 -0.019031 0.018385 0.000000 0.002199 0.000000
# 4 0.000000 0.000000 0.000000 0.055062 0.000000 -0.012792
# 5 0.003032 -0.008674 0.002199 0.000000 0.040116 0.000000
# 6 0.000000 0.000000 0.000000 -0.012792 0.000000 0.081848
#
#
# Mechanical properties :
#
#
# Convention : Reuss Voigt Hill
#
# Bulk Modulus (GPa) = 24.05609 55.89337 39.97473
# Shear Modulus (GPa) = 13.66625 19.94802 16.80714
#
# Velocity S-wave (km/s) = 3.07224 3.71177 3.40704
# Velocity P-wave (km/s) = 5.40364 7.54803 6.56400
#
# Compressibility (1/GPa) = 0.04156952
#
# Stress axis : x y z
#
# Youngs Moduli (GPa) = 77.46754 12.98995 54.39290
#
# Poissons Ratio (x) = 0.12924 0.23785
# Poissons Ratio (y) = 0.77076 1.03515
# Poissons Ratio (z) = 0.33875 0.24721
#
# Static dielectric constant tensor:
#      x y z
#    x 3.133670 0.000000 -0.183550 
#    y 0.000000 2.472470 0.000000 
#    z -0.183550 0.000000 2.749310 
# 
# 
# High freq. dielectric constant tensor:
#      x y z
#    x 1.556230 0.000000 -0.011130 
#    y 0.000000 1.511110 0.000000 
#    z -0.011130 0.000000 1.532920 
# 
# From -- ./inp_files/181646.got.cif
#   From: 2010.06.25/outbox.cif.g09.slc.cpg/sg12_91_cif.got.tgz:181646.got - 2010.06.28 00:19:55.
