data_PCOD8115747
_publ_section_title
;
Structure prediction by ZEFSAII (Michael W. Deem and Ramdas Pophale) SiO2 
 PCOD8115747
Probable space group: C 2/M
;
_chemical_formula_sum "Si O2"
_cell_formula_units_Z 48
_cell_length_a 29.829058
_cell_length_b 17.738386
_cell_length_c 13.130085
_cell_angle_alpha 90.000000
_cell_angle_beta 161.565826
_cell_angle_gamma 90.000000
_cell_volume 2196.865951
_symmetry_space_group_name_H-M "C 2/M"
_symmetry_group_IT_number 12
_symmetry_cell_setting 'monoclinic'
loop_
_space_group_symop_operation_xyz
x,y,z
-x,y,-z
-x,-y,-z
x,-y,z
1/2+x,1/2+y,z
1/2-x,1/2+y,-z
1/2-x,1/2-y,-z
1/2+x,1/2-y,z
loop_
_atom_site_type_symbol
_atom_site_label
_atom_site_fract_x
_atom_site_fract_y
_atom_site_fract_z
Si Si1 0.052590 0.825593 0.831908
Si Si2 0.645102 0.679923 0.257550
Si Si3 0.250612 0.087077 0.120228
Si Si4 0.607629 0.088022 0.142673
Si Si5 0.950062 0.657407 0.202728
Si Si6 0.232183 0.172538 0.893273
O O1 0.105340 0.743387 0.914203
O O2 0.885781 0.822939 0.448897
O O3 0.091716 0.838765 0.031425
O O4 0.132007 0.892874 0.946310
O O5 0.750000 0.750000 0.500000
O O6 0.730359 0.606240 0.478333
O O7 0.500000 0.697882 0.000000
O O8 0.385487 0.141857 0.424517
O O9 0.294484 0.000000 0.225748
O O10 0.184883 0.106766 0.869010
O O11 0.586032 0.000000 0.083283
O O12 0.500000 0.118095 0.000000
O O13 0.582655 0.123882 0.978433
O O14 0.865999 0.633385 0.123410
O O15 0.250000 0.250000 0.000000
#
# Coordination Sequence:
#
# PCOD8115747 Si02
#       6
#     8   8   8   8   8   8
#     4  12  25  43  74 104 142 187 237 294 352 426
#     4  12  26  43  70 105 138 181 237 293 350 423
#     4  12  28  46  71 108 147 186 235 298 361 419
#     4  11  25  46  73 107 149 189 231 294 367 428
#     4  12  23  43  75 106 139 190 244 289 345 428
#     4  12  25  44  71 107 142 186 238 297 353 421
#
# _framework density 21.849309000000002
#
# number of rings (size 3 to 8) (size 9 to 14) (size 15 to 20)
#    0.000    0.167    5.000    4.000    2.333    5.667 
#    0.000    1.667    0.000    0.000    0.000    0.000 
#    0.000    0.000    0.000    0.000    0.000    0.000 
#
# Total GULP energy -297326.029069 kJ/mol
# GULP energy per Si atom -12388.584545 kJ/mol
# Density = 2.179958 g / cm^3
# Si number density = 21.849309 Si / 1000 Ang^3
#
#
#
# Elastic Constant Matrix: (Units=GPa)
#
#
# Indices 1 2 3 4 5 6 
#
# 1 129.6299 35.6553 36.7536 0.0000 -2.5199 0.0000
# 2 35.6553 88.1203 23.1398 0.0000 0.6759 0.0000
# 3 36.7536 23.1398 126.9052 0.0002 -5.3344 0.0001
# 4 0.0000 0.0000 0.0002 25.8193 0.0000 2.6149
# 5 -2.5199 0.6759 -5.3344 0.0000 49.5452 0.0000
# 6 0.0000 0.0000 0.0001 2.6149 0.0000 31.6778
#
#
#
# Elastic Compliance Matrix: (Units=1/GPa)
#
#
# Indices 1 2 3 4 5 6 
#
# 1 0.009179 -0.003173 -0.002068 0.000000 0.000288 0.000000
# 2 -0.003173 0.013024 -0.001477 0.000000 -0.000498 0.000000
# 3 -0.002068 -0.001477 0.008784 0.000000 0.000861 0.000000
# 4 0.000000 0.000000 0.000000 0.039057 0.000000 -0.003224
# 5 0.000288 -0.000498 0.000861 0.000000 0.020298 0.000000
# 6 0.000000 0.000000 0.000000 -0.003224 0.000000 0.031834
#
#
# Mechanical properties :
#
#
# Convention : Reuss Voigt Hill
#
# Bulk Modulus (GPa) = 56.97468 59.52809 58.25138
# Shear Modulus (GPa) = 35.34537 38.01556 36.68047
#
# Velocity S-wave (km/s) = 4.02641 4.17573 4.10175
# Velocity P-wave (km/s) = 6.91005 7.11006 7.01077
#
# Compressibility (1/GPa) = 0.01755166
#
# Stress axis : x y z
#
# Youngs Moduli (GPa) = 108.94538 76.78337 113.84134
#
# Poissons Ratio (x) = 0.24365 0.23539
# Poissons Ratio (y) = 0.34571 0.16810
# Poissons Ratio (z) = 0.22526 0.11338
#
# Static dielectric constant tensor:
#      x y z
#    x 4.170560 0.000000 -0.188640 
#    y 0.000000 3.785070 0.000000 
#    z -0.188640 0.000000 4.173280 
# 
# 
# High freq. dielectric constant tensor:
#      x y z
#    x 1.880220 0.000000 -0.009150 
#    y 0.000000 1.844570 0.000000 
#    z -0.009150 0.000000 1.871720 
# 
# From -- ./inp_files/184816.got.cif
#   From: 2010.06.25/outbox.cif.g09.slc.cpg/sg12_93_cif.got.tgz:184816.got - 2010.06.28 00:19:55.
