data_PCOD8115765
_publ_section_title
;
Structure prediction by ZEFSAII (Michael W. Deem and Ramdas Pophale) SiO2 
 PCOD8115765
Probable space group: C 2/M
;
_chemical_formula_sum "Si O2"
_cell_formula_units_Z 40
_cell_length_a 14.401504
_cell_length_b 27.161609
_cell_length_c 8.603017
_cell_angle_alpha 90.000000
_cell_angle_beta 149.456630
_cell_angle_gamma 90.000000
_cell_volume 1710.175197
_symmetry_space_group_name_H-M "C 2/M"
_symmetry_group_IT_number 12
_symmetry_cell_setting 'monoclinic'
loop_
_space_group_symop_operation_xyz
x,y,z
-x,y,-z
-x,-y,-z
x,-y,z
1/2+x,1/2+y,z
1/2-x,1/2+y,-z
1/2-x,1/2-y,-z
1/2+x,1/2-y,z
loop_
_atom_site_type_symbol
_atom_site_label
_atom_site_fract_x
_atom_site_fract_y
_atom_site_fract_z
Si Si1 0.194779 0.870309 0.205180
Si Si2 0.340363 0.186513 0.874531
Si Si3 0.408901 0.768479 0.527680
Si Si4 0.686186 0.403094 0.840637
Si Si5 0.541803 0.944485 0.238055
O O1 0.302025 0.819409 0.350520
O O2 0.307966 0.907821 0.475863
O O3 0.164923 0.892046 0.991233
O O4 0.000000 0.861143 0.000000
O O5 0.210267 0.221663 0.582836
O O6 0.228026 0.145594 0.801980
O O7 0.500000 0.161825 0.000000
O O8 0.427862 0.225487 0.117687
O O9 0.500000 0.751058 0.500000
O O10 0.500000 0.425857 0.500000
O O11 0.852790 0.440968 0.061845
O O12 0.617462 0.000000 0.362243
O O13 0.500000 0.930857 0.000000
#
# Coordination Sequence:
#
# PCOD8115765 Si02
#       5
#     8   8   8   8   8
#     4  12  26  45  71 105 143 186 238 289 347 418
#     4  12  26  42  68  98 144 187 238 291 345 411
#     4  12  24  44  65  99 142 189 237 289 346 408
#     4  12  26  44  71 104 145 188 232 291 346 415
#     4  11  25  50  79 106 139 179 228 293 359 422
#
# _framework density 23.389415
#
# number of rings (size 3 to 8) (size 9 to 14) (size 15 to 20)
#    0.000    0.200    4.000    4.800    5.600    2.400 
#    0.000    0.000    0.000    0.000    0.000    0.000 
#    0.000    0.000    0.000    0.000    0.000    0.000 
#
# Total GULP energy -248060.008275 kJ/mol
# GULP energy per Si atom -12403.000414 kJ/mol
# Density = 2.333618 g / cm^3
# Si number density = 23.389415 Si / 1000 Ang^3
#
#
#
# Elastic Constant Matrix: (Units=GPa)
#
#
# Indices 1 2 3 4 5 6 
#
# 1 92.5005 -0.4579 2.5738 0.0000 -2.0632 0.0000
# 2 -0.4579 91.0681 14.7620 0.0000 2.4511 0.0000
# 3 2.5738 14.7620 88.5797 0.0000 5.7797 0.0000
# 4 0.0000 0.0000 0.0000 -1.9819 0.0000 7.4123
# 5 -2.0632 2.4511 5.7797 0.0000 46.1782 0.0000
# 6 0.0000 0.0000 0.0000 7.4123 0.0000 25.5916
#
#
#
# Elastic Compliance Matrix: (Units=1/GPa)
#
#
# Indices 1 2 3 4 5 6 
#
# 1 0.010833 0.000100 -0.000366 0.000000 0.000524 0.000000
# 2 0.000100 0.011293 -0.001861 0.000000 -0.000362 0.000000
# 3 -0.000366 -0.001861 0.011700 0.000000 -0.001382 0.000000
# 4 0.000000 0.000000 0.000000 -0.242205 0.000000 0.070151
# 5 0.000524 -0.000362 -0.001382 0.000000 0.021871 0.000000
# 6 0.000000 0.000000 0.000000 0.070151 0.000000 0.018757
#
#
# Mechanical properties :
#
#
# Convention : Reuss Voigt Hill
#
# Bulk Modulus (GPa) = 33.81613 33.98934 33.90273
# Shear Modulus (GPa) = -32.54367 30.97563 -0.78402
#
# Velocity S-wave (km/s) = -3.73417 3.64310 -0.57960
# Velocity P-wave (km/s) = 2.02554 5.67977 3.75213
#
# Compressibility (1/GPa) = 0.02957168
#
# Stress axis : x y z
#
# Youngs Moduli (GPa) = 92.30949 88.55251 85.46837
#
# Poissons Ratio (x) = -0.00882 0.03125
# Poissons Ratio (y) = -0.00920 0.15908
# Poissons Ratio (z) = 0.03375 0.16482
#
# Static dielectric constant tensor:
#      x y z
#    x 4.529060 0.000000 -0.043890 
#    y 0.000000 4.026270 0.000000 
#    z -0.043890 0.000000 4.490050 
# 
# 
# High freq. dielectric constant tensor:
#      x y z
#    x 1.942350 0.000000 -0.000190 
#    y 0.000000 1.918360 0.000000 
#    z -0.000190 0.000000 1.939600 
# 
# From -- ./inp_files/68453.got.cif
#   From: 2010.06.25/outbox.cif.g09.slc.cpg/sg12_35_cif.got.tgz:68453.got - 2010.06.28 00:19:55.
