data_PCOD8115934
_publ_section_title
;
Structure prediction by ZEFSAII (Michael W. Deem and Ramdas Pophale) SiO2 
 PCOD8115934
Probable space group: C 2/M
;
_chemical_formula_sum "Si O2"
_cell_formula_units_Z 48
_cell_length_a 13.472374
_cell_length_b 31.024111
_cell_length_c 9.303320
_cell_angle_alpha 90.000000
_cell_angle_beta 143.203131
_cell_angle_gamma 90.000000
_cell_volume 2329.129529
_symmetry_space_group_name_H-M "C 2/M"
_symmetry_group_IT_number 12
_symmetry_cell_setting 'monoclinic'
loop_
_space_group_symop_operation_xyz
x,y,z
-x,y,-z
-x,-y,-z
x,-y,z
1/2+x,1/2+y,z
1/2-x,1/2+y,-z
1/2-x,1/2-y,-z
1/2+x,1/2-y,z
loop_
_atom_site_type_symbol
_atom_site_label
_atom_site_fract_x
_atom_site_fract_y
_atom_site_fract_z
Si Si1 0.308674 0.761750 0.231451
Si Si2 0.669495 0.355504 0.115626
Si Si3 0.304977 0.047689 0.755567
Si Si4 0.148788 0.382593 0.416810
Si Si5 0.810926 0.681025 0.763822
Si Si6 0.240485 0.385244 0.071730
O O1 0.500000 0.755482 0.500000
O O2 0.261496 0.810698 0.197323
O O3 0.214986 0.731725 0.240362
O O4 0.250000 0.750000 0.000000
O O5 0.786171 0.386018 0.346422
O O6 0.500000 0.346977 0.000000
O O7 0.644815 0.380794 0.936410
O O8 0.274242 0.077192 0.580905
O O9 0.224443 0.070000 0.803880
O O10 0.226745 0.000000 0.645316
O O11 0.500000 0.044047 0.000000
O O12 0.226706 0.337711 0.439276
O O13 0.951281 0.382447 0.195315
O O14 0.709238 0.654611 0.766550
O O15 0.000000 0.667190 0.000000
#
# Coordination Sequence:
#
# PCOD8115934 Si02
#       6
#     8   8   8   8   8   8
#     4  12  26  41  62  86 121 163 205 258 303 360
#     4  12  25  38  56  82 118 159 206 248 301 355
#     4   8  15  32  62  95 117 141 189 245 301 362
#     4   9  19  34  60  86 113 156 189 249 297 362
#     4   9  19  36  59  80 112 153 202 243 297 347
#     4   9  17  36  58  84 116 150 193 241 300 355
#
# _framework density 20.608557999999999
#
# number of rings (size 3 to 8) (size 9 to 14) (size 15 to 20)
#    0.000    2.167    1.667    4.000    4.667    0.667 
#    0.000    3.333    0.000    7.000    0.000    0.000 
#    0.000    0.000    0.000    0.000    0.000    0.000 
#
# Total GULP energy -297346.025170 kJ/mol
# GULP energy per Si atom -12389.417715 kJ/mol
# Density = 2.056165 g / cm^3
# Si number density = 20.608558 Si / 1000 Ang^3
#
#
#
# Elastic Constant Matrix: (Units=GPa)
#
#
# Indices 1 2 3 4 5 6 
#
# 1 92.4769 26.9486 24.5722 0.0000 -24.3160 0.0000
# 2 26.9486 117.9275 13.1694 0.0000 -18.6665 0.0000
# 3 24.5722 13.1694 63.1897 0.0000 -8.5202 0.0000
# 4 0.0000 0.0000 0.0000 17.4390 0.0000 -3.4414
# 5 -24.3160 -18.6665 -8.5202 0.0000 26.2580 0.0000
# 6 0.0000 0.0000 0.0000 -3.4414 0.0000 21.6220
#
#
#
# Elastic Compliance Matrix: (Units=1/GPa)
#
#
# Indices 1 2 3 4 5 6 
#
# 1 0.015436 -0.001145 -0.004127 0.000000 0.012142 0.000000
# 2 -0.001145 0.009717 -0.000828 0.000000 0.005579 0.000000
# 3 -0.004127 -0.000828 0.017786 0.000000 0.001361 0.000000
# 4 0.000000 0.000000 0.000000 0.059202 0.000000 0.009423
# 5 0.012142 0.005579 0.001361 0.000000 0.053735 0.000000
# 6 0.000000 0.000000 0.000000 0.009423 0.000000 0.047749
#
#
# Mechanical properties :
#
#
# Convention : Reuss Voigt Hill
#
# Bulk Modulus (GPa) = 32.53019 44.77493 38.65256
# Shear Modulus (GPa) = 22.11696 26.99073 24.55385
#
# Velocity S-wave (km/s) = 3.27952 3.62288 3.45547
# Velocity P-wave (km/s) = 5.49175 6.26689 5.89208
#
# Compressibility (1/GPa) = 0.03074067
#
# Stress axis : x y z
#
# Youngs Moduli (GPa) = 64.78279 102.91346 56.22338
#
# Poissons Ratio (x) = 0.11781 0.23203
# Poissons Ratio (y) = 0.07416 0.04654
# Poissons Ratio (z) = 0.26735 0.08518
#
# Static dielectric constant tensor:
#      x y z
#    x 3.800560 0.000000 -0.286220 
#    y 0.000000 3.852660 0.000000 
#    z -0.286220 0.000000 3.680400 
# 
# 
# High freq. dielectric constant tensor:
#      x y z
#    x 1.803170 0.000000 -0.013680 
#    y 0.000000 1.789470 0.000000 
#    z -0.013680 0.000000 1.793160 
# 
# From -- ./inp_files/68396.got.cif
#   From: 2010.06.25/outbox.cif.g09.slc.cpg/sg12_35_cif.got.tgz:68396.got - 2010.06.28 00:19:55.
