data_PCOD8115423
_publ_section_title
;
Structure prediction by ZEFSAII (Michael W. Deem and Ramdas Pophale) SiO2 
 PCOD8115423
Probable space group: C 2/M
;
_chemical_formula_sum "Si O2"
_cell_formula_units_Z 40
_cell_length_a 15.124770
_cell_length_b 18.036765
_cell_length_c 14.412048
_cell_angle_alpha 90.000000
_cell_angle_beta 152.626450
_cell_angle_gamma 90.000000
_cell_volume 1807.725727
_symmetry_space_group_name_H-M "C 2/M"
_symmetry_group_IT_number 12
_symmetry_cell_setting 'monoclinic'
loop_
_space_group_symop_operation_xyz
x,y,z
-x,y,-z
-x,-y,-z
x,-y,z
1/2+x,1/2+y,z
1/2-x,1/2+y,-z
1/2-x,1/2-y,-z
1/2+x,1/2-y,z
loop_
_atom_site_type_symbol
_atom_site_label
_atom_site_fract_x
_atom_site_fract_y
_atom_site_fract_z
Si Si1 0.552697 0.846305 0.652479
Si Si2 0.838326 0.792700 0.167076
Si Si3 0.362276 0.500000 0.729166
Si Si4 0.735152 0.366955 0.494179
Si Si5 0.273903 0.000000 0.199516
Si Si6 0.966435 0.584018 0.077234
O O1 0.500000 0.863394 0.500000
O O2 0.682219 0.771178 0.772058
O O3 0.384314 0.823423 0.567217
O O4 0.642096 0.924972 0.769880
O O5 0.059433 0.815375 0.359231
O O6 0.750000 0.750000 0.000000
O O7 0.716334 0.865630 0.071553
O O8 0.344559 0.430983 0.645675
O O9 0.202892 0.500000 0.664796
O O10 0.555448 0.500000 0.966156
O O11 0.842026 0.393926 0.687426
O O12 0.910057 0.500000 0.050684
O O13 0.000000 0.592303 0.000000
#
# Coordination Sequence:
#
# PCOD8115423 Si02
#       6
#     8   8   4   8   4   8
#     4  12  25  44  71 105 150 188 231 291 358 433
#     4  12  28  46  73 109 144 187 238 298 359 425
#     4  11  23  42  72 109 142 187 238 292 351 434
#     4  12  25  45  73 105 145 189 237 291 359 422
#     4  11  24  45  70 111 145 192 236 281 366 440
#     4  11  28  51  75 101 139 193 248 299 353 417
#
# _framework density 22.12725
#
# number of rings (size 3 to 8) (size 9 to 14) (size 15 to 20)
#    0.000    0.400    5.000    2.700    4.200    0.000 
#    3.600    2.000    0.000    0.000    0.000    0.000 
#    0.000    0.000    0.000    0.000    0.000    0.000 
#
# Total GULP energy -247821.334950 kJ/mol
# GULP energy per Si atom -12391.066747 kJ/mol
# Density = 2.207689 g / cm^3
# Si number density = 22.127250 Si / 1000 Ang^3
#
#
#
# Elastic Constant Matrix: (Units=GPa)
#
#
# Indices 1 2 3 4 5 6 
#
# 1 87.7506 60.0653 58.3035 -0.0005 -2.0518 -0.0013
# 2 60.0653 195.4337 76.8372 -0.0002 11.2957 -0.0004
# 3 58.3035 76.8372 118.0537 -0.0017 -5.2676 -0.0038
# 4 -0.0005 -0.0002 -0.0017 100.4451 -0.0009 148.5937
# 5 -2.0518 11.2957 -5.2676 -0.0009 36.6317 -0.0022
# 6 -0.0013 -0.0004 -0.0038 148.5937 -0.0022 402.2150
#
#
#
# Elastic Compliance Matrix: (Units=1/GPa)
#
#
# Indices 1 2 3 4 5 6 
#
# 1 0.018015 -0.002828 -0.007017 0.000000 0.000872 0.000000
# 2 -0.002828 0.007614 -0.003695 0.000000 -0.003038 0.000000
# 3 -0.007017 -0.003695 0.014467 0.000000 0.002827 0.000000
# 4 0.000000 0.000000 0.000000 0.021954 0.000000 -0.008111
# 5 0.000872 -0.003038 0.002827 0.000000 0.028691 0.000000
# 6 0.000000 0.000000 0.000000 -0.008111 0.000000 0.005483
#
#
# Mechanical properties :
#
#
# Convention : Reuss Voigt Hill
#
# Bulk Modulus (GPa) = 76.82894 87.96110 82.39502
# Shear Modulus (GPa) = 39.17188 121.59383 80.38285
#
# Velocity S-wave (km/s) = 4.21206 7.42101 6.03377
# Velocity P-wave (km/s) = 7.64539 10.64271 9.26605
#
# Compressibility (1/GPa) = 0.01301593
#
# Stress axis : x y z
#
# Youngs Moduli (GPa) = 55.51043 131.33374 69.12199
#
# Poissons Ratio (x) = 0.37143 0.48505
# Poissons Ratio (y) = 0.15699 0.25538
# Poissons Ratio (z) = 0.38953 0.48523
#
# Static dielectric constant tensor:
#      x y z
#    x 3.888400 0.000000 -0.196300 
#    y 0.000000 3.569690 0.000000 
#    z -0.196300 0.000000 4.129210 
# 
# 
# High freq. dielectric constant tensor:
#      x y z
#    x 1.861020 0.000000 -0.013170 
#    y 0.000000 1.901540 0.000000 
#    z -0.013170 0.000000 1.881840 
# 
# From -- ./inp_files/216957.got.cif
#   From: 2010.06.25/outbox.cif.g09.slc.cpg/sg12_109_cif.got.tgz:216957.got - 2010.06.28 00:19:55.
