data_PCOD8115740
_publ_section_title
;
Structure prediction by ZEFSAII (Michael W. Deem and Ramdas Pophale) SiO2 
 PCOD8115740
Probable space group: C 2/M
;
_chemical_formula_sum "Si O2"
_cell_formula_units_Z 40
_cell_length_a 8.475266
_cell_length_b 28.328280
_cell_length_c 10.854577
_cell_angle_alpha 90.000000
_cell_angle_beta 42.702922
_cell_angle_gamma 90.000000
_cell_volume 1767.430752
_symmetry_space_group_name_H-M "C 2/M"
_symmetry_group_IT_number 12
_symmetry_cell_setting 'monoclinic'
loop_
_space_group_symop_operation_xyz
x,y,z
-x,y,-z
-x,-y,-z
x,-y,z
1/2+x,1/2+y,z
1/2-x,1/2+y,-z
1/2-x,1/2-y,-z
1/2+x,1/2-y,z
loop_
_atom_site_type_symbol
_atom_site_label
_atom_site_fract_x
_atom_site_fract_y
_atom_site_fract_z
Si Si1 0.720943 0.054877 0.957190
Si Si2 0.538914 0.785336 0.149600
Si Si3 0.082554 0.382302 0.250092
Si Si4 0.557019 0.714880 0.326910
Si Si5 0.864978 0.879116 0.336472
O O1 0.664788 0.071949 0.127850
O O2 0.779699 0.000000 0.929940
O O3 0.500000 0.066107 0.000000
O O4 0.944405 0.079848 0.768703
O O5 0.611740 0.838664 0.138600
O O6 0.443088 0.762659 0.334957
O O7 0.340746 0.783674 0.157738
O O8 0.750000 0.750000 0.000000
O O9 0.818537 0.388827 0.448588
O O10 0.249406 0.376063 0.269738
O O11 0.500000 0.706541 0.500000
O O12 0.483802 0.671142 0.286091
#
# Coordination Sequence:
#
# PCOD8115740 Si02
#       5
#     8   8   8   8   8
#     4  11  26  47  73 105 140 178 227 287 352 420
#     4  12  25  40  63  97 137 183 234 282 339 403
#     4  11  25  46  71 103 141 181 232 288 345 414
#     4  12  24  41  65  96 137 184 232 282 335 402
#     4  11  25  45  73 101 137 187 231 286 349 406
#
# _framework density 22.631722
#
# number of rings (size 3 to 8) (size 9 to 14) (size 15 to 20)
#    0.000    0.600    2.000    5.400    2.800    4.000 
#    0.000    4.000    0.000    0.000    0.000    0.000 
#    0.000    0.000    0.000    0.000    0.000    0.000 
#
# Total GULP energy -248072.110033 kJ/mol
# GULP energy per Si atom -12403.605502 kJ/mol
# Density = 2.258021 g / cm^3
# Si number density = 22.631722 Si / 1000 Ang^3
#
#
#
# Elastic Constant Matrix: (Units=GPa)
#
#
# Indices 1 2 3 4 5 6 
#
# 1 104.5328 43.8910 15.8660 0.0000 -16.2934 0.0000
# 2 43.8910 121.5026 28.3804 0.0000 -12.9055 0.0000
# 3 15.8660 28.3804 92.0874 0.0000 -13.4846 0.0000
# 4 0.0000 0.0000 0.0000 32.2651 0.0000 1.4587
# 5 -16.2934 -12.9055 -13.4846 0.0000 35.4508 0.0000
# 6 0.0000 0.0000 0.0000 1.4587 0.0000 42.1795
#
#
#
# Elastic Compliance Matrix: (Units=1/GPa)
#
#
# Indices 1 2 3 4 5 6 
#
# 1 0.011812 -0.003780 -0.000293 0.000000 0.003941 0.000000
# 2 -0.003780 0.010262 -0.002350 0.000000 0.001105 0.000000
# 3 -0.000293 -0.002350 0.012167 0.000000 0.003638 0.000000
# 4 0.000000 0.000000 0.000000 0.031042 0.000000 -0.001073
# 5 0.003941 0.001105 0.003638 0.000000 0.031805 0.000000
# 6 0.000000 0.000000 0.000000 -0.001073 0.000000 0.023745
#
#
# Mechanical properties :
#
#
# Convention : Reuss Voigt Hill
#
# Bulk Modulus (GPa) = 46.73862 54.93306 50.83584
# Shear Modulus (GPa) = 35.50877 37.31147 36.41012
#
# Velocity S-wave (km/s) = 3.96534 4.06474 4.01535
# Velocity P-wave (km/s) = 6.45460 6.80844 6.63388
#
# Compressibility (1/GPa) = 0.02139558
#
# Stress axis : x y z
#
# Youngs Moduli (GPa) = 84.65745 97.44815 82.19248
#
# Poissons Ratio (x) = 0.36835 0.02409
# Poissons Ratio (y) = 0.32000 0.19312
# Poissons Ratio (z) = 0.02481 0.22896
#
# Static dielectric constant tensor:
#      x y z
#    x 4.652160 0.000000 0.013980 
#    y 0.000000 3.966040 0.000000 
#    z 0.013980 0.000000 4.755300 
# 
# 
# High freq. dielectric constant tensor:
#      x y z
#    x 1.918610 0.000000 0.000190 
#    y 0.000000 1.877980 0.000000 
#    z 0.000190 0.000000 1.922170 
# 
# From -- ./inp_files/125002.got.cif
#   From: 2010.06.25/outbox.cif.g09.slc.cpg/sg12_63_cif.got.tgz:125002.got - 2010.06.28 00:19:55.
