data_PCOD8115495
_publ_section_title
;
Structure prediction by ZEFSAII (Michael W. Deem and Ramdas Pophale) SiO2 
 PCOD8115495
Probable space group: C 2/M
;
_chemical_formula_sum "Si O2"
_cell_formula_units_Z 32
_cell_length_a 10.350958
_cell_length_b 19.953060
_cell_length_c 8.915667
_cell_angle_alpha 90.000000
_cell_angle_beta 57.447584
_cell_angle_gamma 90.000000
_cell_volume 1552.100069
_symmetry_space_group_name_H-M "C 2/M"
_symmetry_group_IT_number 12
_symmetry_cell_setting 'monoclinic'
loop_
_space_group_symop_operation_xyz
x,y,z
-x,y,-z
-x,-y,-z
x,-y,z
1/2+x,1/2+y,z
1/2-x,1/2+y,-z
1/2-x,1/2-y,-z
1/2+x,1/2-y,z
loop_
_atom_site_type_symbol
_atom_site_label
_atom_site_fract_x
_atom_site_fract_y
_atom_site_fract_z
Si Si1 0.635896 0.000000 0.533862
Si Si2 0.931792 0.250569 0.882788
Si Si3 0.918651 0.872544 0.702976
Si Si4 0.587966 0.113982 0.803667
Si Si5 0.023369 0.000000 0.809222
O O1 0.500000 0.000000 0.500000
O O2 0.621827 0.935574 0.647455
O O3 0.797321 0.000000 0.347186
O O4 0.991593 0.194692 0.727987
O O5 0.992261 0.323679 0.795952
O O6 0.750000 0.250000 0.000000
O O7 0.000000 0.230042 0.000000
O O8 0.742406 0.857277 0.778899
O O9 0.000000 0.893265 0.500000
O O10 0.936443 0.934830 0.803171
O O11 0.500000 0.079760 0.000000
O O12 0.000000 0.000000 0.000000
#
# Coordination Sequence:
#
# PCOD8115495 Si02
#       5
#     4   8   8   8   4
#     4  12  28  46  68 108 141 180 247 294 346 428
#     4  11  23  45  70 105 140 181 237 285 350 423
#     4  12  24  46  73 100 142 184 234 291 357 424
#     4  11  24  46  73 103 139 188 228 290 357 420
#     4  12  28  47  70 102 143 187 233 298 357 415
#
# _framework density 20.617227
#
# number of rings (size 3 to 8) (size 9 to 14) (size 15 to 20)
#    0.000    0.500    7.500    2.250    3.500    4.000 
#    0.000    0.000    0.000    0.000    0.000    0.000 
#    0.000    0.000    0.000    0.000    0.000    0.000 
#
# Total GULP energy -198420.079558 kJ/mol
# GULP energy per Si atom -12401.254972 kJ/mol
# Density = 2.057030 g / cm^3
# Si number density = 20.617227 Si / 1000 Ang^3
#
#
#
# Elastic Constant Matrix: (Units=GPa)
#
#
# Indices 1 2 3 4 5 6 
#
# 1 142.9820 57.3181 47.6212 0.0000 -3.8238 0.0000
# 2 57.3181 160.2451 58.7930 0.0000 13.1718 0.0000
# 3 47.6212 58.7930 136.1129 0.0000 10.6082 0.0000
# 4 0.0000 0.0000 0.0000 42.9977 0.0000 21.6427
# 5 -3.8238 13.1718 10.6082 0.0000 43.8273 0.0000
# 6 0.0000 0.0000 0.0000 21.6427 0.0000 57.4547
#
#
#
# Elastic Compliance Matrix: (Units=1/GPa)
#
#
# Indices 1 2 3 4 5 6 
#
# 1 0.008771 -0.002520 -0.002139 0.000000 0.002040 0.000000
# 2 -0.002520 0.008235 -0.002513 0.000000 -0.002087 0.000000
# 3 -0.002139 -0.002513 0.009312 0.000000 -0.001685 0.000000
# 4 0.000000 0.000000 0.000000 0.028698 0.000000 -0.010810
# 5 0.002040 -0.002087 -0.001685 0.000000 0.024030 0.000000
# 6 0.000000 0.000000 0.000000 -0.010810 0.000000 0.021477
#
#
# Mechanical properties :
#
#
# Convention : Reuss Voigt Hill
#
# Bulk Modulus (GPa) = 83.51351 85.20049 84.35700
# Shear Modulus (GPa) = 42.06625 47.22980 44.64803
#
# Velocity S-wave (km/s) = 4.52192 4.79142 4.65862
# Velocity P-wave (km/s) = 8.23761 8.48674 8.36311
#
# Compressibility (1/GPa) = 0.01197411
#
# Stress axis : x y z
#
# Youngs Moduli (GPa) = 114.00901 121.42741 107.38813
#
# Poissons Ratio (x) = 0.30603 0.22972
# Poissons Ratio (y) = 0.28733 0.26985
# Poissons Ratio (z) = 0.24388 0.30513
#
# Static dielectric constant tensor:
#      x y z
#    x 3.667380 0.000000 0.892410 
#    y 0.000000 3.885260 0.000000 
#    z 0.892410 0.000000 0.801220 
# 
# 
# High freq. dielectric constant tensor:
#      x y z
#    x 1.821990 0.000000 -0.001760 
#    y 0.000000 1.817160 0.000000 
#    z -0.001760 0.000000 1.810190 
# 
# From -- ./inp_files/38739.got.cif
#   From: 2010.06.25/outbox.cif.g09.slc.cpg/sg12_20_cif.got.tgz:38739.got - 2010.06.28 00:19:55.
