data_PCOD8115201
_publ_section_title
;
Structure prediction by ZEFSAII (Michael W. Deem and Ramdas Pophale) SiO2 
 PCOD8115201
Probable space group: C 2/M
;
_chemical_formula_sum "Si O2"
_cell_formula_units_Z 40
_cell_length_a 10.021357
_cell_length_b 15.779328
_cell_length_c 12.420954
_cell_angle_alpha 90.000000
_cell_angle_beta 94.810409
_cell_angle_gamma 90.000000
_cell_volume 1957.210556
_symmetry_space_group_name_H-M "C 2/M"
_symmetry_group_IT_number 12
_symmetry_cell_setting 'monoclinic'
loop_
_space_group_symop_operation_xyz
x,y,z
-x,y,-z
-x,-y,-z
x,-y,z
1/2+x,1/2+y,z
1/2-x,1/2+y,-z
1/2-x,1/2-y,-z
1/2+x,1/2-y,z
loop_
_atom_site_type_symbol
_atom_site_label
_atom_site_fract_x
_atom_site_fract_y
_atom_site_fract_z
Si Si1 0.286189 0.331405 0.765785
Si Si2 0.614690 0.756580 0.426863
Si Si3 0.622016 0.176815 0.085460
Si Si4 0.495527 0.899932 0.716188
Si Si5 0.142363 0.093465 0.029821
O O1 0.380225 0.311590 0.670160
O O2 0.304709 0.255300 0.852859
O O3 0.134431 0.347644 0.718243
O O4 0.333507 0.412038 0.838741
O O5 0.500000 0.727554 0.500000
O O6 0.750000 0.750000 0.500000
O O7 0.595652 0.852515 0.379818
O O8 0.568964 0.109509 0.170209
O O9 0.500000 0.204236 0.000000
O O10 0.735376 0.137254 0.020070
O O11 0.510420 0.000000 0.689515
O O12 0.133745 0.000000 0.980797
O O13 0.000000 0.140234 0.000000
#
# Coordination Sequence:
#
# PCOD8115201 Si02
#       5
#     8   8   8   8   8
#     4  11  23  38  65  93 127 164 218 263 311 377
#     4  11  24  45  66  95 122 165 212 272 326 384
#     4  11  23  38  64  95 134 176 217 251 307 385
#     4  11  24  41  68 100 127 165 216 269 315 378
#     4  11  24  38  58  92 138 175 208 260 319 372
#
# _framework density 20.437249000000001
#
# number of rings (size 3 to 8) (size 9 to 14) (size 15 to 20)
#    0.000    1.000    4.000    2.400    5.600    1.200 
#    0.000    0.000    0.000    4.200    0.000    0.000 
#    0.000    0.000    0.000    0.000    0.000    0.000 
#
# Total GULP energy -247851.634048 kJ/mol
# GULP energy per Si atom -12392.581702 kJ/mol
# Density = 2.039073 g / cm^3
# Si number density = 20.437249 Si / 1000 Ang^3
#
#
#
# Elastic Constant Matrix: (Units=GPa)
#
#
# Indices 1 2 3 4 5 6 
#
# 1 159.6172 59.0908 71.3952 0.0000 -5.1182 0.0000
# 2 59.0908 104.2608 45.1242 0.0000 -1.1229 0.0000
# 3 71.3952 45.1242 136.1061 0.0000 -12.2567 0.0000
# 4 0.0000 0.0000 0.0000 23.1473 0.0000 6.6998
# 5 -5.1182 -1.1229 -12.2567 0.0000 49.5063 0.0000
# 6 0.0000 0.0000 0.0000 6.6998 0.0000 13.6876
#
#
#
# Elastic Compliance Matrix: (Units=1/GPa)
#
#
# Indices 1 2 3 4 5 6 
#
# 1 0.009249 -0.003668 -0.003638 0.000000 -0.000028 0.000000
# 2 -0.003668 0.012675 -0.002339 0.000000 -0.000671 0.000000
# 3 -0.003638 -0.002339 0.010220 0.000000 0.002101 0.000000
# 4 0.000000 0.000000 0.000000 0.050333 0.000000 -0.024637
# 5 -0.000028 -0.000671 0.002101 0.000000 0.020702 0.000000
# 6 0.000000 0.000000 0.000000 -0.024637 0.000000 0.085118
#
#
# Mechanical properties :
#
#
# Convention : Reuss Voigt Hill
#
# Bulk Modulus (GPa) = 77.78994 83.46717 80.62856
# Shear Modulus (GPa) = 23.59919 32.22649 27.91284
#
# Velocity S-wave (km/s) = 3.40180 3.97527 3.69966
# Velocity P-wave (km/s) = 7.31950 7.87399 7.60180
#
# Compressibility (1/GPa) = 0.01285513
#
# Stress axis : x y z
#
# Youngs Moduli (GPa) = 108.11660 78.89514 97.84498
#
# Poissons Ratio (x) = 0.28937 0.35598
# Poissons Ratio (y) = 0.39655 0.22883
# Poissons Ratio (z) = 0.39336 0.18451
#
# Static dielectric constant tensor:
#      x y z
#    x 3.866900 0.000000 0.192740 
#    y 0.000000 3.771540 0.000000 
#    z 0.192740 0.000000 4.259880 
# 
# 
# High freq. dielectric constant tensor:
#      x y z
#    x 1.810290 0.000000 0.002130 
#    y 0.000000 1.786930 0.000000 
#    z 0.002130 0.000000 1.809100 
# 
# From -- ./inp_files/119041.got.cif
#   From: 2010.06.25/outbox.cif.g09.slc.cpg/sg12_60_cif.got.tgz:119041.got - 2010.06.28 00:19:55.
