data_PCOD8115708
_publ_section_title
;
Structure prediction by ZEFSAII (Michael W. Deem and Ramdas Pophale) SiO2 
 PCOD8115708
Probable space group: C 2/M
;
_chemical_formula_sum "Si O2"
_cell_formula_units_Z 48
_cell_length_a 9.225731
_cell_length_b 29.075959
_cell_length_c 8.547928
_cell_angle_alpha 90.000000
_cell_angle_beta 91.373385
_cell_angle_gamma 90.000000
_cell_volume 2292.297145
_symmetry_space_group_name_H-M "C 2/M"
_symmetry_group_IT_number 12
_symmetry_cell_setting 'monoclinic'
loop_
_space_group_symop_operation_xyz
x,y,z
-x,y,-z
-x,-y,-z
x,-y,z
1/2+x,1/2+y,z
1/2-x,1/2+y,-z
1/2-x,1/2-y,-z
1/2+x,1/2-y,z
loop_
_atom_site_type_symbol
_atom_site_label
_atom_site_fract_x
_atom_site_fract_y
_atom_site_fract_z
Si Si1 0.639216 0.221176 0.602312
Si Si2 0.299709 0.368499 0.630507
Si Si3 0.804627 0.552386 0.860175
Si Si4 0.624501 0.052777 0.780607
Si Si5 0.364283 0.278980 0.102244
Si Si6 0.876019 0.868653 0.273237
O O1 0.500000 0.206133 0.500000
O O2 0.750000 0.250000 0.500000
O O3 0.711291 0.176283 0.681600
O O4 0.582522 0.251381 0.744622
O O5 0.209509 0.414621 0.663106
O O6 0.321762 0.362979 0.447302
O O7 0.449844 0.368404 0.729050
O O8 0.762376 0.500000 0.825278
O O9 0.674188 0.582607 0.792867
O O10 0.953754 0.564699 0.774324
O O11 0.817800 0.561071 0.044255
O O12 0.649799 0.000000 0.729145
O O13 0.305990 0.328239 0.164271
O O14 0.500000 0.289803 0.000000
O O15 0.250000 0.250000 0.000000
#
# Coordination Sequence:
#
# PCOD8115708 Si02
#       6
#     8   8   8   8   8   8
#     4  12  25  46  69  93 134 178 218 267 337 397
#     4  11  25  42  66  94 130 176 217 265 325 393
#     4   9  21  42  67  96 133 170 211 268 329 388
#     4   9  21  42  67  98 131 168 216 268 325 392
#     4  12  27  44  66  97 130 170 221 276 324 385
#     4  11  25  43  63  95 134 170 216 269 326 389
#
# _framework density 20.939695
#
# number of rings (size 3 to 8) (size 9 to 14) (size 15 to 20)
#    0.000    1.333    1.667    4.000    7.000    1.333 
#    0.000    5.000    0.000    0.000    0.000    0.000 
#    0.000    0.000    0.000    0.000    0.000    0.000 
#
# Total GULP energy -297680.015489 kJ/mol
# GULP energy per Si atom -12403.333979 kJ/mol
# Density = 2.089203 g / cm^3
# Si number density = 20.939695 Si / 1000 Ang^3
#
#
#
# Elastic Constant Matrix: (Units=GPa)
#
#
# Indices 1 2 3 4 5 6 
#
# 1 108.2238 67.7718 41.1689 0.0000 9.4140 0.0000
# 2 67.7718 144.8065 49.0693 0.0000 3.6708 0.0000
# 3 41.1689 49.0693 81.7164 0.0000 -2.1426 0.0000
# 4 0.0000 0.0000 0.0000 46.4640 0.0000 1.4598
# 5 9.4140 3.6708 -2.1426 0.0000 38.2687 0.0000
# 6 0.0000 0.0000 0.0000 1.4598 0.0000 41.8198
#
#
#
# Elastic Compliance Matrix: (Units=1/GPa)
#
#
# Indices 1 2 3 4 5 6 
#
# 1 0.014399 -0.005234 -0.004197 0.000000 -0.003275 0.000000
# 2 -0.005234 0.010621 -0.003739 0.000000 0.000059 0.000000
# 3 -0.004197 -0.003739 0.016658 0.000000 0.002324 0.000000
# 4 0.000000 0.000000 0.000000 0.021546 0.000000 -0.000752
# 5 -0.003275 0.000059 0.002324 0.000000 0.027061 0.000000
# 6 0.000000 0.000000 0.000000 -0.000752 0.000000 0.023938
#
#
# Mechanical properties :
#
#
# Convention : Reuss Voigt Hill
#
# Bulk Modulus (GPa) = 65.19962 72.30742 68.75352
# Shear Modulus (GPa) = 34.32250 37.09296 35.70773
#
# Velocity S-wave (km/s) = 4.05299 4.21339 4.13397
# Velocity P-wave (km/s) = 7.28744 7.63390 7.46268
#
# Compressibility (1/GPa) = 0.01533751
#
# Stress axis : x y z
#
# Youngs Moduli (GPa) = 69.44853 94.15476 60.02944
#
# Poissons Ratio (x) = 0.49277 0.25197
# Poissons Ratio (y) = 0.36347 0.22447
# Poissons Ratio (z) = 0.29151 0.35208
#
# Static dielectric constant tensor:
#      x y z
#    x 3.667850 0.000000 -0.085600 
#    y 0.000000 3.908320 0.000000 
#    z -0.085600 0.000000 3.808050 
# 
# 
# High freq. dielectric constant tensor:
#      x y z
#    x 1.816400 0.000000 -0.001930 
#    y 0.000000 1.830970 0.000000 
#    z -0.001930 0.000000 1.825500 
# 
# From -- ./inp_files/42189.got.cif
#   From: 2010.06.25/outbox.cif.g09.slc.cpg/sg12_22_cif.got.tgz:42189.got - 2010.06.28 00:19:55.
