data_PCOD8115347
_publ_section_title
;
Structure prediction by ZEFSAII (Michael W. Deem and Ramdas Pophale) SiO2 
 PCOD8115347
Probable space group: C 2/M
;
_chemical_formula_sum "Si O2"
_cell_formula_units_Z 64
_cell_length_a 14.053156
_cell_length_b 18.325778
_cell_length_c 23.947070
_cell_angle_alpha 90.000000
_cell_angle_beta 29.172344
_cell_angle_gamma 90.000000
_cell_volume 3006.133621
_symmetry_space_group_name_H-M "C 2/M"
_symmetry_group_IT_number 12
_symmetry_cell_setting 'monoclinic'
loop_
_space_group_symop_operation_xyz
x,y,z
-x,y,-z
-x,-y,-z
x,-y,z
1/2+x,1/2+y,z
1/2-x,1/2+y,-z
1/2-x,1/2-y,-z
1/2+x,1/2-y,z
loop_
_atom_site_type_symbol
_atom_site_label
_atom_site_fract_x
_atom_site_fract_y
_atom_site_fract_z
Si Si1 0.021684 0.800630 0.553798
Si Si2 0.147909 0.193340 0.009935
Si Si3 0.806299 0.585046 0.005912
Si Si4 0.812275 0.416439 0.565115
Si Si5 0.588190 0.842014 0.592419
Si Si6 0.230263 0.293670 0.176213
Si Si7 0.750450 0.917858 0.748645
Si Si8 0.101003 0.862839 0.218821
O O1 0.232649 0.834472 0.457168
O O2 0.019541 0.727144 0.590859
O O3 0.000000 0.781562 0.500000
O O4 0.850168 0.858137 0.657534
O O5 0.927088 0.215596 0.110757
O O6 0.250000 0.250000 0.000000
O O7 0.160985 0.114029 0.032226
O O8 0.252962 0.185935 0.896900
O O9 0.769905 0.500000 0.033920
O O10 0.025676 0.604235 0.875210
O O11 0.754011 0.627201 0.090054
O O12 0.778354 0.500000 0.598039
O O13 0.852170 0.408095 0.478619
O O14 0.624204 0.372214 0.683964
O O15 0.000000 0.383958 0.500000
O O16 0.400782 0.856939 0.727876
O O17 0.119595 0.216553 0.236684
O O18 0.856429 0.921084 0.754431
O O19 0.763534 0.000000 0.716249
#
# Coordination Sequence:
#
# PCOD8115347 Si02
#       8
#     8   8   8   8   8   8   8   8
#     4  11  24  40  65  93 127 173 221 271 328 395
#     4  11  24  43  66 100 141 173 219 281 326 401
#     4  11  25  42  69 103 134 178 221 272 345 401
#     4  11  25  43  66  98 134 177 227 276 335 399
#     4  11  23  43  63  94 130 174 219 272 331 393
#     4  11  25  40  68 102 127 177 226 265 342 390
#     4  11  23  41  65  96 134 171 217 277 336 399
#     4  12  21  42  70  98 134 169 225 284 333 396
#
# _framework density 21.289805999999999
#
# number of rings (size 3 to 8) (size 9 to 14) (size 15 to 20)
#    0.000    0.875    3.750    3.375    5.250    1.250 
#    0.000    1.875    0.000    0.000    0.000    0.000 
#    0.000    0.000    0.000    0.000    0.000    0.000 
#
# Total GULP energy -396724.439253 kJ/mol
# GULP energy per Si atom -12397.638727 kJ/mol
# Density = 2.124135 g / cm^3
# Si number density = 21.289806 Si / 1000 Ang^3
#
#
#
# Elastic Constant Matrix: (Units=GPa)
#
#
# Indices 1 2 3 4 5 6 
#
# 1 121.2910 14.3009 37.9238 0.0196 -3.2507 0.0143
# 2 14.3009 50.0057 23.5264 0.0147 -7.5838 0.0303
# 3 37.9238 23.5264 131.8322 0.1701 -5.3479 0.0465
# 4 0.0196 0.0147 0.1701 27.8286 -0.0209 -2.2060
# 5 -3.2507 -7.5838 -5.3479 -0.0209 29.8591 -0.0125
# 6 0.0143 0.0303 0.0465 -2.2060 -0.0125 28.0219
#
#
#
# Elastic Compliance Matrix: (Units=1/GPa)
#
#
# Indices 1 2 3 4 5 6 
#
# 1 0.009163 -0.001478 -0.002364 0.000009 0.000199 0.000002
# 2 -0.001478 0.022799 -0.003440 0.000013 0.005014 -0.000015
# 3 -0.002364 -0.003440 0.008898 -0.000052 0.000463 -0.000014
# 4 0.000009 0.000013 -0.000052 0.036160 0.000021 0.002847
# 5 0.000199 0.005014 0.000463 0.000021 0.034869 0.000011
# 6 0.000002 -0.000015 -0.000014 0.002847 0.000011 0.035910
#
#
# Mechanical properties :
#
#
# Convention : Reuss Voigt Hill
#
# Bulk Modulus (GPa) = 38.02851 50.51455 44.27153
# Shear Modulus (GPa) = 29.21746 32.30045 30.75895
#
# Velocity S-wave (km/s) = 3.70857 3.89932 3.80514
# Velocity P-wave (km/s) = 6.01989 6.63714 6.33603
#
# Compressibility (1/GPa) = 0.02629606
#
# Stress axis : x y z
#
# Youngs Moduli (GPa) = 109.12925 43.86097 112.38177
#
# Poissons Ratio (x) = 0.06483 0.26569
# Poissons Ratio (y) = 0.16131 0.38660
# Poissons Ratio (z) = 0.25800 0.15089
#
# Static dielectric constant tensor:
#      x y z
#    x 3.957210 -0.000060 -0.071880 
#    y -0.000060 3.721270 -0.000030 
#    z -0.071880 -0.000030 3.984380 
# 
# 
# High freq. dielectric constant tensor:
#      x y z
#    x 1.839210 0.000000 -0.004770 
#    y 0.000000 1.816180 0.000000 
#    z -0.004770 0.000000 1.846820 
# 
# From -- ./inp_files/340812.got.cif
#   From: 2010.06.25/outbox.cif.g09.slc.cpg/sg12_171_cif.got.tgz:340812.got - 2010.06.28 00:19:55.
