data_PCOD8115526
_publ_section_title
;
Structure prediction by ZEFSAII (Michael W. Deem and Ramdas Pophale) SiO2 
 PCOD8115526
Probable space group: C 2/M
;
_chemical_formula_sum "Si O2"
_cell_formula_units_Z 40
_cell_length_a 9.445558
_cell_length_b 24.858705
_cell_length_c 14.713592
_cell_angle_alpha 90.000000
_cell_angle_beta 145.131599
_cell_angle_gamma 90.000000
_cell_volume 1975.095313
_symmetry_space_group_name_H-M "C 2/M"
_symmetry_group_IT_number 12
_symmetry_cell_setting 'monoclinic'
loop_
_space_group_symop_operation_xyz
x,y,z
-x,y,-z
-x,-y,-z
x,-y,z
1/2+x,1/2+y,z
1/2-x,1/2+y,-z
1/2-x,1/2-y,-z
1/2+x,1/2-y,z
loop_
_atom_site_type_symbol
_atom_site_label
_atom_site_fract_x
_atom_site_fract_y
_atom_site_fract_z
Si Si1 0.159704 0.440619 0.716393
Si Si2 0.787343 0.152500 0.157033
Si Si3 0.603597 0.667040 0.146604
Si Si4 0.473558 0.742563 0.384878
Si Si5 0.864291 0.941097 0.622121
O O1 0.224392 0.500000 0.792227
O O2 0.297830 0.391149 0.837595
O O3 0.248717 0.438571 0.660360
O O4 0.863503 0.431102 0.567139
O O5 0.822101 0.203797 0.239181
O O6 0.889841 0.163040 0.109758
O O7 0.923991 0.103084 0.278674
O O8 0.500000 0.138064 0.000000
O O9 0.829480 0.700567 0.308887
O O10 0.500000 0.695184 0.000000
O O11 0.500000 0.719117 0.500000
O O12 0.750000 0.750000 0.500000
O O13 0.981837 0.000000 0.665891
#
# Coordination Sequence:
#
# PCOD8115526 Si02
#       5
#     8   8   8   8   8
#     4   8  15  31  59  88 115 149 195 244 288 339
#     4  11  24  40  59  89 124 157 193 240 300 352
#     4  11  24  39  60  90 124 154 195 244 292 352
#     4  12  25  42  65  86 113 154 202 251 294 347
#     4   8  15  32  59  87 114 152 197 240 286 344
#
# _framework density 20.252186999999999
#
# number of rings (size 3 to 8) (size 9 to 14) (size 15 to 20)
#    0.000    2.000    2.000    3.000    5.600    2.400 
#    0.000    0.000    0.000    0.600    0.000    0.000 
#    0.000    0.000    0.000    0.000    0.000    0.000 
#
# Total GULP energy -247900.953910 kJ/mol
# GULP energy per Si atom -12395.047695 kJ/mol
# Density = 2.020609 g / cm^3
# Si number density = 20.252187 Si / 1000 Ang^3
#
#
#
# Elastic Constant Matrix: (Units=GPa)
#
#
# Indices 1 2 3 4 5 6 
#
# 1 89.6290 31.2210 44.5846 0.0000 12.3644 0.0000
# 2 31.2210 108.0624 39.8626 0.0000 15.1012 0.0000
# 3 44.5846 39.8626 95.6429 0.0000 15.8925 0.0000
# 4 0.0000 0.0000 0.0000 31.6288 0.0000 3.4640
# 5 12.3644 15.1012 15.8925 0.0000 43.1574 0.0000
# 6 0.0000 0.0000 0.0000 3.4640 0.0000 18.3529
#
#
#
# Elastic Compliance Matrix: (Units=1/GPa)
#
#
# Indices 1 2 3 4 5 6 
#
# 1 0.014984 -0.001939 -0.005940 0.000000 -0.001427 0.000000
# 2 -0.001939 0.011402 -0.003492 0.000000 -0.002149 0.000000
# 3 -0.005940 -0.003492 0.015119 0.000000 -0.002644 0.000000
# 4 0.000000 0.000000 0.000000 0.032284 0.000000 -0.006093
# 5 -0.001427 -0.002149 -0.002644 0.000000 0.025305 0.000000
# 6 0.000000 0.000000 0.000000 -0.006093 0.000000 0.055637
#
#
# Mechanical properties :
#
#
# Convention : Reuss Voigt Hill
#
# Bulk Modulus (GPa) = 53.28967 58.29675 55.79321
# Shear Modulus (GPa) = 27.21431 30.47222 28.84327
#
# Velocity S-wave (km/s) = 3.66973 3.88318 3.77796
# Velocity P-wave (km/s) = 6.65778 6.99666 6.82932
#
# Compressibility (1/GPa) = 0.01876536
#
# Stress axis : x y z
#
# Youngs Moduli (GPa) = 66.73832 87.70194 66.14191
#
# Poissons Ratio (x) = 0.17002 0.39286
# Poissons Ratio (y) = 0.12938 0.23094
# Poissons Ratio (z) = 0.39641 0.30622
#
# Static dielectric constant tensor:
#      x y z
#    x 3.250540 0.000000 0.182490 
#    y 0.000000 4.390460 0.000000 
#    z 0.182490 0.000000 3.633110 
# 
# 
# High freq. dielectric constant tensor:
#      x y z
#    x 1.757710 0.000000 0.010780 
#    y 0.000000 1.801500 0.000000 
#    z 0.010780 0.000000 1.793480 
# 
# From -- ./inp_files/39246.got.cif
#   From: 2010.06.25/outbox.cif.g09.slc.cpg/sg12_20_cif.got.tgz:39246.got - 2010.06.28 00:19:55.
