data_PCOD8115707
_publ_section_title
;
Structure prediction by ZEFSAII (Michael W. Deem and Ramdas Pophale) SiO2 
 PCOD8115707
Probable space group: C 2/M
;
_chemical_formula_sum "Si O2"
_cell_formula_units_Z 48
_cell_length_a 14.426527
_cell_length_b 17.736331
_cell_length_c 17.025777
_cell_angle_alpha 90.000000
_cell_angle_beta 28.904898
_cell_angle_gamma 90.000000
_cell_volume 2105.720525
_symmetry_space_group_name_H-M "C 2/M"
_symmetry_group_IT_number 12
_symmetry_cell_setting 'monoclinic'
loop_
_space_group_symop_operation_xyz
x,y,z
-x,y,-z
-x,-y,-z
x,-y,z
1/2+x,1/2+y,z
1/2-x,1/2+y,-z
1/2-x,1/2-y,-z
1/2+x,1/2-y,z
loop_
_atom_site_type_symbol
_atom_site_label
_atom_site_fract_x
_atom_site_fract_y
_atom_site_fract_z
Si Si1 0.584553 0.859914 0.734896
Si Si2 0.507616 0.703617 0.825957
Si Si3 0.855399 0.329652 0.671069
Si Si4 0.807739 0.585959 0.182233
Si Si5 0.473442 0.689141 0.369192
Si Si6 0.250681 0.415655 0.107128
O O1 0.441035 0.791725 0.871492
O O2 0.668787 0.910049 0.741908
O O3 0.757901 0.821024 0.559375
O O4 0.464388 0.914831 0.768026
O O5 0.701096 0.713452 0.732882
O O6 0.534742 0.674580 0.717503
O O7 0.374387 0.645912 0.970280
O O8 0.757873 0.396201 0.793886
O O9 0.000000 0.365435 0.500000
O O10 0.954457 0.272213 0.659395
O O11 0.781478 0.500000 0.174570
O O12 0.616921 0.628705 0.299207
O O13 0.000000 0.620534 0.000000
O O14 0.335877 0.500000 0.034564
#
# Coordination Sequence:
#
# PCOD8115707 Si02
#       6
#     8   8   8   8   8   8
#     4  12  23  44  74 104 136 184 233 294 350 420
#     4  12  25  44  75 103 136 182 233 294 346 416
#     4  12  24  45  74 105 140 183 240 295 345 417
#     4  11  25  42  66 105 147 183 225 284 355 422
#     4  12  24  44  74 106 141 178 236 291 355 416
#     4  12  29  48  69 103 147 190 237 290 350 419
#
# _framework density 22.795047
#
# number of rings (size 3 to 8) (size 9 to 14) (size 15 to 20)
#    0.000    0.167    5.000    4.500    2.333    5.667 
#    0.000    1.667    0.000    0.000    0.000    0.000 
#    0.000    0.000    0.000    0.000    0.000    0.000 
#
# Total GULP energy -297596.503395 kJ/mol
# GULP energy per Si atom -12399.854308 kJ/mol
# Density = 2.274316 g / cm^3
# Si number density = 22.795047 Si / 1000 Ang^3
#
#
#
# Elastic Constant Matrix: (Units=GPa)
#
#
# Indices 1 2 3 4 5 6 
#
# 1 118.6989 5.8409 19.9484 0.0007 22.5808 0.0019
# 2 5.8409 98.4782 36.9477 -0.0032 4.8847 -0.0072
# 3 19.9484 36.9477 92.2307 -0.0388 27.2830 0.0407
# 4 0.0007 -0.0032 -0.0388 14.5600 0.0148 11.6299
# 5 22.5808 4.8847 27.2830 0.0148 36.9397 -0.0079
# 6 0.0019 -0.0072 0.0407 11.6299 -0.0079 15.2115
#
#
#
# Elastic Compliance Matrix: (Units=1/GPa)
#
#
# Indices 1 2 3 4 5 6 
#
# 1 0.009549 -0.000156 -0.000361 0.000017 -0.005550 -0.000016
# 2 -0.000156 0.012137 -0.005607 -0.000084 0.002631 0.000086
# 3 -0.000361 -0.005607 0.016484 0.000247 -0.011212 -0.000241
# 4 0.000017 -0.000084 0.000247 0.176421 -0.000281 -0.134884
# 5 -0.005550 0.002631 -0.011212 -0.000281 0.038397 0.000267
# 6 -0.000016 0.000086 -0.000241 -0.134884 0.000267 0.168866
#
#
# Mechanical properties :
#
#
# Convention : Reuss Voigt Hill
#
# Bulk Modulus (GPa) = 38.57750 48.32022 43.44886
# Shear Modulus (GPa) = 11.29327 29.78695 20.54011
#
# Velocity S-wave (km/s) = 2.22823 3.61879 3.00505
# Velocity P-wave (km/s) = 4.85597 6.22130 5.58055
#
# Compressibility (1/GPa) = 0.02592185
#
# Stress axis : x y z
#
# Youngs Moduli (GPa) = 104.72525 82.39365 60.66635
#
# Poissons Ratio (x) = 0.01281 0.02192
# Poissons Ratio (y) = 0.01629 0.34015
# Poissons Ratio (z) = 0.03784 0.46197
#
# Static dielectric constant tensor:
#      x y z
#    x 4.423770 -0.000020 -0.055450 
#    y -0.000020 3.865820 0.000150 
#    z -0.055450 0.000150 4.163000 
# 
# 
# High freq. dielectric constant tensor:
#      x y z
#    x 1.927790 0.000000 -0.002570 
#    y 0.000000 1.882960 0.000010 
#    z -0.002570 0.000010 1.899370 
# 
# From -- ./inp_files/271608.got.cif
#   From: 2010.06.25/outbox.cif.g09.slc.cpg/sg12_136_cif.got.tgz:271608.got - 2010.06.28 00:19:55.
