data_PCOD8115688
_publ_section_title
;
Structure prediction by ZEFSAII (Michael W. Deem and Ramdas Pophale) SiO2 
 PCOD8115688
Probable space group: C 2/M
;
_chemical_formula_sum "Si O2"
_cell_formula_units_Z 40
_cell_length_a 14.007867
_cell_length_b 18.969197
_cell_length_c 10.082155
_cell_angle_alpha 90.000000
_cell_angle_beta 145.173321
_cell_angle_gamma 90.000000
_cell_volume 1529.971498
_symmetry_space_group_name_H-M "C 2/M"
_symmetry_group_IT_number 12
_symmetry_cell_setting 'monoclinic'
loop_
_space_group_symop_operation_xyz
x,y,z
-x,y,-z
-x,-y,-z
x,-y,z
1/2+x,1/2+y,z
1/2-x,1/2+y,-z
1/2-x,1/2-y,-z
1/2+x,1/2-y,z
loop_
_atom_site_type_symbol
_atom_site_label
_atom_site_fract_x
_atom_site_fract_y
_atom_site_fract_z
Si Si1 0.945625 0.000000 0.142013
Si Si2 0.000000 0.116527 0.000000
Si Si3 0.905276 0.500000 0.165394
Si Si4 0.794422 0.500000 0.691484
Si Si5 0.716715 0.787598 0.641148
Si Si6 0.607696 0.152398 0.794984
Si Si7 0.197261 0.139804 0.717662
O O1 0.135726 0.000000 0.411190
O O2 0.801970 0.000000 0.093597
O O3 0.912721 0.931486 0.012806
O O4 0.875698 0.167462 0.776221
O O5 0.023201 0.500000 0.169531
O O6 0.944069 0.570689 0.292036
O O7 0.789564 0.569310 0.776727
O O8 0.564489 0.806170 0.369018
O O9 0.683793 0.811511 0.753737
O O10 0.743386 0.703350 0.669617
O O11 0.736143 0.159766 0.061404
O O12 0.000000 0.127465 0.500000
#
# Coordination Sequence:
#
# PCOD8115688 Si02
#       7
#     4   4   4   4   8   8   8
#     4  11  24  48  78 112 158 191 252 319 372 461
#     4  11  24  46  76 119 144 194 252 309 384 450
#     4  12  24  47  80 104 156 198 247 318 369 447
#     4  12  29  48  74 114 146 207 263 305 378 456
#     4  11  25  44  78 108 150 195 249 318 380 449
#     4  11  24  46  73 110 143 202 250 304 382 446
#     4  12  26  48  76 107 156 201 253 314 375 452
#
# _framework density 26.144279000000001
#
# number of rings (size 3 to 8) (size 9 to 14) (size 15 to 20)
#    0.000    0.600    4.000    3.900    0.000    5.600 
#    0.000    3.000    0.000    0.000    0.000    0.000 
#    0.000    0.000    0.000    0.000    0.000    0.000 
#
# Total GULP energy -247951.504124 kJ/mol
# GULP energy per Si atom -12397.575206 kJ/mol
# Density = 2.608477 g / cm^3
# Si number density = 26.144279 Si / 1000 Ang^3
#
#
#
# Elastic Constant Matrix: (Units=GPa)
#
#
# Indices 1 2 3 4 5 6 
#
# 1 123.3839 40.9399 44.8053 0.0000 25.9761 0.0000
# 2 40.9399 197.7777 38.8398 0.0000 19.1518 0.0000
# 3 44.8053 38.8398 171.3066 0.0000 13.8755 0.0000
# 4 0.0000 0.0000 0.0000 24.8372 0.0000 -11.1086
# 5 25.9761 19.1518 13.8755 0.0000 38.8103 0.0000
# 6 0.0000 0.0000 0.0000 -11.1086 0.0000 12.5541
#
#
#
# Elastic Compliance Matrix: (Units=1/GPa)
#
#
# Indices 1 2 3 4 5 6 
#
# 1 0.010425 -0.001218 -0.001992 0.000000 -0.005664 0.000000
# 2 -0.001218 0.005632 -0.000823 0.000000 -0.001669 0.000000
# 3 -0.001992 -0.000823 0.006595 0.000000 -0.000619 0.000000
# 4 0.000000 0.000000 0.000000 0.066633 0.000000 0.058961
# 5 -0.005664 -0.001669 -0.000619 0.000000 0.030602 0.000000
# 6 0.000000 0.000000 0.000000 0.058961 0.000000 0.131827
#
#
# Mechanical properties :
#
#
# Convention : Reuss Voigt Hill
#
# Bulk Modulus (GPa) = 68.56025 82.40426 75.48226
# Shear Modulus (GPa) = 18.89344 39.76587 29.32966
#
# Velocity S-wave (km/s) = 2.69115 3.90425 3.35302
# Velocity P-wave (km/s) = 5.99476 7.20498 6.62755
#
# Compressibility (1/GPa) = 0.01458571
#
# Stress axis : x y z
#
# Youngs Moduli (GPa) = 95.92584 177.56798 151.62784
#
# Poissons Ratio (x) = 0.21633 0.30198
# Poissons Ratio (y) = 0.11687 0.12479
# Poissons Ratio (z) = 0.19104 0.14613
#
# Static dielectric constant tensor:
#      x y z
#    x 4.531230 0.000000 0.404640 
#    y 0.000000 5.346850 0.000000 
#    z 0.404640 0.000000 4.898030 
# 
# 
# High freq. dielectric constant tensor:
#      x y z
#    x 2.033230 0.000000 0.013960 
#    y 0.000000 2.075650 0.000000 
#    z 0.013960 0.000000 2.053940 
# 
# From -- ./inp_files/159701.got.cif
#   From: 2010.06.25/outbox.cif.g09.slc.cpg/sg12_80_cif.got.tgz:159701.got - 2010.06.28 00:19:55.
