data_PCOD8115564
_publ_section_title
;
Structure prediction by ZEFSAII (Michael W. Deem and Ramdas Pophale) SiO2 
 PCOD8115564
Probable space group: C 2/M
;
_chemical_formula_sum "Si O2"
_cell_formula_units_Z 40
_cell_length_a 18.112445
_cell_length_b 14.302991
_cell_length_c 19.596494
_cell_angle_alpha 90.000000
_cell_angle_beta 157.563939
_cell_angle_gamma 90.000000
_cell_volume 1937.537371
_symmetry_space_group_name_H-M "C 2/M"
_symmetry_group_IT_number 12
_symmetry_cell_setting 'monoclinic'
loop_
_space_group_symop_operation_xyz
x,y,z
-x,y,-z
-x,-y,-z
x,-y,z
1/2+x,1/2+y,z
1/2-x,1/2+y,-z
1/2-x,1/2-y,-z
1/2+x,1/2-y,z
loop_
_atom_site_type_symbol
_atom_site_label
_atom_site_fract_x
_atom_site_fract_y
_atom_site_fract_z
Si Si1 0.131020 0.223767 0.800733
Si Si2 0.708935 0.603582 0.293357
Si Si3 0.029513 0.723779 0.199204
Si Si4 0.622080 0.896416 0.706532
Si Si5 0.913262 0.889108 0.499986
O O1 0.196024 0.321252 0.822990
O O2 0.970949 0.249972 0.720972
O O3 0.049841 0.151451 0.675939
O O4 0.323427 0.179687 0.999975
O O5 0.643142 0.500000 0.261011
O O6 0.549950 0.678760 0.176868
O O7 0.733411 0.603641 0.233393
O O8 0.907866 0.632651 0.499939
O O9 0.197920 0.651451 0.324006
O O10 0.620924 0.000000 0.738824
O O11 0.000000 0.861180 0.500000
O O12 0.903259 0.000000 0.499986
#
# Coordination Sequence:
#
# PCOD8115564 Si02
#       5
#     8   8   8   8   8
#     4  11  24  41  62  91 126 162 202 253 314 373
#     4   9  18  34  59  90 120 151 190 240 301 365
#     4  11  24  41  62  91 126 162 202 253 314 373
#     4   9  18  34  59  90 120 151 190 240 301 365
#     4  11  25  44  65  89 121 167 220 265 304 354
#
# _framework density 20.644763999999999
#
# number of rings (size 3 to 8) (size 9 to 14) (size 15 to 20)
#    0.000    1.800    2.000    3.000    0.000    6.400 
#    0.000    8.000    0.000    0.000    0.000    0.000 
#    0.000    0.000    0.000    0.000    0.000    0.000 
#
# Total GULP energy -247972.240351 kJ/mol
# GULP energy per Si atom -12398.612018 kJ/mol
# Density = 2.059778 g / cm^3
# Si number density = 20.644764 Si / 1000 Ang^3
#
#
#
# Elastic Constant Matrix: (Units=GPa)
#
#
# Indices 1 2 3 4 5 6 
#
# 1 125.0680 57.0902 51.8000 -0.0037 -1.1757 -0.0064
# 2 57.0902 108.9547 40.2863 -0.0064 2.0003 -0.0024
# 3 51.8000 40.2863 101.3068 -0.0033 3.9040 0.0003
# 4 -0.0037 -0.0064 -0.0033 16.0577 -0.0091 -1.0810
# 5 -1.1757 2.0003 3.9040 -0.0091 40.6421 -0.0185
# 6 -0.0064 -0.0024 0.0003 -1.0810 -0.0185 7.2872
#
#
#
# Elastic Compliance Matrix: (Units=1/GPa)
#
#
# Indices 1 2 3 4 5 6 
#
# 1 0.011908 -0.004681 -0.004265 0.000001 0.000985 0.000012
# 2 -0.004681 0.012601 -0.002598 0.000003 -0.000506 -0.000001
# 3 -0.004265 -0.002598 0.013134 -0.000001 -0.001257 -0.000008
# 4 0.000001 0.000003 -0.000001 0.062903 0.000018 0.009331
# 5 0.000985 -0.000506 -0.001257 0.000018 0.024779 0.000067
# 6 0.000012 -0.000001 -0.000008 0.009331 0.000067 0.138612
#
#
# Mechanical properties :
#
#
# Convention : Reuss Voigt Hill
#
# Bulk Modulus (GPa) = 68.70904 70.40917 69.55910
# Shear Modulus (GPa) = 17.13054 25.20759 21.16906
#
# Velocity S-wave (km/s) = 2.88371 3.49810 3.20565
# Velocity P-wave (km/s) = 6.66645 7.10596 6.88971
#
# Compressibility (1/GPa) = 0.01455413
#
# Stress axis : x y z
#
# Youngs Moduli (GPa) = 83.97650 79.36144 76.14034
#
# Poissons Ratio (x) = 0.37145 0.32477
# Poissons Ratio (y) = 0.39305 0.19782
# Poissons Ratio (z) = 0.35820 0.20619
#
# Static dielectric constant tensor:
#      x y z
#    x 3.782830 -0.000010 0.022920 
#    y -0.000010 3.701290 0.000000 
#    z 0.022920 0.000000 3.591780 
# 
# 
# High freq. dielectric constant tensor:
#      x y z
#    x 1.808560 0.000000 0.000020 
#    y 0.000000 1.805390 0.000000 
#    z 0.000020 0.000000 1.808270 
# 
# From -- ./inp_files/60213.got.cif
#   From: 2010.06.25/outbox.cif.g09.slc.cpg/sg12_31_cif.got.tgz:60213.got - 2010.06.28 00:19:55.
