data_PCOD8115274
_publ_section_title
;
Structure prediction by ZEFSAII (Michael W. Deem and Ramdas Pophale) SiO2 
 PCOD8115274
Probable space group: C 2/M
;
_chemical_formula_sum "Si O2"
_cell_formula_units_Z 64
_cell_length_a 9.221138
_cell_length_b 17.753432
_cell_length_c 29.033854
_cell_angle_alpha 90.000000
_cell_angle_beta 140.413650
_cell_angle_gamma 90.000000
_cell_volume 3028.829574
_symmetry_space_group_name_H-M "C 2/M"
_symmetry_group_IT_number 12
_symmetry_cell_setting 'monoclinic'
loop_
_space_group_symop_operation_xyz
x,y,z
-x,y,-z
-x,-y,-z
x,-y,z
1/2+x,1/2+y,z
1/2-x,1/2+y,-z
1/2-x,1/2-y,-z
1/2+x,1/2-y,z
loop_
_atom_site_type_symbol
_atom_site_label
_atom_site_fract_x
_atom_site_fract_y
_atom_site_fract_z
Si Si1 0.023932 0.326310 0.852273
Si Si2 0.842478 0.199018 0.311911
Si Si3 0.230013 0.172542 0.931335
Si Si4 0.676531 0.087435 0.445769
Si Si5 0.871741 0.911338 0.398202
Si Si6 0.282500 0.342536 0.664543
Si Si7 0.835722 0.910738 0.177842
Si Si8 0.054631 0.914731 0.066855
O O1 0.848957 0.291467 0.773466
O O2 0.897981 0.380775 0.857326
O O3 0.141529 0.258250 0.908814
O O4 0.204114 0.374070 0.866688
O O5 0.785414 0.128708 0.330775
O O6 0.843857 0.274930 0.340925
O O7 0.087047 0.187514 0.348210
O O8 0.133789 0.126993 0.864252
O O9 0.140002 0.131508 0.954819
O O10 0.500000 0.172538 0.000000
O O11 0.705121 0.112323 0.399375
O O12 0.425349 0.105262 0.403171
O O13 0.875310 0.120474 0.527274
O O14 0.724182 0.000000 0.458936
O O15 0.865161 0.000000 0.386367
O O16 0.449208 0.389832 0.738130
O O17 0.818774 0.000000 0.168224
O O18 0.066192 0.000000 0.088718
O O19 0.000000 0.913735 0.000000
#
# Coordination Sequence:
#
# PCOD8115274 Si02
#       8
#     8   8   8   8   8   8   8   8
#     4  11  24  43  65  90 128 168 213 261 320 386
#     4  11  24  39  63  89 127 167 212 270 318 384
#     4  12  25  43  68  94 126 170 213 259 318 389
#     4   9  19  39  65  91 128 168 211 264 319 387
#     4   9  20  39  64  95 126 167 215 262 321 386
#     4  11  23  40  61  91 128 169 214 266 322 381
#     4  11  24  42  65  95 128 167 213 266 320 379
#     4  11  25  43  65  95 128 163 210 267 322 378
#
# _framework density 21.130274
#
# number of rings (size 3 to 8) (size 9 to 14) (size 15 to 20)
#    0.000    1.375    1.250    4.500    1.750    8.500 
#    0.000    2.500    0.000    0.000    0.000    0.000 
#    0.000    0.000    0.000    0.000    0.000    0.000 
#
# Total GULP energy -396902.135589 kJ/mol
# GULP energy per Si atom -12403.191737 kJ/mol
# Density = 2.108218 g / cm^3
# Si number density = 21.130274 Si / 1000 Ang^3
#
#
#
# Elastic Constant Matrix: (Units=GPa)
#
#
# Indices 1 2 3 4 5 6 
#
# 1 102.5999 33.1498 28.2958 0.0003 19.9587 0.0001
# 2 33.1498 106.7546 21.3446 0.0003 10.4855 0.0001
# 3 28.2958 21.3446 39.1140 0.0011 17.0546 0.0003
# 4 0.0003 0.0003 0.0011 28.8467 0.0007 1.7326
# 5 19.9587 10.4855 17.0546 0.0007 37.9971 0.0002
# 6 0.0001 0.0001 0.0003 1.7326 0.0002 35.2365
#
#
#
# Elastic Compliance Matrix: (Units=1/GPa)
#
#
# Indices 1 2 3 4 5 6 
#
# 1 0.012980 -0.002378 -0.006721 0.000000 -0.003145 0.000000
# 2 -0.002378 0.010955 -0.004332 0.000000 0.000170 0.000000
# 3 -0.006721 -0.004332 0.038210 -0.000001 -0.012424 0.000000
# 4 0.000000 0.000000 -0.000001 0.034769 0.000000 -0.001710
# 5 -0.003145 0.000170 -0.012424 0.000000 0.033499 0.000000
# 6 0.000000 0.000000 0.000000 -0.001710 0.000000 0.028464
#
#
# Mechanical properties :
#
#
# Convention : Reuss Voigt Hill
#
# Bulk Modulus (GPa) = 28.34264 46.00543 37.17404
# Shear Modulus (GPa) = 25.31633 31.46128 28.38880
#
# Velocity S-wave (km/s) = 3.46512 3.86284 3.66937
# Velocity P-wave (km/s) = 5.42696 6.45871 5.96518
#
# Compressibility (1/GPa) = 0.03528253
#
# Stress axis : x y z
#
# Youngs Moduli (GPa) = 77.03941 91.28127 26.17119
#
# Poissons Ratio (x) = 0.21706 0.17590
# Poissons Ratio (y) = 0.18319 0.11338
# Poissons Ratio (z) = 0.51780 0.39546
#
# Static dielectric constant tensor:
#      x y z
#    x 4.050080 0.000000 0.043420 
#    y 0.000000 3.822270 0.000000 
#    z 0.043420 0.000000 3.744650 
# 
# 
# High freq. dielectric constant tensor:
#      x y z
#    x 1.834700 0.000000 0.006040 
#    y 0.000000 1.833600 0.000000 
#    z 0.006040 0.000000 1.828590 
# 
# From -- ./inp_files/373009.got.cif
#   From: 2010.06.25/outbox.cif.g09.slc.cpg/sg12_187_cif.got.tgz:373009.got - 2010.06.28 00:19:55.
