data_PCOD8115589
_publ_section_title
;
Structure prediction by ZEFSAII (Michael W. Deem and Ramdas Pophale) SiO2 
 PCOD8115589
Probable space group: C 2/M
;
_chemical_formula_sum "Si O2"
_cell_formula_units_Z 48
_cell_length_a 9.391362
_cell_length_b 15.341020
_cell_length_c 16.737287
_cell_angle_alpha 90.000000
_cell_angle_beta 90.500325
_cell_angle_gamma 90.000000
_cell_volume 2411.300422
_symmetry_space_group_name_H-M "C 2/M"
_symmetry_group_IT_number 12
_symmetry_cell_setting 'monoclinic'
loop_
_space_group_symop_operation_xyz
x,y,z
-x,y,-z
-x,-y,-z
x,-y,z
1/2+x,1/2+y,z
1/2-x,1/2+y,-z
1/2-x,1/2-y,-z
1/2+x,1/2-y,z
loop_
_atom_site_type_symbol
_atom_site_label
_atom_site_fract_x
_atom_site_fract_y
_atom_site_fract_z
Si Si1 0.861249 0.599242 0.393879
Si Si2 0.191227 0.401527 0.426603
Si Si3 0.583755 0.097820 0.924652
Si Si4 0.974961 0.732897 0.802284
Si Si5 0.216135 0.229560 0.693967
Si Si6 0.646293 0.682832 0.045221
O O1 0.835423 0.500000 0.362593
O O2 0.785146 0.611463 0.478949
O O3 0.793583 0.668852 0.332267
O O4 0.028165 0.617896 0.403565
O O5 0.231744 0.500000 0.402103
O O6 0.297810 0.334996 0.381910
O O7 0.546621 0.149331 0.844168
O O8 0.753223 0.098199 0.943457
O O9 0.529244 0.000000 0.912591
O O10 0.500000 0.141344 0.000000
O O11 0.866548 0.704241 0.733319
O O12 0.890082 0.788258 0.866201
O O13 0.096203 0.790514 0.759773
O O14 0.500000 0.659542 0.000000
O O15 0.750000 0.750000 0.000000
#
# Coordination Sequence:
#
# PCOD8115589 Si02
#       6
#     8   8   8   8   8   8
#     4   9  19  38  63  87 118 163 209 248 296 363
#     4   9  19  38  62  87 118 163 210 249 293 362
#     4  11  24  42  64  90 118 158 210 254 299 362
#     4  12  23  37  60  90 120 163 192 244 312 364
#     4  12  22  37  60  93 125 157 204 248 314 364
#     4  12  20  40  68  87 118 160 203 247 293 367
#
# _framework density 19.906271
#
# number of rings (size 3 to 8) (size 9 to 14) (size 15 to 20)
#    0.000    1.167    6.667    1.500    0.000    1.667 
#    0.000    1.667    0.000    2.000    0.000    0.000 
#    0.000    0.000    0.000    0.000    0.000    0.000 
#
# Total GULP energy -297521.869004 kJ/mol
# GULP energy per Si atom -12396.744542 kJ/mol
# Density = 1.986096 g / cm^3
# Si number density = 19.906271 Si / 1000 Ang^3
#
#
#
# Elastic Constant Matrix: (Units=GPa)
#
#
# Indices 1 2 3 4 5 6 
#
# 1 103.1826 32.5525 38.6563 0.0000 -1.9014 0.0000
# 2 32.5525 82.1796 44.2434 0.0000 -16.7038 0.0000
# 3 38.6563 44.2434 101.0070 0.0000 -19.5392 0.0000
# 4 0.0000 0.0000 0.0000 25.7942 0.0000 -2.1914
# 5 -1.9014 -16.7038 -19.5392 0.0000 40.4909 0.0000
# 6 0.0000 0.0000 0.0000 -2.1914 0.0000 22.0663
#
#
#
# Elastic Compliance Matrix: (Units=1/GPa)
#
#
# Indices 1 2 3 4 5 6 
#
# 1 0.012065 -0.003335 -0.003654 0.000000 -0.002573 0.000000
# 2 -0.003335 0.017317 -0.005468 0.000000 0.004349 0.000000
# 3 -0.003654 -0.005468 0.014586 0.000000 0.004611 0.000000
# 4 0.000000 0.000000 0.000000 0.039098 0.000000 0.003883
# 5 -0.002573 0.004349 0.004611 0.000000 0.028595 0.000000
# 6 0.000000 0.000000 0.000000 0.003883 0.000000 0.045704
#
#
# Mechanical properties :
#
#
# Convention : Reuss Voigt Hill
#
# Bulk Modulus (GPa) = 52.48143 57.47484 54.97813
# Shear Modulus (GPa) = 26.50678 29.06474 27.78576
#
# Velocity S-wave (km/s) = 3.65304 3.82524 3.74013
# Velocity P-wave (km/s) = 6.64939 6.96027 6.80661
#
# Compressibility (1/GPa) = 0.01905436
#
# Stress axis : x y z
#
# Youngs Moduli (GPa) = 82.88234 57.74663 68.55902
#
# Poissons Ratio (x) = 0.19256 0.25055
# Poissons Ratio (y) = 0.27638 0.37487
# Poissons Ratio (z) = 0.30289 0.31575
#
# Static dielectric constant tensor:
#      x y z
#    x 3.666350 0.000000 -0.112250 
#    y 0.000000 3.423410 0.000000 
#    z -0.112250 0.000000 3.799840 
# 
# 
# High freq. dielectric constant tensor:
#      x y z
#    x 1.769750 0.000000 -0.012390 
#    y 0.000000 1.756260 0.000000 
#    z -0.012390 0.000000 1.789600 
# 
# From -- ./inp_files/255793.got.cif
#   From: 2010.06.25/outbox.cif.g09.slc.cpg/sg12_128_cif.got.tgz:255793.got - 2010.06.28 00:19:55.
