data_PCOD8115519
_publ_section_title
;
Structure prediction by ZEFSAII (Michael W. Deem and Ramdas Pophale) SiO2 
 PCOD8115519
Probable space group: C 2/M
;
_chemical_formula_sum "Si O2"
_cell_formula_units_Z 36
_cell_length_a 5.199861
_cell_length_b 30.977170
_cell_length_c 10.419998
_cell_angle_alpha 90.000000
_cell_angle_beta 108.122002
_cell_angle_gamma 90.000000
_cell_volume 1595.165959
_symmetry_space_group_name_H-M "C 2/M"
_symmetry_group_IT_number 12
_symmetry_cell_setting 'monoclinic'
loop_
_space_group_symop_operation_xyz
x,y,z
-x,y,-z
-x,-y,-z
x,-y,z
1/2+x,1/2+y,z
1/2-x,1/2+y,-z
1/2-x,1/2-y,-z
1/2+x,1/2-y,z
loop_
_atom_site_type_symbol
_atom_site_label
_atom_site_fract_x
_atom_site_fract_y
_atom_site_fract_z
Si Si1 0.813639 0.090059 0.580683
Si Si2 0.654651 0.000000 0.857447
Si Si3 0.536039 0.500000 0.686989
Si Si4 0.449315 0.368961 0.141535
Si Si5 0.529386 0.730685 0.152561
Si Si6 0.500000 0.075080 0.000000
O O1 0.500000 0.092397 0.500000
O O2 0.918800 0.041226 0.596716
O O3 0.000000 0.113672 0.500000
O O4 0.837195 0.112115 0.724319
O O5 0.919510 0.000000 0.812011
O O6 0.363405 0.000000 0.739547
O O7 0.687507 0.956397 0.944735
O O8 0.435101 0.318008 0.161339
O O9 0.500000 0.379391 0.000000
O O10 0.166335 0.393720 0.123379
O O11 0.350803 0.760283 0.223148
O O12 0.500000 0.745924 0.000000
#
# Coordination Sequence:
#
# PCOD8115519 Si02
#       6
#     8   4   4   8   8   4
#     4  12  27  45  66  96 136 175 223 273 328 385
#     4  11  24  39  64  91 139 166 222 272 328 373
#     4  12  22  46  62  89 126 184 222 265 321 390
#     4  11  25  41  72  98 132 172 224 271 325 395
#     4   9  20  37  61  97 132 162 205 268 331 384
#     4  11  24  38  62 100 132 174 214 278 326 381
#
# _framework density 22.568183000000001
#
# number of rings (size 3 to 8) (size 9 to 14) (size 15 to 20)
#    0.000    1.111    2.222    3.333   10.889    0.889 
#    0.000    0.000    0.000    4.000    0.000    0.000 
#    0.000    0.000    0.000    0.000    0.000    0.000 
#
# Total GULP energy -223038.626548 kJ/mol
# GULP energy per Si atom -12391.034808 kJ/mol
# Density = 2.251682 g / cm^3
# Si number density = 22.568183 Si / 1000 Ang^3
#
#
#
# Elastic Constant Matrix: (Units=GPa)
#
#
# Indices 1 2 3 4 5 6 
#
# 1 120.3947 45.3254 35.4377 0.0000 15.0988 0.0000
# 2 45.3254 141.8386 35.9227 0.0000 5.6355 0.0000
# 3 35.4377 35.9227 109.4734 0.0000 9.8653 0.0000
# 4 0.0000 0.0000 0.0000 22.0596 0.0000 -8.4943
# 5 15.0988 5.6355 9.8653 0.0000 45.4749 0.0000
# 6 0.0000 0.0000 0.0000 -8.4943 0.0000 19.0644
#
#
#
# Elastic Compliance Matrix: (Units=1/GPa)
#
#
# Indices 1 2 3 4 5 6 
#
# 1 0.010274 -0.002614 -0.002233 0.000000 -0.002603 0.000000
# 2 -0.002614 0.008362 -0.001920 0.000000 0.000248 0.000000
# 3 -0.002233 -0.001920 0.010607 0.000000 -0.001322 0.000000
# 4 0.000000 0.000000 0.000000 0.054720 0.000000 0.024381
# 5 -0.002603 0.000248 -0.001322 0.000000 0.023110 0.000000
# 6 0.000000 0.000000 0.000000 0.024381 0.000000 0.063317
#
#
# Mechanical properties :
#
#
# Convention : Reuss Voigt Hill
#
# Bulk Modulus (GPa) = 63.66358 67.23090 65.44724
# Shear Modulus (GPa) = 26.43256 34.32118 30.37687
#
# Velocity S-wave (km/s) = 3.42604 3.90394 3.67277
# Velocity P-wave (km/s) = 6.62729 7.08349 6.85919
#
# Compressibility (1/GPa) = 0.01570757
#
# Stress axis : x y z
#
# Youngs Moduli (GPa) = 97.33354 119.58819 94.27929
#
# Poissons Ratio (x) = 0.31261 0.21057
# Poissons Ratio (y) = 0.25443 0.18103
# Poissons Ratio (z) = 0.21739 0.22962
#
# Static dielectric constant tensor:
#      x y z
#    x 4.366660 0.000000 -0.078450 
#    y 0.000000 3.923300 0.000000 
#    z -0.078450 0.000000 3.974090 
# 
# 
# High freq. dielectric constant tensor:
#      x y z
#    x 1.905160 0.000000 -0.000100 
#    y 0.000000 1.882320 0.000000 
#    z -0.000100 0.000000 1.861040 
# 
# From -- ./inp_files/115401.got.cif
#   From: 2010.06.25/outbox.cif.g09.slc.cpg/sg12_58_cif.got.tgz:115401.got - 2010.06.28 00:19:55.
