data_PCOD8115844
_publ_section_title
;
Structure prediction by ZEFSAII (Michael W. Deem and Ramdas Pophale) SiO2 
 PCOD8115844
Probable space group: C 2/M
;
_chemical_formula_sum "Si O2"
_cell_formula_units_Z 56
_cell_length_a 17.734000
_cell_length_b 23.656836
_cell_length_c 8.870952
_cell_angle_alpha 90.000000
_cell_angle_beta 139.919003
_cell_angle_gamma 90.000000
_cell_volume 2396.247724
_symmetry_space_group_name_H-M "C 2/M"
_symmetry_group_IT_number 12
_symmetry_cell_setting 'monoclinic'
loop_
_space_group_symop_operation_xyz
x,y,z
-x,y,-z
-x,-y,-z
x,-y,z
1/2+x,1/2+y,z
1/2-x,1/2+y,-z
1/2-x,1/2-y,-z
1/2+x,1/2-y,z
loop_
_atom_site_type_symbol
_atom_site_label
_atom_site_fract_x
_atom_site_fract_y
_atom_site_fract_z
Si Si1 0.000000 0.598972 0.500000
Si Si2 0.630385 0.062976 0.987022
Si Si3 0.276919 0.161187 0.287873
Si Si4 0.891132 0.866089 0.736222
Si Si5 0.579278 0.244011 0.343244
Si Si6 0.000000 0.648307 0.000000
Si Si7 0.139267 0.210637 0.832725
Si Si8 0.380602 0.606263 0.385905
O O1 0.048987 0.562410 0.713795
O O2 0.106450 0.636404 0.604410
O O3 0.623919 0.000000 0.046584
O O4 0.592349 0.108682 0.053365
O O5 0.764943 0.076110 0.144745
O O6 0.229244 0.123816 0.354980
O O7 0.309136 0.226469 0.383477
O O8 0.166930 0.163700 0.004223
O O9 0.899544 0.798431 0.725992
O O10 0.884847 0.900680 0.572319
O O11 0.000000 0.888434 0.000000
O O12 0.564736 0.188212 0.217926
O O13 0.470805 0.251510 0.290864
O O14 0.119354 0.174205 0.649356
O O15 0.250000 0.250000 0.000000
O O16 0.500000 0.579192 0.500000
#
# Coordination Sequence:
#
# PCOD8115844 Si02
#       8
#     4   8   8   8   8   4   8   8
#     4  12  25  48  74 102 138 182 232 318 371 422
#     4  12  28  51  78 104 136 190 251 313 372 419
#     4  12  23  41  63  95 144 186 237 284 351 426
#     4  12  24  43  67 105 149 197 235 281 352 445
#     4  12  22  40  65 102 144 193 227 276 355 432
#     4  12  23  46  70 104 148 178 237 302 356 424
#     4  12  23  39  61  98 148 192 236 277 346 440
#     4  12  25  46  73 105 148 189 242 304 353 427
#
# _framework density 23.369869999999999
#
# number of rings (size 3 to 8) (size 9 to 14) (size 15 to 20)
#    0.000    0.000    6.429    4.286    0.000    0.286 
#    0.000    0.000    0.000    0.429    0.000    0.000 
#    0.000    0.000    0.000    0.000    0.000    0.000 
#
# Total GULP energy -347190.296543 kJ/mol
# GULP energy per Si atom -12399.653448 kJ/mol
# Density = 2.331668 g / cm^3
# Si number density = 23.369870 Si / 1000 Ang^3
#
#
#
# Elastic Constant Matrix: (Units=GPa)
#
#
# Indices 1 2 3 4 5 6 
#
# 1 138.9444 7.0116 27.9984 0.0000 5.0999 0.0000
# 2 7.0116 62.9049 3.8585 0.0000 -3.9943 0.0000
# 3 27.9984 3.8585 100.5538 0.0000 -2.6651 0.0000
# 4 0.0000 0.0000 0.0000 12.5006 0.0000 -2.9804
# 5 5.0999 -3.9943 -2.6651 0.0000 39.8630 0.0000
# 6 0.0000 0.0000 0.0000 -2.9804 0.0000 18.1575
#
#
#
# Elastic Compliance Matrix: (Units=1/GPa)
#
#
# Indices 1 2 3 4 5 6 
#
# 1 0.007715 -0.000805 -0.002149 0.000000 -0.001211 0.000000
# 2 -0.000805 0.016116 -0.000349 0.000000 0.001694 0.000000
# 3 -0.002149 -0.000349 0.010582 0.000000 0.000947 0.000000
# 4 0.000000 0.000000 0.000000 0.083255 0.000000 0.013666
# 5 -0.001211 0.001694 0.000947 0.000000 0.025474 0.000000
# 6 0.000000 0.000000 0.000000 0.013666 0.000000 0.057317
#
#
# Mechanical properties :
#
#
# Convention : Reuss Voigt Hill
#
# Bulk Modulus (GPa) = 35.96436 42.23779 39.10108
# Shear Modulus (GPa) = 23.11232 31.67317 27.39275
#
# Velocity S-wave (km/s) = 3.14822 3.68543 3.42737
# Velocity P-wave (km/s) = 5.35141 6.01853 5.69475
#
# Compressibility (1/GPa) = 0.02780531
#
# Stress axis : x y z
#
# Youngs Moduli (GPa) = 129.61162 62.05104 94.50051
#
# Poissons Ratio (x) = 0.04995 0.20313
# Poissons Ratio (y) = 0.10435 0.03301
# Poissons Ratio (z) = 0.27860 0.02168
#
# Static dielectric constant tensor:
#      x y z
#    x 4.466220 0.000000 -0.281420 
#    y 0.000000 3.653600 0.000000 
#    z -0.281420 0.000000 4.954020 
# 
# 
# High freq. dielectric constant tensor:
#      x y z
#    x 1.942510 0.000000 -0.001740 
#    y 0.000000 1.866680 0.000000 
#    z -0.001740 0.000000 1.952270 
# 
# From -- ./inp_files/80162.got.cif
#   From: 2010.06.25/outbox.cif.g09.slc.cpg/sg12_41_cif.got.tgz:80162.got - 2010.06.28 00:19:55.
