data_PCOD8115499
_publ_section_title
;
Structure prediction by ZEFSAII (Michael W. Deem and Ramdas Pophale) SiO2 
 PCOD8115499
Probable space group: C 2/M
;
_chemical_formula_sum "Si O2"
_cell_formula_units_Z 36
_cell_length_a 25.389972
_cell_length_b 13.832242
_cell_length_c 8.973567
_cell_angle_alpha 90.000000
_cell_angle_beta 147.102299
_cell_angle_gamma 90.000000
_cell_volume 1711.718347
_symmetry_space_group_name_H-M "C 2/M"
_symmetry_group_IT_number 12
_symmetry_cell_setting 'monoclinic'
loop_
_space_group_symop_operation_xyz
x,y,z
-x,y,-z
-x,-y,-z
x,-y,z
1/2+x,1/2+y,z
1/2-x,1/2+y,-z
1/2-x,1/2-y,-z
1/2+x,1/2-y,z
loop_
_atom_site_type_symbol
_atom_site_label
_atom_site_fract_x
_atom_site_fract_y
_atom_site_fract_z
Si Si1 0.313144 0.500000 0.219430
Si Si2 0.114635 0.000000 0.271496
Si Si3 0.113253 0.500000 0.288446
Si Si4 0.737726 0.351124 0.397355
Si Si5 0.896548 0.500000 0.400137
Si Si6 0.174761 0.191280 0.921087
Si Si7 0.000000 0.669146 0.500000
O O1 0.341643 0.500000 0.459420
O O2 0.358034 0.595777 0.248323
O O3 0.195250 0.500000 0.930145
O O4 0.147830 0.094605 0.260063
O O5 0.000000 0.000000 0.000000
O O6 0.161868 0.406607 0.328889
O O7 0.145511 0.500000 0.536018
O O8 0.000000 0.500000 0.000000
O O9 0.750000 0.250000 0.500000
O O10 0.724695 0.343579 0.190129
O O11 0.962049 0.403228 0.538811
O O12 0.085864 0.260324 0.756456
O O13 0.250000 0.250000 0.000000
#
# Coordination Sequence:
#
# PCOD8115499 Si02
#       7
#     4   4   4   8   4   8   4
#     4  12  23  46  71  90 145 181 223 295 338 405
#     4  11  28  46  65 100 141 184 229 277 354 411
#     4  11  24  43  69  95 137 178 230 281 347 401
#     4  11  25  45  67 100 140 180 225 287 350 412
#     4  11  23  46  67 101 132 174 236 285 331 413
#     4  12  24  45  71 103 136 179 233 287 349 410
#     4  11  26  37  74 100 128 171 234 279 340 408
#
# _framework density 21.031497999999999
#
# number of rings (size 3 to 8) (size 9 to 14) (size 15 to 20)
#    0.000    0.667    4.444    2.000    6.222    3.111 
#    0.000    0.000    0.000    0.000    0.000    0.000 
#    0.000    0.000    0.000    0.000    0.000    0.000 
#
# Total GULP energy -223194.064241 kJ/mol
# GULP energy per Si atom -12399.670236 kJ/mol
# Density = 2.098363 g / cm^3
# Si number density = 21.031498 Si / 1000 Ang^3
#
#
#
# Elastic Constant Matrix: (Units=GPa)
#
#
# Indices 1 2 3 4 5 6 
#
# 1 117.4499 69.0121 65.4870 0.0000 3.7374 0.0000
# 2 69.0121 188.5167 54.7504 0.0000 13.1431 0.0000
# 3 65.4870 54.7504 127.1501 0.0000 14.6523 0.0000
# 4 0.0000 0.0000 0.0000 25.3601 0.0000 2.5774
# 5 3.7374 13.1431 14.6523 0.0000 55.1801 0.0000
# 6 0.0000 0.0000 0.0000 2.5774 0.0000 49.1614
#
#
#
# Elastic Compliance Matrix: (Units=1/GPa)
#
#
# Indices 1 2 3 4 5 6 
#
# 1 0.013688 -0.003446 -0.005729 0.000000 0.001415 0.000000
# 2 -0.003446 0.006962 -0.001093 0.000000 -0.001135 0.000000
# 3 -0.005729 -0.001093 0.011565 0.000000 -0.002423 0.000000
# 4 0.000000 0.000000 0.000000 0.039643 0.000000 -0.002078
# 5 0.001415 -0.001135 -0.002423 0.000000 0.018940 0.000000
# 6 0.000000 0.000000 0.000000 -0.002078 0.000000 0.020450
#
#
# Mechanical properties :
#
#
# Convention : Reuss Voigt Hill
#
# Bulk Modulus (GPa) = 85.61106 90.17955 87.89531
# Shear Modulus (GPa) = 36.85178 42.19814 39.52496
#
# Velocity S-wave (km/s) = 4.19049 4.48417 4.33982
# Velocity P-wave (km/s) = 8.01300 8.35355 8.18505
#
# Compressibility (1/GPa) = 0.01168073
#
# Stress axis : x y z
#
# Youngs Moduli (GPa) = 73.05408 143.62842 86.46629
#
# Poissons Ratio (x) = 0.49491 0.49540
# Poissons Ratio (y) = 0.25173 0.09447
# Poissons Ratio (z) = 0.41856 0.15692
#
# Static dielectric constant tensor:
#      x y z
#    x 3.962550 0.000000 0.024900 
#    y 0.000000 4.157890 0.000000 
#    z 0.024900 0.000000 3.727350 
# 
# 
# High freq. dielectric constant tensor:
#      x y z
#    x 1.836320 0.000000 0.005740 
#    y 0.000000 1.850300 0.000000 
#    z 0.005740 0.000000 1.809170 
# 
# From -- ./inp_files/105136.got.cif
#   From: 2010.06.25/outbox.cif.g09.slc.cpg/sg12_53_cif.got.tgz:105136.got - 2010.06.28 00:19:55.
