data_PCOD8115268
_publ_section_title
;
Structure prediction by ZEFSAII (Michael W. Deem and Ramdas Pophale) SiO2 
 PCOD8115268
Probable space group: C 2/M
;
_chemical_formula_sum "Si O2"
_cell_formula_units_Z 48
_cell_length_a 25.904574
_cell_length_b 20.349106
_cell_length_c 9.452625
_cell_angle_alpha 90.000000
_cell_angle_beta 26.925624
_cell_angle_gamma 90.000000
_cell_volume 2256.382706
_symmetry_space_group_name_H-M "C 2/M"
_symmetry_group_IT_number 12
_symmetry_cell_setting 'monoclinic'
loop_
_space_group_symop_operation_xyz
x,y,z
-x,y,-z
-x,-y,-z
x,-y,z
1/2+x,1/2+y,z
1/2-x,1/2+y,-z
1/2-x,1/2-y,-z
1/2+x,1/2-y,z
loop_
_atom_site_type_symbol
_atom_site_label
_atom_site_fract_x
_atom_site_fract_y
_atom_site_fract_z
Si Si1 0.561631 0.000000 0.075342
Si Si2 0.119623 0.382033 0.140073
Si Si3 0.830279 0.927092 0.779259
Si Si4 0.689590 0.368578 0.890338
Si Si5 0.224092 0.237734 0.227769
Si Si6 0.670567 0.000000 0.504554
Si Si7 0.976844 0.852524 0.220614
O O1 0.599119 0.933826 0.064478
O O2 0.425944 0.000000 0.380905
O O3 0.622631 0.000000 0.777607
O O4 0.000000 0.360921 0.500000
O O5 0.196919 0.416971 0.070539
O O6 0.185905 0.315838 0.928453
O O7 0.905595 0.914285 0.455635
O O8 0.850840 0.000000 0.784040
O O9 0.868075 0.878750 0.814030
O O10 0.771934 0.305549 0.696003
O O11 0.755576 0.434520 0.690600
O O12 0.597981 0.349466 0.998358
O O13 0.095341 0.212786 0.567282
O O14 0.250000 0.250000 0.000000
O O15 0.000000 0.862934 0.000000
#
# Coordination Sequence:
#
# PCOD8115268 Si02
#       7
#     4   8   8   8   8   4   8
#     4  11  25  46  69 108 150 181 244 295 363 416
#     4  11  23  39  76 101 137 183 237 296 350 418
#     4  11  23  41  68 107 136 180 238 282 354 422
#     4  12  25  46  76  96 147 182 239 289 357 424
#     4  11  26  46  71 108 139 184 242 290 355 436
#     4  11  28  46  69 107 144 196 231 301 360 423
#     4  11  28  46  68 105 139 187 232 289 360 417
#
# _framework density 21.272987000000001
#
# number of rings (size 3 to 8) (size 9 to 14) (size 15 to 20)
#    0.000    0.833    5.000    1.750    8.167    1.667 
#    3.000    0.000    0.000    0.000    0.000    0.000 
#    0.000    0.000    0.000    0.000    0.000    0.000 
#
# Total GULP energy -297540.267004 kJ/mol
# GULP energy per Si atom -12397.511125 kJ/mol
# Density = 2.122457 g / cm^3
# Si number density = 21.272987 Si / 1000 Ang^3
#
#
#
# Elastic Constant Matrix: (Units=GPa)
#
#
# Indices 1 2 3 4 5 6 
#
# 1 146.7679 51.2104 54.1119 0.0000 -6.2935 0.0000
# 2 51.2104 175.4988 42.8942 0.0000 -15.9397 0.0000
# 3 54.1119 42.8942 97.1433 0.0002 -3.6318 -0.0001
# 4 0.0000 0.0000 0.0002 23.0023 -0.0001 1.4319
# 5 -6.2935 -15.9397 -3.6318 -0.0001 35.7342 0.0000
# 6 0.0000 0.0000 -0.0001 1.4319 0.0000 22.0504
#
#
#
# Elastic Compliance Matrix: (Units=1/GPa)
#
#
# Indices 1 2 3 4 5 6 
#
# 1 0.008947 -0.001519 -0.004296 0.000000 0.000462 0.000000
# 2 -0.001519 0.006890 -0.002099 0.000000 0.002592 0.000000
# 3 -0.004296 -0.002099 0.013602 0.000000 -0.000311 0.000000
# 4 0.000000 0.000000 0.000000 0.043650 0.000000 -0.002835
# 5 0.000462 0.002592 -0.000311 0.000000 0.029191 0.000000
# 6 0.000000 0.000000 0.000000 -0.002835 0.000000 0.045535
#
#
# Mechanical properties :
#
#
# Convention : Reuss Voigt Hill
#
# Bulk Modulus (GPa) = 73.46883 79.53813 76.50348
# Shear Modulus (GPa) = 29.73006 34.23694 31.98350
#
# Velocity S-wave (km/s) = 3.74244 4.01610 3.88168
# Velocity P-wave (km/s) = 7.29970 7.67957 7.49204
#
# Compressibility (1/GPa) = 0.01361122
#
# Stress axis : x y z
#
# Youngs Moduli (GPa) = 111.76826 145.14233 73.51673
#
# Poissons Ratio (x) = 0.22045 0.31582
# Poissons Ratio (y) = 0.16976 0.15433
# Poissons Ratio (z) = 0.48014 0.30469
#
# Static dielectric constant tensor:
#      x y z
#    x 4.003330 0.000000 -0.088270 
#    y 0.000000 4.048430 0.000000 
#    z -0.088270 0.000000 3.856570 
# 
# 
# High freq. dielectric constant tensor:
#      x y z
#    x 1.838360 0.000000 -0.008590 
#    y 0.000000 1.846080 0.000000 
#    z -0.008590 0.000000 1.830050 
# 
# From -- ./inp_files/99773.got.cif
#   From: 2010.06.25/outbox.cif.g09.slc.cpg/sg12_50_cif.got.tgz:99773.got - 2010.06.28 00:19:55.
