data_PCOD8115028
_publ_section_title
;
Structure prediction by ZEFSAII (Michael W. Deem and Ramdas Pophale) SiO2 
 PCOD8115028
Probable space group: C 2/M
;
_chemical_formula_sum "Si O2"
_cell_formula_units_Z 40
_cell_length_a 18.554733
_cell_length_b 11.257248
_cell_length_c 16.332191
_cell_angle_alpha 90.000000
_cell_angle_beta 36.196920
_cell_angle_gamma 90.000000
_cell_volume 2014.638381
_symmetry_space_group_name_H-M "C 2/M"
_symmetry_group_IT_number 12
_symmetry_cell_setting 'monoclinic'
loop_
_space_group_symop_operation_xyz
x,y,z
-x,y,-z
-x,-y,-z
x,-y,z
1/2+x,1/2+y,z
1/2-x,1/2+y,-z
1/2-x,1/2-y,-z
1/2+x,1/2-y,z
loop_
_atom_site_type_symbol
_atom_site_label
_atom_site_fract_x
_atom_site_fract_y
_atom_site_fract_z
Si Si1 0.393660 0.500000 0.705066
Si Si2 0.588735 0.134237 0.141450
Si Si3 0.767894 0.757851 0.858389
Si Si4 0.868065 0.139482 0.158862
Si Si5 0.822677 0.708838 0.354522
Si Si6 0.835183 0.000000 0.569436
O O1 0.336622 0.382801 0.795879
O O2 0.367499 0.500000 0.633980
O O3 0.537126 0.500000 0.596659
O O4 0.643565 0.162011 0.180570
O O5 0.444043 0.147213 0.276326
O O6 0.622365 0.000000 0.086325
O O7 0.644499 0.225207 0.024034
O O8 0.733812 0.708676 0.800532
O O9 0.856646 0.182643 0.262952
O O10 0.841233 0.000000 0.180873
O O11 0.000000 0.169150 0.000000
O O12 0.750000 0.750000 0.500000
O O13 0.742075 0.616087 0.378725
#
# Coordination Sequence:
#
# PCOD8115028 Si02
#       6
#     4   8   8   8   8   4
#     4  11  22  41  65  95 122 166 220 268 322 386
#     4  11  23  40  65  95 130 168 214 267 326 386
#     4  11  22  41  65  96 128 166 217 270 322 379
#     4  11  24  43  66  95 132 175 221 268 324 387
#     4  12  25  43  65  96 134 171 217 270 329 394
#     4  11  24  41  67  89 128 169 213 266 329 397
#
# _framework density 19.854680999999999
#
# number of rings (size 3 to 8) (size 9 to 14) (size 15 to 20)
#    0.000    0.800    6.000    1.800    1.400    0.000 
#    1.800    3.000    0.000    3.600    0.000    0.000 
#    0.000    0.000    0.000    0.000    0.000    0.000 
#
# Total GULP energy -248074.162667 kJ/mol
# GULP energy per Si atom -12403.708133 kJ/mol
# Density = 1.980949 g / cm^3
# Si number density = 19.854681 Si / 1000 Ang^3
#
#
#
# Elastic Constant Matrix: (Units=GPa)
#
#
# Indices 1 2 3 4 5 6 
#
# 1 100.6538 38.6172 42.7435 0.0000 -7.1348 0.0000
# 2 38.6172 101.5486 36.0772 0.0000 -6.6056 0.0000
# 3 42.7435 36.0772 111.0957 0.0000 -5.1518 0.0000
# 4 0.0000 0.0000 0.0000 31.1455 0.0000 -2.2202
# 5 -7.1348 -6.6056 -5.1518 0.0000 41.0460 0.0000
# 6 0.0000 0.0000 0.0000 -2.2202 0.0000 35.1335
#
#
#
# Elastic Compliance Matrix: (Units=1/GPa)
#
#
# Indices 1 2 3 4 5 6 
#
# 1 0.012980 -0.003507 -0.003799 0.000000 0.001215 0.000000
# 2 -0.003507 0.012154 -0.002550 0.000000 0.001026 0.000000
# 3 -0.003799 -0.002550 0.011307 0.000000 0.000349 0.000000
# 4 0.000000 0.000000 0.000000 0.032253 0.000000 0.002038
# 5 0.001215 0.001026 0.000349 0.000000 0.024783 0.000000
# 6 0.000000 0.000000 0.000000 0.002038 0.000000 0.028592
#
#
# Mechanical properties :
#
#
# Convention : Reuss Voigt Hill
#
# Bulk Modulus (GPa) = 59.77621 60.90820 60.34220
# Shear Modulus (GPa) = 33.93134 34.52233 34.22684
#
# Velocity S-wave (km/s) = 4.13847 4.17436 4.15645
# Velocity P-wave (km/s) = 7.28067 7.34692 7.31387
#
# Compressibility (1/GPa) = 0.01672906
#
# Stress axis : x y z
#
# Youngs Moduli (GPa) = 77.04174 82.27764 88.44140
#
# Poissons Ratio (x) = 0.28859 0.33595
# Poissons Ratio (y) = 0.27022 0.22551
# Poissons Ratio (z) = 0.29265 0.20979
#
# Static dielectric constant tensor:
#      x y z
#    x 3.671680 0.000000 -0.110160 
#    y 0.000000 3.636260 0.000000 
#    z -0.110160 0.000000 3.653720 
# 
# 
# High freq. dielectric constant tensor:
#      x y z
#    x 1.784660 0.000000 -0.008060 
#    y 0.000000 1.780540 0.000000 
#    z -0.008060 0.000000 1.773850 
# 
# From -- ./inp_files/283173.got.cif
#   From: 2010.06.25/outbox.cif.g09.slc.cpg/sg12_142_cif.got.tgz:283173.got - 2010.06.28 00:19:55.
