data_PCOD8115203
_publ_section_title
;
Structure prediction by ZEFSAII (Michael W. Deem and Ramdas Pophale) SiO2 
 PCOD8115203
Probable space group: C 2/M
;
_chemical_formula_sum "Si O2"
_cell_formula_units_Z 40
_cell_length_a 8.930323
_cell_length_b 18.325410
_cell_length_c 18.144774
_cell_angle_alpha 90.000000
_cell_angle_beta 141.327158
_cell_angle_gamma 90.000000
_cell_volume 1855.512811
_symmetry_space_group_name_H-M "C 2/M"
_symmetry_group_IT_number 12
_symmetry_cell_setting 'monoclinic'
loop_
_space_group_symop_operation_xyz
x,y,z
-x,y,-z
-x,-y,-z
x,-y,z
1/2+x,1/2+y,z
1/2-x,1/2+y,-z
1/2-x,1/2-y,-z
1/2+x,1/2-y,z
loop_
_atom_site_type_symbol
_atom_site_label
_atom_site_fract_x
_atom_site_fract_y
_atom_site_fract_z
Si Si1 0.881413 0.000000 0.722793
Si Si2 0.208650 0.224801 0.751239
Si Si3 0.909581 0.500000 0.885407
Si Si4 0.810028 0.000000 0.860438
Si Si5 0.772841 0.338896 0.364186
Si Si6 0.576291 0.877823 0.847940
Si Si7 0.000000 0.223517 0.000000
O O1 0.736298 0.073387 0.647685
O O2 0.942657 0.000000 0.833509
O O3 0.123370 0.000000 0.768673
O O4 0.189121 0.302599 0.702238
O O5 0.339187 0.171141 0.742000
O O6 0.381438 0.229118 0.889293
O O7 0.957274 0.192605 0.681224
O O8 0.020191 0.428069 0.894676
O O9 0.000000 0.500000 0.000000
O O10 0.642967 0.927573 0.802625
O O11 0.000000 0.000000 0.000000
O O12 0.000000 0.317579 0.500000
O O13 0.796280 0.827207 0.957287
#
# Coordination Sequence:
#
# PCOD8115203 Si02
#       7
#     4   8   4   4   8   8   4
#     4  12  25  46  72 101 138 182 236 290 340 413
#     4  12  26  44  73 103 143 178 232 292 350 418
#     4  11  25  35  66 101 143 182 225 284 354 416
#     4  11  23  38  65  97 145 182 218 272 357 424
#     4  12  28  50  73 100 138 191 241 286 340 411
#     4  11  23  40  61 101 144 178 221 277 346 428
#     4  12  24  39  70 105 142 180 222 284 366 413
#
# _framework density 21.557383000000002
#
# number of rings (size 3 to 8) (size 9 to 14) (size 15 to 20)
#    0.000    0.400    5.000    3.900    4.200    0.000 
#    0.000    0.000    0.000    1.200    0.000    0.000 
#    0.000    0.000    0.000    0.000    0.000    0.000 
#
# Total GULP energy -247926.760332 kJ/mol
# GULP energy per Si atom -12396.338017 kJ/mol
# Density = 2.150832 g / cm^3
# Si number density = 21.557383 Si / 1000 Ang^3
#
#
#
# Elastic Constant Matrix: (Units=GPa)
#
#
# Indices 1 2 3 4 5 6 
#
# 1 119.0868 51.8615 37.7721 0.0003 19.9638 -0.0003
# 2 51.8615 137.9568 30.9815 0.0001 12.8294 0.0000
# 3 37.7721 30.9815 94.0814 0.0014 16.3858 0.0005
# 4 0.0003 0.0001 0.0014 21.8342 0.0003 13.8692
# 5 19.9638 12.8294 16.3858 0.0003 30.7696 -0.0003
# 6 -0.0003 0.0000 0.0005 13.8692 -0.0003 45.0381
#
#
#
# Elastic Compliance Matrix: (Units=1/GPa)
#
#
# Indices 1 2 3 4 5 6 
#
# 1 0.011457 -0.003267 -0.002719 0.000000 -0.004624 0.000000
# 2 -0.003267 0.008882 -0.001474 0.000000 -0.000799 0.000000
# 3 -0.002719 -0.001474 0.012997 -0.000001 -0.004543 0.000000
# 4 0.000000 0.000000 -0.000001 0.056937 0.000000 -0.017533
# 5 -0.004624 -0.000799 -0.004543 0.000000 0.038252 0.000000
# 6 0.000000 0.000000 0.000000 -0.017533 0.000000 0.027603
#
#
# Mechanical properties :
#
#
# Convention : Reuss Voigt Hill
#
# Bulk Modulus (GPa) = 54.29708 65.81725 60.05716
# Shear Modulus (GPa) = 28.21882 34.89573 31.55727
#
# Velocity S-wave (km/s) = 3.62195 4.02772 3.83021
# Velocity P-wave (km/s) = 6.53707 7.22686 6.89060
#
# Compressibility (1/GPa) = 0.01841720
#
# Stress axis : x y z
#
# Youngs Moduli (GPa) = 87.28060 112.58741 76.93865
#
# Poissons Ratio (x) = 0.36777 0.20919
# Poissons Ratio (y) = 0.28510 0.11343
# Poissons Ratio (z) = 0.23731 0.16599
#
# Static dielectric constant tensor:
#      x y z
#    x 3.871320 0.000000 0.180700 
#    y 0.000000 4.708090 0.000000 
#    z 0.180700 0.000000 3.477430 
# 
# 
# High freq. dielectric constant tensor:
#      x y z
#    x 1.870690 0.000000 0.016690 
#    y 0.000000 1.871230 0.000000 
#    z 0.016690 0.000000 1.804090 
# 
# From -- ./inp_files/258356.got.cif
#   From: 2010.06.25/outbox.cif.g09.slc.cpg/sg12_130_cif.got.tgz:258356.got - 2010.06.28 00:19:55.
