data_PCOD8115143
_publ_section_title
;
Structure prediction by ZEFSAII (Michael W. Deem and Ramdas Pophale) SiO2 
 PCOD8115143
Probable space group: C 2/M
;
_chemical_formula_sum "Si O2"
_cell_formula_units_Z 48
_cell_length_a 13.380189
_cell_length_b 23.045728
_cell_length_c 12.456604
_cell_angle_alpha 90.000000
_cell_angle_beta 42.601295
_cell_angle_gamma 90.000000
_cell_volume 2599.992581
_symmetry_space_group_name_H-M "C 2/M"
_symmetry_group_IT_number 12
_symmetry_cell_setting 'monoclinic'
loop_
_space_group_symop_operation_xyz
x,y,z
-x,y,-z
-x,-y,-z
x,-y,z
1/2+x,1/2+y,z
1/2-x,1/2+y,-z
1/2-x,1/2-y,-z
1/2+x,1/2-y,z
loop_
_atom_site_type_symbol
_atom_site_label
_atom_site_fract_x
_atom_site_fract_y
_atom_site_fract_z
Si Si1 0.137339 0.833203 0.631339
Si Si2 0.330428 0.933956 0.762409
Si Si3 0.654288 0.252047 0.416605
Si Si4 0.323571 0.662734 0.979485
Si Si5 0.831283 0.434385 0.511346
Si Si6 0.841753 0.716411 0.079967
O O1 0.232868 0.799058 0.644683
O O2 0.115760 0.793008 0.546137
O O3 0.224608 0.891537 0.529633
O O4 0.979934 0.851029 0.802367
O O5 0.293661 0.927502 0.666429
O O6 0.500656 0.917110 0.647217
O O7 0.301389 0.000000 0.822358
O O8 0.225166 0.892772 0.914232
O O9 0.500000 0.223464 0.500000
O O10 0.722968 0.291428 0.268446
O O11 0.200516 0.675227 0.986005
O O12 0.341465 0.716929 0.043951
O O13 0.800530 0.500000 0.497962
O O14 0.000000 0.697159 0.000000
#
# Coordination Sequence:
#
# PCOD8115143 Si02
#       6
#     8   8   8   8   8   8
#     4  11  23  35  58  85 110 148 188 225 275 328
#     4   9  20  37  58  82 112 146 182 227 279 329
#     4  11  23  38  54  81 116 150 183 224 275 333
#     4  11  23  36  56  86 113 145 185 230 275 325
#     4   9  20  37  57  83 111 145 184 226 277 330
#     4  11  23  38  54  82 118 147 181 227 277 329
#
# _framework density 18.461590999999999
#
# number of rings (size 3 to 8) (size 9 to 14) (size 15 to 20)
#    0.000    1.667    3.333    2.000    7.000    0.667 
#    0.000    1.667    0.000    2.000    0.000    0.000 
#    0.000    0.000    0.000    0.000    0.000    0.000 
#
# Total GULP energy -297655.995327 kJ/mol
# GULP energy per Si atom -12402.333139 kJ/mol
# Density = 1.841957 g / cm^3
# Si number density = 18.461591 Si / 1000 Ang^3
#
#
#
# Elastic Constant Matrix: (Units=GPa)
#
#
# Indices 1 2 3 4 5 6 
#
# 1 86.0040 14.9917 7.1053 -0.0001 -18.6728 0.0001
# 2 14.9917 73.2554 13.6179 0.0000 -13.3404 0.0000
# 3 7.1053 13.6179 76.1570 -0.0001 -16.6462 0.0000
# 4 -0.0001 0.0000 -0.0001 34.4245 0.0001 -5.1394
# 5 -18.6728 -13.3404 -16.6462 0.0001 27.3656 0.0000
# 6 0.0001 0.0000 0.0000 -5.1394 0.0000 11.1427
#
#
#
# Elastic Compliance Matrix: (Units=1/GPa)
#
#
# Indices 1 2 3 4 5 6 
#
# 1 0.013812 -0.001301 0.000998 0.000000 0.009398 0.000000
# 2 -0.001301 0.015207 -0.001351 0.000000 0.005704 0.000000
# 3 0.000998 -0.001351 0.015321 0.000000 0.009342 0.000000
# 4 0.000000 0.000000 0.000000 0.031197 0.000000 0.014389
# 5 0.009398 0.005704 0.009342 0.000000 0.051418 0.000000
# 6 0.000000 0.000000 0.000000 0.014389 0.000000 0.096381
#
#
# Mechanical properties :
#
#
# Convention : Reuss Voigt Hill
#
# Bulk Modulus (GPa) = 24.37101 34.09404 29.23252
# Shear Modulus (GPa) = 20.80542 27.89999 24.35270
#
# Velocity S-wave (km/s) = 3.36066 3.89169 3.63588
# Velocity P-wave (km/s) = 5.31867 6.22104 5.78747
#
# Compressibility (1/GPa) = 0.04103236
#
# Stress axis : x y z
#
# Youngs Moduli (GPa) = 72.40073 65.75946 65.26901
#
# Poissons Ratio (x) = 0.08554 -0.06514
# Poissons Ratio (y) = 0.09418 0.08819
# Poissons Ratio (z) = -0.07226 0.08885
#
# Static dielectric constant tensor:
#      x y z
#    x 3.425930 0.000000 -0.058030 
#    y 0.000000 3.266780 0.000000 
#    z -0.058030 0.000000 3.392410 
# 
# 
# High freq. dielectric constant tensor:
#      x y z
#    x 1.712320 0.000000 -0.011950 
#    y 0.000000 1.698450 0.000000 
#    z -0.011950 0.000000 1.722670 
# 
# From -- ./inp_files/64713.got.cif
#   From: 2010.06.25/outbox.cif.g09.slc.cpg/sg12_33_cif.got.tgz:64713.got - 2010.06.28 00:19:55.
