data_PCOD8115433
_publ_section_title
;
Structure prediction by ZEFSAII (Michael W. Deem and Ramdas Pophale) SiO2 
 PCOD8115433
Probable space group: C 2/M
;
_chemical_formula_sum "Si O2"
_cell_formula_units_Z 36
_cell_length_a 9.646767
_cell_length_b 30.042542
_cell_length_c 8.033407
_cell_angle_alpha 90.000000
_cell_angle_beta 49.065750
_cell_angle_gamma 90.000000
_cell_volume 1758.858207
_symmetry_space_group_name_H-M "C 2/M"
_symmetry_group_IT_number 12
_symmetry_cell_setting 'monoclinic'
loop_
_space_group_symop_operation_xyz
x,y,z
-x,y,-z
-x,-y,-z
x,-y,z
1/2+x,1/2+y,z
1/2-x,1/2+y,-z
1/2-x,1/2-y,-z
1/2+x,1/2-y,z
loop_
_atom_site_type_symbol
_atom_site_label
_atom_site_fract_x
_atom_site_fract_y
_atom_site_fract_z
Si Si1 0.144487 0.500000 0.653408
Si Si2 0.558107 0.434306 0.639734
Si Si3 0.884362 0.155614 0.245578
Si Si4 0.500000 0.188021 0.500000
Si Si5 0.964102 0.252082 0.841394
Si Si6 0.739180 0.500000 0.056012
O O1 0.242726 0.457288 0.488956
O O2 0.183718 0.500000 0.818413
O O3 0.922944 0.500000 0.794328
O O4 0.500000 0.444475 0.500000
O O5 0.582803 0.381483 0.641286
O O6 0.391963 0.456777 0.878381
O O7 0.676118 0.156992 0.343858
O O8 0.947410 0.203907 0.259467
O O9 0.000000 0.138893 0.000000
O O10 0.461403 0.216714 0.363655
O O11 0.750000 0.250000 0.000000
O O12 0.000000 0.270505 0.000000
#
# Coordination Sequence:
#
# PCOD8115433 Si02
#       6
#     4   8   8   4   8   4
#     4   8  15  33  56  88 118 154 202 244 309 379
#     4   9  19  34  59  90 117 158 200 254 311 363
#     4  11  24  40  59  89 126 159 209 257 310 373
#     4  12  24  44  66  87 128 177 206 270 312 372
#     4  11  23  43  66  92 124 170 216 258 318 375
#     4   8  15  33  60  81 124 155 195 253 306 373
#
# _framework density 20.467822000000002
#
# number of rings (size 3 to 8) (size 9 to 14) (size 15 to 20)
#    0.000    2.000    4.444    2.000    1.556    1.778 
#    0.000    2.222    0.000    4.000    0.000    0.000 
#    0.000    0.000    0.000    0.000    0.000    0.000 
#
# Total GULP energy -223020.501532 kJ/mol
# GULP energy per Si atom -12390.027863 kJ/mol
# Density = 2.042124 g / cm^3
# Si number density = 20.467822 Si / 1000 Ang^3
#
#
#
# Elastic Constant Matrix: (Units=GPa)
#
#
# Indices 1 2 3 4 5 6 
#
# 1 96.2087 38.1378 51.9193 0.0000 -24.4797 0.0000
# 2 38.1378 90.2441 40.0492 0.0000 -12.1724 0.0000
# 3 51.9193 40.0492 124.5322 0.0000 -35.1696 0.0000
# 4 0.0000 0.0000 0.0000 184.7446 0.0000 -101.9556
# 5 -24.4797 -12.1724 -35.1696 0.0000 52.2185 0.0000
# 6 0.0000 0.0000 0.0000 -101.9556 0.0000 80.3124
#
#
#
# Elastic Compliance Matrix: (Units=1/GPa)
#
#
# Indices 1 2 3 4 5 6 
#
# 1 0.015049 -0.004133 -0.003982 0.000000 0.003409 0.000000
# 2 -0.004133 0.014064 -0.002990 0.000000 -0.000673 0.000000
# 3 -0.003982 -0.002990 0.012260 0.000000 0.005693 0.000000
# 4 0.000000 0.000000 0.000000 0.018079 0.000000 0.022951
# 5 0.003409 -0.000673 0.005693 0.000000 0.024426 0.000000
# 6 0.000000 0.000000 0.000000 0.022951 0.000000 0.041587
#
#
# Mechanical properties :
#
#
# Convention : Reuss Voigt Hill
#
# Bulk Modulus (GPa) = 52.18448 63.46640 57.82544
# Shear Modulus (GPa) = 32.45462 75.51368 53.98415
#
# Velocity S-wave (km/s) = 3.98633 6.08062 5.14124
# Velocity P-wave (km/s) = 6.83659 8.96514 7.97223
#
# Compressibility (1/GPa) = 0.01916279
#
# Stress axis : x y z
#
# Youngs Moduli (GPa) = 66.45075 71.10526 81.56843
#
# Poissons Ratio (x) = 0.29385 0.32482
# Poissons Ratio (y) = 0.27461 0.24388
# Poissons Ratio (z) = 0.26462 0.21260
#
# Static dielectric constant tensor:
#      x y z
#    x 2.997350 0.000000 -0.602810 
#    y 0.000000 3.622730 0.000000 
#    z -0.602810 0.000000 3.802470 
# 
# 
# High freq. dielectric constant tensor:
#      x y z
#    x 1.792310 0.000000 -0.022210 
#    y 0.000000 1.783400 0.000000 
#    z -0.022210 0.000000 1.810370 
# 
# From -- ./inp_files/41355.got.cif
#   From: 2010.06.25/outbox.cif.g09.slc.cpg/sg12_21_cif.got.tgz:41355.got - 2010.06.28 00:19:55.
