data_PCOD8115185
_publ_section_title
;
Structure prediction by ZEFSAII (Michael W. Deem and Ramdas Pophale) SiO2 
 PCOD8115185
Probable space group: C 2/M
;
_chemical_formula_sum "Si O2"
_cell_formula_units_Z 44
_cell_length_a 7.441810
_cell_length_b 22.264140
_cell_length_c 13.625093
_cell_angle_alpha 90.000000
_cell_angle_beta 89.158456
_cell_angle_gamma 90.000000
_cell_volume 2257.236845
_symmetry_space_group_name_H-M "C 2/M"
_symmetry_group_IT_number 12
_symmetry_cell_setting 'monoclinic'
loop_
_space_group_symop_operation_xyz
x,y,z
-x,y,-z
-x,-y,-z
x,-y,z
1/2+x,1/2+y,z
1/2-x,1/2+y,-z
1/2-x,1/2-y,-z
1/2+x,1/2-y,z
loop_
_atom_site_type_symbol
_atom_site_label
_atom_site_fract_x
_atom_site_fract_y
_atom_site_fract_z
Si Si1 0.706588 0.500000 0.384558
Si Si2 0.960497 0.330603 0.792698
Si Si3 0.496449 0.904732 0.615140
Si Si4 0.699843 0.500000 0.615122
Si Si5 0.161405 0.432620 0.074377
Si Si6 0.000000 0.135385 0.000000
Si Si7 0.293280 0.723293 0.892494
O O1 0.824358 0.441565 0.354214
O O2 0.679998 0.500000 0.499625
O O3 0.504736 0.500000 0.337120
O O4 0.877494 0.392856 0.830576
O O5 0.828794 0.274277 0.810820
O O6 0.997338 0.342255 0.676864
O O7 0.134996 0.318051 0.855525
O O8 0.500000 0.888749 0.500000
O O9 0.314643 0.941237 0.643473
O O10 0.199825 0.500000 0.111727
O O11 0.332495 0.407101 0.017377
O O12 0.000000 0.431600 0.000000
O O13 0.035863 0.178997 0.094092
O O14 0.250000 0.750000 0.000000
#
# Coordination Sequence:
#
# PCOD8115185 Si02
#       7
#     4   8   8   4   8   4   8
#     4   8  15  35  62  89 115 162 210 236 298 368
#     4  12  22  40  62  89 119 158 211 252 301 362
#     4   9  20  37  59  89 128 162 198 252 305 360
#     4   8  15  35  64  85 119 164 198 248 298 362
#     4  11  23  38  59  89 126 154 184 249 322 371
#     4  12  21  42  64  84 117 154 204 250 300 366
#     4  12  21  39  66  84 109 158 214 257 289 355
#
# _framework density 19.492857999999998
#
# number of rings (size 3 to 8) (size 9 to 14) (size 15 to 20)
#    0.000    1.455    5.455    1.364    2.545    0.000 
#    6.545    0.909    0.000    0.000    0.000    0.000 
#    0.000    0.000    0.000    0.000    0.000    0.000 
#
# Total GULP energy -272653.348222 kJ/mol
# GULP energy per Si atom -12393.334010 kJ/mol
# Density = 1.944849 g / cm^3
# Si number density = 19.492858 Si / 1000 Ang^3
#
#
#
# Elastic Constant Matrix: (Units=GPa)
#
#
# Indices 1 2 3 4 5 6 
#
# 1 133.4734 52.4033 36.6885 0.0000 2.6770 0.0000
# 2 52.4033 127.8470 47.9204 0.0000 -9.3893 0.0000
# 3 36.6885 47.9204 79.2626 0.0000 -5.6794 0.0000
# 4 0.0000 0.0000 0.0000 35.9705 0.0000 12.0901
# 5 2.6770 -9.3893 -5.6794 0.0000 20.2140 0.0000
# 6 0.0000 0.0000 0.0000 12.0901 0.0000 -33.8204
#
#
#
# Elastic Compliance Matrix: (Units=1/GPa)
#
#
# Indices 1 2 3 4 5 6 
#
# 1 0.009556 -0.003132 -0.002781 0.000000 -0.003502 0.000000
# 2 -0.003132 0.011327 -0.005094 0.000000 0.004245 0.000000
# 3 -0.002781 -0.005094 0.017186 0.000000 0.002831 0.000000
# 4 0.000000 0.000000 0.000000 0.024819 0.000000 0.008872
# 5 -0.003502 0.004245 0.002831 0.000000 0.052701 0.000000
# 6 0.000000 0.000000 0.000000 0.008872 0.000000 -0.026396
#
#
# Mechanical properties :
#
#
# Convention : Reuss Voigt Hill
#
# Bulk Modulus (GPa) = 62.28368 68.28972 65.28670
# Shear Modulus (GPa) = 42.89709 18.04420 30.47065
#
# Velocity S-wave (km/s) = 4.69621 3.04580 3.95798
# Velocity P-wave (km/s) = 7.83755 6.89046 7.37922
#
# Compressibility (1/GPa) = 0.01605557
#
# Stress axis : x y z
#
# Youngs Moduli (GPa) = 104.64238 88.28684 58.18682
#
# Poissons Ratio (x) = 0.27651 0.16181
# Poissons Ratio (y) = 0.32773 0.29641
# Poissons Ratio (z) = 0.29099 0.44974
#
# Static dielectric constant tensor:
#      x y z
#    x 4.003770 0.000000 0.134650 
#    y 0.000000 3.768020 0.000000 
#    z 0.134650 0.000000 3.151440 
# 
# 
# High freq. dielectric constant tensor:
#      x y z
#    x 1.772830 0.000000 0.006650 
#    y 0.000000 1.753120 0.000000 
#    z 0.006650 0.000000 1.729910 
# 
# From -- ./inp_files/196551.got.cif
#   From: 2010.06.25/outbox.cif.g09.slc.cpg/sg12_99_cif.got.tgz:196551.got - 2010.06.28 00:19:55.
