data_PCOD8115676
_publ_section_title
;
Structure prediction by ZEFSAII (Michael W. Deem and Ramdas Pophale) SiO2 
 PCOD8115676
Probable space group: C 2/M
;
_chemical_formula_sum "Si O2"
_cell_formula_units_Z 36
_cell_length_a 21.836171
_cell_length_b 13.695839
_cell_length_c 8.610602
_cell_angle_alpha 90.000000
_cell_angle_beta 142.859468
_cell_angle_gamma 90.000000
_cell_volume 1554.789708
_symmetry_space_group_name_H-M "C 2/M"
_symmetry_group_IT_number 12
_symmetry_cell_setting 'monoclinic'
loop_
_space_group_symop_operation_xyz
x,y,z
-x,y,-z
-x,-y,-z
x,-y,z
1/2+x,1/2+y,z
1/2-x,1/2+y,-z
1/2-x,1/2-y,-z
1/2+x,1/2-y,z
loop_
_atom_site_type_symbol
_atom_site_label
_atom_site_fract_x
_atom_site_fract_y
_atom_site_fract_z
Si Si1 0.984012 0.000000 0.785617
Si Si2 0.840133 0.683822 0.484538
Si Si3 0.345067 0.191314 0.841252
Si Si4 0.498383 0.305351 0.675572
Si Si5 0.250834 0.500000 0.220323
Si Si6 0.613289 0.000000 0.643640
O O1 0.040665 0.902926 0.842142
O O2 0.872382 0.000000 0.481248
O O3 0.000000 0.000000 0.000000
O O4 0.721657 0.709214 0.272019
O O5 0.887069 0.674276 0.752042
O O6 0.867730 0.592964 0.429482
O O7 0.883473 0.782219 0.492975
O O8 0.287530 0.094290 0.768697
O O9 0.439148 0.209083 0.146691
O O10 0.500000 0.323896 0.500000
O O11 0.204935 0.500000 0.953427
O O12 0.500000 0.000000 0.500000
#
# Coordination Sequence:
#
# PCOD8115676 Si02
#       6
#     4   8   8   8   4   4
#     4  12  27  47  71 101 149 188 245 294 355 437
#     4  11  24  45  70 104 142 190 241 292 365 438
#     4  11  25  44  75 101 143 192 241 299 360 438
#     4  12  26  45  72 106 143 187 240 305 365 429
#     4  12  25  46  74 109 140 191 240 301 361 428
#     4  12  27  45  74 111 150 190 242 311 372 437
#
# _framework density 23.154254999999999
#
# number of rings (size 3 to 8) (size 9 to 14) (size 15 to 20)
#    0.000    0.444    2.222    6.333    6.222    2.667 
#    0.000    3.333    0.000    0.000    0.000    0.000 
#    0.000    0.000    0.000    0.000    0.000    0.000 
#
# Total GULP energy -223052.144152 kJ/mol
# GULP energy per Si atom -12391.785786 kJ/mol
# Density = 2.310155 g / cm^3
# Si number density = 23.154255 Si / 1000 Ang^3
#
#
#
# Elastic Constant Matrix: (Units=GPa)
#
#
# Indices 1 2 3 4 5 6 
#
# 1 141.5130 57.1462 41.0818 0.0000 -29.6836 0.0000
# 2 57.1462 129.2481 21.4128 0.0000 -13.3829 0.0000
# 3 41.0818 21.4128 116.1458 0.0000 -19.5626 0.0000
# 4 0.0000 0.0000 0.0000 34.7078 0.0000 -18.3319
# 5 -29.6836 -13.3829 -19.5626 0.0000 41.1563 0.0000
# 6 0.0000 0.0000 0.0000 -18.3319 0.0000 91.9910
#
#
#
# Elastic Compliance Matrix: (Units=1/GPa)
#
#
# Indices 1 2 3 4 5 6 
#
# 1 0.010231 -0.003641 -0.002070 0.000000 0.005211 0.000000
# 2 -0.003641 0.009441 -0.000411 0.000000 0.000249 0.000000
# 3 -0.002070 -0.000411 0.009940 0.000000 0.003098 0.000000
# 4 0.000000 0.000000 0.000000 0.032201 0.000000 0.006417
# 5 0.005211 0.000249 0.003098 0.000000 0.029609 0.000000
# 6 0.000000 0.000000 0.000000 0.006417 0.000000 0.012149
#
#
# Mechanical properties :
#
#
# Convention : Reuss Voigt Hill
#
# Bulk Modulus (GPa) = 57.57738 69.57649 63.57693
# Shear Modulus (GPa) = 41.11724 51.38875 46.25300
#
# Velocity S-wave (km/s) = 4.21859 4.71617 4.47430
# Velocity P-wave (km/s) = 6.97492 7.73115 7.36275
#
# Compressibility (1/GPa) = 0.01736793
#
# Stress axis : x y z
#
# Youngs Moduli (GPa) = 97.74491 105.92458 100.60855
#
# Poissons Ratio (x) = 0.38567 0.20823
# Poissons Ratio (y) = 0.35589 0.04133
# Poissons Ratio (z) = 0.20231 0.04351
#
# Static dielectric constant tensor:
#      x y z
#    x 4.264510 0.000000 0.024570 
#    y 0.000000 4.316530 0.000000 
#    z 0.024570 0.000000 4.213290 
# 
# 
# High freq. dielectric constant tensor:
#      x y z
#    x 1.925860 0.000000 -0.005820 
#    y 0.000000 1.930770 0.000000 
#    z -0.005820 0.000000 1.918350 
# 
# From -- ./inp_files/86467.got.cif
#   From: 2010.06.25/outbox.cif.g09.slc.cpg/sg12_44_cif.got.tgz:86467.got - 2010.06.28 00:19:55.
