data_PCOD8115704
_publ_section_title
;
Structure prediction by ZEFSAII (Michael W. Deem and Ramdas Pophale) SiO2 
 PCOD8115704
Probable space group: C 2/M
;
_chemical_formula_sum "Si O2"
_cell_formula_units_Z 40
_cell_length_a 9.201582
_cell_length_b 24.395488
_cell_length_c 8.166295
_cell_angle_alpha 90.000000
_cell_angle_beta 85.288432
_cell_angle_gamma 90.000000
_cell_volume 1826.951558
_symmetry_space_group_name_H-M "C 2/M"
_symmetry_group_IT_number 12
_symmetry_cell_setting 'monoclinic'
loop_
_space_group_symop_operation_xyz
x,y,z
-x,y,-z
-x,-y,-z
x,-y,z
1/2+x,1/2+y,z
1/2-x,1/2+y,-z
1/2-x,1/2-y,-z
1/2+x,1/2-y,z
loop_
_atom_site_type_symbol
_atom_site_label
_atom_site_fract_x
_atom_site_fract_y
_atom_site_fract_z
Si Si1 0.282359 0.937003 0.388334
Si Si2 0.220283 0.152311 0.876908
Si Si3 0.090330 0.846823 0.229559
Si Si4 0.395293 0.061679 0.736868
Si Si5 0.870832 0.265776 0.615019
O O1 0.161714 0.894650 0.333205
O O2 0.431367 0.930408 0.273677
O O3 0.321829 0.921878 0.570815
O O4 0.225272 0.000000 0.379589
O O5 0.324051 0.099559 0.880876
O O6 0.307829 0.198714 0.769567
O O7 0.069370 0.133097 0.807899
O O8 0.191407 0.170028 0.065876
O O9 0.062536 0.790810 0.326997
O O10 0.354639 0.000000 0.785279
O O11 0.750000 0.250000 0.500000
O O12 0.000000 0.296728 0.500000
#
# Coordination Sequence:
#
# PCOD8115704 Si02
#       5
#     8   8   8   8   8
#     4   9  20  39  65  94 125 163 207 255 303 361
#     4  11  25  42  63  92 128 166 201 254 311 367
#     4  11  25  43  61  92 132 162 203 251 313 372
#     4   9  20  39  64  94 125 162 209 253 301 363
#     4  12  25  44  67  90 119 161 212 258 305 366
#
# _framework density 21.894393999999998
#
# number of rings (size 3 to 8) (size 9 to 14) (size 15 to 20)
#    0.000    1.600    2.000    3.000    5.600    2.400 
#    0.000    6.000    0.000    0.000    0.000    0.000 
#    0.000    0.000    0.000    0.000    0.000    0.000 
#
# Total GULP energy -247949.818588 kJ/mol
# GULP energy per Si atom -12397.490929 kJ/mol
# Density = 2.184456 g / cm^3
# Si number density = 21.894394 Si / 1000 Ang^3
#
#
#
# Elastic Constant Matrix: (Units=GPa)
#
#
# Indices 1 2 3 4 5 6 
#
# 1 58.4560 19.1631 6.1163 0.0000 -9.0401 0.0000
# 2 19.1631 90.7693 13.6669 0.0000 -8.5761 0.0000
# 3 6.1163 13.6669 58.4203 0.0000 -18.4438 0.0000
# 4 0.0000 0.0000 0.0000 25.3628 0.0000 -10.0308
# 5 -9.0401 -8.5761 -18.4438 0.0000 38.1108 0.0000
# 6 0.0000 0.0000 0.0000 -10.0308 0.0000 29.3349
#
#
#
# Elastic Compliance Matrix: (Units=1/GPa)
#
#
# Indices 1 2 3 4 5 6 
#
# 1 0.018865 -0.003641 0.000036 0.000000 0.003673 0.000000
# 2 -0.003641 0.012196 -0.002217 0.000000 0.000808 0.000000
# 3 0.000036 -0.002217 0.020629 0.000000 0.009493 0.000000
# 4 0.000000 0.000000 0.000000 0.045594 0.000000 0.015590
# 5 0.003673 0.000808 0.009493 0.000000 0.031887 0.000000
# 6 0.000000 0.000000 0.000000 0.015590 0.000000 0.039420
#
#
# Mechanical properties :
#
#
# Convention : Reuss Voigt Hill
#
# Bulk Modulus (GPa) = 24.97089 31.72645 28.34867
# Shear Modulus (GPa) = 25.82882 29.80833 27.81857
#
# Velocity S-wave (km/s) = 3.43840 3.69380 3.56839
# Velocity P-wave (km/s) = 5.21473 5.71964 5.47301
#
# Compressibility (1/GPa) = 0.04004664
#
# Stress axis : x y z
#
# Youngs Moduli (GPa) = 53.00893 81.99564 48.47483
#
# Poissons Ratio (x) = 0.29856 -0.00176
# Poissons Ratio (y) = 0.19301 0.10746
# Poissons Ratio (z) = -0.00193 0.18177
#
# Static dielectric constant tensor:
#      x y z
#    x 4.984240 0.000000 -0.557130 
#    y 0.000000 3.848950 0.000000 
#    z -0.557130 0.000000 4.043280 
# 
# 
# High freq. dielectric constant tensor:
#      x y z
#    x 1.865190 0.000000 -0.009740 
#    y 0.000000 1.861420 0.000000 
#    z -0.009740 0.000000 1.860510 
# 
# From -- ./inp_files/39197.got.cif
#   From: 2010.06.25/outbox.cif.g09.slc.cpg/sg12_20_cif.got.tgz:39197.got - 2010.06.28 00:19:55.
