data_PCOD8115015
_publ_section_title
;
Structure prediction by ZEFSAII (Michael W. Deem and Ramdas Pophale) SiO2 
 PCOD8115015
Probable space group: C 2/M
;
_chemical_formula_sum "Si O2"
_cell_formula_units_Z 40
_cell_length_a 9.606321
_cell_length_b 18.217424
_cell_length_c 10.136193
_cell_angle_alpha 90.000000
_cell_angle_beta 79.026138
_cell_angle_gamma 90.000000
_cell_volume 1741.421785
_symmetry_space_group_name_H-M "C 2/M"
_symmetry_group_IT_number 12
_symmetry_cell_setting 'monoclinic'
loop_
_space_group_symop_operation_xyz
x,y,z
-x,y,-z
-x,-y,-z
x,-y,z
1/2+x,1/2+y,z
1/2-x,1/2+y,-z
1/2-x,1/2-y,-z
1/2+x,1/2-y,z
loop_
_atom_site_type_symbol
_atom_site_label
_atom_site_fract_x
_atom_site_fract_y
_atom_site_fract_z
Si Si1 0.632097 0.807968 0.572033
Si Si2 0.351038 0.586596 0.464150
Si Si3 0.188056 0.918082 0.086737
Si Si4 0.134246 0.870757 0.831289
Si Si5 0.888268 0.293356 0.131748
O O1 0.500000 0.813893 0.500000
O O2 0.750000 0.750000 0.500000
O O3 0.718117 0.884716 0.573103
O O4 0.558746 0.789541 0.725898
O O5 0.500000 0.615229 0.500000
O O6 0.352224 0.500000 0.457872
O O7 0.314594 0.619846 0.326703
O O8 0.270811 0.856171 0.150969
O O9 0.026909 0.896212 0.138867
O O10 0.218577 0.000000 0.138184
O O11 0.220422 0.919450 0.922835
O O12 0.164329 0.789326 0.885450
O O13 0.000000 0.316027 0.000000
#
# Coordination Sequence:
#
# PCOD8115015 Si02
#       5
#     8   8   8   8   8
#     4  12  28  46  73 104 147 189 241 299 364 435
#     4  11  24  45  74 106 146 193 244 299 366 436
#     4  11  24  43  68 103 145 187 240 298 360 427
#     4  11  22  40  74 103 136 185 248 298 351 427
#     4  12  27  43  73 105 144 185 239 295 366 432
#
# _framework density 22.969736999999999
#
# number of rings (size 3 to 8) (size 9 to 14) (size 15 to 20)
#    0.000    0.600    4.000    4.800    5.600    3.200 
#    0.000    0.000    0.000    0.000    0.000    0.000 
#    0.000    0.000    0.000    0.000    0.000    0.000 
#
# Total GULP energy -247824.943078 kJ/mol
# GULP energy per Si atom -12391.247154 kJ/mol
# Density = 2.291746 g / cm^3
# Si number density = 22.969737 Si / 1000 Ang^3
#
#
#
# Elastic Constant Matrix: (Units=GPa)
#
#
# Indices 1 2 3 4 5 6 
#
# 1 96.7353 42.6417 20.9033 0.0000 6.2881 0.0000
# 2 42.6417 141.4252 8.6596 0.0000 5.6739 0.0000
# 3 20.9033 8.6596 132.7693 0.0000 -4.9224 0.0000
# 4 0.0000 0.0000 0.0000 34.7267 0.0000 -9.6514
# 5 6.2881 5.6739 -4.9224 0.0000 22.9507 0.0000
# 6 0.0000 0.0000 0.0000 -9.6514 0.0000 65.6623
#
#
#
# Elastic Compliance Matrix: (Units=1/GPa)
#
#
# Indices 1 2 3 4 5 6 
#
# 1 0.012485 -0.003533 -0.001844 0.000000 -0.002943 0.000000
# 2 -0.003533 0.008180 -0.000016 0.000000 -0.001058 0.000000
# 3 -0.001844 -0.000016 0.007905 0.000000 0.002205 0.000000
# 4 0.000000 0.000000 0.000000 0.030023 0.000000 0.004413
# 5 -0.002943 -0.001058 0.002205 0.000000 0.045112 0.000000
# 6 0.000000 0.000000 0.000000 0.004413 0.000000 0.015878
#
#
# Mechanical properties :
#
#
# Convention : Reuss Voigt Hill
#
# Bulk Modulus (GPa) = 56.23842 57.25990 56.74916
# Shear Modulus (GPa) = 36.68437 44.58294 40.63366
#
# Velocity S-wave (km/s) = 4.00068 4.41039 4.21052
# Velocity P-wave (km/s) = 6.77329 7.13568 6.95684
#
# Compressibility (1/GPa) = 0.01778144
#
# Stress axis : x y z
#
# Youngs Moduli (GPa) = 80.09722 122.25420 126.50166
#
# Poissons Ratio (x) = 0.43197 0.23330
# Poissons Ratio (y) = 0.28301 0.00208
# Poissons Ratio (z) = 0.14772 0.00201
#
# Static dielectric constant tensor:
#      x y z
#    x 4.027990 0.000000 -0.028520 
#    y 0.000000 4.321170 0.000000 
#    z -0.028520 0.000000 4.884850 
# 
# 
# High freq. dielectric constant tensor:
#      x y z
#    x 1.876280 0.000000 0.013350 
#    y 0.000000 1.917210 0.000000 
#    z 0.013350 0.000000 1.929840 
# 
# From -- ./inp_files/118915.got.cif
#   From: 2010.06.25/outbox.cif.g09.slc.cpg/sg12_60_cif.got.tgz:118915.got - 2010.06.28 00:19:55.
