data_PCOD8115838
_publ_section_title
;
Structure prediction by ZEFSAII (Michael W. Deem and Ramdas Pophale) SiO2 
 PCOD8115838
Probable space group: C 2/M
;
_chemical_formula_sum "Si O2"
_cell_formula_units_Z 60
_cell_length_a 8.158560
_cell_length_b 31.673845
_cell_length_c 12.424534
_cell_angle_alpha 90.000000
_cell_angle_beta 72.852303
_cell_angle_gamma 90.000000
_cell_volume 3067.940072
_symmetry_space_group_name_H-M "C 2/M"
_symmetry_group_IT_number 12
_symmetry_cell_setting 'monoclinic'
loop_
_space_group_symop_operation_xyz
x,y,z
-x,y,-z
-x,-y,-z
x,-y,z
1/2+x,1/2+y,z
1/2-x,1/2+y,-z
1/2-x,1/2-y,-z
1/2+x,1/2-y,z
loop_
_atom_site_type_symbol
_atom_site_label
_atom_site_fract_x
_atom_site_fract_y
_atom_site_fract_z
Si Si1 0.377577 0.873052 0.124229
Si Si2 0.801285 0.046610 0.909128
Si Si3 0.701437 0.291634 0.447536
Si Si4 0.205225 0.953987 0.848226
Si Si5 0.359378 0.871625 0.743977
Si Si6 0.886952 0.797210 0.126856
Si Si7 0.000000 0.344253 0.500000
Si Si8 0.795939 0.787097 0.804910
O O1 0.259081 0.914918 0.154547
O O2 0.468591 0.869720 0.220678
O O3 0.274524 0.829747 0.126407
O O4 0.500000 0.878587 0.000000
O O5 0.002947 0.048112 0.880746
O O6 0.744297 0.000000 0.875875
O O7 0.725830 0.053164 0.043673
O O8 0.500000 0.305131 0.500000
O O9 0.750000 0.250000 0.500000
O O10 0.844373 0.322144 0.467536
O O11 0.737086 0.285378 0.315041
O O12 0.277704 0.917567 0.760674
O O13 0.268467 0.000000 0.795164
O O14 0.235234 0.835763 0.816479
O O15 0.399843 0.869275 0.610624
O O16 0.781241 0.754534 0.122761
O O17 0.002615 0.787236 0.208559
O O18 0.000000 0.809335 0.000000
#
# Coordination Sequence:
#
# PCOD8115838 Si02
#       8
#     8   8   8   8   8   8   4   8
#     4  12  22  36  59  90 128 160 202 254 319 387
#     4   9  19  35  61  95 128 158 199 258 315 385
#     4  12  24  41  67  89 119 170 230 282 321 368
#     4   9  19  38  64  92 123 163 205 249 319 386
#     4  12  24  41  64  91 127 169 207 263 317 376
#     4  12  26  42  63  91 130 169 211 261 325 394
#     4  12  26  46  61  94 132 168 228 274 319 380
#     4  12  24  42  59  90 123 167 217 260 324 379
#
# _framework density 19.557096999999999
#
# number of rings (size 3 to 8) (size 9 to 14) (size 15 to 20)
#    0.000    0.800    3.333    6.400    1.867    0.800 
#    0.000    0.333    0.000    0.000    0.000    1.867 
#    0.000    0.000    0.000    0.000    0.000    0.000 
#
# Total GULP energy -371790.505971 kJ/mol
# GULP energy per Si atom -12393.016866 kJ/mol
# Density = 1.951258 g / cm^3
# Si number density = 19.557097 Si / 1000 Ang^3
#
#
#
# Elastic Constant Matrix: (Units=GPa)
#
#
# Indices 1 2 3 4 5 6 
#
# 1 98.3403 50.4048 25.0696 0.0000 10.8732 0.0000
# 2 50.4048 172.7865 44.9828 0.0000 -9.5965 0.0000
# 3 25.0696 44.9828 103.9662 0.0000 1.8345 0.0000
# 4 0.0000 0.0000 0.0000 8.9371 0.0000 1.6747
# 5 10.8732 -9.5965 1.8345 0.0000 31.5125 0.0000
# 6 0.0000 0.0000 0.0000 1.6747 0.0000 35.9776
#
#
#
# Elastic Compliance Matrix: (Units=1/GPa)
#
#
# Indices 1 2 3 4 5 6 
#
# 1 0.013071 -0.003750 -0.001431 0.000000 -0.005569 0.000000
# 2 -0.003750 0.007747 -0.002515 0.000000 0.003799 0.000000
# 3 -0.001431 -0.002515 0.011068 0.000000 -0.000916 0.000000
# 4 0.000000 0.000000 0.000000 0.112878 0.000000 -0.005254
# 5 -0.005569 0.003799 -0.000916 0.000000 0.034865 0.000000
# 6 0.000000 0.000000 0.000000 -0.005254 0.000000 0.028040
#
#
# Mechanical properties :
#
#
# Convention : Reuss Voigt Hill
#
# Bulk Modulus (GPa) = 60.62567 68.44528 64.53548
# Shear Modulus (GPa) = 21.87621 32.26115 27.06868
#
# Velocity S-wave (km/s) = 3.34815 4.06592 3.72437
# Velocity P-wave (km/s) = 6.78332 7.55751 7.18085
#
# Compressibility (1/GPa) = 0.01649466
#
# Stress axis : x y z
#
# Youngs Moduli (GPa) = 76.50325 129.08084 90.35177
#
# Poissons Ratio (x) = 0.48403 0.12931
# Poissons Ratio (y) = 0.28687 0.22721
# Poissons Ratio (z) = 0.10949 0.32461
#
# Static dielectric constant tensor:
#      x y z
#    x 3.986360 0.000000 0.225290 
#    y 0.000000 5.117310 0.000000 
#    z 0.225290 0.000000 3.805040 
# 
# 
# High freq. dielectric constant tensor:
#      x y z
#    x 1.780390 0.000000 0.005390 
#    y 0.000000 1.767740 0.000000 
#    z 0.005390 0.000000 1.740630 
# 
# From -- ./inp_files/125697.got.cif
#   From: 2010.06.25/outbox.cif.g09.slc.cpg/sg12_63_cif.got.tgz:125697.got - 2010.06.28 00:19:55.
