data_PCOD8115304
_publ_section_title
;
Structure prediction by ZEFSAII (Michael W. Deem and Ramdas Pophale) SiO2 
 PCOD8115304
Probable space group: C 2/M
;
_chemical_formula_sum "Si O2"
_cell_formula_units_Z 48
_cell_length_a 20.129499
_cell_length_b 8.363598
_cell_length_c 20.783221
_cell_angle_alpha 90.000000
_cell_angle_beta 137.969973
_cell_angle_gamma 90.000000
_cell_volume 2342.623578
_symmetry_space_group_name_H-M "C 2/M"
_symmetry_group_IT_number 12
_symmetry_cell_setting 'monoclinic'
loop_
_space_group_symop_operation_xyz
x,y,z
-x,y,-z
-x,-y,-z
x,-y,z
1/2+x,1/2+y,z
1/2-x,1/2+y,-z
1/2-x,1/2-y,-z
1/2+x,1/2-y,z
loop_
_atom_site_type_symbol
_atom_site_label
_atom_site_fract_x
_atom_site_fract_y
_atom_site_fract_z
Si Si1 0.978368 0.315192 0.802923
Si Si2 0.675335 0.314833 0.999358
Si Si3 0.476151 0.816372 0.308157
Si Si4 0.226524 0.814536 0.295360
Si Si5 0.267707 0.316987 0.189306
Si Si6 0.577868 0.312761 0.502139
O O1 0.003072 0.500000 0.833580
O O2 0.875273 0.270467 0.760595
O O3 0.062887 0.208883 0.896564
O O4 0.972741 0.277859 0.723070
O O5 0.698149 0.500000 0.026946
O O6 0.750000 0.250000 0.000000
O O7 0.691404 0.222478 0.077622
O O8 0.379686 0.706791 0.245848
O O9 0.556256 0.778848 0.420537
O O10 0.442391 0.000000 0.288016
O O11 0.245917 0.796668 0.233691
O O12 0.311830 0.728376 0.397127
O O13 0.222963 0.000000 0.311131
O O14 0.254254 0.500000 0.201227
O O15 0.500000 0.253770 0.500000
O O16 0.566560 0.500000 0.481888
#
# Coordination Sequence:
#
# PCOD8115304 Si02
#       6
#     8   8   8   8   8   8
#     4  11  25  45  67  96 135 172 215 270 330 386
#     4  12  24  41  67  99 132 171 220 267 321 384
#     4  11  23  40  67  98 129 169 218 269 323 385
#     4  12  26  44  67  96 133 172 217 270 330 389
#     4  12  24  41  67  97 131 171 218 268 324 385
#     4  11  23  40  66  97 130 171 219 266 322 387
#
# _framework density 20.489847000000001
#
# number of rings (size 3 to 8) (size 9 to 14) (size 15 to 20)
#    0.000    0.500    3.333    6.000    0.000    4.000 
#    0.000    3.333    0.000    0.000    0.000    0.000 
#    0.000    0.000    0.000    0.000    0.000    0.000 
#
# Total GULP energy -297824.833453 kJ/mol
# GULP energy per Si atom -12409.368061 kJ/mol
# Density = 2.044321 g / cm^3
# Si number density = 20.489847 Si / 1000 Ang^3
#
#
#
# Elastic Constant Matrix: (Units=GPa)
#
#
# Indices 1 2 3 4 5 6 
#
# 1 60.0955 17.8537 24.2953 0.0000 9.5894 0.0000
# 2 17.8537 76.1775 12.7256 0.0000 -3.4261 0.0000
# 3 24.2953 12.7256 125.3164 0.0000 1.7841 0.0000
# 4 0.0000 0.0000 0.0000 37.7102 0.0000 0.8878
# 5 9.5894 -3.4261 1.7841 0.0000 39.1636 0.0000
# 6 0.0000 0.0000 0.0000 0.8878 0.0000 32.7235
#
#
#
# Elastic Compliance Matrix: (Units=1/GPa)
#
#
# Indices 1 2 3 4 5 6 
#
# 1 0.020135 -0.004386 -0.003385 0.000000 -0.005160 0.000000
# 2 -0.004386 0.014369 -0.000642 0.000000 0.002360 0.000000
# 3 -0.003385 -0.000642 0.008696 0.000000 0.000376 0.000000
# 4 0.000000 0.000000 0.000000 0.026535 0.000000 -0.000720
# 5 -0.005160 0.002360 0.000376 0.000000 0.026987 0.000000
# 6 0.000000 0.000000 0.000000 -0.000720 0.000000 0.030579
#
#
# Mechanical properties :
#
#
# Convention : Reuss Voigt Hill
#
# Bulk Modulus (GPa) = 37.91670 41.25985 39.58827
# Shear Modulus (GPa) = 32.69764 35.70045 34.19904
#
# Velocity S-wave (km/s) = 3.99908 4.17867 4.08986
# Velocity P-wave (km/s) = 6.31417 6.59259 6.45488
#
# Compressibility (1/GPa) = 0.02637361
#
# Stress axis : x y z
#
# Youngs Moduli (GPa) = 49.66526 69.59645 114.99678
#
# Poissons Ratio (x) = 0.30522 0.38924
# Poissons Ratio (y) = 0.21781 0.07388
# Poissons Ratio (z) = 0.16811 0.04471
#
# Static dielectric constant tensor:
#      x y z
#    x 3.685530 0.000000 -0.179100 
#    y 0.000000 4.050750 0.000000 
#    z -0.179100 0.000000 4.033260 
# 
# 
# High freq. dielectric constant tensor:
#      x y z
#    x 1.797640 0.000000 -0.006530 
#    y 0.000000 1.815650 0.000000 
#    z -0.006530 0.000000 1.815000 
# 
# From -- ./inp_files/320324.got.cif
#   From: 2010.06.25/outbox.cif.g09.slc.cpg/sg12_161_cif.got.tgz:320324.got - 2010.06.28 00:19:55.
