data_PCOD8115118
_publ_section_title
;
Structure prediction by ZEFSAII (Michael W. Deem and Ramdas Pophale) SiO2 
 PCOD8115118
Probable space group: C 2/M
;
_chemical_formula_sum "Si O2"
_cell_formula_units_Z 44
_cell_length_a 11.328793
_cell_length_b 23.626049
_cell_length_c 11.337536
_cell_angle_alpha 90.000000
_cell_angle_beta 39.369180
_cell_angle_gamma 90.000000
_cell_volume 1924.855968
_symmetry_space_group_name_H-M "C 2/M"
_symmetry_group_IT_number 12
_symmetry_cell_setting 'monoclinic'
loop_
_space_group_symop_operation_xyz
x,y,z
-x,y,-z
-x,-y,-z
x,-y,z
1/2+x,1/2+y,z
1/2-x,1/2+y,-z
1/2-x,1/2-y,-z
1/2+x,1/2-y,z
loop_
_atom_site_type_symbol
_atom_site_label
_atom_site_fract_x
_atom_site_fract_y
_atom_site_fract_z
Si Si1 0.955602 0.000000 0.212501
Si Si2 0.181781 0.679887 0.279674
Si Si3 0.353800 0.307923 0.716335
Si Si4 0.995943 0.603087 0.260864
Si Si5 0.000000 0.381480 0.000000
Si Si6 0.384538 0.624174 0.329831
Si Si7 0.178586 0.500000 0.225687
O O1 0.958533 0.059148 0.282113
O O2 0.759376 0.000000 0.294602
O O3 0.143379 0.000000 0.994586
O O4 0.226637 0.744464 0.212776
O O5 0.146434 0.651204 0.179517
O O6 0.340404 0.645589 0.230198
O O7 0.000000 0.676501 0.500000
O O8 0.500000 0.314268 0.500000
O O9 0.458070 0.331335 0.751610
O O10 0.174676 0.344595 0.828122
O O11 0.040473 0.552012 0.313804
O O12 0.790660 0.627038 0.446164
O O13 0.030380 0.583240 0.097818
#
# Coordination Sequence:
#
# PCOD8115118 Si02
#       7
#     4   8   8   8   4   8   4
#     4  11  23  41  69 103 137 178 225 293 348 398
#     4   9  22  39  69 100 132 178 228 287 337 399
#     4  11  24  45  68  98 143 182 228 281 340 413
#     4  11  23  42  67  98 135 178 227 283 339 406
#     4  12  26  43  64 100 140 183 228 274 344 414
#     4  11  22  44  73 100 133 181 234 282 345 405
#     4  11  23  42  64 102 142 169 230 293 341 406
#
# _framework density 22.858851999999999
#
# number of rings (size 3 to 8) (size 9 to 14) (size 15 to 20)
#    0.000    1.273    3.636    1.636    2.545    4.000 
#    3.273    1.364    0.000    0.000    0.000    0.000 
#    0.000    0.000    0.000    0.000    0.000    0.000 
#
# Total GULP energy -272637.640862 kJ/mol
# GULP energy per Si atom -12392.620039 kJ/mol
# Density = 2.280682 g / cm^3
# Si number density = 22.858852 Si / 1000 Ang^3
#
#
#
# Elastic Constant Matrix: (Units=GPa)
#
#
# Indices 1 2 3 4 5 6 
#
# 1 83.4296 22.5982 14.4493 0.0000 7.7433 0.0000
# 2 22.5982 116.0657 6.4572 0.0000 -6.4579 0.0000
# 3 14.4493 6.4572 48.2926 0.0000 5.3707 0.0000
# 4 0.0000 0.0000 0.0000 20.7285 0.0000 7.2021
# 5 7.7433 -6.4579 5.3707 0.0000 34.2868 0.0000
# 6 0.0000 0.0000 0.0000 7.2021 0.0000 21.2160
#
#
#
# Elastic Compliance Matrix: (Units=1/GPa)
#
#
# Indices 1 2 3 4 5 6 
#
# 1 0.013561 -0.002621 -0.003370 0.000000 -0.003028 0.000000
# 2 -0.002621 0.009304 -0.000733 0.000000 0.002459 0.000000
# 3 -0.003370 -0.000733 0.022130 0.000000 -0.002843 0.000000
# 4 0.000000 0.000000 0.000000 0.054694 0.000000 -0.018567
# 5 -0.003028 0.002459 -0.002843 0.000000 0.030758 0.000000
# 6 0.000000 0.000000 0.000000 -0.018567 0.000000 0.053437
#
#
# Mechanical properties :
#
#
# Convention : Reuss Voigt Hill
#
# Bulk Modulus (GPa) = 31.70070 37.19969 34.45020
# Shear Modulus (GPa) = 24.05606 28.86515 26.46060
#
# Velocity S-wave (km/s) = 3.24755 3.55738 3.40599
# Velocity P-wave (km/s) = 5.28774 5.76041 5.52913
#
# Compressibility (1/GPa) = 0.03154505
#
# Stress axis : x y z
#
# Youngs Moduli (GPa) = 73.74118 107.48281 45.18815
#
# Poissons Ratio (x) = 0.28175 0.15229
# Poissons Ratio (y) = 0.19330 0.03313
# Poissons Ratio (z) = 0.24852 0.07881
#
# Static dielectric constant tensor:
#      x y z
#    x 4.283860 0.000000 -0.113480 
#    y 0.000000 4.227940 0.000000 
#    z -0.113480 0.000000 3.844120 
# 
# 
# High freq. dielectric constant tensor:
#      x y z
#    x 1.903280 0.000000 -0.009980 
#    y 0.000000 1.897360 0.000000 
#    z -0.009980 0.000000 1.899200 
# 
# From -- ./inp_files/135801.got.cif
#   From: 2010.06.25/outbox.cif.g09.slc.cpg/sg12_68_cif.got.tgz:135801.got - 2010.06.28 00:19:55.
