data_PCOD8115535
_publ_section_title
;
Structure prediction by ZEFSAII (Michael W. Deem and Ramdas Pophale) SiO2 
 PCOD8115535
Probable space group: C 2/M
;
_chemical_formula_sum "Si O2"
_cell_formula_units_Z 48
_cell_length_a 18.634431
_cell_length_b 8.823603
_cell_length_c 15.360917
_cell_angle_alpha 90.000000
_cell_angle_beta 89.999564
_cell_angle_gamma 90.000000
_cell_volume 2525.685310
_symmetry_space_group_name_H-M "C 2/M"
_symmetry_group_IT_number 12
_symmetry_cell_setting 'monoclinic'
loop_
_space_group_symop_operation_xyz
x,y,z
-x,y,-z
-x,-y,-z
x,-y,z
1/2+x,1/2+y,z
1/2-x,1/2+y,-z
1/2-x,1/2-y,-z
1/2+x,1/2-y,z
loop_
_atom_site_type_symbol
_atom_site_label
_atom_site_fract_x
_atom_site_fract_y
_atom_site_fract_z
Si Si1 0.049321 0.677407 0.080776
Si Si2 0.204993 0.178487 0.077495
Si Si3 0.295024 0.677255 0.424552
Si Si4 0.709380 0.675521 0.771084
Si Si5 0.458669 0.676183 0.228397
Si Si6 0.953153 0.820647 0.422552
O O1 0.066278 0.500000 0.080395
O O2 0.123620 0.765709 0.074649
O O3 0.006810 0.719393 0.167758
O O4 0.000000 0.725995 0.000000
O O5 0.241914 0.220318 0.168450
O O6 0.205149 0.000000 0.065556
O O7 0.250000 0.250000 0.000000
O O8 0.297172 0.500000 0.440692
O O9 0.250000 0.750000 0.500000
O O10 0.265590 0.711604 0.327646
O O11 0.374100 0.748384 0.431903
O O12 0.723162 0.500000 0.793840
O O13 0.625412 0.713668 0.784341
O O14 0.472990 0.500000 0.207538
O O15 0.483567 0.717030 0.326685
O O16 0.000000 0.747418 0.500000
O O17 0.948863 0.000000 0.433125
#
# Coordination Sequence:
#
# PCOD8115535 Si02
#       6
#     8   8   8   8   8   8
#     4  11  24  40  58  82 112 144 178 219 270 328
#     4  12  25  40  60  84 110 142 182 227 276 330
#     4   9  18  32  52  79 111 147 184 226 273 320
#     4   9  19  37  57  79 113 151 187 230 277 325
#     4   9  18  34  57  82 108 144 185 224 270 320
#     4   8  15  30  52  77 106 140 179 220 263 315
#
# _framework density 19.004743999999999
#
# number of rings (size 3 to 8) (size 9 to 14) (size 15 to 20)
#    0.000    2.333    0.000    5.000    0.000    6.667 
#    0.000    4.167    0.000    1.000    0.000    0.000 
#    0.000    0.000    0.000    0.000    0.000    0.000 
#
# Total GULP energy -297559.795837 kJ/mol
# GULP energy per Si atom -12398.324827 kJ/mol
# Density = 1.896149 g / cm^3
# Si number density = 19.004744 Si / 1000 Ang^3
#
#
#
# Elastic Constant Matrix: (Units=GPa)
#
#
# Indices 1 2 3 4 5 6 
#
# 1 108.3328 53.1225 79.2693 0.0000 1.4973 0.0000
# 2 53.1225 81.8707 55.4165 0.0000 3.3841 0.0000
# 3 79.2693 55.4165 154.7509 0.0000 0.3609 0.0000
# 4 0.0000 0.0000 0.0000 28.5903 0.0000 -10.4033
# 5 1.4973 3.3841 0.3609 0.0000 40.5738 0.0000
# 6 0.0000 0.0000 0.0000 -10.4033 0.0000 26.6085
#
#
#
# Elastic Compliance Matrix: (Units=1/GPa)
#
#
# Indices 1 2 3 4 5 6 
#
# 1 0.017282 -0.006892 -0.006385 0.000000 -0.000006 0.000000
# 2 -0.006892 0.018939 -0.003249 0.000000 -0.001296 0.000000
# 3 -0.006385 -0.003249 0.010895 0.000000 0.000410 0.000000
# 4 0.000000 0.000000 0.000000 0.040778 0.000000 0.015943
# 5 -0.000006 -0.001296 0.000410 0.000000 0.024751 0.000000
# 6 0.000000 0.000000 0.000000 0.015943 0.000000 0.043815
#
#
# Mechanical properties :
#
#
# Convention : Reuss Voigt Hill
#
# Bulk Modulus (GPa) = 71.09596 80.06342 75.57969
# Shear Modulus (GPa) = 25.74676 29.63094 27.68885
#
# Velocity S-wave (km/s) = 3.68469 3.95287 3.82113
# Velocity P-wave (km/s) = 7.45610 7.94060 7.70216
#
# Compressibility (1/GPa) = 0.01406550
#
# Stress axis : x y z
#
# Youngs Moduli (GPa) = 57.86323 52.80173 91.78660
#
# Poissons Ratio (x) = 0.36390 0.58602
# Poissons Ratio (y) = 0.39878 0.29819
# Poissons Ratio (z) = 0.36943 0.17154
#
# Static dielectric constant tensor:
#      x y z
#    x 3.315510 0.000000 0.198290 
#    y 0.000000 3.170090 0.000000 
#    z 0.198290 0.000000 3.671890 
# 
# 
# High freq. dielectric constant tensor:
#      x y z
#    x 1.738930 0.000000 0.001440 
#    y 0.000000 1.718610 0.000000 
#    z 0.001440 0.000000 1.756590 
# 
# From -- ./inp_files/221657.got.cif
#   From: 2010.06.25/outbox.cif.g09.slc.cpg/sg12_111_cif.got.tgz:221657.got - 2010.06.28 00:19:55.
