data_PCOD8115428
_publ_section_title
;
Structure prediction by ZEFSAII (Michael W. Deem and Ramdas Pophale) SiO2 
 PCOD8115428
Probable space group: C 2/M
;
_chemical_formula_sum "Si O2"
_cell_formula_units_Z 40
_cell_length_a 11.942656
_cell_length_b 21.668809
_cell_length_c 9.448846
_cell_angle_alpha 90.000000
_cell_angle_beta 51.701298
_cell_angle_gamma 90.000000
_cell_volume 1918.971051
_symmetry_space_group_name_H-M "C 2/M"
_symmetry_group_IT_number 12
_symmetry_cell_setting 'monoclinic'
loop_
_space_group_symop_operation_xyz
x,y,z
-x,y,-z
-x,-y,-z
x,-y,z
1/2+x,1/2+y,z
1/2-x,1/2+y,-z
1/2-x,1/2-y,-z
1/2+x,1/2-y,z
loop_
_atom_site_type_symbol
_atom_site_label
_atom_site_fract_x
_atom_site_fract_y
_atom_site_fract_z
Si Si1 0.598827 0.000000 0.132692
Si Si2 0.114797 0.838647 0.800122
Si Si3 0.598042 0.877491 0.294506
Si Si4 0.857498 0.875032 0.531658
Si Si5 0.285764 0.000000 0.270652
Si Si6 0.424413 0.196375 0.202041
O O1 0.649694 0.938942 0.174232
O O2 0.427419 0.000000 0.255150
O O3 0.674816 0.000000 0.923465
O O4 0.267422 0.839133 0.755882
O O5 0.115809 0.879257 0.657456
O O6 0.070610 0.769718 0.791214
O O7 0.000000 0.866339 0.000000
O O8 0.500000 0.899493 0.500000
O O9 0.509823 0.831504 0.265523
O O10 0.738865 0.824768 0.664816
O O11 0.000000 0.854332 0.500000
O O12 0.809517 0.941512 0.620845
O O13 0.500000 0.172019 0.000000
#
# Coordination Sequence:
#
# PCOD8115428 Si02
#       6
#     4   8   8   8   4   8
#     4  11  23  42  76 101 133 178 237 287 334 409
#     4  11  28  44  66 106 141 183 225 283 351 401
#     4  12  24  44  72 101 140 178 236 285 341 403
#     4  12  26  44  70  99 142 176 229 285 344 409
#     4  11  23  46  68 104 129 180 237 278 345 410
#     4  11  25  44  71 100 135 186 232 275 338 416
#
# _framework density 20.844504000000001
#
# number of rings (size 3 to 8) (size 9 to 14) (size 15 to 20)
#    0.000    0.600    4.000    2.400    8.400    2.400 
#    0.000    1.000    0.000    0.000    0.000    0.000 
#    0.000    0.000    0.000    0.000    0.000    0.000 
#
# Total GULP energy -248158.044495 kJ/mol
# GULP energy per Si atom -12407.902225 kJ/mol
# Density = 2.079706 g / cm^3
# Si number density = 20.844504 Si / 1000 Ang^3
#
#
#
# Elastic Constant Matrix: (Units=GPa)
#
#
# Indices 1 2 3 4 5 6 
#
# 1 153.0886 30.4513 54.4311 0.0000 4.1818 0.0000
# 2 30.4513 77.6018 25.8134 0.0000 9.3699 0.0000
# 3 54.4311 25.8134 150.9166 0.0000 -0.1621 0.0000
# 4 0.0000 0.0000 0.0000 28.4459 0.0000 -0.6714
# 5 4.1818 9.3699 -0.1621 0.0000 34.2555 0.0000
# 6 0.0000 0.0000 0.0000 -0.6714 0.0000 18.0162
#
#
#
# Elastic Compliance Matrix: (Units=1/GPa)
#
#
# Indices 1 2 3 4 5 6 
#
# 1 0.007857 -0.002223 -0.002454 0.000000 -0.000363 0.000000
# 2 -0.002223 0.014792 -0.001732 0.000000 -0.003783 0.000000
# 3 -0.002454 -0.001732 0.007808 0.000000 0.000810 0.000000
# 4 0.000000 0.000000 0.000000 0.035185 0.000000 0.001311
# 5 -0.000363 -0.003783 0.000810 0.000000 0.030275 0.000000
# 6 0.000000 0.000000 0.000000 0.001311 0.000000 0.055555
#
#
# Mechanical properties :
#
#
# Convention : Reuss Voigt Hill
#
# Bulk Modulus (GPa) = 56.69448 66.99985 61.84717
# Shear Modulus (GPa) = 29.38246 34.20427 31.79336
#
# Velocity S-wave (km/s) = 3.75854 4.05523 3.90970
# Velocity P-wave (km/s) = 6.78921 7.35792 7.07928
#
# Compressibility (1/GPa) = 0.01763840
#
# Stress axis : x y z
#
# Youngs Moduli (GPa) = 127.27959 67.60607 128.06761
#
# Poissons Ratio (x) = 0.15029 0.31426
# Poissons Ratio (y) = 0.28294 0.22185
# Poissons Ratio (z) = 0.31232 0.11712
#
# Static dielectric constant tensor:
#      x y z
#    x 3.825790 0.000000 -0.010290 
#    y 0.000000 3.672220 0.000000 
#    z -0.010290 0.000000 4.272150 
# 
# 
# High freq. dielectric constant tensor:
#      x y z
#    x 1.820940 0.000000 0.002620 
#    y 0.000000 1.814880 0.000000 
#    z 0.002620 0.000000 1.839310 
# 
# From -- ./inp_files/50471.got.cif
#   From: 2010.06.25/outbox.cif.g09.slc.cpg/sg12_26_cif.got.tgz:50471.got - 2010.06.28 00:19:55.
