data_PCOD8115540
_publ_section_title
;
Structure prediction by ZEFSAII (Michael W. Deem and Ramdas Pophale) SiO2 
 PCOD8115540
Probable space group: C 2/M
;
_chemical_formula_sum "Si O2"
_cell_formula_units_Z 56
_cell_length_a 18.478459
_cell_length_b 8.911064
_cell_length_c 29.010065
_cell_angle_alpha 90.000000
_cell_angle_beta 142.829999
_cell_angle_gamma 90.000000
_cell_volume 2886.102734
_symmetry_space_group_name_H-M "C 2/M"
_symmetry_group_IT_number 12
_symmetry_cell_setting 'monoclinic'
loop_
_space_group_symop_operation_xyz
x,y,z
-x,y,-z
-x,-y,-z
x,-y,z
1/2+x,1/2+y,z
1/2-x,1/2+y,-z
1/2-x,1/2-y,-z
1/2+x,1/2-y,z
loop_
_atom_site_type_symbol
_atom_site_label
_atom_site_fract_x
_atom_site_fract_y
_atom_site_fract_z
Si Si1 0.576163 0.828649 0.127858
Si Si2 0.211198 0.677006 0.432754
Si Si3 0.860213 0.325545 0.428650
Si Si4 0.742778 0.828196 0.127372
Si Si5 0.827594 0.824887 0.000395
Si Si6 0.037533 0.826550 0.697058
Si Si7 0.297037 0.673070 0.303863
O O1 0.639136 0.794808 0.111403
O O2 0.465192 0.719192 0.076806
O O3 0.667828 0.798230 0.215849
O O4 0.530992 0.000000 0.106191
O O5 0.220328 0.500000 0.442257
O O6 0.250000 0.750000 0.500000
O O7 0.299674 0.729489 0.437762
O O8 0.076043 0.722271 0.351901
O O9 0.834485 0.500000 0.424524
O O10 0.805960 0.280583 0.352005
O O11 0.000000 0.288243 0.500000
O O12 0.871439 0.795143 0.215097
O O13 0.735226 0.000000 0.106847
O O14 0.724275 0.719749 0.075343
O O15 0.815678 0.000000 0.000134
O O16 0.750000 0.750000 0.000000
O O17 0.099113 0.785170 0.679757
O O18 0.997841 0.000000 0.676582
O O19 0.310036 0.500000 0.325591
#
# Coordination Sequence:
#
# PCOD8115540 Si02
#       7
#     8   8   8   8   8   8   8
#     4   9  19  38  62  86 114 148 187 230 281 342
#     4  12  25  40  60  85 116 153 191 234 283 335
#     4  11  24  40  59  85 116 151 191 235 283 334
#     4   9  19  38  63  87 114 150 187 229 283 340
#     4  12  25  38  55  81 114 152 193 238 286 335
#     4   9  19  38  63  89 117 149 187 230 280 339
#     4   9  19  37  62  89 115 148 187 229 281 338
#
# _framework density 19.40333
#
# number of rings (size 3 to 8) (size 9 to 14) (size 15 to 20)
#    0.000    1.857    0.000    6.000    0.000    8.571 
#    0.000    2.857    0.000    0.000    0.000    0.000 
#    0.000    0.000    0.000    0.000    0.000    0.000 
#
# Total GULP energy -347324.909485 kJ/mol
# GULP energy per Si atom -12404.461053 kJ/mol
# Density = 1.935917 g / cm^3
# Si number density = 19.403330 Si / 1000 Ang^3
#
#
#
# Elastic Constant Matrix: (Units=GPa)
#
#
# Indices 1 2 3 4 5 6 
#
# 1 117.6820 77.8539 70.6463 0.0000 2.4711 0.0000
# 2 77.8539 142.5480 68.1426 0.0000 4.4053 0.0000
# 3 70.6463 68.1426 114.2968 0.0000 -0.9672 0.0000
# 4 0.0000 0.0000 0.0000 30.5866 0.0000 -5.1360
# 5 2.4711 4.4053 -0.9672 0.0000 34.0677 0.0000
# 6 0.0000 0.0000 0.0000 -5.1360 0.0000 33.7704
#
#
#
# Elastic Compliance Matrix: (Units=1/GPa)
#
#
# Indices 1 2 3 4 5 6 
#
# 1 0.016277 -0.005676 -0.006682 0.000000 -0.000636 0.000000
# 2 -0.005676 0.011861 -0.003574 0.000000 -0.001224 0.000000
# 3 -0.006682 -0.003574 0.015022 0.000000 0.001373 0.000000
# 4 0.000000 0.000000 0.000000 0.033551 0.000000 0.005103
# 5 -0.000636 -0.001224 0.001373 0.000000 0.029597 0.000000
# 6 0.000000 0.000000 0.000000 0.005103 0.000000 0.030388
#
#
# Mechanical properties :
#
#
# Convention : Reuss Voigt Hill
#
# Bulk Modulus (GPa) = 88.52421 89.75693 89.14057
# Shear Modulus (GPa) = 29.01490 30.21053 29.61272
#
# Velocity S-wave (km/s) = 3.87118 3.95014 3.91086
# Velocity P-wave (km/s) = 8.10578 8.19535 8.15068
#
# Compressibility (1/GPa) = 0.01129635
#
# Stress axis : x y z
#
# Youngs Moduli (GPa) = 61.43488 84.30786 66.57032
#
# Poissons Ratio (x) = 0.47853 0.44485
# Poissons Ratio (y) = 0.34870 0.23790
# Poissons Ratio (z) = 0.41053 0.30129
#
# Static dielectric constant tensor:
#      x y z
#    x 3.632820 0.000000 0.023830 
#    y 0.000000 3.484620 0.000000 
#    z 0.023830 0.000000 3.623780 
# 
# 
# High freq. dielectric constant tensor:
#      x y z
#    x 1.759210 0.000000 0.001140 
#    y 0.000000 1.752870 0.000000 
#    z 0.001140 0.000000 1.769920 
# 
# From -- ./inp_files/363101.got.cif
#   From: 2010.06.25/outbox.cif.g09.slc.cpg/sg12_182_cif.got.tgz:363101.got - 2010.06.28 00:19:55.
