data_PCOD8115288
_publ_section_title
;
Structure prediction by ZEFSAII (Michael W. Deem and Ramdas Pophale) SiO2 
 PCOD8115288
Probable space group: C 2/M
;
_chemical_formula_sum "Si O2"
_cell_formula_units_Z 44
_cell_length_a 8.366802
_cell_length_b 28.221645
_cell_length_c 11.642984
_cell_angle_alpha 90.000000
_cell_angle_beta 130.315026
_cell_angle_gamma 90.000000
_cell_volume 2096.260319
_symmetry_space_group_name_H-M "C 2/M"
_symmetry_group_IT_number 12
_symmetry_cell_setting 'monoclinic'
loop_
_space_group_symop_operation_xyz
x,y,z
-x,y,-z
-x,-y,-z
x,-y,z
1/2+x,1/2+y,z
1/2-x,1/2+y,-z
1/2-x,1/2-y,-z
1/2+x,1/2-y,z
loop_
_atom_site_type_symbol
_atom_site_label
_atom_site_fract_x
_atom_site_fract_y
_atom_site_fract_z
Si Si1 0.000000 0.638486 0.500000
Si Si2 0.410035 0.693521 0.744406
Si Si3 0.565170 0.118856 0.280232
Si Si4 0.127386 0.112630 0.960214
Si Si5 0.692393 0.711168 0.667786
Si Si6 0.219684 0.552980 0.167120
O O1 0.795941 0.671209 0.407613
O O2 0.990860 0.606528 0.612640
O O3 0.493249 0.660914 0.885691
O O4 0.604838 0.694550 0.748308
O O5 0.355640 0.746113 0.762570
O O6 0.688822 0.168129 0.338045
O O7 0.702083 0.077247 0.284738
O O8 0.360569 0.125264 0.107270
O O9 0.121262 0.082614 0.839321
O O10 0.000000 0.083652 0.000000
O O11 0.500000 0.728777 0.500000
O O12 0.307999 0.500000 0.226754
O O13 0.000000 0.550622 0.000000
#
# Coordination Sequence:
#
# PCOD8115288 Si02
#       6
#     4   8   8   8   8   8
#     4  12  22  40  63  88 130 172 215 256 306 372
#     4  12  24  39  60  90 126 175 218 254 305 373
#     4  11  23  40  64  94 125 167 211 266 313 369
#     4  11  23  40  63  97 129 156 212 266 318 369
#     4  12  23  39  61  88 130 173 221 251 306 379
#     4   9  20  42  68  93 124 163 205 258 324 385
#
# _framework density 20.98976
#
# number of rings (size 3 to 8) (size 9 to 14) (size 15 to 20)
#    0.000    0.909    6.364    1.636    0.000    1.091 
#    0.000    0.455    0.000    4.909    0.000    0.000 
#    0.000    0.000    0.000    0.000    0.000    0.000 
#
# Total GULP energy -272767.739287 kJ/mol
# GULP energy per Si atom -12398.533604 kJ/mol
# Density = 2.094199 g / cm^3
# Si number density = 20.989760 Si / 1000 Ang^3
#
#
#
# Elastic Constant Matrix: (Units=GPa)
#
#
# Indices 1 2 3 4 5 6 
#
# 1 137.5591 55.8421 34.0853 0.0000 -30.9945 0.0000
# 2 55.8421 130.4064 43.5307 0.0000 -18.6754 0.0000
# 3 34.0853 43.5307 72.3718 0.0000 -12.3795 0.0000
# 4 0.0000 0.0000 0.0000 17.2009 0.0000 -3.6858
# 5 -30.9945 -18.6754 -12.3795 0.0000 41.8028 0.0000
# 6 0.0000 0.0000 0.0000 -3.6858 0.0000 14.9960
#
#
#
# Elastic Compliance Matrix: (Units=1/GPa)
#
#
# Indices 1 2 3 4 5 6 
#
# 1 0.010239 -0.002859 -0.002130 0.000000 0.005683 0.000000
# 2 -0.002859 0.010695 -0.004879 0.000000 0.001213 0.000000
# 3 -0.002130 -0.004879 0.018025 0.000000 0.001579 0.000000
# 4 0.000000 0.000000 0.000000 0.061369 0.000000 0.015083
# 5 0.005683 0.001213 0.001579 0.000000 0.029145 0.000000
# 6 0.000000 0.000000 0.000000 0.015083 0.000000 0.070391
#
#
# Mechanical properties :
#
#
# Convention : Reuss Voigt Hill
#
# Bulk Modulus (GPa) = 52.02208 67.47261 59.74735
# Shear Modulus (GPa) = 22.12305 28.59189 25.35747
#
# Velocity S-wave (km/s) = 3.25005 3.69478 3.47953
# Velocity P-wave (km/s) = 6.23875 7.10050 6.68353
#
# Compressibility (1/GPa) = 0.01922261
#
# Stress axis : x y z
#
# Youngs Moduli (GPa) = 97.66828 93.50082 55.47732
#
# Poissons Ratio (x) = 0.26736 0.11817
# Poissons Ratio (y) = 0.27928 0.27066
# Poissons Ratio (z) = 0.20805 0.45617
#
# Static dielectric constant tensor:
#      x y z
#    x 4.247530 0.000000 -0.147610 
#    y 0.000000 3.677720 0.000000 
#    z -0.147610 0.000000 3.596340 
# 
# 
# High freq. dielectric constant tensor:
#      x y z
#    x 1.846110 0.000000 -0.009600 
#    y 0.000000 1.793190 0.000000 
#    z -0.009600 0.000000 1.807930 
# 
# From -- ./inp_files/41731.got.cif
#   From: 2010.06.25/outbox.cif.g09.slc.cpg/sg12_21_cif.got.tgz:41731.got - 2010.06.28 00:19:55.
