data_PCOD8115133
_publ_section_title
;
Structure prediction by ZEFSAII (Michael W. Deem and Ramdas Pophale) SiO2 
 PCOD8115133
Probable space group: C 2/M
;
_chemical_formula_sum "Si O2"
_cell_formula_units_Z 48
_cell_length_a 14.479730
_cell_length_b 20.570960
_cell_length_c 11.125964
_cell_angle_alpha 90.000000
_cell_angle_beta 139.955804
_cell_angle_gamma 90.000000
_cell_volume 2132.156582
_symmetry_space_group_name_H-M "C 2/M"
_symmetry_group_IT_number 12
_symmetry_cell_setting 'monoclinic'
loop_
_space_group_symop_operation_xyz
x,y,z
-x,y,-z
-x,-y,-z
x,-y,z
1/2+x,1/2+y,z
1/2-x,1/2+y,-z
1/2-x,1/2-y,-z
1/2+x,1/2-y,z
loop_
_atom_site_type_symbol
_atom_site_label
_atom_site_fract_x
_atom_site_fract_y
_atom_site_fract_z
Si Si1 0.009847 0.611250 0.641478
Si Si2 0.283845 0.067538 0.578395
Si Si3 0.274921 0.779587 0.394632
Si Si4 0.562175 0.391319 0.184092
Si Si5 0.331347 0.651339 0.331675
Si Si6 0.214713 0.079635 0.952856
O O1 0.945219 0.570576 0.688580
O O2 0.923408 0.679419 0.547190
O O3 0.000000 0.577795 0.500000
O O4 0.177246 0.612894 0.843866
O O5 0.189749 0.065040 0.362933
O O6 0.239413 0.126841 0.615647
O O7 0.265050 0.000000 0.631903
O O8 0.250000 0.750000 0.500000
O O9 0.131332 0.820841 0.222825
O O10 0.295297 0.728025 0.305242
O O11 0.500000 0.422379 0.000000
O O12 0.439455 0.392292 0.162995
O O13 0.500000 0.637270 0.500000
O O14 0.255923 0.612593 0.147922
O O15 0.219960 0.000000 0.954109
#
# Coordination Sequence:
#
# PCOD8115133 Si02
#       6
#     8   8   8   8   8   8
#     4  11  25  45  70 103 142 192 238 296 359 420
#     4  11  23  43  69  95 138 187 233 288 356 425
#     4  11  22  47  71  95 143 185 244 289 357 426
#     4  11  24  41  67 103 135 185 239 295 351 416
#     4  12  24  45  72 105 141 191 232 305 362 424
#     4  12  26  44  72 113 146 185 245 297 369 436
#
# _framework density 22.512418
#
# number of rings (size 3 to 8) (size 9 to 14) (size 15 to 20)
#    0.000    0.667    5.000    4.000    0.000    6.667 
#    0.000    5.000    0.000    0.000    0.000    0.000 
#    0.000    0.000    0.000    0.000    0.000    0.000 
#
# Total GULP energy -297329.051782 kJ/mol
# GULP energy per Si atom -12388.710491 kJ/mol
# Density = 2.246118 g / cm^3
# Si number density = 22.512418 Si / 1000 Ang^3
#
#
#
# Elastic Constant Matrix: (Units=GPa)
#
#
# Indices 1 2 3 4 5 6 
#
# 1 103.5609 36.1316 16.9804 0.0000 0.2072 0.0000
# 2 36.1316 137.4768 33.3619 0.0000 0.7547 0.0000
# 3 16.9804 33.3619 92.4818 0.0000 -3.9214 0.0000
# 4 0.0000 0.0000 0.0000 10.1105 0.0000 -6.7937
# 5 0.2072 0.7547 -3.9214 0.0000 35.6700 0.0000
# 6 0.0000 0.0000 0.0000 -6.7937 0.0000 20.4381
#
#
#
# Elastic Compliance Matrix: (Units=1/GPa)
#
#
# Indices 1 2 3 4 5 6 
#
# 1 0.010723 -0.002563 -0.001049 0.000000 -0.000123 0.000000
# 2 -0.002563 0.008593 -0.002649 0.000000 -0.000458 0.000000
# 3 -0.001049 -0.002649 0.012020 0.000000 0.001384 0.000000
# 4 0.000000 0.000000 0.000000 0.127352 0.000000 0.042332
# 5 -0.000123 -0.000458 0.001384 0.000000 0.028197 0.000000
# 6 0.000000 0.000000 0.000000 0.042332 0.000000 0.062999
#
#
# Mechanical properties :
#
#
# Convention : Reuss Voigt Hill
#
# Bulk Modulus (GPa) = 53.15372 56.27415 54.71394
# Shear Modulus (GPa) = 18.60976 29.71343 24.16159
#
# Velocity S-wave (km/s) = 2.87826 3.63694 3.27961
# Velocity P-wave (km/s) = 5.89135 6.53358 6.22076
#
# Compressibility (1/GPa) = 0.01881336
#
# Stress axis : x y z
#
# Youngs Moduli (GPa) = 93.26092 116.37699 83.19630
#
# Poissons Ratio (x) = 0.29825 0.08731
# Poissons Ratio (y) = 0.23900 0.22036
# Poissons Ratio (z) = 0.09788 0.30824
#
# Static dielectric constant tensor:
#      x y z
#    x 4.280680 0.000000 0.092480 
#    y 0.000000 4.158390 0.000000 
#    z 0.092480 0.000000 3.947060 
# 
# 
# High freq. dielectric constant tensor:
#      x y z
#    x 1.907410 0.000000 0.004880 
#    y 0.000000 1.884320 0.000000 
#    z 0.004880 0.000000 1.878430 
# 
# From -- ./inp_files/148033.got.cif
#   From: 2010.06.25/outbox.cif.g09.slc.cpg/sg12_75_cif.got.tgz:148033.got - 2010.06.28 00:19:55.
