data_PCOD8115165
_publ_section_title
;
Structure prediction by ZEFSAII (Michael W. Deem and Ramdas Pophale) SiO2 
 PCOD8115165
Probable space group: C 2/M
;
_chemical_formula_sum "Si O2"
_cell_formula_units_Z 48
_cell_length_a 8.986227
_cell_length_b 21.983367
_cell_length_c 12.322086
_cell_angle_alpha 90.000000
_cell_angle_beta 95.066467
_cell_angle_gamma 90.000000
_cell_volume 2424.687004
_symmetry_space_group_name_H-M "C 2/M"
_symmetry_group_IT_number 12
_symmetry_cell_setting 'monoclinic'
loop_
_space_group_symop_operation_xyz
x,y,z
-x,y,-z
-x,-y,-z
x,-y,z
1/2+x,1/2+y,z
1/2-x,1/2+y,-z
1/2-x,1/2-y,-z
1/2+x,1/2-y,z
loop_
_atom_site_type_symbol
_atom_site_label
_atom_site_fract_x
_atom_site_fract_y
_atom_site_fract_z
Si Si1 0.832908 0.067442 0.509230
Si Si2 0.327900 0.429240 0.862775
Si Si3 0.694144 0.882582 0.308163
Si Si4 0.145619 0.360545 0.673911
Si Si5 0.672711 0.430296 0.890003
Si Si6 0.140319 0.230979 0.582962
O O1 0.760475 0.063015 0.385235
O O2 0.734496 0.113288 0.575530
O O3 0.000000 0.092232 0.500000
O O4 0.835025 0.000000 0.562651
O O5 0.281043 0.500000 0.840533
O O6 0.234958 0.381702 0.785740
O O7 0.501222 0.420824 0.843614
O O8 0.300746 0.409181 0.985034
O O9 0.521187 0.884579 0.327273
O O10 0.717888 0.893165 0.181808
O O11 0.789180 0.822827 0.342922
O O12 0.122846 0.287880 0.664218
O O13 0.717642 0.500000 0.883397
O O14 0.250000 0.250000 0.500000
O O15 0.000000 0.211493 0.500000
#
# Coordination Sequence:
#
# PCOD8115165 Si02
#       6
#     8   8   8   8   8   8
#     4  11  23  37  56  84 118 156 196 240 297 363
#     4   9  20  40  64  89 121 160 201 244 293 358
#     4  12  24  37  60  89 119 155 198 249 302 357
#     4  12  24  38  59  90 119 152 200 249 303 354
#     4   9  20  40  64  90 120 160 202 240 296 361
#     4  12  24  43  61  85 120 164 204 244 300 362
#
# _framework density 19.796368999999999
#
# number of rings (size 3 to 8) (size 9 to 14) (size 15 to 20)
#    0.000    1.167    3.333    4.000    2.333    6.667 
#    0.000    2.500    0.000    0.000    0.000    0.000 
#    0.000    0.000    0.000    0.000    0.000    0.000 
#
# Total GULP energy -297390.465686 kJ/mol
# GULP energy per Si atom -12391.269404 kJ/mol
# Density = 1.975131 g / cm^3
# Si number density = 19.796369 Si / 1000 Ang^3
#
#
#
# Elastic Constant Matrix: (Units=GPa)
#
#
# Indices 1 2 3 4 5 6 
#
# 1 115.9377 28.9058 43.8826 0.0000 -12.8664 0.0000
# 2 28.9058 83.9322 33.9219 0.0000 1.8757 0.0000
# 3 43.8826 33.9219 106.1460 0.0000 -4.4058 0.0000
# 4 0.0000 0.0000 0.0000 15.2845 0.0000 -4.0401
# 5 -12.8664 1.8757 -4.4058 0.0000 39.4570 0.0000
# 6 0.0000 0.0000 0.0000 -4.0401 0.0000 22.0669
#
#
#
# Elastic Compliance Matrix: (Units=1/GPa)
#
#
# Indices 1 2 3 4 5 6 
#
# 1 0.010958 -0.002378 -0.003634 0.000000 0.003281 0.000000
# 2 -0.002378 0.014249 -0.003648 0.000000 -0.001860 0.000000
# 3 -0.003634 -0.003648 0.012103 0.000000 0.000340 0.000000
# 4 0.000000 0.000000 0.000000 0.068753 0.000000 0.012587
# 5 0.003281 -0.001860 0.000340 0.000000 0.026540 0.000000
# 6 0.000000 0.000000 0.000000 0.012587 0.000000 0.047621
#
#
# Mechanical properties :
#
#
# Convention : Reuss Voigt Hill
#
# Bulk Modulus (GPa) = 55.58580 57.71518 56.65049
# Shear Modulus (GPa) = 24.32600 28.64872 26.48736
#
# Velocity S-wave (km/s) = 3.50924 3.80830 3.66182
# Velocity P-wave (km/s) = 6.67529 6.96816 6.82329
#
# Compressibility (1/GPa) = 0.01799020
#
# Stress axis : x y z
#
# Youngs Moduli (GPa) = 91.25909 70.17873 82.62330
#
# Poissons Ratio (x) = 0.16692 0.30024
# Poissons Ratio (y) = 0.21706 0.30138
# Poissons Ratio (z) = 0.33163 0.25599
#
# Static dielectric constant tensor:
#      x y z
#    x 3.658600 0.000000 -0.029730 
#    y 0.000000 4.587930 0.000000 
#    z -0.029730 0.000000 3.650180 
# 
# 
# High freq. dielectric constant tensor:
#      x y z
#    x 1.782820 0.000000 -0.003140 
#    y 0.000000 1.765830 0.000000 
#    z -0.003140 0.000000 1.769770 
# 
# From -- ./inp_files/121940.got.cif
#   From: 2010.06.25/outbox.cif.g09.slc.cpg/sg12_61_cif.got.tgz:121940.got - 2010.06.28 00:19:55.
