data_PCOD8115287
_publ_section_title
;
Structure prediction by ZEFSAII (Michael W. Deem and Ramdas Pophale) SiO2 
 PCOD8115287
Probable space group: C 2/M
;
_chemical_formula_sum "Si O2"
_cell_formula_units_Z 64
_cell_length_a 28.517981
_cell_length_b 8.567808
_cell_length_c 23.927277
_cell_angle_alpha 90.000000
_cell_angle_beta 147.014531
_cell_angle_gamma 90.000000
_cell_volume 3182.884581
_symmetry_space_group_name_H-M "C 2/M"
_symmetry_group_IT_number 12
_symmetry_cell_setting 'monoclinic'
loop_
_space_group_symop_operation_xyz
x,y,z
-x,y,-z
-x,-y,-z
x,-y,z
1/2+x,1/2+y,z
1/2-x,1/2+y,-z
1/2-x,1/2-y,-z
1/2+x,1/2-y,z
loop_
_atom_site_type_symbol
_atom_site_label
_atom_site_fract_x
_atom_site_fract_y
_atom_site_fract_z
Si Si1 0.099650 0.683338 0.491002
Si Si2 0.664720 0.683130 0.887966
Si Si3 0.672437 0.681277 0.675936
Si Si4 0.098055 0.681169 0.712200
Si Si5 0.500722 0.685789 0.212427
Si Si6 0.000972 0.184488 0.088165
Si Si7 0.640185 0.684660 0.139626
Si Si8 0.833577 0.185540 0.553590
O O1 0.111705 0.500000 0.513633
O O2 0.126372 0.775828 0.572545
O O3 0.160704 0.738652 0.501827
O O4 0.001415 0.727877 0.378671
O O5 0.667814 0.500000 0.897276
O O6 0.657149 0.727033 0.815354
O O7 0.582743 0.752738 0.839238
O O8 0.750000 0.750000 0.000000
O O9 0.659412 0.500000 0.675436
O O10 0.627355 0.779049 0.679366
O O11 0.772734 0.719533 0.772874
O O12 0.112691 0.500000 0.737597
O O13 0.497744 0.500000 0.207273
O O14 0.502062 0.757328 0.151221
O O15 0.585218 0.743155 0.329100
O O16 0.084910 0.240330 0.137996
O O17 0.004973 0.000000 0.095055
O O18 0.912894 0.232220 0.968924
O O19 0.659435 0.500000 0.160562
O O20 0.750000 0.250000 0.500000
O O21 0.829818 0.000000 0.544374
#
# Coordination Sequence:
#
# PCOD8115287 Si02
#       8
#     8   8   8   8   8   8   8   8
#     4  11  24  44  67  90 119 159 209 262 312 369
#     4  11  23  40  63  94 131 170 211 258 313 375
#     4  12  26  40  61  92 126 159 198 251 314 381
#     4  11  24  44  67  90 119 159 209 262 312 369
#     4   9  19  36  60  89 125 166 207 251 309 370
#     4   8  16  33  58  88 119 159 205 248 295 354
#     4   9  18  35  61  89 120 158 205 252 295 356
#     4  11  23  40  63  94 131 170 211 258 313 375
#
# _framework density 20.107545999999999
#
# number of rings (size 3 to 8) (size 9 to 14) (size 15 to 20)
#    0.000    1.750    1.250    3.750    3.500    3.000 
#    0.000    1.250    0.000    3.000    0.000    0.000 
#    0.000    0.000    0.000    0.000    0.000    0.000 
#
# Total GULP energy -396914.233631 kJ/mol
# GULP energy per Si atom -12403.569801 kJ/mol
# Density = 2.006178 g / cm^3
# Si number density = 20.107546 Si / 1000 Ang^3
#
#
#
# Elastic Constant Matrix: (Units=GPa)
#
#
# Indices 1 2 3 4 5 6 
#
# 1 125.7744 15.1661 64.1307 0.0000 -7.4765 0.0000
# 2 15.1661 43.1440 31.1522 0.0000 9.9882 0.0000
# 3 64.1307 31.1522 117.8747 0.0000 4.7438 0.0000
# 4 0.0000 0.0000 0.0000 26.1898 0.0000 0.7799
# 5 -7.4765 9.9882 4.7438 0.0000 41.1561 0.0000
# 6 0.0000 0.0000 0.0000 0.7799 0.0000 27.3583
#
#
#
# Elastic Compliance Matrix: (Units=1/GPa)
#
#
# Indices 1 2 3 4 5 6 
#
# 1 0.011311 -0.000124 -0.006234 0.000000 0.002803 0.000000
# 2 -0.000124 0.030260 -0.007669 0.000000 -0.006482 0.000000
# 3 -0.006234 -0.007669 0.013937 0.000000 -0.000878 0.000000
# 4 0.000000 0.000000 0.000000 0.038215 0.000000 -0.001089
# 5 0.002803 -0.006482 -0.000878 0.000000 0.026481 0.000000
# 6 0.000000 0.000000 0.000000 -0.001089 0.000000 0.036583
#
#
# Mechanical properties :
#
#
# Convention : Reuss Voigt Hill
#
# Bulk Modulus (GPa) = 36.42359 56.41013 46.41686
# Shear Modulus (GPa) = 25.77422 30.69713 28.23567
#
# Velocity S-wave (km/s) = 3.58413 3.91147 3.75137
# Velocity P-wave (km/s) = 5.93984 6.96524 6.47288
#
# Compressibility (1/GPa) = 0.02745473
#
# Stress axis : x y z
#
# Youngs Moduli (GPa) = 88.41038 33.04715 71.75009
#
# Poissons Ratio (x) = 0.00409 0.44728
# Poissons Ratio (y) = 0.01095 0.55024
# Poissons Ratio (z) = 0.55114 0.25343
#
# Static dielectric constant tensor:
#      x y z
#    x 4.185190 0.000000 -0.046360 
#    y 0.000000 3.407460 0.000000 
#    z -0.046360 0.000000 3.784650 
# 
# 
# High freq. dielectric constant tensor:
#      x y z
#    x 1.799600 0.000000 -0.002820 
#    y 0.000000 1.764250 0.000000 
#    z -0.002820 0.000000 1.796520 
# 
# From -- ./inp_files/353427.got.cif
#   From: 2010.06.25/outbox.cif.g09.slc.cpg/sg12_177_cif.got.tgz:353427.got - 2010.06.28 00:19:55.
