data_PCOD8115539
_publ_section_title
;
Structure prediction by ZEFSAII (Michael W. Deem and Ramdas Pophale) SiO2 
 PCOD8115539
Probable space group: C 2/M
;
_chemical_formula_sum "Si O2"
_cell_formula_units_Z 44
_cell_length_a 11.582315
_cell_length_b 29.964987
_cell_length_c 8.118568
_cell_angle_alpha 90.000000
_cell_angle_beta 45.201175
_cell_angle_gamma 90.000000
_cell_volume 1999.371232
_symmetry_space_group_name_H-M "C 2/M"
_symmetry_group_IT_number 12
_symmetry_cell_setting 'monoclinic'
loop_
_space_group_symop_operation_xyz
x,y,z
-x,y,-z
-x,-y,-z
x,-y,z
1/2+x,1/2+y,z
1/2-x,1/2+y,-z
1/2-x,1/2-y,-z
1/2+x,1/2-y,z
loop_
_atom_site_type_symbol
_atom_site_label
_atom_site_fract_x
_atom_site_fract_y
_atom_site_fract_z
Si Si1 0.742540 0.823413 0.181158
Si Si2 0.252710 0.403510 0.651970
Si Si3 0.598784 0.000000 0.145786
Si Si4 0.587108 0.903769 0.171245
Si Si5 0.425414 0.322879 0.335907
Si Si6 0.249855 0.500000 0.667952
Si Si7 0.500000 0.249180 0.500000
O O1 0.642299 0.868754 0.253303
O O2 0.804459 0.821473 0.304741
O O3 0.624229 0.781411 0.270543
O O4 0.887556 0.821922 0.905334
O O5 0.391719 0.367384 0.475525
O O6 0.330510 0.452841 0.531265
O O7 0.098618 0.393796 0.690029
O O8 0.198075 0.400807 0.896475
O O9 0.606648 0.046840 0.237632
O O10 0.433907 0.000000 0.208603
O O11 0.748255 0.000000 0.867701
O O12 0.395535 0.279809 0.480216
#
# Coordination Sequence:
#
# PCOD8115539 Si02
#       7
#     8   8   4   8   8   4   4
#     4  11  24  40  59  85 114 143 182 235 287 334
#     4   9  17  33  59  88 118 153 190 226 269 326
#     4   7  12  26  52  85 116 149 190 226 258 315
#     4   9  17  33  59  88 118 153 190 226 269 326
#     4  11  24  40  59  85 114 143 182 235 287 334
#     4   7  12  26  52  85 116 149 190 226 258 315
#     4  12  24  44  64  78 104 148 192 228 280 350
#
# _framework density 22.006916
#
# number of rings (size 3 to 8) (size 9 to 14) (size 15 to 20)
#    0.000    2.364    0.000    5.455    0.000    0.000 
#    0.000    5.455    0.000    9.818    0.000    0.000 
#    0.000    0.000    0.000    0.000    0.000    0.000 
#
# Total GULP energy -272629.162174 kJ/mol
# GULP energy per Si atom -12392.234644 kJ/mol
# Density = 2.195683 g / cm^3
# Si number density = 22.006916 Si / 1000 Ang^3
#
#
#
# Elastic Constant Matrix: (Units=GPa)
#
#
# Indices 1 2 3 4 5 6 
#
# 1 85.9434 63.4773 21.4422 0.0000 5.5413 0.0000
# 2 63.4773 233.8928 63.9711 0.0000 -5.9222 0.0000
# 3 21.4422 63.9711 86.5594 0.0000 -9.2050 0.0000
# 4 0.0000 0.0000 0.0000 16.2406 0.0000 -3.5963
# 5 5.5413 -5.9222 -9.2050 0.0000 23.7430 0.0000
# 6 0.0000 0.0000 0.0000 -3.5963 0.0000 21.2755
#
#
#
# Elastic Compliance Matrix: (Units=1/GPa)
#
#
# Indices 1 2 3 4 5 6 
#
# 1 0.015165 -0.003847 -0.001452 0.000000 -0.005062 0.000000
# 2 -0.003847 0.006335 -0.003615 0.000000 0.001077 0.000000
# 3 -0.001452 -0.003615 0.015149 0.000000 0.005310 0.000000
# 4 0.000000 0.000000 0.000000 0.063969 0.000000 0.010813
# 5 -0.005062 0.001077 0.005310 0.000000 0.045626 0.000000
# 6 0.000000 0.000000 0.000000 0.010813 0.000000 0.048830
#
#
# Mechanical properties :
#
#
# Convention : Reuss Voigt Hill
#
# Bulk Modulus (GPa) = 53.12863 78.24186 65.68525
# Shear Modulus (GPa) = 22.81273 29.41882 26.11578
#
# Velocity S-wave (km/s) = 3.22315 3.66019 3.44860
# Velocity P-wave (km/s) = 6.16812 7.31390 6.76531
#
# Compressibility (1/GPa) = 0.01882224
#
# Stress axis : x y z
#
# Youngs Moduli (GPa) = 65.93927 157.84372 66.01274
#
# Poissons Ratio (x) = 0.60720 0.09585
# Poissons Ratio (y) = 0.25366 0.23862
# Poissons Ratio (z) = 0.09575 0.57056
#
# Static dielectric constant tensor:
#      x y z
#    x 3.628840 0.000000 -0.033110 
#    y 0.000000 4.398360 0.000000 
#    z -0.033110 0.000000 3.655760 
# 
# 
# High freq. dielectric constant tensor:
#      x y z
#    x 1.844740 0.000000 -0.001020 
#    y 0.000000 1.887280 0.000000 
#    z -0.001020 0.000000 1.844190 
# 
# From -- ./inp_files/53047.got.cif
#   From: 2010.06.25/outbox.cif.g09.slc.cpg/sg12_27_cif.got.tgz:53047.got - 2010.06.28 00:19:55.
