data_PCOD8115706
_publ_section_title
;
Structure prediction by ZEFSAII (Michael W. Deem and Ramdas Pophale) SiO2 
 PCOD8115706
Probable space group: C 2/M
;
_chemical_formula_sum "Si O2"
_cell_formula_units_Z 48
_cell_length_a 9.741509
_cell_length_b 21.984439
_cell_length_c 10.688478
_cell_angle_alpha 90.000000
_cell_angle_beta 82.380333
_cell_angle_gamma 90.000000
_cell_volume 2268.849440
_symmetry_space_group_name_H-M "C 2/M"
_symmetry_group_IT_number 12
_symmetry_cell_setting 'monoclinic'
loop_
_space_group_symop_operation_xyz
x,y,z
-x,y,-z
-x,-y,-z
x,-y,z
1/2+x,1/2+y,z
1/2-x,1/2+y,-z
1/2-x,1/2-y,-z
1/2+x,1/2-y,z
loop_
_atom_site_type_symbol
_atom_site_label
_atom_site_fract_x
_atom_site_fract_y
_atom_site_fract_z
Si Si1 0.793160 0.859476 0.728981
Si Si2 0.636245 0.758877 0.410148
Si Si3 0.977979 0.927951 0.145875
Si Si4 0.057936 0.429537 0.626155
Si Si5 0.154710 0.694675 0.978166
Si Si6 0.190040 0.370521 0.220455
O O1 0.884558 0.805713 0.657018
O O2 0.699931 0.893465 0.636691
O O3 0.893996 0.906127 0.785874
O O4 0.683687 0.830643 0.837637
O O5 0.500000 0.779486 0.500000
O O6 0.750000 0.750000 0.500000
O O7 0.678310 0.809443 0.303863
O O8 0.838764 0.901301 0.224528
O O9 0.970404 0.000000 0.153108
O O10 0.000000 0.905682 0.000000
O O11 0.097161 0.500000 0.623171
O O12 0.000000 0.407822 0.500000
O O13 0.934365 0.417142 0.738050
O O14 0.177010 0.641653 0.075122
O O15 0.250000 0.750000 0.000000
O O16 0.000000 0.720416 0.000000
#
# Coordination Sequence:
#
# PCOD8115706 Si02
#       6
#     8   8   8   8   8   8
#     4  12  24  45  69 100 140 175 229 282 348 413
#     4  12  26  42  66  98 131 174 221 279 340 399
#     4  11  25  42  66 102 140 182 223 276 343 408
#     4  11  25  46  70  96 133 184 236 285 332 398
#     4  12  26  41  67 104 140 181 221 279 353 418
#     4  12  23  44  69  98 139 175 230 275 346 409
#
# _framework density 21.156098
#
# number of rings (size 3 to 8) (size 9 to 14) (size 15 to 20)
#    0.000    0.333    5.000    4.500    2.333    0.000 
#    0.000    0.833    0.000    5.000    0.000    0.000 
#    0.000    0.000    0.000    0.000    0.000    0.000 
#
# Total GULP energy -297727.479184 kJ/mol
# GULP energy per Si atom -12405.311633 kJ/mol
# Density = 2.110795 g / cm^3
# Si number density = 21.156098 Si / 1000 Ang^3
#
#
#
# Elastic Constant Matrix: (Units=GPa)
#
#
# Indices 1 2 3 4 5 6 
#
# 1 136.6257 43.0284 20.1424 0.0000 1.3498 0.0000
# 2 43.0284 104.9351 38.4066 0.0000 1.5455 0.0000
# 3 20.1424 38.4066 87.7165 0.0000 5.6634 0.0000
# 4 0.0000 0.0000 0.0000 35.4815 0.0000 2.4417
# 5 1.3498 1.5455 5.6634 0.0000 42.5581 0.0000
# 6 0.0000 0.0000 0.0000 2.4417 0.0000 40.7241
#
#
#
# Elastic Compliance Matrix: (Units=1/GPa)
#
#
# Indices 1 2 3 4 5 6 
#
# 1 0.008423 -0.003271 -0.000497 0.000000 -0.000082 0.000000
# 2 -0.003271 0.012621 -0.004793 0.000000 0.000283 0.000000
# 3 -0.000497 -0.004793 0.013719 0.000000 -0.001636 0.000000
# 4 0.000000 0.000000 0.000000 0.028300 0.000000 -0.001697
# 5 -0.000082 0.000283 -0.001636 0.000000 0.023707 0.000000
# 6 0.000000 0.000000 0.000000 -0.001697 0.000000 0.024657
#
#
# Mechanical properties :
#
#
# Convention : Reuss Voigt Hill
#
# Bulk Modulus (GPa) = 56.68535 59.15912 57.92223
# Shear Modulus (GPa) = 37.19378 38.93272 38.06325
#
# Velocity S-wave (km/s) = 4.19748 4.29448 4.24625
# Velocity P-wave (km/s) = 7.09533 7.25355 7.17488
#
# Compressibility (1/GPa) = 0.01764124
#
# Stress axis : x y z
#
# Youngs Moduli (GPa) = 118.71593 79.23202 72.89266
#
# Poissons Ratio (x) = 0.25917 0.03621
# Poissons Ratio (y) = 0.38832 0.34940
# Poissons Ratio (z) = 0.05898 0.37979
#
# Static dielectric constant tensor:
#      x y z
#    x 3.623390 0.000000 0.183300 
#    y 0.000000 3.952550 0.000000 
#    z 0.183300 0.000000 3.762240 
# 
# 
# High freq. dielectric constant tensor:
#      x y z
#    x 1.840710 0.000000 0.001660 
#    y 0.000000 1.835370 0.000000 
#    z 0.001660 0.000000 1.840210 
# 
# From -- ./inp_files/121872.got.cif
#   From: 2010.06.25/outbox.cif.g09.slc.cpg/sg12_61_cif.got.tgz:121872.got - 2010.06.28 00:19:55.
