data_PCOD8115764
_publ_section_title
;
Structure prediction by ZEFSAII (Michael W. Deem and Ramdas Pophale) SiO2 
 PCOD8115764
Probable space group: C 2/M
;
_chemical_formula_sum "Si O2"
_cell_formula_units_Z 40
_cell_length_a 7.640168
_cell_length_b 27.519993
_cell_length_c 10.066376
_cell_angle_alpha 90.000000
_cell_angle_beta 50.973555
_cell_angle_gamma 90.000000
_cell_volume 1644.237590
_symmetry_space_group_name_H-M "C 2/M"
_symmetry_group_IT_number 12
_symmetry_cell_setting 'monoclinic'
loop_
_space_group_symop_operation_xyz
x,y,z
-x,y,-z
-x,-y,-z
x,-y,z
1/2+x,1/2+y,z
1/2-x,1/2+y,-z
1/2-x,1/2-y,-z
1/2+x,1/2-y,z
loop_
_atom_site_type_symbol
_atom_site_label
_atom_site_fract_x
_atom_site_fract_y
_atom_site_fract_z
Si Si1 0.074505 0.316060 0.675747
Si Si2 0.389119 0.719136 0.192477
Si Si3 0.109800 0.596715 0.813804
Si Si4 0.428192 0.370336 0.315497
Si Si5 0.149402 0.552635 0.300908
O O1 0.159551 0.264049 0.687095
O O2 0.019526 0.348679 0.830359
O O3 0.249372 0.348208 0.506173
O O4 0.849310 0.307677 0.701220
O O5 0.541595 0.677417 0.189986
O O6 0.500000 0.735526 0.000000
O O7 0.382372 0.598666 0.697786
O O8 0.024263 0.562925 0.735589
O O9 0.000000 0.576263 0.000000
O O10 0.328466 0.404680 0.245583
O O11 0.267793 0.500000 0.217109
O O12 0.000000 0.547560 0.500000
#
# Coordination Sequence:
#
# PCOD8115764 Si02
#       5
#     8   8   8   8   8
#     4  12  24  44  66 109 146 197 249 295 356 447
#     4  12  24  42  70 106 154 197 240 300 371 435
#     4  12  26  46  74 107 149 191 247 311 371 433
#     4  12  25  46  74 108 145 198 247 308 362 440
#     4  11  25  49  77 109 148 192 247 307 372 444
#
# _framework density 24.327385
#
# number of rings (size 3 to 8) (size 9 to 14) (size 15 to 20)
#    0.000    0.200    4.000    5.400    0.000    2.800 
#    0.000    3.000    0.000    0.000    0.000    0.000 
#    0.000    0.000    0.000    0.000    0.000    0.000 
#
# Total GULP energy -247803.832775 kJ/mol
# GULP energy per Si atom -12390.191639 kJ/mol
# Density = 2.427202 g / cm^3
# Si number density = 24.327385 Si / 1000 Ang^3
#
#
#
# Elastic Constant Matrix: (Units=GPa)
#
#
# Indices 1 2 3 4 5 6 
#
# 1 143.9712 59.8205 48.3904 0.0000 17.0674 0.0000
# 2 59.8205 164.5947 34.0873 0.0000 14.8739 0.0000
# 3 48.3904 34.0873 117.5566 0.0000 12.7368 0.0000
# 4 0.0000 0.0000 0.0000 53.0791 0.0000 40.8315
# 5 17.0674 14.8739 12.7368 0.0000 38.0556 0.0000
# 6 0.0000 0.0000 0.0000 40.8315 0.0000 73.7498
#
#
#
# Elastic Compliance Matrix: (Units=1/GPa)
#
#
# Indices 1 2 3 4 5 6 
#
# 1 0.009218 -0.002570 -0.002812 0.000000 -0.002189 0.000000
# 2 -0.002570 0.007326 -0.000914 0.000000 -0.001405 0.000000
# 3 -0.002812 -0.000914 0.010121 0.000000 -0.001769 0.000000
# 4 0.000000 0.000000 0.000000 0.032816 0.000000 -0.018169
# 5 -0.002189 -0.001405 -0.001769 0.000000 0.028400 0.000000
# 6 0.000000 0.000000 0.000000 -0.018169 0.000000 0.023618
#
#
# Mechanical properties :
#
#
# Convention : Reuss Voigt Hill
#
# Bulk Modulus (GPa) = 71.06228 78.96875 75.01552
# Shear Modulus (GPa) = 38.82490 51.89851 45.36171
#
# Velocity S-wave (km/s) = 3.99925 4.62382 4.32283
# Velocity P-wave (km/s) = 7.11334 7.81265 7.47118
#
# Compressibility (1/GPa) = 0.01407216
#
# Stress axis : x y z
#
# Youngs Moduli (GPa) = 108.47844 136.50240 98.80590
#
# Poissons Ratio (x) = 0.35083 0.27787
# Poissons Ratio (y) = 0.27881 0.09032
# Poissons Ratio (z) = 0.30507 0.12477
#
# Static dielectric constant tensor:
#      x y z
#    x 4.778380 0.000000 0.309670 
#    y 0.000000 5.002100 0.000000 
#    z 0.309670 0.000000 4.097200 
# 
# 
# High freq. dielectric constant tensor:
#      x y z
#    x 1.981140 0.000000 0.023050 
#    y 0.000000 1.970170 0.000000 
#    z 0.023050 0.000000 1.952070 
# 
# From -- ./inp_files/123415.got.cif
#   From: 2010.06.25/outbox.cif.g09.slc.cpg/sg12_62_cif.got.tgz:123415.got - 2010.06.28 00:19:55.
