data_PCOD8115236
_publ_section_title
;
Structure prediction by ZEFSAII (Michael W. Deem and Ramdas Pophale) SiO2 
 PCOD8115236
Probable space group: C 2/M
;
_chemical_formula_sum "Si O2"
_cell_formula_units_Z 40
_cell_length_a 22.684890
_cell_length_b 8.535484
_cell_length_c 9.830375
_cell_angle_alpha 90.000000
_cell_angle_beta 90.478514
_cell_angle_gamma 90.000000
_cell_volume 1903.354877
_symmetry_space_group_name_H-M "C 2/M"
_symmetry_group_IT_number 12
_symmetry_cell_setting 'monoclinic'
loop_
_space_group_symop_operation_xyz
x,y,z
-x,y,-z
-x,-y,-z
x,-y,z
1/2+x,1/2+y,z
1/2-x,1/2+y,-z
1/2-x,1/2-y,-z
1/2+x,1/2-y,z
loop_
_atom_site_type_symbol
_atom_site_label
_atom_site_fract_x
_atom_site_fract_y
_atom_site_fract_z
Si Si1 0.252286 0.183658 0.848448
Si Si2 0.566718 0.818793 0.977906
Si Si3 0.933030 0.683157 0.522791
Si Si4 0.128845 0.818386 0.226366
Si Si5 0.125731 0.818542 0.731036
O O1 0.303622 0.263765 0.760784
O O2 0.192972 0.224009 0.766068
O O3 0.264324 0.000000 0.858164
O O4 0.250000 0.250000 0.000000
O O5 0.608642 0.712570 0.071680
O O6 0.576955 0.000000 0.013893
O O7 0.500000 0.767773 0.000000
O O8 0.582348 0.785517 0.822161
O O9 0.927413 0.500000 0.493460
O O10 0.913849 0.720514 0.675952
O O11 0.888235 0.776324 0.424626
O O12 0.000000 0.740379 0.500000
O O13 0.123977 0.000000 0.262770
O O14 0.113061 0.000000 0.758573
#
# Coordination Sequence:
#
# PCOD8115236 Si02
#       5
#     8   8   8   8   8
#     4  11  23  41  66  96 131 168 213 266 323 382
#     4  11  23  39  62  92 126 167 214 264 320 382
#     4  11  25  45  67  93 129 172 215 263 323 387
#     4  12  25  41  65  95 128 170 215 265 322 379
#     4  11  24  41  65  96 127 166 213 264 322 381
#
# _framework density 21.015523000000002
#
# number of rings (size 3 to 8) (size 9 to 14) (size 15 to 20)
#    0.000    0.800    2.000    5.400    0.000   11.200 
#    0.000    0.000    0.000    0.000    0.000    0.000 
#    0.000    0.000    0.000    0.000    0.000    0.000 
#
# Total GULP energy -248188.371163 kJ/mol
# GULP energy per Si atom -12409.418558 kJ/mol
# Density = 2.096769 g / cm^3
# Si number density = 21.015523 Si / 1000 Ang^3
#
#
#
# Elastic Constant Matrix: (Units=GPa)
#
#
# Indices 1 2 3 4 5 6 
#
# 1 115.0527 53.0629 19.5513 0.0000 -5.4974 0.0000
# 2 53.0629 80.7645 14.2393 0.0000 5.2193 0.0000
# 3 19.5513 14.2393 72.8715 0.0000 0.2604 0.0000
# 4 0.0000 0.0000 0.0000 39.6304 0.0000 -2.6477
# 5 -5.4974 5.2193 0.2604 0.0000 44.7495 0.0000
# 6 0.0000 0.0000 0.0000 -2.6477 0.0000 28.7481
#
#
#
# Elastic Compliance Matrix: (Units=1/GPa)
#
#
# Indices 1 2 3 4 5 6 
#
# 1 0.012994 -0.008377 -0.001859 0.000000 0.002584 0.000000
# 2 -0.008377 0.018322 -0.001321 0.000000 -0.003158 0.000000
# 3 -0.001859 -0.001321 0.014480 0.000000 -0.000158 0.000000
# 4 0.000000 0.000000 0.000000 0.025389 0.000000 0.002338
# 5 0.002584 -0.003158 -0.000158 0.000000 0.023033 0.000000
# 6 0.000000 0.000000 0.000000 0.002338 0.000000 0.035000
#
#
# Mechanical properties :
#
#
# Convention : Reuss Voigt Hill
#
# Bulk Modulus (GPa) = 44.08577 49.15508 46.62042
# Shear Modulus (GPa) = 31.27054 34.74797 33.00925
#
# Velocity S-wave (km/s) = 3.86161 4.07067 3.96752
# Velocity P-wave (km/s) = 6.39578 6.74792 6.57421
#
# Compressibility (1/GPa) = 0.02268306
#
# Stress axis : x y z
#
# Youngs Moduli (GPa) = 76.95624 54.57821 69.05947
#
# Poissons Ratio (x) = 0.45719 0.12837
# Poissons Ratio (y) = 0.64464 0.09126
# Poissons Ratio (z) = 0.14304 0.07212
#
# Static dielectric constant tensor:
#      x y z
#    x 3.986690 0.000000 0.023900 
#    y 0.000000 3.741270 0.000000 
#    z 0.023900 0.000000 3.615960 
# 
# 
# High freq. dielectric constant tensor:
#      x y z
#    x 1.837470 0.000000 -0.001240 
#    y 0.000000 1.831900 0.000000 
#    z -0.001240 0.000000 1.821870 
# 
# From -- ./inp_files/92811.got.cif
#   From: 2010.06.25/outbox.cif.g09.slc.cpg/sg12_47_cif.got.tgz:92811.got - 2010.06.28 00:19:55.
