data_PCOD8115247
_publ_section_title
;
Structure prediction by ZEFSAII (Michael W. Deem and Ramdas Pophale) SiO2 
 PCOD8115247
Probable space group: C 2/M
;
_chemical_formula_sum "Si O2"
_cell_formula_units_Z 48
_cell_length_a 24.819742
_cell_length_b 8.459650
_cell_length_c 12.273388
_cell_angle_alpha 90.000000
_cell_angle_beta 70.156788
_cell_angle_gamma 90.000000
_cell_volume 2423.989042
_symmetry_space_group_name_H-M "C 2/M"
_symmetry_group_IT_number 12
_symmetry_cell_setting 'monoclinic'
loop_
_space_group_symop_operation_xyz
x,y,z
-x,y,-z
-x,-y,-z
x,-y,z
1/2+x,1/2+y,z
1/2-x,1/2+y,-z
1/2-x,1/2-y,-z
1/2+x,1/2-y,z
loop_
_atom_site_type_symbol
_atom_site_label
_atom_site_fract_x
_atom_site_fract_y
_atom_site_fract_z
Si Si1 0.116951 0.818442 0.230059
Si Si2 0.804584 0.180842 0.022883
Si Si3 0.804318 0.317882 0.255859
Si Si4 0.116862 0.817718 0.624892
Si Si5 0.184958 0.683637 0.378545
Si Si6 0.001574 0.315336 0.624252
O O1 0.139726 0.805747 0.091563
O O2 0.164335 0.739516 0.274595
O O3 0.058174 0.722917 0.277279
O O4 0.107411 0.000000 0.271433
O O5 0.791491 0.000000 0.063024
O O6 0.750000 0.250000 0.000000
O O7 0.818400 0.277584 0.121807
O O8 0.786588 0.500000 0.276605
O O9 0.860092 0.284415 0.289933
O O10 0.752576 0.213847 0.339957
O O11 0.151649 0.781214 0.491964
O O12 0.050406 0.778928 0.654108
O O13 0.123693 0.000000 0.650254
O O14 0.171337 0.500000 0.405582
O O15 0.015103 0.500000 0.622244
O O16 0.000000 0.259302 0.500000
#
# Coordination Sequence:
#
# PCOD8115247 Si02
#       6
#     8   8   8   8   8   8
#     4  11  23  39  63  95 126 162 208 258 308 364
#     4  11  23  40  64  93 127 164 210 257 309 367
#     4  12  25  42  63  91 128 167 210 256 314 375
#     4  12  25  42  64  91 127 166 208 257 315 374
#     4  12  23  38  62  93 129 164 205 256 313 372
#     4  11  23  40  64  93 126 164 207 256 308 367
#
# _framework density 19.802070000000001
#
# number of rings (size 3 to 8) (size 9 to 14) (size 15 to 20)
#    0.000    0.500    3.333    6.500    0.000    2.667 
#    0.000    0.833    0.000    5.000    0.000    0.000 
#    0.000    0.000    0.000    0.000    0.000    0.000 
#
# Total GULP energy -297820.436453 kJ/mol
# GULP energy per Si atom -12409.184852 kJ/mol
# Density = 1.975700 g / cm^3
# Si number density = 19.802070 Si / 1000 Ang^3
#
#
#
# Elastic Constant Matrix: (Units=GPa)
#
#
# Indices 1 2 3 4 5 6 
#
# 1 97.7002 17.0241 30.3981 0.0000 5.8178 0.0000
# 2 17.0241 90.4483 21.3719 0.0000 1.7473 0.0000
# 3 30.3981 21.3719 70.3605 0.0000 -0.2757 0.0000
# 4 0.0000 0.0000 0.0000 28.9645 0.0000 1.5805
# 5 5.8178 1.7473 -0.2757 0.0000 30.8015 0.0000
# 6 0.0000 0.0000 0.0000 1.5805 0.0000 35.1886
#
#
#
# Elastic Compliance Matrix: (Units=1/GPa)
#
#
# Indices 1 2 3 4 5 6 
#
# 1 0.012083 -0.001072 -0.004903 0.000000 -0.002265 0.000000
# 2 -0.001072 0.012021 -0.003190 0.000000 -0.000508 0.000000
# 3 -0.004903 -0.003190 0.017305 0.000000 0.001262 0.000000
# 4 0.000000 0.000000 0.000000 0.034610 0.000000 -0.001555
# 5 -0.002265 -0.000508 0.001262 0.000000 0.032934 0.000000
# 6 0.000000 0.000000 0.000000 -0.001555 0.000000 0.028488
#
#
# Mechanical properties :
#
#
# Convention : Reuss Voigt Hill
#
# Bulk Modulus (GPa) = 43.33173 44.01081 43.67127
# Shear Modulus (GPa) = 30.58760 31.63859 31.11309
#
# Velocity S-wave (km/s) = 3.93449 4.00151 3.96814
# Velocity P-wave (km/s) = 6.52458 6.60478 6.56480
#
# Compressibility (1/GPa) = 0.02307778
#
# Stress axis : x y z
#
# Youngs Moduli (GPa) = 82.76312 83.18460 57.78675
#
# Poissons Ratio (x) = 0.08916 0.28335
# Poissons Ratio (y) = 0.08871 0.18437
# Poissons Ratio (z) = 0.40582 0.26540
#
# Static dielectric constant tensor:
#      x y z
#    x 3.546080 0.000000 0.010420 
#    y 0.000000 3.748690 0.000000 
#    z 0.010420 0.000000 3.562960 
# 
# 
# High freq. dielectric constant tensor:
#      x y z
#    x 1.771610 0.000000 -0.000550 
#    y 0.000000 1.790560 0.000000 
#    z -0.000550 0.000000 1.769300 
# 
# From -- ./inp_files/172887.got.cif
#   From: 2010.06.25/outbox.cif.g09.slc.cpg/sg12_87_cif.got.tgz:172887.got - 2010.06.28 00:19:55.
