data_PCOD8115089
_publ_section_title
;
Structure prediction by ZEFSAII (Michael W. Deem and Ramdas Pophale) SiO2 
 PCOD8115089
Probable space group: C 2/M
;
_chemical_formula_sum "Si O2"
_cell_formula_units_Z 48
_cell_length_a 14.199353
_cell_length_b 12.143489
_cell_length_c 26.908853
_cell_angle_alpha 90.000000
_cell_angle_beta 29.767257
_cell_angle_gamma 90.000000
_cell_volume 2303.600759
_symmetry_space_group_name_H-M "C 2/M"
_symmetry_group_IT_number 12
_symmetry_cell_setting 'monoclinic'
loop_
_space_group_symop_operation_xyz
x,y,z
-x,y,-z
-x,-y,-z
x,-y,z
1/2+x,1/2+y,z
1/2-x,1/2+y,-z
1/2-x,1/2-y,-z
1/2+x,1/2-y,z
loop_
_atom_site_type_symbol
_atom_site_label
_atom_site_fract_x
_atom_site_fract_y
_atom_site_fract_z
Si Si1 0.683151 0.875701 0.382440
Si Si2 0.832697 0.213457 0.699557
Si Si3 0.168652 0.778364 0.957114
Si Si4 0.486218 0.229945 0.734129
Si Si5 0.561670 0.874863 0.091904
Si Si6 0.498979 0.500000 0.580645
Si Si7 0.312759 0.000000 0.360997
O O1 0.500000 0.877898 0.500000
O O2 0.633451 0.808100 0.356011
O O3 0.845294 0.817391 0.340343
O O4 0.745233 0.000000 0.339772
O O5 0.883016 0.263702 0.729131
O O6 0.610917 0.182606 0.799873
O O7 0.968265 0.109005 0.627442
O O8 0.337701 0.738309 0.844653
O O9 0.248695 0.865465 0.960988
O O10 0.091588 0.674403 0.023368
O O11 0.000000 0.829080 0.000000
O O12 0.558520 0.105805 0.707460
O O13 0.505914 0.000000 0.109112
O O14 0.714248 0.500000 0.460629
O O15 0.351894 0.500000 0.603525
#
# Coordination Sequence:
#
# PCOD8115089 Si02
#       7
#     8   8   8   8   8   4   4
#     4  11  26  46  67  96 140 184 223 278 343 404
#     4  12  24  44  70 101 138 175 229 278 340 403
#     4  11  24  45  66  99 133 172 221 274 341 399
#     4  12  26  45  69 101 139 178 228 283 335 410
#     4  11  24  45  70  99 132 174 225 281 334 404
#     4  11  22  42  74  98 129 183 233 285 335 395
#     4  11  24  44  71  99 131 181 233 286 341 389
#
# _framework density 20.836943000000002
#
# number of rings (size 3 to 8) (size 9 to 14) (size 15 to 20)
#    0.000    0.667    5.833    1.000    3.500    4.000 
#    0.000    0.000    0.000    0.000    0.000    0.000 
#    0.000    0.000    0.000    0.000    0.000    0.000 
#
# Total GULP energy -297695.608907 kJ/mol
# GULP energy per Si atom -12403.983704 kJ/mol
# Density = 2.078952 g / cm^3
# Si number density = 20.836943 Si / 1000 Ang^3
#
#
#
# Elastic Constant Matrix: (Units=GPa)
#
#
# Indices 1 2 3 4 5 6 
#
# 1 85.4527 21.4963 20.0764 -0.0001 8.7474 -0.0010
# 2 21.4963 144.1724 39.7582 0.0003 8.9947 -0.0003
# 3 20.0764 39.7582 107.6888 0.0061 9.0832 0.0038
# 4 -0.0001 0.0003 0.0061 29.5146 0.0007 -2.9967
# 5 8.7474 8.9947 9.0832 0.0007 34.8804 0.0002
# 6 -0.0010 -0.0003 0.0038 -2.9967 0.0002 14.0298
#
#
#
# Elastic Compliance Matrix: (Units=1/GPa)
#
#
# Indices 1 2 3 4 5 6 
#
# 1 0.012666 -0.001273 -0.001688 0.000001 -0.002409 0.000001
# 2 -0.001273 0.007906 -0.002594 0.000001 -0.001044 0.000001
# 3 -0.001688 -0.002594 0.010701 -0.000003 -0.001695 -0.000004
# 4 0.000001 0.000001 -0.000003 0.034633 0.000000 0.007397
# 5 -0.002409 -0.001044 -0.001695 0.000000 0.029984 0.000000
# 6 0.000001 0.000001 -0.000004 0.007397 0.000000 0.072857
#
#
# Mechanical properties :
#
#
# Convention : Reuss Voigt Hill
#
# Bulk Modulus (GPa) = 49.59290 55.55287 52.57288
# Shear Modulus (GPa) = 26.79858 32.75051 29.77454
#
# Velocity S-wave (km/s) = 3.59013 3.96883 3.78422
# Velocity P-wave (km/s) = 6.40605 6.90803 6.66177
#
# Compressibility (1/GPa) = 0.02016417
#
# Stress axis : x y z
#
# Youngs Moduli (GPa) = 78.95332 126.48166 93.44711
#
# Poissons Ratio (x) = 0.16097 0.15776
# Poissons Ratio (y) = 0.10048 0.24237
# Poissons Ratio (z) = 0.13329 0.32805
#
# Static dielectric constant tensor:
#      x y z
#    x 3.849910 0.000000 0.034610 
#    y 0.000000 3.646440 0.000010 
#    z 0.034610 0.000010 4.001340 
# 
# 
# High freq. dielectric constant tensor:
#      x y z
#    x 1.823570 0.000000 0.006460 
#    y 0.000000 1.808520 0.000000 
#    z 0.006460 0.000000 1.831290 
# 
# From -- ./inp_files/245853.got.cif
#   From: 2010.06.25/outbox.cif.g09.slc.cpg/sg12_123_cif.got.tgz:245853.got - 2010.06.28 00:19:55.
