data_PCOD8115827
_publ_section_title
;
Structure prediction by ZEFSAII (Michael W. Deem and Ramdas Pophale) SiO2 
 PCOD8115827
Probable space group: C 2/M
;
_chemical_formula_sum "Si O2"
_cell_formula_units_Z 56
_cell_length_a 15.425858
_cell_length_b 23.068432
_cell_length_c 9.631386
_cell_angle_alpha 90.000000
_cell_angle_beta 53.776308
_cell_angle_gamma 90.000000
_cell_volume 2764.883763
_symmetry_space_group_name_H-M "C 2/M"
_symmetry_group_IT_number 12
_symmetry_cell_setting 'monoclinic'
loop_
_space_group_symop_operation_xyz
x,y,z
-x,y,-z
-x,-y,-z
x,-y,z
1/2+x,1/2+y,z
1/2-x,1/2+y,-z
1/2-x,1/2-y,-z
1/2+x,1/2-y,z
loop_
_atom_site_type_symbol
_atom_site_label
_atom_site_fract_x
_atom_site_fract_y
_atom_site_fract_z
Si Si1 0.445372 0.791722 0.687466
Si Si2 0.961255 0.000000 0.882876
Si Si3 0.603585 0.692530 0.650125
Si Si4 0.895153 0.000000 0.505943
Si Si5 0.792245 0.782399 0.167036
Si Si6 0.905856 0.875486 0.879563
Si Si7 0.686167 0.379778 0.323414
Si Si8 0.898876 0.663720 0.005503
O O1 0.500000 0.819687 0.500000
O O2 0.524579 0.743818 0.677653
O O3 0.330312 0.764485 0.750461
O O4 0.427639 0.843707 0.815122
O O5 0.888313 0.056604 0.925952
O O6 0.068045 0.000000 0.687807
O O7 0.000000 0.000000 0.000000
O O8 0.691330 0.710465 0.682806
O O9 0.528687 0.643578 0.794330
O O10 0.670794 0.668566 0.456252
O O11 0.825172 0.056578 0.602336
O O12 0.000000 0.000000 0.500000
O O13 0.870062 0.731602 0.043592
O O14 0.820993 0.839776 0.051582
O O15 0.896342 0.866094 0.722513
O O16 0.804120 0.377520 0.145255
O O17 0.000000 0.646454 0.000000
#
# Coordination Sequence:
#
# PCOD8115827 Si02
#       8
#     8   4   8   4   8   8   8   8
#     4  12  25  40  60  90 127 169 214 260 314 383
#     4  12  24  38  64  96 129 166 204 256 321 377
#     4  12  23  38  62  94 130 165 211 257 319 384
#     4  12  22  44  65  96 128 162 214 262 320 386
#     4  12  24  40  62  91 134 172 209 260 320 385
#     4  12  21  40  61  93 130 168 205 257 318 381
#     4  12  25  41  67  94 124 171 211 261 324 376
#     4  12  24  43  61  90 130 170 217 261 313 382
#
# _framework density 20.254016
#
# number of rings (size 3 to 8) (size 9 to 14) (size 15 to 20)
#    0.000    0.000    7.143    4.714    2.000    1.143 
#    0.000    0.357    0.000    0.000    0.000    1.000 
#    0.000    0.000    0.000    0.000    0.000    0.000 
#
# Total GULP energy -347270.466727 kJ/mol
# GULP energy per Si atom -12402.516669 kJ/mol
# Density = 2.020792 g / cm^3
# Si number density = 20.254016 Si / 1000 Ang^3
#
#
#
# Elastic Constant Matrix: (Units=GPa)
#
#
# Indices 1 2 3 4 5 6 
#
# 1 89.8945 13.7876 30.6905 0.0000 20.4253 0.0000
# 2 13.7876 89.8485 40.7568 0.0000 2.9078 0.0000
# 3 30.6905 40.7568 147.5179 0.0000 18.1690 0.0000
# 4 0.0000 0.0000 0.0000 29.2799 0.0000 -3.6157
# 5 20.4253 2.9078 18.1690 0.0000 38.9118 0.0000
# 6 0.0000 0.0000 0.0000 -3.6157 0.0000 18.2729
#
#
#
# Elastic Compliance Matrix: (Units=1/GPa)
#
#
# Indices 1 2 3 4 5 6 
#
# 1 0.013253 -0.001058 -0.001716 0.000000 -0.006076 0.000000
# 2 -0.001058 0.012829 -0.003474 0.000000 0.001219 0.000000
# 3 -0.001716 -0.003474 0.008438 0.000000 -0.002779 0.000000
# 4 0.000000 0.000000 0.000000 0.035009 0.000000 0.006927
# 5 -0.006076 0.001219 -0.002779 0.000000 0.030095 0.000000
# 6 0.000000 0.000000 0.000000 0.006927 0.000000 0.056097
#
#
# Mechanical properties :
#
#
# Convention : Reuss Voigt Hill
#
# Bulk Modulus (GPa) = 45.41007 55.30343 50.35675
# Shear Modulus (GPa) = 28.48033 33.42798 30.95415
#
# Velocity S-wave (km/s) = 3.75394 4.06696 3.91359
# Velocity P-wave (km/s) = 6.42327 7.02978 6.73336
#
# Compressibility (1/GPa) = 0.02202155
#
# Stress axis : x y z
#
# Youngs Moduli (GPa) = 75.45405 77.94934 118.50910
#
# Poissons Ratio (x) = 0.08251 0.20341
# Poissons Ratio (y) = 0.07987 0.41174
# Poissons Ratio (z) = 0.12951 0.27082
#
# Static dielectric constant tensor:
#      x y z
#    x 3.612310 0.000000 0.317300 
#    y 0.000000 3.419130 0.000000 
#    z 0.317300 0.000000 3.888310 
# 
# 
# High freq. dielectric constant tensor:
#      x y z
#    x 1.787360 0.000000 0.015520 
#    y 0.000000 1.757550 0.000000 
#    z 0.015520 0.000000 1.813300 
# 
# From -- ./inp_files/65808.got.cif
#   From: 2010.06.25/outbox.cif.g09.slc.cpg/sg12_33_cif.got.tgz:65808.got - 2010.06.28 00:19:55.
