data_PCOD8115638
_publ_section_title
;
Structure prediction by ZEFSAII (Michael W. Deem and Ramdas Pophale) SiO2 
 PCOD8115638
Probable space group: C 2/M
;
_chemical_formula_sum "Si O2"
_cell_formula_units_Z 40
_cell_length_a 11.166830
_cell_length_b 24.889265
_cell_length_c 8.351103
_cell_angle_alpha 90.000000
_cell_angle_beta 125.522655
_cell_angle_gamma 90.000000
_cell_volume 1889.075478
_symmetry_space_group_name_H-M "C 2/M"
_symmetry_group_IT_number 12
_symmetry_cell_setting 'monoclinic'
loop_
_space_group_symop_operation_xyz
x,y,z
-x,y,-z
-x,-y,-z
x,-y,z
1/2+x,1/2+y,z
1/2-x,1/2+y,-z
1/2-x,1/2-y,-z
1/2+x,1/2-y,z
loop_
_atom_site_type_symbol
_atom_site_label
_atom_site_fract_x
_atom_site_fract_y
_atom_site_fract_z
Si Si1 0.413494 0.500000 0.209669
Si Si2 0.337973 0.200507 0.651397
Si Si3 0.151375 0.592801 0.522736
Si Si4 0.821376 0.695982 0.004774
Si Si5 0.758034 0.000000 0.404076
Si Si6 0.146590 0.896851 0.044793
O O1 0.276488 0.500000 0.227496
O O2 0.575576 0.500000 0.406460
O O3 0.399602 0.445303 0.102876
O O4 0.250000 0.250000 0.500000
O O5 0.308334 0.151429 0.510569
O O6 0.512186 0.206168 0.810292
O O7 0.282758 0.187964 0.787670
O O8 0.161407 0.551261 0.383612
O O9 0.273060 0.575435 0.744287
O O10 0.000000 0.590856 0.500000
O O11 0.753997 0.645211 0.043309
O O12 0.750000 0.750000 0.000000
O O13 0.000000 0.867352 0.000000
#
# Coordination Sequence:
#
# PCOD8115638 Si02
#       6
#     4   8   8   8   4   8
#     4  11  24  44  68 102 138 177 226 274 331 409
#     4  11  26  46  68  97 136 176 225 280 338 399
#     4  12  24  45  69 100 137 175 224 281 336 399
#     4  11  26  45  69  98 133 178 227 277 336 401
#     4  11  24  43  70 101 136 179 224 274 339 397
#     4  12  24  44  70  99 138 178 225 277 334 400
#
# _framework density 21.174378999999998
#
# number of rings (size 3 to 8) (size 9 to 14) (size 15 to 20)
#    0.000    0.600    4.000    3.600    5.600    0.000 
#    0.000    1.000    0.000    0.000    0.000    0.000 
#    0.000    0.000    0.000    0.000    0.000    0.000 
#
# Total GULP energy -247868.886569 kJ/mol
# GULP energy per Si atom -12393.444328 kJ/mol
# Density = 2.112619 g / cm^3
# Si number density = 21.174379 Si / 1000 Ang^3
#
#
#
# Elastic Constant Matrix: (Units=GPa)
#
#
# Indices 1 2 3 4 5 6 
#
# 1 145.2604 52.6914 40.6077 0.0000 -16.7057 0.0000
# 2 52.6914 114.9108 17.9867 0.0000 -4.8162 0.0000
# 3 40.6077 17.9867 92.7475 0.0000 -4.9450 0.0000
# 4 0.0000 0.0000 0.0000 -16.6872 0.0000 60.6612
# 5 -16.7057 -4.8162 -4.9450 0.0000 30.7914 0.0000
# 6 0.0000 0.0000 0.0000 60.6612 0.0000 -54.2317
#
#
#
# Elastic Compliance Matrix: (Units=1/GPa)
#
#
# Indices 1 2 3 4 5 6 
#
# 1 0.009624 -0.003729 -0.003271 0.000000 0.004113 0.000000
# 2 -0.003729 0.010459 -0.000420 0.000000 -0.000455 0.000000
# 3 -0.003271 -0.000420 0.012303 0.000000 0.000135 0.000000
# 4 0.000000 0.000000 0.000000 0.019544 0.000000 0.021861
# 5 0.004113 -0.000455 0.000135 0.000000 0.034659 0.000000
# 6 0.000000 0.000000 0.000000 0.021861 0.000000 0.006014
#
#
# Mechanical properties :
#
#
# Convention : Reuss Voigt Hill
#
# Bulk Modulus (GPa) = 56.99342 63.94339 60.46841
# Shear Modulus (GPa) = 44.13387 8.08335 26.10861
#
# Velocity S-wave (km/s) = 4.57037 1.95597 3.51526
# Velocity P-wave (km/s) = 7.40444 5.94686 6.71531
#
# Compressibility (1/GPa) = 0.01754588
#
# Stress axis : x y z
#
# Youngs Moduli (GPa) = 103.90415 95.61282 81.28136
#
# Poissons Ratio (x) = 0.35651 0.26590
# Poissons Ratio (y) = 0.38742 0.03414
# Poissons Ratio (z) = 0.33991 0.04016
#
# Static dielectric constant tensor:
#      x y z
#    x 2.204190 0.000000 0.694130 
#    y 0.000000 3.584950 0.000000 
#    z 0.694130 0.000000 3.964010 
# 
# 
# High freq. dielectric constant tensor:
#      x y z
#    x 1.853080 0.000000 -0.007310 
#    y 0.000000 1.835090 0.000000 
#    z -0.007310 0.000000 1.840520 
# 
# From -- ./inp_files/50993.got.cif
#   From: 2010.06.25/outbox.cif.g09.slc.cpg/sg12_26_cif.got.tgz:50993.got - 2010.06.28 00:19:55.
