data_PCOD8115744
_publ_section_title
;
Structure prediction by ZEFSAII (Michael W. Deem and Ramdas Pophale) SiO2 
 PCOD8115744
Probable space group: C 2/M
;
_chemical_formula_sum "Si O2"
_cell_formula_units_Z 56
_cell_length_a 22.759642
_cell_length_b 14.014167
_cell_length_c 14.068328
_cell_angle_alpha 90.000000
_cell_angle_beta 37.068181
_cell_angle_gamma 90.000000
_cell_volume 2704.725514
_symmetry_space_group_name_H-M "C 2/M"
_symmetry_group_IT_number 12
_symmetry_cell_setting 'monoclinic'
loop_
_space_group_symop_operation_xyz
x,y,z
-x,y,-z
-x,-y,-z
x,-y,z
1/2+x,1/2+y,z
1/2-x,1/2+y,-z
1/2-x,1/2-y,-z
1/2+x,1/2-y,z
loop_
_atom_site_type_symbol
_atom_site_label
_atom_site_fract_x
_atom_site_fract_y
_atom_site_fract_z
Si Si1 0.704634 0.112066 0.162427
Si Si2 0.914560 0.395558 0.863577
Si Si3 0.283434 0.789697 0.659031
Si Si4 0.607234 0.612417 0.196001
Si Si5 0.097284 0.111893 0.814055
Si Si6 0.778790 0.103976 0.767730
Si Si7 0.053428 0.766678 0.688204
O O1 0.619343 0.137494 0.197912
O O2 0.676557 0.164887 0.295501
O O3 0.709191 0.000000 0.175166
O O4 0.809823 0.147023 0.986227
O O5 0.965690 0.500000 0.792184
O O6 0.985478 0.317170 0.817423
O O7 0.821551 0.405331 0.048547
O O8 0.186804 0.847255 0.758063
O O9 0.265417 0.677272 0.699044
O O10 0.361854 0.792622 0.473880
O O11 0.590781 0.500000 0.205030
O O12 0.639440 0.637019 0.261823
O O13 0.506007 0.665772 0.307046
O O14 0.094258 0.168907 0.719769
O O15 0.112934 0.000000 0.773078
O O16 0.000000 0.128787 0.000000
O O17 0.806625 0.000000 0.689124
#
# Coordination Sequence:
#
# PCOD8115744 Si02
#       7
#     8   8   8   8   8   8   8
#     4   9  18  35  60  87 116 155 202 242 271 314
#     4   9  19  36  58  85 118 158 199 232 269 329
#     4  12  24  37  56  87 121 150 181 233 299 350
#     4   9  18  35  60  87 116 155 202 242 271 314
#     4  11  25  46  69  85 101 139 198 251 288 334
#     4   9  19  36  58  85 118 158 199 232 269 329
#     4  12  24  37  56  87 121 150 181 233 299 350
#
# _framework density 20.704502999999999
#
# number of rings (size 3 to 8) (size 9 to 14) (size 15 to 20)
#    0.000    1.857    0.000    6.429    0.000    9.143 
#    0.000    3.571    0.000    2.571    0.000    0.000 
#    0.000    0.000    0.000    0.000    0.000    0.000 
#
# Total GULP energy -347185.478710 kJ/mol
# GULP energy per Si atom -12399.481382 kJ/mol
# Density = 2.065738 g / cm^3
# Si number density = 20.704503 Si / 1000 Ang^3
#
#
#
# Elastic Constant Matrix: (Units=GPa)
#
#
# Indices 1 2 3 4 5 6 
#
# 1 49.5080 32.2153 7.9821 0.0000 -0.4639 0.0000
# 2 32.2153 70.3819 11.2798 0.0000 -3.6572 0.0000
# 3 7.9821 11.2798 36.1894 0.0000 -2.0209 0.0000
# 4 0.0000 0.0000 0.0000 16.9186 0.0000 10.9120
# 5 -0.4639 -3.6572 -2.0209 0.0000 11.1801 0.0000
# 6 0.0000 0.0000 0.0000 10.9120 0.0000 45.5096
#
#
#
# Elastic Compliance Matrix: (Units=1/GPa)
#
#
# Indices 1 2 3 4 5 6 
#
# 1 0.029095 -0.013095 -0.002533 0.000000 -0.003534 0.000000
# 2 -0.013095 0.021037 -0.003348 0.000000 0.005733 0.000000
# 3 -0.002533 -0.003348 0.029465 0.000000 0.004126 0.000000
# 4 0.000000 0.000000 0.000000 0.069920 0.000000 -0.016765
# 5 -0.003534 0.005733 0.004126 0.000000 0.091919 0.000000
# 6 0.000000 0.000000 0.000000 -0.016765 0.000000 0.025993
#
#
# Mechanical properties :
#
#
# Convention : Reuss Voigt Hill
#
# Bulk Modulus (GPa) = 24.01330 28.78154 26.39742
# Shear Modulus (GPa) = 15.66103 21.69512 18.67807
#
# Velocity S-wave (km/s) = 2.75327 3.24056 3.00680
# Velocity P-wave (km/s) = 4.66161 5.28516 4.98315
#
# Compressibility (1/GPa) = 0.04164359
#
# Stress axis : x y z
#
# Youngs Moduli (GPa) = 34.36992 47.53604 33.93837
#
# Poissons Ratio (x) = 0.62249 0.08597
# Poissons Ratio (y) = 0.45008 0.11364
# Poissons Ratio (z) = 0.08706 0.15917
#
# Static dielectric constant tensor:
#      x y z
#    x 3.655050 0.000000 -0.029030 
#    y 0.000000 5.838170 0.000000 
#    z -0.029030 0.000000 3.518300 
# 
# 
# High freq. dielectric constant tensor:
#      x y z
#    x 1.789360 0.000000 -0.001900 
#    y 0.000000 1.834060 0.000000 
#    z -0.001900 0.000000 1.791500 
# 
# From -- ./inp_files/240871.got.cif
#   From: 2010.06.25/outbox.cif.g09.slc.cpg/sg12_121_cif.got.tgz:240871.got - 2010.06.28 00:19:55.
