data_PCOD8115997
_publ_section_title
;
Structure prediction by ZEFSAII (Michael W. Deem and Ramdas Pophale) SiO2 
 PCOD8115997
Probable space group: C 2/M
;
_chemical_formula_sum "Si O2"
_cell_formula_units_Z 48
_cell_length_a 24.590775
_cell_length_b 9.324481
_cell_length_c 15.180823
_cell_angle_alpha 90.000000
_cell_angle_beta 62.101236
_cell_angle_gamma 90.000000
_cell_volume 3076.339552
_symmetry_space_group_name_H-M "C 2/M"
_symmetry_group_IT_number 12
_symmetry_cell_setting 'monoclinic'
loop_
_space_group_symop_operation_xyz
x,y,z
-x,y,-z
-x,-y,-z
x,-y,z
1/2+x,1/2+y,z
1/2-x,1/2+y,-z
1/2-x,1/2-y,-z
1/2+x,1/2-y,z
loop_
_atom_site_type_symbol
_atom_site_label
_atom_site_fract_x
_atom_site_fract_y
_atom_site_fract_z
Si Si1 0.931401 0.329059 0.557388
Si Si2 0.292565 0.331791 0.158583
Si Si3 0.337140 0.832580 0.482417
Si Si4 0.689298 0.167833 0.016348
Si Si5 0.344400 0.834020 0.771915
Si Si6 0.702382 0.334438 0.646954
O O1 0.934529 0.500000 0.558863
O O2 0.893148 0.279076 0.500824
O O3 0.898138 0.265914 0.670667
O O4 0.000000 0.263751 0.500000
O O5 0.296514 0.500000 0.132527
O O6 0.334174 0.242617 0.056399
O O7 0.222672 0.272512 0.203226
O O8 0.317060 0.299914 0.238019
O O9 0.341363 0.754639 0.384944
O O10 0.273728 0.792210 0.579591
O O11 0.341841 0.000000 0.460347
O O12 0.702653 0.000000 0.990387
O O13 0.750000 0.250000 0.000000
O O14 0.641331 0.188065 0.134363
O O15 0.341303 0.000000 0.749142
O O16 0.692435 0.500000 0.632489
#
# Coordination Sequence:
#
# PCOD8115997 Si02
#       6
#     8   8   8   8   8   8
#     4   9  15  24  41  62  82 108 140 168 198 239
#     4   9  15  25  40  57  81 109 134 162 201 246
#     4   9  16  26  40  60  83 106 136 170 199 237
#     4   9  16  24  37  56  81 109 134 163 201 243
#     4   8  13  23  36  53  80 108 130 161 201 238
#     4   9  16  26  41  58  82 113 134 159 206 251
#
# _framework density 15.602959999999999
#
# number of rings (size 3 to 8) (size 9 to 14) (size 15 to 20)
#    0.000    3.167    1.667    1.500    0.000    0.667 
#    0.000    0.000    0.000    0.500    0.000    1.167 
#    0.000    9.333    0.000    0.000    0.000    0.000 
#
# Total GULP energy -297359.059807 kJ/mol
# GULP energy per Si atom -12389.960825 kJ/mol
# Density = 1.556745 g / cm^3
# Si number density = 15.602960 Si / 1000 Ang^3
#
#
#
# Elastic Constant Matrix: (Units=GPa)
#
#
# Indices 1 2 3 4 5 6 
#
# 1 75.4736 23.9460 54.7924 0.0000 11.4715 0.0000
# 2 23.9460 44.8287 44.9767 0.0000 12.8281 0.0000
# 3 54.7924 44.9767 132.2059 0.0000 22.6720 0.0000
# 4 0.0000 0.0000 0.0000 24.9200 0.0000 9.1563
# 5 11.4715 12.8281 22.6720 0.0000 21.9193 0.0000
# 6 0.0000 0.0000 0.0000 9.1563 0.0000 13.8137
#
#
#
# Elastic Compliance Matrix: (Units=1/GPa)
#
#
# Indices 1 2 3 4 5 6 
#
# 1 0.019330 -0.003247 -0.006683 0.000000 -0.001303 0.000000
# 2 -0.003247 0.036162 -0.009262 0.000000 -0.009885 0.000000
# 3 -0.006683 -0.009262 0.014533 0.000000 -0.006114 0.000000
# 4 0.000000 0.000000 0.000000 0.053048 0.000000 -0.035163
# 5 -0.001303 -0.009885 -0.006114 0.000000 0.058413 0.000000
# 6 0.000000 0.000000 0.000000 -0.035163 0.000000 0.095699
#
#
# Mechanical properties :
#
#
# Convention : Reuss Voigt Hill
#
# Bulk Modulus (GPa) = 31.60398 55.54869 43.57633
# Shear Modulus (GPa) = 15.33193 20.71681 18.02437
#
# Velocity S-wave (km/s) = 3.13809 3.64778 3.40249
# Velocity P-wave (km/s) = 5.78180 7.30893 6.58975
#
# Compressibility (1/GPa) = 0.03164159
#
# Stress axis : x y z
#
# Youngs Moduli (GPa) = 51.73383 27.65296 68.80891
#
# Poissons Ratio (x) = 0.08980 0.45984
# Poissons Ratio (y) = 0.16800 0.63728
# Poissons Ratio (z) = 0.34573 0.25611
#
# Static dielectric constant tensor:
#      x y z
#    x 2.731120 0.000000 0.172780 
#    y 0.000000 2.800160 0.000000 
#    z 0.172780 0.000000 3.497500 
# 
# 
# High freq. dielectric constant tensor:
#      x y z
#    x 1.546410 0.000000 0.025750 
#    y 0.000000 1.570350 0.000000 
#    z 0.025750 0.000000 1.609710 
# 
# From -- ./inp_files/236621.got.cif
#   From: 2010.06.25/outbox.cif.g09.slc.cpg/sg12_119_cif.got.tgz:236621.got - 2010.06.28 00:19:55.
