data_PCOD8115672
_publ_section_title
;
Structure prediction by ZEFSAII (Michael W. Deem and Ramdas Pophale) SiO2 
 PCOD8115672
Probable space group: C 2/M
;
_chemical_formula_sum "Si O2"
_cell_formula_units_Z 32
_cell_length_a 12.182158
_cell_length_b 17.318980
_cell_length_c 15.545599
_cell_angle_alpha 90.000000
_cell_angle_beta 25.552070
_cell_angle_gamma 90.000000
_cell_volume 1414.701634
_symmetry_space_group_name_H-M "C 2/M"
_symmetry_group_IT_number 12
_symmetry_cell_setting 'monoclinic'
loop_
_space_group_symop_operation_xyz
x,y,z
-x,y,-z
-x,-y,-z
x,-y,z
1/2+x,1/2+y,z
1/2-x,1/2+y,-z
1/2-x,1/2-y,-z
1/2+x,1/2-y,z
loop_
_atom_site_type_symbol
_atom_site_label
_atom_site_fract_x
_atom_site_fract_y
_atom_site_fract_z
Si Si1 0.225103 0.662225 0.199444
Si Si2 0.000000 0.762272 0.500000
Si Si3 0.068308 0.372948 0.752630
Si Si4 0.762726 0.000000 0.265173
Si Si5 0.916781 0.000000 0.459041
Si Si6 0.731115 0.500000 0.069046
O O1 0.270347 0.574509 0.198813
O O2 0.024771 0.707410 0.400148
O O3 0.123624 0.670000 0.174603
O O4 0.500000 0.703442 0.000000
O O5 0.744855 0.813051 0.678356
O O6 0.246442 0.424512 0.564123
O O7 0.907584 0.424678 0.932848
O O8 0.500000 0.000000 0.500000
O O9 0.996407 0.000000 0.167903
O O10 0.000000 0.000000 0.500000
O O11 0.143607 0.000000 0.230146
#
# Coordination Sequence:
#
# PCOD8115672 Si02
#       6
#     8   4   8   4   4   4
#     4  12  25  44  72 103 144 187 240 301 353 417
#     4  12  28  46  66 104 152 202 228 288 354 432
#     4  11  25  47  68 109 145 185 247 284 356 431
#     4  12  21  45  74 108 132 180 246 301 358 397
#     4  11  24  46  75 107 136 185 238 302 352 415
#     4  11  24  44  83 102 138 186 237 311 350 410
#
# _framework density 22.619610999999999
#
# number of rings (size 3 to 8) (size 9 to 14) (size 15 to 20)
#    0.000    0.500    5.000    4.125    0.000    5.000 
#    0.000    0.000    0.000    0.000    0.000    0.000 
#    0.000    0.000    0.000    0.000    0.000    0.000 
#
# Total GULP energy -198410.693593 kJ/mol
# GULP energy per Si atom -12400.668350 kJ/mol
# Density = 2.256813 g / cm^3
# Si number density = 22.619611 Si / 1000 Ang^3
#
#
#
# Elastic Constant Matrix: (Units=GPa)
#
#
# Indices 1 2 3 4 5 6 
#
# 1 132.5432 28.0060 44.4971 -0.0093 -10.6030 0.2845
# 2 28.0060 87.9067 34.1959 -0.3284 -3.9079 0.3401
# 3 44.4971 34.1959 157.9458 -0.0117 8.2327 -1.1607
# 4 -0.0093 -0.3284 -0.0117 14.3692 -0.0292 33.1366
# 5 -10.6030 -3.9079 8.2327 -0.0292 46.4298 0.5321
# 6 0.2845 0.3401 -1.1607 33.1366 0.5321 -88.9407
#
#
#
# Elastic Compliance Matrix: (Units=1/GPa)
#
#
# Indices 1 2 3 4 5 6 
#
# 1 0.008861 -0.001863 -0.002211 -0.000097 0.002258 0.000027
# 2 -0.001863 0.012922 -0.002328 0.000059 0.001074 0.000102
# 3 -0.002211 -0.002328 0.007564 0.000129 -0.002041 -0.000079
# 4 -0.000097 0.000059 0.000129 0.037436 -0.000176 0.013945
# 5 0.002258 0.001074 -0.002041 -0.000176 0.022505 0.000107
# 6 0.000027 0.000102 -0.000079 0.013945 0.000107 -0.006046
#
#
# Mechanical properties :
#
#
# Convention : Reuss Voigt Hill
#
# Bulk Modulus (GPa) = 60.44532 65.75485 63.10009
# Shear Modulus (GPa) = 49.23162 12.48478 30.85820
#
# Velocity S-wave (km/s) = 4.67036 2.35190 3.69755
# Velocity P-wave (km/s) = 7.47419 6.04220 6.79602
#
# Compressibility (1/GPa) = 0.01654388
#
# Stress axis : x y z
#
# Youngs Moduli (GPa) = 112.85279 77.38449 132.20714
#
# Poissons Ratio (x) = 0.14418 0.29225
# Poissons Ratio (y) = 0.21027 0.30779
# Poissons Ratio (z) = 0.24946 0.18016
#
# Static dielectric constant tensor:
#      x y z
#    x 3.967330 0.000250 -0.269340 
#    y 0.000250 4.089060 0.001230 
#    z -0.269340 0.001230 4.353870 
# 
# 
# High freq. dielectric constant tensor:
#      x y z
#    x 1.893000 0.000010 -0.013460 
#    y 0.000010 1.883710 0.000060 
#    z -0.013460 0.000060 1.910380 
# 
# From -- ./inp_files/206518.got.cif
#   From: 2010.06.25/outbox.cif.g09.slc.cpg/sg12_104_cif.got.tgz:206518.got - 2010.06.28 00:19:55.
