data_PCOD8115900
_publ_section_title
;
Structure prediction by ZEFSAII (Michael W. Deem and Ramdas Pophale) SiO2 
 PCOD8115900
Probable space group: C 2/M
;
_chemical_formula_sum "Si O2"
_cell_formula_units_Z 56
_cell_length_a 24.665130
_cell_length_b 9.240860
_cell_length_c 15.769339
_cell_angle_alpha 90.000000
_cell_angle_beta 123.739262
_cell_angle_gamma 90.000000
_cell_volume 2988.890774
_symmetry_space_group_name_H-M "C 2/M"
_symmetry_group_IT_number 12
_symmetry_cell_setting 'monoclinic'
loop_
_space_group_symop_operation_xyz
x,y,z
-x,y,-z
-x,-y,-z
x,-y,z
1/2+x,1/2+y,z
1/2-x,1/2+y,-z
1/2-x,1/2-y,-z
1/2+x,1/2-y,z
loop_
_atom_site_type_symbol
_atom_site_label
_atom_site_fract_x
_atom_site_fract_y
_atom_site_fract_z
Si Si1 0.894449 0.833095 0.415343
Si Si2 0.519003 0.171559 0.209176
Si Si3 0.723522 0.334124 0.056327
Si Si4 0.079678 0.163402 0.986137
Si Si5 0.373424 0.333047 0.784474
Si Si6 0.265587 0.171212 0.275073
Si Si7 0.493579 0.667874 0.356609
O O1 0.829351 0.740902 0.371115
O O2 0.932145 0.790269 0.361997
O O3 0.939949 0.801135 0.535209
O O4 0.874684 0.000000 0.394871
O O5 0.591428 0.234468 0.255496
O O6 0.490462 0.231568 0.272065
O O7 0.521823 0.000000 0.215313
O O8 0.472548 0.222126 0.092489
O O9 0.743159 0.500000 0.062340
O O10 0.646044 0.315445 0.991922
O O11 0.755842 0.272324 0.170453
O O12 0.750000 0.250000 0.000000
O O13 0.091469 0.191563 0.095174
O O14 0.053062 0.000000 0.949372
O O15 0.378760 0.500000 0.761421
O O16 0.297797 0.285354 0.724661
O O17 0.273001 0.000000 0.281149
O O18 0.489657 0.500000 0.326385
#
# Coordination Sequence:
#
# PCOD8115900 Si02
#       7
#     8   8   8   8   8   8   8
#     4   9  19  37  61  83 104 137 180 222 265 320
#     4  12  24  34  52  83 112 138 179 232 274 308
#     4   9  19  33  49  75 109 142 178 216 255 312
#     4   9  19  36  55  74 104 149 188 214 259 323
#     4   9  19  38  58  76 105 149 187 215 260 325
#     4   9  19  35  56  80 108 140 175 218 271 322
#     4   9  20  39  58  79 108 141 179 218 264 328
#
# _framework density 18.736046999999999
#
# number of rings (size 3 to 8) (size 9 to 14) (size 15 to 20)
#    0.000    2.571    0.000    4.286    2.000    5.143 
#    0.000    5.000    0.000    0.000    0.000    0.000 
#    0.000    0.000    0.000    0.000    0.000    0.000 
#
# Total GULP energy -347214.251927 kJ/mol
# GULP energy per Si atom -12400.508997 kJ/mol
# Density = 1.869340 g / cm^3
# Si number density = 18.736047 Si / 1000 Ang^3
#
#
#
# Elastic Constant Matrix: (Units=GPa)
#
#
# Indices 1 2 3 4 5 6 
#
# 1 76.7492 39.0084 25.9860 0.0000 6.8506 0.0000
# 2 39.0084 77.1814 25.9341 0.0000 3.9554 0.0000
# 3 25.9860 25.9341 43.1632 0.0000 13.2841 0.0000
# 4 0.0000 0.0000 0.0000 30.4233 0.0000 4.3785
# 5 6.8506 3.9554 13.2841 0.0000 29.0970 0.0000
# 6 0.0000 0.0000 0.0000 4.3785 0.0000 31.0809
#
#
#
# Elastic Compliance Matrix: (Units=1/GPa)
#
#
# Indices 1 2 3 4 5 6 
#
# 1 0.019152 -0.007293 -0.007057 0.000000 -0.000296 0.000000
# 2 -0.007293 0.019184 -0.007983 0.000000 0.002754 0.000000
# 3 -0.007057 -0.007983 0.036496 0.000000 -0.013915 0.000000
# 4 0.000000 0.000000 0.000000 0.033550 0.000000 -0.004726
# 5 -0.000296 0.002754 -0.013915 0.000000 0.040416 0.000000
# 6 0.000000 0.000000 0.000000 -0.004726 0.000000 0.032840
#
#
# Mechanical properties :
#
#
# Convention : Reuss Voigt Hill
#
# Bulk Modulus (GPa) = 33.15149 42.10564 37.62857
# Shear Modulus (GPa) = 21.15417 25.19793 23.17605
#
# Velocity S-wave (km/s) = 3.36380 3.67125 3.52088
# Velocity P-wave (km/s) = 5.72881 6.36338 6.05441
#
# Compressibility (1/GPa) = 0.03016455
#
# Stress axis : x y z
#
# Youngs Moduli (GPa) = 52.21338 52.12704 27.40034
#
# Poissons Ratio (x) = 0.38017 0.19337
# Poissons Ratio (y) = 0.38080 0.21874
# Poissons Ratio (z) = 0.36849 0.41614
#
# Static dielectric constant tensor:
#      x y z
#    x 3.572020 0.000000 0.083830 
#    y 0.000000 3.222180 0.000000 
#    z 0.083830 0.000000 3.318790 
# 
# 
# High freq. dielectric constant tensor:
#      x y z
#    x 1.739480 0.000000 0.002910 
#    y 0.000000 1.712070 0.000000 
#    z 0.002910 0.000000 1.713030 
# 
# From -- ./inp_files/238374.got.cif
#   From: 2010.06.25/outbox.cif.g09.slc.cpg/sg12_120_cif.got.tgz:238374.got - 2010.06.28 00:19:55.
