data_PCOD8115050
_publ_section_title
;
Structure prediction by ZEFSAII (Michael W. Deem and Ramdas Pophale) SiO2 
 PCOD8115050
Probable space group: C 2/M
;
_chemical_formula_sum "Si O2"
_cell_formula_units_Z 40
_cell_length_a 14.452743
_cell_length_b 8.275796
_cell_length_c 24.521671
_cell_angle_alpha 90.000000
_cell_angle_beta 137.569652
_cell_angle_gamma 90.000000
_cell_volume 1978.866976
_symmetry_space_group_name_H-M "C 2/M"
_symmetry_group_IT_number 12
_symmetry_cell_setting 'monoclinic'
loop_
_space_group_symop_operation_xyz
x,y,z
-x,y,-z
-x,-y,-z
x,-y,z
1/2+x,1/2+y,z
1/2-x,1/2+y,-z
1/2-x,1/2-y,-z
1/2+x,1/2-y,z
loop_
_atom_site_type_symbol
_atom_site_label
_atom_site_fract_x
_atom_site_fract_y
_atom_site_fract_z
Si Si1 0.645641 0.685436 0.586258
Si Si2 0.632149 0.814809 0.697400
Si Si3 0.842772 0.814565 0.588997
Si Si4 0.858618 0.189921 0.002945
Si Si5 0.158374 0.689582 0.123233
O O1 0.500000 0.746391 0.500000
O O2 0.669927 0.500000 0.580153
O O3 0.654155 0.702884 0.654585
O O4 0.762371 0.796048 0.610562
O O5 0.480514 0.788208 0.654629
O O6 0.741344 0.768705 0.790072
O O7 0.651123 0.000000 0.688663
O O8 0.750000 0.750000 0.500000
O O9 0.880810 0.000000 0.594704
O O10 0.003127 0.279019 0.075162
O O11 0.881126 0.000000 0.018992
O O12 0.750000 0.250000 0.000000
O O13 0.806436 0.230254 0.919591
O O14 0.184883 0.500000 0.130369
#
# Coordination Sequence:
#
# PCOD8115050 Si02
#       5
#     8   8   8   8   8
#     4  11  23  40  63  89 120 160 209 260 313 370
#     4  12  25  42  64  92 127 166 210 262 315 371
#     4  12  24  40  62  89 120 161 209 259 313 371
#     4  11  22  41  68  98 130 167 208 252 308 373
#     4  11  23  42  65  95 130 166 208 257 313 371
#
# _framework density 20.213588000000001
#
# number of rings (size 3 to 8) (size 9 to 14) (size 15 to 20)
#    0.000    0.600    2.000    9.000    0.000    2.400 
#    0.000    8.000    0.000    0.000    0.000    0.000 
#    0.000    0.000    0.000    0.000    0.000    0.000 
#
# Total GULP energy -248148.995992 kJ/mol
# GULP energy per Si atom -12407.449800 kJ/mol
# Density = 2.016758 g / cm^3
# Si number density = 20.213588 Si / 1000 Ang^3
#
#
#
# Elastic Constant Matrix: (Units=GPa)
#
#
# Indices 1 2 3 4 5 6 
#
# 1 136.9778 5.5311 46.3223 0.0000 -5.7592 0.0000
# 2 5.5311 93.0246 5.0383 0.0000 -2.4540 0.0000
# 3 46.3223 5.0383 135.0511 0.0000 -6.6899 0.0000
# 4 0.0000 0.0000 0.0000 31.0692 0.0000 -0.5108
# 5 -5.7592 -2.4540 -6.6899 0.0000 20.4242 0.0000
# 6 0.0000 0.0000 0.0000 -0.5108 0.0000 37.1050
#
#
#
# Elastic Compliance Matrix: (Units=1/GPa)
#
#
# Indices 1 2 3 4 5 6 
#
# 1 0.008308 -0.000307 -0.002769 0.000000 0.001399 0.000000
# 2 -0.000307 0.010811 -0.000242 0.000000 0.001133 0.000000
# 3 -0.002769 -0.000242 0.008461 0.000000 0.001961 0.000000
# 4 0.000000 0.000000 0.000000 0.032194 0.000000 0.000443
# 5 0.001399 0.001133 0.001961 0.000000 0.050135 0.000000
# 6 0.000000 0.000000 0.000000 0.000443 0.000000 0.026957
#
#
# Mechanical properties :
#
#
# Convention : Reuss Voigt Hill
#
# Bulk Modulus (GPa) = 47.74656 53.20411 50.47533
# Shear Modulus (GPa) = 33.22671 38.26380 35.74525
#
# Velocity S-wave (km/s) = 4.05876 4.35555 4.20977
# Velocity P-wave (km/s) = 6.75551 7.18836 6.97530
#
# Compressibility (1/GPa) = 0.02094392
#
# Stress axis : x y z
#
# Youngs Moduli (GPa) = 120.36544 92.49759 118.19617
#
# Poissons Ratio (x) = 0.02841 0.32727
# Poissons Ratio (y) = 0.03697 0.02859
# Poissons Ratio (z) = 0.33328 0.02237
#
# Static dielectric constant tensor:
#      x y z
#    x 3.587240 0.000000 0.055310 
#    y 0.000000 3.657010 0.000000 
#    z 0.055310 0.000000 3.688270 
# 
# 
# High freq. dielectric constant tensor:
#      x y z
#    x 1.798620 0.000000 -0.000640 
#    y 0.000000 1.808700 0.000000 
#    z -0.000640 0.000000 1.788660 
# 
# From -- ./inp_files/338314.got.cif
#   From: 2010.06.25/outbox.cif.g09.slc.cpg/sg12_170_cif.got.tgz:338314.got - 2010.06.28 00:19:55.
