data_PCOD8115470
_publ_section_title
;
Structure prediction by ZEFSAII (Michael W. Deem and Ramdas Pophale) SiO2 
 PCOD8115470
Probable space group: C 2/M
;
_chemical_formula_sum "Si O2"
_cell_formula_units_Z 48
_cell_length_a 14.620308
_cell_length_b 25.034316
_cell_length_c 12.167172
_cell_angle_alpha 90.000000
_cell_angle_beta 151.577678
_cell_angle_gamma 90.000000
_cell_volume 2119.623034
_symmetry_space_group_name_H-M "C 2/M"
_symmetry_group_IT_number 12
_symmetry_cell_setting 'monoclinic'
loop_
_space_group_symop_operation_xyz
x,y,z
-x,y,-z
-x,-y,-z
x,-y,z
1/2+x,1/2+y,z
1/2-x,1/2+y,-z
1/2-x,1/2-y,-z
1/2+x,1/2-y,z
loop_
_atom_site_type_symbol
_atom_site_label
_atom_site_fract_x
_atom_site_fract_y
_atom_site_fract_z
Si Si1 0.134916 0.299836 0.057426
Si Si2 0.802082 0.082512 0.578133
Si Si3 0.697058 0.399439 0.671999
Si Si4 0.416640 0.500000 0.033022
Si Si5 0.500094 0.000000 0.325274
Si Si6 0.647729 0.197060 0.436309
Si Si7 0.333391 0.000000 0.912692
Si Si8 0.500000 0.762023 0.500000
O O1 0.145354 0.355146 0.136929
O O2 0.341838 0.272304 0.266153
O O3 0.000000 0.265412 0.000000
O O4 0.042366 0.310677 0.839976
O O5 0.776725 0.075596 0.421097
O O6 0.793192 0.146478 0.587362
O O7 0.004870 0.054456 0.825277
O O8 0.634284 0.052982 0.471579
O O9 0.500000 0.370740 0.500000
O O10 0.705831 0.447782 0.766519
O O11 0.500000 0.500000 0.000000
O O12 0.179966 0.500000 0.778116
O O13 0.401316 0.000000 0.106066
O O14 0.750000 0.250000 0.500000
O O15 0.594215 0.201296 0.506982
O O16 0.500000 0.000000 0.000000
#
# Coordination Sequence:
#
# PCOD8115470 Si02
#       8
#     8   8   8   4   4   8   4   4
#     4  12  23  46  71  98 141 190 235 296 360 435
#     4  11  24  46  70 101 144 182 240 304 361 432
#     4  12  22  38  66 100 140 182 228 287 361 433
#     4  11  27  50  73 101 139 195 255 303 360 436
#     4  11  23  44  69 101 137 183 229 291 360 421
#     4  12  26  47  73 107 146 190 245 302 370 443
#     4  12  19  33  61 101 136 168 210 275 350 428
#     4  12  26  48  70 102 140 192 240 304 364 432
#
# _framework density 22.645534999999999
#
# number of rings (size 3 to 8) (size 9 to 14) (size 15 to 20)
#    0.000    0.333    5.833    3.750    0.000    2.667 
#    6.000    0.000    0.000    0.000    0.000    0.000 
#    0.000    0.000    0.000    0.000    0.000    0.000 
#
# Total GULP energy -297381.229412 kJ/mol
# GULP energy per Si atom -12390.884559 kJ/mol
# Density = 2.259399 g / cm^3
# Si number density = 22.645535 Si / 1000 Ang^3
#
#
#
# Elastic Constant Matrix: (Units=GPa)
#
#
# Indices 1 2 3 4 5 6 
#
# 1 106.2461 10.7691 6.0777 0.0000 8.7757 0.0000
# 2 10.7691 119.1335 17.2959 0.0000 13.2433 0.0000
# 3 6.0777 17.2959 72.3922 0.0000 15.8632 0.0000
# 4 0.0000 0.0000 0.0000 40.7179 0.0000 0.7511
# 5 8.7757 13.2433 15.8632 0.0000 44.8706 0.0000
# 6 0.0000 0.0000 0.0000 0.7511 0.0000 29.9653
#
#
#
# Elastic Compliance Matrix: (Units=1/GPa)
#
#
# Indices 1 2 3 4 5 6 
#
# 1 0.009626 -0.000650 -0.000306 0.000000 -0.001583 0.000000
# 2 -0.000650 0.008906 -0.001653 0.000000 -0.001917 0.000000
# 3 -0.000306 -0.001653 0.015300 0.000000 -0.004861 0.000000
# 4 0.000000 0.000000 0.000000 0.024571 0.000000 -0.000616
# 5 -0.001583 -0.001917 -0.004861 0.000000 0.024880 0.000000
# 6 0.000000 0.000000 0.000000 -0.000616 0.000000 0.033387
#
#
# Mechanical properties :
#
#
# Convention : Reuss Voigt Hill
#
# Bulk Modulus (GPa) = 34.94866 40.67302 37.81084
# Shear Modulus (GPa) = 38.04437 40.68604 39.36521
#
# Velocity S-wave (km/s) = 4.10322 4.24329 4.17384
# Velocity P-wave (km/s) = 6.15751 6.48128 6.32147
#
# Compressibility (1/GPa) = 0.02861340
#
# Stress axis : x y z
#
# Youngs Moduli (GPa) = 103.88309 112.28658 65.36159
#
# Poissons Ratio (x) = 0.07296 0.02001
# Poissons Ratio (y) = 0.06750 0.10805
# Poissons Ratio (z) = 0.03180 0.18563
#
# Static dielectric constant tensor:
#      x y z
#    x 3.647090 0.000000 -0.148000 
#    y 0.000000 3.988210 0.000000 
#    z -0.148000 0.000000 4.192730 
# 
# 
# High freq. dielectric constant tensor:
#      x y z
#    x 1.897150 0.000000 0.008430 
#    y 0.000000 1.885520 0.000000 
#    z 0.008430 0.000000 1.899370 
# 
# From -- ./inp_files/149935.got.cif
#   From: 2010.06.25/outbox.cif.g09.slc.cpg/sg12_75_cif.got.tgz:149935.got - 2010.06.28 00:19:55.
