data_PCOD8115443
_publ_section_title
;
Structure prediction by ZEFSAII (Michael W. Deem and Ramdas Pophale) SiO2 
 PCOD8115443
Probable space group: C 2/M
;
_chemical_formula_sum "Si O2"
_cell_formula_units_Z 40
_cell_length_a 10.149434
_cell_length_b 14.895396
_cell_length_c 13.530581
_cell_angle_alpha 90.000000
_cell_angle_beta 104.607748
_cell_angle_gamma 90.000000
_cell_volume 1979.428767
_symmetry_space_group_name_H-M "C 2/M"
_symmetry_group_IT_number 12
_symmetry_cell_setting 'monoclinic'
loop_
_space_group_symop_operation_xyz
x,y,z
-x,y,-z
-x,-y,-z
x,-y,z
1/2+x,1/2+y,z
1/2-x,1/2+y,-z
1/2-x,1/2-y,-z
1/2+x,1/2-y,z
loop_
_atom_site_type_symbol
_atom_site_label
_atom_site_fract_x
_atom_site_fract_y
_atom_site_fract_z
Si Si1 0.267769 0.000000 0.454538
Si Si2 0.008963 0.500000 0.346046
Si Si3 0.441237 0.183060 0.744467
Si Si4 0.184855 0.900898 0.779767
Si Si5 0.607558 0.713816 0.934055
Si Si6 0.550329 0.654889 0.400551
O O1 0.379871 0.000000 0.391744
O O2 0.343936 0.000000 0.573713
O O3 0.181696 0.091237 0.431011
O O4 0.998510 0.589109 0.279538
O O5 0.296273 0.172308 0.770101
O O6 0.549687 0.215464 0.844809
O O7 0.417760 0.252469 0.650154
O O8 0.130645 0.878989 0.879454
O O9 0.063814 0.900965 0.678044
O O10 0.250037 0.000000 0.793727
O O11 0.500000 0.695388 0.000000
O O12 0.750000 0.750000 0.000000
O O13 0.500000 0.680805 0.500000
#
# Coordination Sequence:
#
# PCOD8115443 Si02
#       6
#     4   4   8   8   8   8
#     4  11  25  42  64  95 138 183 227 272 327 398
#     4  11  26  42  63  99 140 175 228 278 325 400
#     4  11  25  43  69  97 138 175 224 275 340 401
#     4  11  23  43  69 100 132 172 221 278 334 403
#     4  11  24  46  71  98 131 172 222 283 344 403
#     4  11  25  41  67  95 137 181 222 270 332 396
#
# _framework density 20.207851000000002
#
# number of rings (size 3 to 8) (size 9 to 14) (size 15 to 20)
#    0.000    1.000    4.000    1.500    8.400    2.000 
#    1.800    1.500    0.000    0.000    0.000    0.000 
#    0.000    0.000    0.000    0.000    0.000    0.000 
#
# Total GULP energy -248063.480563 kJ/mol
# GULP energy per Si atom -12403.174028 kJ/mol
# Density = 2.016186 g / cm^3
# Si number density = 20.207851 Si / 1000 Ang^3
#
#
#
# Elastic Constant Matrix: (Units=GPa)
#
#
# Indices 1 2 3 4 5 6 
#
# 1 129.5272 48.7395 60.6343 0.0000 -2.0738 0.0000
# 2 48.7395 148.2344 59.8212 0.0000 -10.3901 0.0000
# 3 60.6343 59.8212 141.2975 0.0000 -7.8261 0.0000
# 4 0.0000 0.0000 0.0000 -18.1187 0.0000 3.3863
# 5 -2.0738 -10.3901 -7.8261 0.0000 37.9638 0.0000
# 6 0.0000 0.0000 0.0000 3.3863 0.0000 36.6157
#
#
#
# Elastic Compliance Matrix: (Units=1/GPa)
#
#
# Indices 1 2 3 4 5 6 
#
# 1 0.010102 -0.001937 -0.003554 0.000000 -0.000711 0.000000
# 2 -0.001937 0.008597 -0.002715 0.000000 0.001687 0.000000
# 3 -0.003554 -0.002715 0.009812 0.000000 0.001086 0.000000
# 4 0.000000 0.000000 0.000000 -0.054254 0.000000 0.005017
# 5 -0.000711 0.001687 0.001086 0.000000 0.026988 0.000000
# 6 0.000000 0.000000 0.000000 0.005017 0.000000 0.026847
#
#
# Mechanical properties :
#
#
# Convention : Reuss Voigt Hill
#
# Bulk Modulus (GPa) = 82.65660 84.16101 83.40880
# Shear Modulus (GPa) = 103.01629 27.94977 65.48303
#
# Velocity S-wave (km/s) = 7.14766 3.72306 5.69869
# Velocity P-wave (km/s) = 10.44561 7.76013 9.20137
#
# Compressibility (1/GPa) = 0.01209825
#
# Stress axis : x y z
#
# Youngs Moduli (GPa) = 98.99377 116.32146 101.91548
#
# Poissons Ratio (x) = 0.22531 0.36223
# Poissons Ratio (y) = 0.19174 0.27670
# Poissons Ratio (z) = 0.35185 0.31581
#
# Static dielectric constant tensor:
#      x y z
#    x 3.809120 0.000000 -0.087750 
#    y 0.000000 3.601540 0.000000 
#    z -0.087750 0.000000 3.858790 
# 
# 
# High freq. dielectric constant tensor:
#      x y z
#    x 1.804510 0.000000 -0.005830 
#    y 0.000000 1.791730 0.000000 
#    z -0.005830 0.000000 1.798850 
# 
# From -- ./inp_files/119166.got.cif
#   From: 2010.06.25/outbox.cif.g09.slc.cpg/sg12_60_cif.got.tgz:119166.got - 2010.06.28 00:19:55.
