data_PCOD8115517
_publ_section_title
;
Structure prediction by ZEFSAII (Michael W. Deem and Ramdas Pophale) SiO2 
 PCOD8115517
Probable space group: C 2/M
;
_chemical_formula_sum "Si O2"
_cell_formula_units_Z 48
_cell_length_a 23.867969
_cell_length_b 8.989929
_cell_length_c 12.034692
_cell_angle_alpha 90.000000
_cell_angle_beta 91.140850
_cell_angle_gamma 90.000000
_cell_volume 2581.788182
_symmetry_space_group_name_H-M "C 2/M"
_symmetry_group_IT_number 12
_symmetry_cell_setting 'monoclinic'
loop_
_space_group_symop_operation_xyz
x,y,z
-x,y,-z
-x,-y,-z
x,-y,z
1/2+x,1/2+y,z
1/2-x,1/2+y,-z
1/2-x,1/2-y,-z
1/2+x,1/2-y,z
loop_
_atom_site_type_symbol
_atom_site_label
_atom_site_fract_x
_atom_site_fract_y
_atom_site_fract_z
Si Si1 0.165407 0.824859 0.020072
Si Si2 0.455196 0.677537 0.909560
Si Si3 0.792332 0.675940 0.416777
Si Si4 0.228408 0.325860 0.834804
Si Si5 0.410080 0.676026 0.462550
Si Si6 0.984072 0.175821 0.669580
O O1 0.105895 0.762580 0.058998
O O2 0.211264 0.778511 0.113913
O O3 0.163134 0.000000 0.002826
O O4 0.179350 0.754456 0.901386
O O5 0.455405 0.500000 0.905381
O O6 0.471381 0.744778 0.789873
O O7 0.500000 0.737468 0.000000
O O8 0.789511 0.500000 0.431268
O O9 0.750000 0.750000 0.500000
O O10 0.774071 0.725256 0.292637
O O11 0.854445 0.731480 0.442436
O O12 0.218326 0.500000 0.846573
O O13 0.397327 0.500000 0.458738
O O14 0.435901 0.725564 0.581858
O O15 0.454253 0.724171 0.368957
O O16 0.983030 0.000000 0.675188
#
# Coordination Sequence:
#
# PCOD8115517 Si02
#       6
#     8   8   8   8   8   8
#     4   9  18  33  56  80 103 138 177 216 262 312
#     4   9  17  27  47  81 111 132 168 219 260 304
#     4  11  24  38  55  80 108 142 181 224 271 318
#     4   9  20  37  54  75 106 141 173 214 270 320
#     4   9  18  34  57  80 105 141 180 220 264 317
#     4   8  16  31  52  79 109 142 176 213 266 319
#
# _framework density 18.591766
#
# number of rings (size 3 to 8) (size 9 to 14) (size 15 to 20)
#    0.000    2.833    0.000    1.500    4.667    1.333 
#    0.000    1.667    0.000    1.500    0.000    0.000 
#    0.000    0.000    0.000    0.000    0.000    0.000 
#
# Total GULP energy -297576.993189 kJ/mol
# GULP energy per Si atom -12399.041383 kJ/mol
# Density = 1.854945 g / cm^3
# Si number density = 18.591766 Si / 1000 Ang^3
#
#
#
# Elastic Constant Matrix: (Units=GPa)
#
#
# Indices 1 2 3 4 5 6 
#
# 1 164.0153 35.5700 102.5390 0.0000 -12.5089 0.0000
# 2 35.5700 30.0216 40.5716 0.0000 -2.6973 0.0000
# 3 102.5390 40.5716 192.0240 0.0000 -15.6423 0.0000
# 4 0.0000 0.0000 0.0000 21.8658 0.0000 -0.5933
# 5 -12.5089 -2.6973 -15.6423 0.0000 28.0690 0.0000
# 6 0.0000 0.0000 0.0000 -0.5933 0.0000 28.3760
#
#
#
# Elastic Compliance Matrix: (Units=1/GPa)
#
#
# Indices 1 2 3 4 5 6 
#
# 1 0.010053 -0.006565 -0.003842 0.000000 0.001708 0.000000
# 2 -0.006565 0.050939 -0.007434 0.000000 -0.002174 0.000000
# 3 -0.003842 -0.007434 0.009043 0.000000 0.002613 0.000000
# 4 0.000000 0.000000 0.000000 0.045759 0.000000 0.000957
# 5 0.001708 -0.002174 0.002613 0.000000 0.037635 0.000000
# 6 0.000000 0.000000 0.000000 0.000957 0.000000 0.035261
#
#
# Mechanical properties :
#
#
# Convention : Reuss Voigt Hill
#
# Bulk Modulus (GPa) = 29.10995 82.60243 55.85619
# Shear Modulus (GPa) = 21.20231 29.48751 25.34491
#
# Velocity S-wave (km/s) = 3.38067 3.98685 3.69620
# Velocity P-wave (km/s) = 5.56147 8.10674 6.95159
#
# Compressibility (1/GPa) = 0.03435252
#
# Stress axis : x y z
#
# Youngs Moduli (GPa) = 99.47307 19.63130 110.58668
#
# Poissons Ratio (x) = 0.12889 0.42486
# Poissons Ratio (y) = 0.65309 0.82208
# Poissons Ratio (z) = 0.38216 0.14593
#
# Static dielectric constant tensor:
#      x y z
#    x 3.551260 0.000000 -0.092780 
#    y 0.000000 3.003080 0.000000 
#    z -0.092780 0.000000 3.891620 
# 
# 
# High freq. dielectric constant tensor:
#      x y z
#    x 1.731530 0.000000 -0.002000 
#    y 0.000000 1.678460 0.000000 
#    z -0.002000 0.000000 1.734420 
# 
# From -- ./inp_files/172275.got.cif
#   From: 2010.06.25/outbox.cif.g09.slc.cpg/sg12_87_cif.got.tgz:172275.got - 2010.06.28 00:19:55.
