data_PCOD8115732
_publ_section_title
;
Structure prediction by ZEFSAII (Michael W. Deem and Ramdas Pophale) SiO2 
 PCOD8115732
Probable space group: C 2/M
;
_chemical_formula_sum "Si O2"
_cell_formula_units_Z 56
_cell_length_a 27.599838
_cell_length_b 14.267844
_cell_length_c 8.771806
_cell_angle_alpha 90.000000
_cell_angle_beta 53.071949
_cell_angle_gamma 90.000000
_cell_volume 2761.295877
_symmetry_space_group_name_H-M "C 2/M"
_symmetry_group_IT_number 12
_symmetry_cell_setting 'monoclinic'
loop_
_space_group_symop_operation_xyz
x,y,z
-x,y,-z
-x,-y,-z
x,-y,z
1/2+x,1/2+y,z
1/2-x,1/2+y,-z
1/2-x,1/2-y,-z
1/2+x,1/2-y,z
loop_
_atom_site_type_symbol
_atom_site_label
_atom_site_fract_x
_atom_site_fract_y
_atom_site_fract_z
Si Si1 0.401920 0.286415 0.513357
Si Si2 0.222777 0.107696 0.758194
Si Si3 0.343014 0.105528 0.135840
Si Si4 0.861372 0.605659 0.454768
Si Si5 0.120279 0.784813 0.092348
Si Si6 0.295387 0.607689 0.552963
Si Si7 0.987893 0.108437 0.845567
O O1 0.406777 0.178273 0.450077
O O2 0.401689 0.291917 0.694576
O O3 0.340565 0.328541 0.561767
O O4 0.459736 0.343089 0.349750
O O5 0.294085 0.122252 0.648166
O O6 0.203745 0.139905 0.624451
O O7 0.205052 0.000000 0.817495
O O8 0.187241 0.171169 0.946747
O O9 0.362347 0.122698 0.272826
O O10 0.271292 0.121530 0.252391
O O11 0.359940 0.000000 0.053605
O O12 0.379259 0.176273 0.958928
O O13 0.882924 0.500000 0.451393
O O14 0.075874 0.843572 0.068624
O O15 0.316130 0.500000 0.526742
O O16 0.985013 0.000000 0.803904
O O17 0.000000 0.121147 0.000000
#
# Coordination Sequence:
#
# PCOD8115732 Si02
#       7
#     8   8   8   8   8   8   8
#     4  12  24  36  55  85 119 150 181 228 289 342
#     4   9  18  34  57  84 114 151 194 234 272 323
#     4   9  19  37  60  84 112 150 195 236 271 319
#     4   9  19  37  60  84 112 150 195 236 271 319
#     4  12  24  36  55  85 119 150 181 228 289 342
#     4   9  18  34  57  84 114 151 194 234 272 323
#     4  11  25  45  66  83 104 143 193 236 272 323
#
# _framework density 20.280331
#
# number of rings (size 3 to 8) (size 9 to 14) (size 15 to 20)
#    0.000    1.857    0.000    6.429    0.000   10.286 
#    0.000    3.571    0.000    4.286    0.000    0.000 
#    0.000    0.000    0.000    0.000    0.000    0.000 
#
# Total GULP energy -347303.992359 kJ/mol
# GULP energy per Si atom -12403.714013 kJ/mol
# Density = 2.023417 g / cm^3
# Si number density = 20.280331 Si / 1000 Ang^3
#
#
#
# Elastic Constant Matrix: (Units=GPa)
#
#
# Indices 1 2 3 4 5 6 
#
# 1 16.4120 16.0919 5.2759 0.0000 -3.4445 0.0000
# 2 16.0919 124.4661 55.6869 0.0000 -5.8058 0.0000
# 3 5.2759 55.6869 105.8949 0.0000 1.2925 0.0000
# 4 0.0000 0.0000 0.0000 29.1012 0.0000 -11.8418
# 5 -3.4445 -5.8058 1.2925 0.0000 14.8273 0.0000
# 6 0.0000 0.0000 0.0000 -11.8418 0.0000 13.8850
#
#
#
# Elastic Compliance Matrix: (Units=1/GPa)
#
#
# Indices 1 2 3 4 5 6 
#
# 1 0.072386 -0.009235 0.001090 0.000000 0.013105 0.000000
# 2 -0.009235 0.012007 -0.005892 0.000000 0.003070 0.000000
# 3 0.001090 -0.005892 0.012526 0.000000 -0.003146 0.000000
# 4 0.000000 0.000000 0.000000 0.052626 0.000000 0.044883
# 5 0.013105 0.003070 -0.003146 0.000000 0.071964 0.000000
# 6 0.000000 0.000000 0.000000 0.044883 0.000000 0.110299
#
#
# Mechanical properties :
#
#
# Convention : Reuss Voigt Hill
#
# Bulk Modulus (GPa) = 14.52522 44.54249 29.53385
# Shear Modulus (GPa) = 13.06064 22.87725 17.96894
#
# Velocity S-wave (km/s) = 2.54048 3.36229 2.97985
# Velocity P-wave (km/s) = 3.97280 6.08970 5.14138
#
# Compressibility (1/GPa) = 0.06884577
#
# Stress axis : x y z
#
# Youngs Moduli (GPa) = 13.81482 83.28143 79.83596
#
# Poissons Ratio (x) = 0.76911 -0.08703
# Poissons Ratio (y) = 0.12758 0.47037
# Poissons Ratio (z) = -0.01506 0.49067
#
# Static dielectric constant tensor:
#      x y z
#    x 3.490410 0.000000 -0.024150 
#    y 0.000000 3.932810 0.000000 
#    z -0.024150 0.000000 3.498870 
# 
# 
# High freq. dielectric constant tensor:
#      x y z
#    x 1.770310 0.000000 0.000630 
#    y 0.000000 1.811960 0.000000 
#    z 0.000630 0.000000 1.781250 
# 
# From -- ./inp_files/111566.got.cif
#   From: 2010.06.25/outbox.cif.g09.slc.cpg/sg12_56_cif.got.tgz:111566.got - 2010.06.28 00:19:55.
