data_PCOD8115598
_publ_section_title
;
Structure prediction by ZEFSAII (Michael W. Deem and Ramdas Pophale) SiO2 
 PCOD8115598
Probable space group: C 2/M
;
_chemical_formula_sum "Si O2"
_cell_formula_units_Z 56
_cell_length_a 19.286543
_cell_length_b 8.494313
_cell_length_c 16.738122
_cell_angle_alpha 90.000000
_cell_angle_beta 72.834245
_cell_angle_gamma 90.000000
_cell_volume 2619.989710
_symmetry_space_group_name_H-M "C 2/M"
_symmetry_group_IT_number 12
_symmetry_cell_setting 'monoclinic'
loop_
_space_group_symop_operation_xyz
x,y,z
-x,y,-z
-x,-y,-z
x,-y,z
1/2+x,1/2+y,z
1/2-x,1/2+y,-z
1/2-x,1/2-y,-z
1/2+x,1/2-y,z
loop_
_atom_site_type_symbol
_atom_site_label
_atom_site_fract_x
_atom_site_fract_y
_atom_site_fract_z
Si Si1 0.293058 0.816958 0.138920
Si Si2 0.625603 0.183893 0.439040
Si Si3 0.560732 0.320486 0.304853
Si Si4 0.103993 0.178908 0.618388
Si Si5 0.420633 0.316434 0.999112
Si Si6 0.230192 0.318099 0.671192
Si Si7 0.851176 0.318264 0.866968
O O1 0.274715 0.765832 0.235238
O O2 0.223851 0.779190 0.106875
O O3 0.312171 0.000000 0.125492
O O4 0.363078 0.718758 0.088309
O O5 0.575880 0.259092 0.388094
O O6 0.602668 0.266546 0.528059
O O7 0.710192 0.212193 0.392726
O O8 0.609805 0.000000 0.451059
O O9 0.588512 0.500000 0.287287
O O10 0.475628 0.308379 0.316637
O O11 0.603085 0.213952 0.227894
O O12 0.153961 0.291773 0.654033
O O13 0.132529 0.000000 0.613005
O O14 0.421802 0.500000 0.978441
O O15 0.399331 0.224112 0.926709
O O16 0.500000 0.258823 0.000000
O O17 0.252636 0.500000 0.656576
O O18 0.829934 0.500000 0.877157
#
# Coordination Sequence:
#
# PCOD8115598 Si02
#       7
#     8   8   8   8   8   8   8
#     4  11  24  44  70  98 132 173 218 268 320 383
#     4  12  24  41  66  95 129 170 221 272 323 386
#     4  11  24  43  66  95 131 172 218 267 325 387
#     4  11  25  42  64  92 131 175 217 271 330 387
#     4  11  26  46  70 100 136 173 212 262 321 385
#     4  11  24  42  66  95 131 172 218 271 324 384
#     4  12  25  43  70  99 132 172 217 267 320 384
#
# _framework density 21.374129
#
# number of rings (size 3 to 8) (size 9 to 14) (size 15 to 20)
#    0.000    0.714    1.429    6.000    2.000    6.857 
#    0.000    0.000    0.000    0.000    0.000    0.000 
#    0.000    0.000    0.000    0.000    0.000    0.000 
#
# Total GULP energy -347455.107216 kJ/mol
# GULP energy per Si atom -12409.110972 kJ/mol
# Density = 2.132548 g / cm^3
# Si number density = 21.374129 Si / 1000 Ang^3
#
#
#
# Elastic Constant Matrix: (Units=GPa)
#
#
# Indices 1 2 3 4 5 6 
#
# 1 102.7134 3.3498 31.0850 0.0000 -10.4567 0.0000
# 2 3.3498 65.9384 9.1917 0.0000 -7.2399 0.0000
# 3 31.0850 9.1917 90.6655 0.0000 0.6146 0.0000
# 4 0.0000 0.0000 0.0000 36.5482 0.0000 1.0948
# 5 -10.4567 -7.2399 0.6146 0.0000 30.6537 0.0000
# 6 0.0000 0.0000 0.0000 1.0948 0.0000 35.4560
#
#
#
# Elastic Compliance Matrix: (Units=1/GPa)
#
#
# Indices 1 2 3 4 5 6 
#
# 1 0.011331 0.000420 -0.003955 0.000000 0.004044 0.000000
# 2 0.000420 0.015822 -0.001774 0.000000 0.003916 0.000000
# 3 -0.003955 -0.001774 0.012579 0.000000 -0.002020 0.000000
# 4 0.000000 0.000000 0.000000 0.027386 0.000000 -0.000846
# 5 0.004044 0.003916 -0.002020 0.000000 0.034967 0.000000
# 6 0.000000 0.000000 0.000000 -0.000846 0.000000 0.028230
#
#
# Mechanical properties :
#
#
# Convention : Reuss Voigt Hill
#
# Bulk Modulus (GPa) = 34.34974 38.50782 36.42878
# Shear Modulus (GPa) = 33.19216 34.91097 34.05156
#
# Velocity S-wave (km/s) = 3.94498 4.04583 3.99572
# Velocity P-wave (km/s) = 6.07092 6.31508 6.19420
#
# Compressibility (1/GPa) = 0.02911230
#
# Stress axis : x y z
#
# Youngs Moduli (GPa) = 88.25632 63.20469 79.49744
#
# Poissons Ratio (x) = -0.02652 0.31439
# Poissons Ratio (y) = -0.03703 0.14106
# Poissons Ratio (z) = 0.34903 0.11215
#
# Static dielectric constant tensor:
#      x y z
#    x 3.943540 0.000000 -0.014150 
#    y 0.000000 3.889260 0.000000 
#    z -0.014150 0.000000 3.962200 
# 
# 
# High freq. dielectric constant tensor:
#      x y z
#    x 1.851050 0.000000 -0.000840 
#    y 0.000000 1.847700 0.000000 
#    z -0.000840 0.000000 1.846550 
# 
# From -- ./inp_files/275179.got.cif
#   From: 2010.06.25/outbox.cif.g09.slc.cpg/sg12_138_cif.got.tgz:275179.got - 2010.06.28 00:19:55.
