data_PCOD8115047
_publ_section_title
;
Structure prediction by ZEFSAII (Michael W. Deem and Ramdas Pophale) SiO2 
 PCOD8115047
Probable space group: C 2/M
;
_chemical_formula_sum "Si O2"
_cell_formula_units_Z 28
_cell_length_a 12.199863
_cell_length_b 21.818778
_cell_length_c 9.031821
_cell_angle_alpha 90.000000
_cell_angle_beta 35.397097
_cell_angle_gamma 90.000000
_cell_volume 1392.576774
_symmetry_space_group_name_H-M "C 2/M"
_symmetry_group_IT_number 12
_symmetry_cell_setting 'monoclinic'
loop_
_space_group_symop_operation_xyz
x,y,z
-x,y,-z
-x,-y,-z
x,-y,z
1/2+x,1/2+y,z
1/2-x,1/2+y,-z
1/2-x,1/2-y,-z
1/2+x,1/2-y,z
loop_
_atom_site_type_symbol
_atom_site_label
_atom_site_fract_x
_atom_site_fract_y
_atom_site_fract_z
Si Si1 0.707706 0.608646 0.815514
Si Si2 0.000000 0.656981 0.000000
Si Si3 0.714706 0.754225 0.214626
Si Si4 0.975725 0.430551 0.755975
O O1 0.709748 0.681994 0.803470
O O2 0.771996 0.588209 0.909903
O O3 0.856150 0.576173 0.545441
O O4 0.500000 0.584461 0.000000
O O5 0.183130 0.699263 0.813606
O O6 0.029873 0.614512 0.826913
O O7 0.500000 0.747777 0.500000
O O8 0.750000 0.750000 0.000000
O O9 0.964263 0.500000 0.826597
#
# Coordination Sequence:
#
# PCOD8115047 Si02
#       4
#     8   4   8   8
#     4  11  22  41  68  95 127 171 221 270 326 386
#     4  12  25  40  70  98 135 170 214 278 342 386
#     4  12  24  41  66 101 138 167 216 278 340 398
#     4  11  25  44  63  94 134 178 223 262 320 400
#
# _framework density 20.106611000000001
#
# number of rings (size 3 to 8) (size 9 to 14) (size 15 to 20)
#    0.000    0.571    7.143    2.143    4.000    4.571 
#    0.000    0.000    0.000    5.143    0.000    0.000 
#    0.000    0.000    0.000    0.000    0.000    0.000 
#
# Total GULP energy -173609.445310 kJ/mol
# GULP energy per Si atom -12400.674665 kJ/mol
# Density = 2.006085 g / cm^3
# Si number density = 20.106611 Si / 1000 Ang^3
#
#
#
# Elastic Constant Matrix: (Units=GPa)
#
#
# Indices 1 2 3 4 5 6 
#
# 1 140.3028 47.4827 53.8845 0.0000 -15.8027 0.0002
# 2 47.4827 149.3960 18.9240 0.0000 -4.2287 0.0001
# 3 53.8845 18.9240 95.9265 0.0000 -17.0117 0.0002
# 4 0.0000 0.0000 0.0000 25.9247 0.0000 17.8394
# 5 -15.8027 -4.2287 -17.0117 0.0000 36.0682 -0.0002
# 6 0.0002 0.0001 0.0002 17.8394 -0.0002 37.8553
#
#
#
# Elastic Compliance Matrix: (Units=1/GPa)
#
#
# Indices 1 2 3 4 5 6 
#
# 1 0.010039 -0.002529 -0.004816 0.000000 0.001831 0.000000
# 2 -0.002529 0.007503 -0.000109 0.000000 -0.000280 0.000000
# 3 -0.004816 -0.000109 0.013941 0.000000 0.004453 0.000000
# 4 0.000000 0.000000 0.000000 0.057085 0.000000 -0.026901
# 5 0.001831 -0.000280 0.004453 0.000000 0.030595 0.000000
# 6 0.000000 0.000000 0.000000 -0.026901 0.000000 0.039094
#
#
# Mechanical properties :
#
#
# Convention : Reuss Voigt Hill
#
# Bulk Modulus (GPa) = 60.32988 69.57864 64.95426
# Shear Modulus (GPa) = 27.98161 37.65859 32.82010
#
# Velocity S-wave (km/s) = 3.73455 4.33245 4.04456
# Velocity P-wave (km/s) = 6.97610 7.72702 7.36114
#
# Compressibility (1/GPa) = 0.01657554
#
# Stress axis : x y z
#
# Youngs Moduli (GPa) = 99.61189 133.27460 71.73140
#
# Poissons Ratio (x) = 0.33704 0.34543
# Poissons Ratio (y) = 0.25191 0.00784
# Poissons Ratio (z) = 0.47969 0.01457
#
# Static dielectric constant tensor:
#      x y z
#    x 4.404230 0.000000 0.116300 
#    y 0.000000 3.857390 0.000000 
#    z 0.116300 0.000000 3.511730 
# 
# 
# High freq. dielectric constant tensor:
#      x y z
#    x 1.798510 0.000000 -0.005800 
#    y 0.000000 1.802880 0.000000 
#    z -0.005800 0.000000 1.767660 
# 
# From -- ./inp_files/5800.got.cif
#   From: 2010.06.25/outbox.cif.g09.slc.cpg/sg12_3_cif.got.tgz:5800.got - 2010.06.28 00:19:55.
