data_PCOD8115413
_publ_section_title
;
Structure prediction by ZEFSAII (Michael W. Deem and Ramdas Pophale) SiO2 
 PCOD8115413
Probable space group: C 2/M
;
_chemical_formula_sum "Si O2"
_cell_formula_units_Z 36
_cell_length_a 17.416706
_cell_length_b 14.950252
_cell_length_c 9.241324
_cell_angle_alpha 90.000000
_cell_angle_beta 42.123649
_cell_angle_gamma 90.000000
_cell_volume 1613.980506
_symmetry_space_group_name_H-M "C 2/M"
_symmetry_group_IT_number 12
_symmetry_cell_setting 'monoclinic'
loop_
_space_group_symop_operation_xyz
x,y,z
-x,y,-z
-x,-y,-z
x,-y,z
1/2+x,1/2+y,z
1/2-x,1/2+y,-z
1/2-x,1/2-y,-z
1/2+x,1/2-y,z
loop_
_atom_site_type_symbol
_atom_site_label
_atom_site_fract_x
_atom_site_fract_y
_atom_site_fract_z
Si Si1 0.170165 0.902840 0.034405
Si Si2 0.000000 0.852569 0.500000
Si Si3 0.090411 0.721638 0.608498
Si Si4 0.157056 0.236980 0.817277
Si Si5 0.119680 0.395599 0.069365
O O1 0.092198 0.912001 0.286690
O O2 0.170958 0.000000 0.956500
O O3 0.116381 0.828323 0.003914
O O4 0.298499 0.877405 0.906635
O O5 0.067855 0.793978 0.519513
O O6 0.071517 0.761253 0.798470
O O7 0.222990 0.694705 0.406074
O O8 0.007517 0.635980 0.706561
O O9 0.165548 0.337669 0.869119
O O10 0.118465 0.500000 0.027118
#
# Coordination Sequence:
#
# PCOD8115413 Si02
#       5
#     8   4   8   8   8
#     4  11  24  42  68  98 132 177 226 274 331 398
#     4  12  21  42  67  94 126 180 221 274 323 400
#     4  11  24  39  70  96 132 172 219 271 337 394
#     4  11  23  44  64  99 135 175 214 275 341 395
#     4  11  23  42  70 100 131 173 224 273 330 397
#
# _framework density 22.305101000000001
#
# number of rings (size 3 to 8) (size 9 to 14) (size 15 to 20)
#    0.000    0.889    4.444    3.000    0.000    2.667 
#    0.000    9.444    0.000    0.000    0.000    0.000 
#    0.000    0.000    0.000    0.000    0.000    0.000 
#
# Total GULP energy -223186.918220 kJ/mol
# GULP energy per Si atom -12399.273234 kJ/mol
# Density = 2.225433 g / cm^3
# Si number density = 22.305101 Si / 1000 Ang^3
#
#
#
# Elastic Constant Matrix: (Units=GPa)
#
#
# Indices 1 2 3 4 5 6 
#
# 1 110.8345 68.8496 4.8007 0.0000 15.3114 0.0000
# 2 68.8496 138.5515 33.3282 0.0000 8.7029 0.0000
# 3 4.8007 33.3282 78.2775 0.0000 4.3575 0.0000
# 4 0.0000 0.0000 0.0000 21.5193 0.0000 -6.9359
# 5 15.3114 8.7029 4.3575 0.0000 40.8247 0.0000
# 6 0.0000 0.0000 0.0000 -6.9359 0.0000 21.5784
#
#
#
# Elastic Compliance Matrix: (Units=1/GPa)
#
#
# Indices 1 2 3 4 5 6 
#
# 1 0.013998 -0.007302 0.002471 0.000000 -0.003957 0.000000
# 2 -0.007302 0.011925 -0.004668 0.000000 0.000695 0.000000
# 3 0.002471 -0.004668 0.014695 0.000000 -0.001500 0.000000
# 4 0.000000 0.000000 0.000000 0.051841 0.000000 0.016663
# 5 -0.003957 0.000695 -0.001500 0.000000 0.025991 0.000000
# 6 0.000000 0.000000 0.000000 0.016663 0.000000 0.051699
#
#
# Mechanical properties :
#
#
# Convention : Reuss Voigt Hill
#
# Bulk Modulus (GPa) = 46.25530 60.18006 53.21768
# Shear Modulus (GPa) = 25.46438 31.49683 28.48061
#
# Velocity S-wave (km/s) = 3.38248 3.76186 3.57720
# Velocity P-wave (km/s) = 6.00312 6.77552 6.40098
#
# Compressibility (1/GPa) = 0.02161915
#
# Stress axis : x y z
#
# Youngs Moduli (GPa) = 71.43982 83.85626 68.05208
#
# Poissons Ratio (x) = 0.61228 -0.16813
# Poissons Ratio (y) = 0.52162 0.31768
# Poissons Ratio (z) = -0.17650 0.39146
#
# Static dielectric constant tensor:
#      x y z
#    x 4.189250 0.000000 -0.086660 
#    y 0.000000 3.629900 0.000000 
#    z -0.086660 0.000000 4.261610 
# 
# 
# High freq. dielectric constant tensor:
#      x y z
#    x 1.894170 0.000000 -0.011850 
#    y 0.000000 1.854500 0.000000 
#    z -0.011850 0.000000 1.891710 
# 
# From -- ./inp_files/72775.got.cif
#   From: 2010.06.25/outbox.cif.g09.slc.cpg/sg12_37_cif.got.tgz:72775.got - 2010.06.28 00:19:55.
