data_PCOD8115537
_publ_section_title
;
Structure prediction by ZEFSAII (Michael W. Deem and Ramdas Pophale) SiO2 
 PCOD8115537
Probable space group: C 2/M
;
_chemical_formula_sum "Si O2"
_cell_formula_units_Z 48
_cell_length_a 26.884460
_cell_length_b 9.396210
_cell_length_c 11.231563
_cell_angle_alpha 90.000000
_cell_angle_beta 58.034005
_cell_angle_gamma 90.000000
_cell_volume 2406.997665
_symmetry_space_group_name_H-M "C 2/M"
_symmetry_group_IT_number 12
_symmetry_cell_setting 'monoclinic'
loop_
_space_group_symop_operation_xyz
x,y,z
-x,y,-z
-x,-y,-z
x,-y,z
1/2+x,1/2+y,z
1/2-x,1/2+y,-z
1/2-x,1/2-y,-z
1/2+x,1/2-y,z
loop_
_atom_site_type_symbol
_atom_site_label
_atom_site_fract_x
_atom_site_fract_y
_atom_site_fract_z
Si Si1 0.225333 0.837371 0.421926
Si Si2 0.390093 0.660570 0.307593
Si Si3 0.030188 0.663395 0.643119
Si Si4 0.311914 0.662277 0.189339
Si Si5 0.410210 0.165089 0.679706
Si Si6 0.809881 0.164102 0.924972
O O1 0.250000 0.750000 0.500000
O O2 0.155084 0.830012 0.523094
O O3 0.252351 0.758735 0.271622
O O4 0.247306 0.000000 0.396006
O O5 0.411168 0.500000 0.260309
O O6 0.447156 0.750468 0.270719
O O7 0.360659 0.718030 0.222045
O O8 0.040932 0.500000 0.658627
O O9 0.066095 0.706214 0.479893
O O10 0.961547 0.694532 0.710583
O O11 0.294968 0.500000 0.245262
O O12 0.336632 0.671680 0.024608
O O13 0.355385 0.265390 0.776798
O O14 0.390875 0.000000 0.709572
O O15 0.799257 0.000000 0.900143
O O16 0.750000 0.250000 0.000000
#
# Coordination Sequence:
#
# PCOD8115537 Si02
#       6
#     8   8   8   8   8   8
#     4   9  17  29  47  74 108 143 179 222 268 318
#     4   9  18  32  52  80 110 139 180 229 274 324
#     4   9  19  36  60  84 110 144 183 228 279 329
#     4   9  20  37  52  74 110 148 184 225 274 330
#     4   9  20  40  59  81 112 146 185 229 275 329
#     4  11  24  40  59  82 111 149 189 228 277 336
#
# _framework density 19.941856999999999
#
# number of rings (size 3 to 8) (size 9 to 14) (size 15 to 20)
#    0.000    2.667    0.000    3.000    2.333    6.000 
#    0.000    2.500    0.000    5.000    0.000    0.000 
#    0.000    0.000    0.000    0.000    0.000    0.000 
#
# Total GULP energy -297483.385054 kJ/mol
# GULP energy per Si atom -12395.141044 kJ/mol
# Density = 1.989647 g / cm^3
# Si number density = 19.941857 Si / 1000 Ang^3
#
#
#
# Elastic Constant Matrix: (Units=GPa)
#
#
# Indices 1 2 3 4 5 6 
#
# 1 84.8130 41.4899 10.7662 0.0000 -1.5874 0.0000
# 2 41.4899 97.7343 24.7169 0.0000 -10.4663 0.0000
# 3 10.7662 24.7169 49.5739 0.0000 -10.3213 0.0000
# 4 0.0000 0.0000 0.0000 27.4176 0.0000 -2.3706
# 5 -1.5874 -10.4663 -10.3213 0.0000 24.3192 0.0000
# 6 0.0000 0.0000 0.0000 -2.3706 0.0000 35.5215
#
#
#
# Elastic Compliance Matrix: (Units=1/GPa)
#
#
# Indices 1 2 3 4 5 6 
#
# 1 0.014967 -0.006454 -0.000447 0.000000 -0.001990 0.000000
# 2 -0.006454 0.014669 -0.005140 0.000000 0.003710 0.000000
# 3 -0.000447 -0.005140 0.024533 0.000000 0.008171 0.000000
# 4 0.000000 0.000000 0.000000 0.036685 0.000000 0.002448
# 5 -0.001990 0.003710 0.008171 0.000000 0.046054 0.000000
# 6 0.000000 0.000000 0.000000 0.002448 0.000000 0.028315
#
#
# Mechanical properties :
#
#
# Convention : Reuss Voigt Hill
#
# Bulk Modulus (GPa) = 33.23613 42.89636 38.06624
# Shear Modulus (GPa) = 25.08359 27.79489 26.43924
#
# Velocity S-wave (km/s) = 3.55045 3.73741 3.64513
# Velocity P-wave (km/s) = 5.78880 6.33890 6.07009
#
# Compressibility (1/GPa) = 0.03008774
#
# Stress axis : x y z
#
# Youngs Moduli (GPa) = 66.81199 68.17203 40.76200
#
# Poissons Ratio (x) = 0.43998 0.01822
# Poissons Ratio (y) = 0.43120 0.20950
# Poissons Ratio (z) = 0.02987 0.35037
#
# Static dielectric constant tensor:
#      x y z
#    x 3.533660 0.000000 0.046350 
#    y 0.000000 3.742890 0.000000 
#    z 0.046350 0.000000 3.771290 
# 
# 
# High freq. dielectric constant tensor:
#      x y z
#    x 1.770560 0.000000 0.009990 
#    y 0.000000 1.778870 0.000000 
#    z 0.009990 0.000000 1.756060 
# 
# From -- ./inp_files/179726.got.cif
#   From: 2010.06.25/outbox.cif.g09.slc.cpg/sg12_90_cif.got.tgz:179726.got - 2010.06.28 00:19:55.
