data_PCOD8115541
_publ_section_title
;
Structure prediction by ZEFSAII (Michael W. Deem and Ramdas Pophale) SiO2 
 PCOD8115541
Probable space group: C 2/M
;
_chemical_formula_sum "Si O2"
_cell_formula_units_Z 64
_cell_length_a 33.870479
_cell_length_b 8.866573
_cell_length_c 18.213033
_cell_angle_alpha 90.000000
_cell_angle_beta 143.828480
_cell_angle_gamma 90.000000
_cell_volume 3228.210964
_symmetry_space_group_name_H-M "C 2/M"
_symmetry_group_IT_number 12
_symmetry_cell_setting 'monoclinic'
loop_
_space_group_symop_operation_xyz
x,y,z
-x,y,-z
-x,-y,-z
x,-y,z
1/2+x,1/2+y,z
1/2-x,1/2+y,-z
1/2-x,1/2-y,-z
1/2+x,1/2-y,z
loop_
_atom_site_type_symbol
_atom_site_label
_atom_site_fract_x
_atom_site_fract_y
_atom_site_fract_z
Si Si1 0.433915 0.676160 0.856397
Si Si2 0.323783 0.173106 0.784945
Si Si3 0.060539 0.677504 0.291918
Si Si4 0.557561 0.825542 0.643912
Si Si5 0.329891 0.674163 0.275662
Si Si6 0.823747 0.672389 0.954771
Si Si7 0.556190 0.323433 0.794671
Si Si8 0.169579 0.825501 0.554975
O O1 0.434611 0.500000 0.838455
O O2 0.368690 0.713497 0.806019
O O3 0.429202 0.770255 0.775384
O O4 0.500000 0.724294 0.000000
O O5 0.337319 0.207602 0.890229
O O6 0.246538 0.204251 0.649682
O O7 0.342172 0.000000 0.794318
O O8 0.052783 0.500000 0.282353
O O9 0.124372 0.722971 0.435771
O O10 0.992795 0.748469 0.220478
O O11 0.500000 0.789350 0.500000
O O12 0.628149 0.777728 0.715820
O O13 0.539004 0.731073 0.687594
O O14 0.560886 0.000000 0.670504
O O15 0.348709 0.500000 0.291146
O O16 0.252939 0.703898 0.140530
O O17 0.344055 0.719450 0.381137
O O18 0.842555 0.500000 0.000760
O O19 0.867904 0.781279 0.071313
O O20 0.545699 0.500000 0.782812
O O21 0.151130 0.000000 0.514707
#
# Coordination Sequence:
#
# PCOD8115541 Si02
#       8
#     8   8   8   8   8   8   8   8
#     4  11  24  40  59  85 116 151 193 240 287 338
#     4   9  19  37  62  89 117 153 191 232 285 339
#     4  12  25  40  60  85 115 152 192 236 288 342
#     4  11  24  40  59  85 116 151 193 240 287 338
#     4   9  19  37  62  89 117 153 191 232 285 339
#     4   9  19  38  62  88 119 152 190 234 282 340
#     4  12  25  40  60  85 115 152 192 236 288 342
#     4   9  19  38  62  88 119 152 190 234 282 340
#
# _framework density 19.825223000000001
#
# number of rings (size 3 to 8) (size 9 to 14) (size 15 to 20)
#    0.000    1.750    0.000    6.000    0.000    9.000 
#    0.000    2.500    0.000    0.000    0.000    0.000 
#    0.000    0.000    0.000    0.000    0.000    0.000 
#
# Total GULP energy -396979.121867 kJ/mol
# GULP energy per Si atom -12405.597558 kJ/mol
# Density = 1.978010 g / cm^3
# Si number density = 19.825223 Si / 1000 Ang^3
#
#
#
# Elastic Constant Matrix: (Units=GPa)
#
#
# Indices 1 2 3 4 5 6 
#
# 1 73.1804 22.1592 7.3118 0.0000 11.7534 0.0000
# 2 22.1592 100.1701 36.1022 0.0000 0.1476 0.0000
# 3 7.3118 36.1022 83.0734 0.0000 1.0339 0.0000
# 4 0.0000 0.0000 0.0000 18.3760 0.0000 2.3840
# 5 11.7534 0.1476 1.0339 0.0000 25.1092 0.0000
# 6 0.0000 0.0000 0.0000 2.3840 0.0000 37.7218
#
#
#
# Elastic Compliance Matrix: (Units=1/GPa)
#
#
# Indices 1 2 3 4 5 6 
#
# 1 0.015926 -0.003605 0.000258 0.000000 -0.007444 0.000000
# 2 -0.003605 0.012654 -0.005204 0.000000 0.001827 0.000000
# 3 0.000258 -0.005204 0.014285 0.000000 -0.000678 0.000000
# 4 0.000000 0.000000 0.000000 0.054869 0.000000 -0.003468
# 5 -0.007444 0.001827 -0.000678 0.000000 0.043328 0.000000
# 6 0.000000 0.000000 0.000000 -0.003468 0.000000 0.026729
#
#
# Mechanical properties :
#
#
# Convention : Reuss Voigt Hill
#
# Bulk Modulus (GPa) = 38.81813 43.06337 40.94075
# Shear Modulus (GPa) = 25.84228 28.96479 27.40353
#
# Velocity S-wave (km/s) = 3.61433 3.82646 3.72190
# Velocity P-wave (km/s) = 6.08609 6.42581 6.25826
#
# Compressibility (1/GPa) = 0.02576116
#
# Stress axis : x y z
#
# Youngs Moduli (GPa) = 62.78901 79.02928 70.00309
#
# Poissons Ratio (x) = 0.28490 -0.01803
# Poissons Ratio (y) = 0.22635 0.36433
# Poissons Ratio (z) = -0.01617 0.41130
#
# Static dielectric constant tensor:
#      x y z
#    x 3.585240 0.000000 0.029920 
#    y 0.000000 3.532790 0.000000 
#    z 0.029920 0.000000 3.657570 
# 
# 
# High freq. dielectric constant tensor:
#      x y z
#    x 1.778770 0.000000 0.003690 
#    y 0.000000 1.772050 0.000000 
#    z 0.003690 0.000000 1.783930 
# 
# From -- ./inp_files/295772.got.cif
#   From: 2010.06.25/outbox.cif.g09.slc.cpg/sg12_148_cif.got.tgz:295772.got - 2010.06.28 00:19:55.
