data_PCOD8115458
_publ_section_title
;
Structure prediction by ZEFSAII (Michael W. Deem and Ramdas Pophale) SiO2 
 PCOD8115458
Probable space group: C 2/M
;
_chemical_formula_sum "Si O2"
_cell_formula_units_Z 40
_cell_length_a 10.102160
_cell_length_b 14.996532
_cell_length_c 22.250011
_cell_angle_alpha 90.000000
_cell_angle_beta 144.195862
_cell_angle_gamma 90.000000
_cell_volume 1971.983337
_symmetry_space_group_name_H-M "C 2/M"
_symmetry_group_IT_number 12
_symmetry_cell_setting 'monoclinic'
loop_
_space_group_symop_operation_xyz
x,y,z
-x,y,-z
-x,-y,-z
x,-y,z
1/2+x,1/2+y,z
1/2-x,1/2+y,-z
1/2-x,1/2-y,-z
1/2+x,1/2-y,z
loop_
_atom_site_type_symbol
_atom_site_label
_atom_site_fract_x
_atom_site_fract_y
_atom_site_fract_z
Si Si1 0.605989 0.655747 0.604334
Si Si2 0.758652 0.762117 0.932806
Si Si3 0.297801 0.321137 0.740636
Si Si4 0.383913 0.898055 0.207194
Si Si5 0.310487 0.500000 0.548403
Si Si6 0.187063 0.500000 0.640983
O O1 0.500000 0.674381 0.500000
O O2 0.627313 0.749228 0.647695
O O3 0.444744 0.589483 0.581885
O O4 0.846483 0.607591 0.687853
O O5 0.556517 0.707473 0.828450
O O6 0.714112 0.863854 0.893279
O O7 0.750000 0.750000 0.000000
O O8 0.000000 0.725033 0.000000
O O9 0.228987 0.334439 0.784436
O O10 0.304008 0.412606 0.708097
O O11 0.307997 0.000000 0.187890
O O12 0.229060 0.500000 0.586263
O O13 0.068557 0.500000 0.425937
#
# Coordination Sequence:
#
# PCOD8115458 Si02
#       6
#     8   8   8   8   4   4
#     4  11  25  41  67  96 136 181 223 268 330 400
#     4  11  24  46  71  98 132 172 224 282 342 397
#     4  11  25  43  69  97 137 173 223 275 340 396
#     4  11  23  43  71  99 131 176 223 277 331 403
#     4  11  25  42  64  94 137 180 224 271 325 399
#     4  11  26  42  63  97 137 174 224 274 328 395
#
# _framework density 20.284147000000001
#
# number of rings (size 3 to 8) (size 9 to 14) (size 15 to 20)
#    0.000    1.000    4.000    1.500    8.400    2.000 
#    1.800    0.500    0.000    0.000    0.000    0.000 
#    0.000    0.000    0.000    0.000    0.000    0.000 
#
# Total GULP energy -247971.925010 kJ/mol
# GULP energy per Si atom -12398.596251 kJ/mol
# Density = 2.023798 g / cm^3
# Si number density = 20.284147 Si / 1000 Ang^3
#
#
#
# Elastic Constant Matrix: (Units=GPa)
#
#
# Indices 1 2 3 4 5 6 
#
# 1 131.3134 54.2390 58.2249 0.0000 5.9040 0.0000
# 2 54.2390 161.9927 60.9417 0.0000 -5.6397 0.0000
# 3 58.2249 60.9417 123.6358 0.0000 5.3501 0.0000
# 4 0.0000 0.0000 0.0000 18.3609 0.0000 -4.8246
# 5 5.9040 -5.6397 5.3501 0.0000 43.0279 0.0000
# 6 0.0000 0.0000 0.0000 -4.8246 0.0000 38.9258
#
#
#
# Elastic Compliance Matrix: (Units=1/GPa)
#
#
# Indices 1 2 3 4 5 6 
#
# 1 0.010167 -0.002043 -0.003729 0.000000 -0.001199 0.000000
# 2 -0.002043 0.008082 -0.003096 0.000000 0.001725 0.000000
# 3 -0.003729 -0.003096 0.011427 0.000000 -0.001315 0.000000
# 4 0.000000 0.000000 0.000000 0.056297 0.000000 0.006978
# 5 -0.001199 0.001725 -0.001315 0.000000 0.023795 0.000000
# 6 0.000000 0.000000 0.000000 0.006978 0.000000 0.026555
#
#
# Mechanical properties :
#
#
# Convention : Reuss Voigt Hill
#
# Bulk Modulus (GPa) = 83.75381 84.86144 84.30762
# Shear Modulus (GPa) = 31.63780 36.29868 33.96824
#
# Velocity S-wave (km/s) = 3.95363 4.23485 4.09665
# Velocity P-wave (km/s) = 7.88806 8.11413 8.00189
#
# Compressibility (1/GPa) = 0.01193976
#
# Stress axis : x y z
#
# Youngs Moduli (GPa) = 98.36195 123.73189 87.50847
#
# Poissons Ratio (x) = 0.25277 0.32631
# Poissons Ratio (y) = 0.20095 0.27095
# Poissons Ratio (z) = 0.36679 0.38311
#
# Static dielectric constant tensor:
#      x y z
#    x 3.456180 0.000000 -0.319130 
#    y 0.000000 3.673340 0.000000 
#    z -0.319130 0.000000 3.527070 
# 
# 
# High freq. dielectric constant tensor:
#      x y z
#    x 1.802950 0.000000 0.002780 
#    y 0.000000 1.792430 0.000000 
#    z 0.002780 0.000000 1.805550 
# 
# From -- ./inp_files/300996.got.cif
#   From: 2010.06.25/outbox.cif.g09.slc.cpg/sg12_151_cif.got.tgz:300996.got - 2010.06.28 00:19:55.
