data_PCOD8115324
_publ_section_title
;
Structure prediction by ZEFSAII (Michael W. Deem and Ramdas Pophale) SiO2 
 PCOD8115324
Probable space group: C 2/M
;
_chemical_formula_sum "Si O2"
_cell_formula_units_Z 64
_cell_length_a 14.855553
_cell_length_b 28.762217
_cell_length_c 8.733658
_cell_angle_alpha 90.000000
_cell_angle_beta 111.564617
_cell_angle_gamma 90.000000
_cell_volume 3470.499717
_symmetry_space_group_name_H-M "C 2/M"
_symmetry_group_IT_number 12
_symmetry_cell_setting 'monoclinic'
loop_
_space_group_symop_operation_xyz
x,y,z
-x,y,-z
-x,-y,-z
x,-y,z
1/2+x,1/2+y,z
1/2-x,1/2+y,-z
1/2-x,1/2-y,-z
1/2+x,1/2-y,z
loop_
_atom_site_type_symbol
_atom_site_label
_atom_site_fract_x
_atom_site_fract_y
_atom_site_fract_z
Si Si1 0.913254 0.224506 0.666068
Si Si2 0.253599 0.814910 0.262170
Si Si3 0.917528 0.360885 0.554694
Si Si4 0.966957 0.448082 0.733078
Si Si5 0.250990 0.854618 0.937597
Si Si6 0.654648 0.052420 0.037485
Si Si7 0.913594 0.689207 0.847300
Si Si8 0.871961 0.221978 0.287057
O O1 0.854868 0.187867 0.734054
O O2 0.868357 0.272546 0.703840
O O3 0.888511 0.215902 0.476103
O O4 0.029729 0.228159 0.751189
O O5 0.316767 0.840334 0.432597
O O6 0.299529 0.766216 0.225823
O O7 0.242462 0.848969 0.113476
O O8 0.927935 0.416826 0.565552
O O9 0.942645 0.351475 0.748857
O O10 0.000000 0.337568 0.500000
O O11 0.969163 0.500000 0.668839
O O12 0.074832 0.434116 0.858821
O O13 0.892680 0.445158 0.826378
O O14 0.346190 0.830030 0.936139
O O15 0.165431 0.827692 0.797007
O O16 0.256792 0.910205 0.911353
O O17 0.694725 0.000000 0.033455
O O18 0.000000 0.711025 0.000000
#
# Coordination Sequence:
#
# PCOD8115324 Si02
#       8
#     8   8   8   8   8   8   8   8
#     4  11  24  39  56  77 116 156 182 244 289 318
#     4  12  24  38  53  85 116 152 194 237 282 341
#     4  12  22  34  52  79 116 152 191 233 279 338
#     4   9  18  33  54  80 112 150 188 231 286 347
#     4  12  23  36  58  84 108 150 199 233 284 352
#     4   9  18  35  56  82 114 145 190 242 288 342
#     4  12  22  34  55  77 110 154 194 226 275 338
#     4  11  23  41  56  81 114 154 198 233 284 344
#
# _framework density 18.441147000000001
#
# number of rings (size 3 to 8) (size 9 to 14) (size 15 to 20)
#    0.000    1.000    3.750    6.000    1.750    0.250 
#    0.000    0.625    0.000    0.000    0.000    4.375 
#    0.000    0.000    0.000    0.000    0.000    0.000 
#
# Total GULP energy -396418.924262 kJ/mol
# GULP energy per Si atom -12388.091383 kJ/mol
# Density = 1.839917 g / cm^3
# Si number density = 18.441147 Si / 1000 Ang^3
#
#
#
# Elastic Constant Matrix: (Units=GPa)
#
#
# Indices 1 2 3 4 5 6 
#
# 1 84.4865 27.1041 22.4545 0.0000 -14.4270 0.0000
# 2 27.1041 113.9493 32.9501 0.0000 6.2191 0.0000
# 3 22.4545 32.9501 73.9026 0.0000 -7.5734 0.0000
# 4 0.0000 0.0000 0.0000 20.3911 0.0000 19.6901
# 5 -14.4270 6.2191 -7.5734 0.0000 24.5495 0.0000
# 6 0.0000 0.0000 0.0000 19.6901 0.0000 -4.4985
#
#
#
# Elastic Compliance Matrix: (Units=1/GPa)
#
#
# Indices 1 2 3 4 5 6 
#
# 1 0.015058 -0.003471 -0.002097 0.000000 0.009081 0.000000
# 2 -0.003471 0.011284 -0.004625 0.000000 -0.006325 0.000000
# 3 -0.002097 -0.004625 0.016754 0.000000 0.005108 0.000000
# 4 0.000000 0.000000 0.000000 0.009383 0.000000 0.041070
# 5 0.009081 -0.006325 0.005108 0.000000 0.049249 0.000000
# 6 0.000000 0.000000 0.000000 0.041070 0.000000 -0.042532
#
#
# Mechanical properties :
#
#
# Convention : Reuss Voigt Hill
#
# Bulk Modulus (GPa) = 44.03247 48.59508 46.31378
# Shear Modulus (GPa) = 57.37203 20.74373 39.05788
#
# Velocity S-wave (km/s) = 5.58376 3.35753 4.60714
# Velocity P-wave (km/s) = 8.09323 6.43734 7.31231
#
# Compressibility (1/GPa) = 0.02271051
#
# Stress axis : x y z
#
# Youngs Moduli (GPa) = 66.41081 88.62179 59.68795
#
# Poissons Ratio (x) = 0.30760 0.12516
# Poissons Ratio (y) = 0.23051 0.27603
# Poissons Ratio (z) = 0.13926 0.40984
#
# Static dielectric constant tensor:
#      x y z
#    x 3.445490 0.000000 -0.134430 
#    y 0.000000 3.546160 0.000000 
#    z -0.134430 0.000000 3.369750 
# 
# 
# High freq. dielectric constant tensor:
#      x y z
#    x 1.694020 0.000000 -0.024070 
#    y 0.000000 1.702240 0.000000 
#    z -0.024070 0.000000 1.719250 
# 
# From -- ./inp_files/67004.got.cif
#   From: 2010.06.25/outbox.cif.g09.slc.cpg/sg12_34_cif.got.tgz:67004.got - 2010.06.28 00:19:55.
