data_PCOD8115890
_publ_section_title
;
Structure prediction by ZEFSAII (Michael W. Deem and Ramdas Pophale) SiO2 
 PCOD8115890
Probable space group: C 2/M
;
_chemical_formula_sum "Si O2"
_cell_formula_units_Z 48
_cell_length_a 14.514211
_cell_length_b 28.533959
_cell_length_c 11.593797
_cell_angle_alpha 90.000000
_cell_angle_beta 28.930442
_cell_angle_gamma 90.000000
_cell_volume 2322.736024
_symmetry_space_group_name_H-M "C 2/M"
_symmetry_group_IT_number 12
_symmetry_cell_setting 'monoclinic'
loop_
_space_group_symop_operation_xyz
x,y,z
-x,y,-z
-x,-y,-z
x,-y,z
1/2+x,1/2+y,z
1/2-x,1/2+y,-z
1/2-x,1/2-y,-z
1/2+x,1/2-y,z
loop_
_atom_site_type_symbol
_atom_site_label
_atom_site_fract_x
_atom_site_fract_y
_atom_site_fract_z
Si Si1 0.760432 0.303086 0.952714
Si Si2 0.705327 0.552458 0.278802
Si Si3 0.139227 0.350622 0.602053
Si Si4 0.938002 0.552744 0.252006
Si Si5 0.282392 0.715428 0.255791
Si Si6 0.592023 0.686720 0.518724
O O1 0.795214 0.306797 0.777757
O O2 0.929839 0.328738 0.833022
O O3 0.750000 0.250000 0.000000
O O4 0.559984 0.323687 0.213931
O O5 0.500000 0.579395 0.500000
O O6 0.671588 0.500000 0.270365
O O7 0.781258 0.551061 0.324676
O O8 0.862501 0.572627 0.018288
O O9 0.127308 0.406628 0.586943
O O10 0.271843 0.325233 0.362748
O O11 0.225047 0.342963 0.638012
O O12 0.953926 0.500000 0.289504
O O13 0.152590 0.758778 0.439483
O O14 0.500000 0.732147 0.000000
O O15 0.500000 0.668721 0.500000
#
# Coordination Sequence:
#
# PCOD8115890 Si02
#       6
#     8   8   8   8   8   8
#     4  12  23  43  63  88 122 163 203 253 309 369
#     4   8  15  33  59  81 116 163 199 248 314 363
#     4  12  25  39  63  93 123 167 207 253 309 367
#     4   9  20  37  57  86 122 160 207 257 304 358
#     4  12  23  43  66  85 126 168 206 250 313 374
#     4  12  25  39  61  93 128 160 205 253 304 371
#
# _framework density 20.665285000000001
#
# number of rings (size 3 to 8) (size 9 to 14) (size 15 to 20)
#    0.000    1.167    5.000    3.000    0.000    4.667 
#    0.000    0.000    0.000    2.500    0.000    0.000 
#    0.000    0.000    0.000    0.000    0.000    0.000 
#
# Total GULP energy -297393.282922 kJ/mol
# GULP energy per Si atom -12391.386788 kJ/mol
# Density = 2.061825 g / cm^3
# Si number density = 20.665285 Si / 1000 Ang^3
#
#
#
# Elastic Constant Matrix: (Units=GPa)
#
#
# Indices 1 2 3 4 5 6 
#
# 1 111.2732 40.2393 41.2568 -0.0026 -15.5009 0.0007
# 2 40.2393 118.5369 29.9854 -0.0014 2.9927 -0.0003
# 3 41.2568 29.9854 109.2801 -0.0123 -15.8625 -0.0007
# 4 -0.0026 -0.0014 -0.0123 20.8199 0.0055 1.5037
# 5 -15.5009 2.9927 -15.8625 0.0055 38.9748 0.0003
# 6 0.0007 -0.0003 -0.0007 1.5037 0.0003 5.8629
#
#
#
# Elastic Compliance Matrix: (Units=1/GPa)
#
#
# Indices 1 2 3 4 5 6 
#
# 1 0.011834 -0.003352 -0.003005 -0.000001 0.003741 -0.000002
# 2 -0.003352 0.010137 -0.001937 0.000000 -0.002900 0.000001
# 3 -0.003005 -0.001937 0.011335 0.000005 0.003567 0.000000
# 4 -0.000001 0.000000 0.000005 0.048938 -0.000005 -0.012551
# 5 0.003741 -0.002900 0.003567 -0.000005 0.028820 0.000000
# 6 -0.000002 0.000001 0.000000 -0.012551 0.000000 0.173783
#
#
# Mechanical properties :
#
#
# Convention : Reuss Voigt Hill
#
# Bulk Modulus (GPa) = 59.81476 62.45035 61.13256
# Shear Modulus (GPa) = 16.28628 28.30543 22.29586
#
# Velocity S-wave (km/s) = 2.81035 3.70497 3.28823
# Velocity P-wave (km/s) = 6.28794 6.97051 6.63800
#
# Compressibility (1/GPa) = 0.01671828
#
# Stress axis : x y z
#
# Youngs Moduli (GPa) = 84.50037 98.64680 88.22555
#
# Poissons Ratio (x) = 0.33062 0.26513
# Poissons Ratio (y) = 0.28321 0.17090
# Poissons Ratio (z) = 0.25394 0.19109
#
# Static dielectric constant tensor:
#      x y z
#    x 3.065300 -0.000020 -0.928240 
#    y -0.000020 3.328470 -0.000070 
#    z -0.928240 -0.000070 3.388200 
# 
# 
# High freq. dielectric constant tensor:
#      x y z
#    x 1.796630 0.000000 -0.031800 
#    y 0.000000 1.790400 0.000000 
#    z -0.031800 0.000000 1.812040 
# 
# From -- ./inp_files/149861.got.cif
#   From: 2010.06.25/outbox.cif.g09.slc.cpg/sg12_75_cif.got.tgz:149861.got - 2010.06.28 00:19:55.
