data_PCOD8115590
_publ_section_title
;
Structure prediction by ZEFSAII (Michael W. Deem and Ramdas Pophale) SiO2 
 PCOD8115590
Probable space group: C 2/M
;
_chemical_formula_sum "Si O2"
_cell_formula_units_Z 56
_cell_length_a 24.227113
_cell_length_b 14.029427
_cell_length_c 8.855667
_cell_angle_alpha 90.000000
_cell_angle_beta 58.990861
_cell_angle_gamma 90.000000
_cell_volume 2579.804765
_symmetry_space_group_name_H-M "C 2/M"
_symmetry_group_IT_number 12
_symmetry_cell_setting 'monoclinic'
loop_
_space_group_symop_operation_xyz
x,y,z
-x,y,-z
-x,-y,-z
x,-y,z
1/2+x,1/2+y,z
1/2-x,1/2+y,-z
1/2-x,1/2-y,-z
1/2+x,1/2-y,z
loop_
_atom_site_type_symbol
_atom_site_label
_atom_site_fract_x
_atom_site_fract_y
_atom_site_fract_z
Si Si1 0.690078 0.110067 0.857685
Si Si2 0.265699 0.888758 0.522290
Si Si3 0.668637 0.392661 0.246651
Si Si4 0.028116 0.269871 0.802965
Si Si5 0.372090 0.389364 0.354739
Si Si6 0.113233 0.611628 0.470560
Si Si7 0.598707 0.772392 0.190970
O O1 0.702833 0.155096 0.673874
O O2 0.754561 0.120567 0.866490
O O3 0.668356 0.000000 0.880983
O O4 0.632777 0.168965 0.011498
O O5 0.191858 0.854568 0.647984
O O6 0.310825 0.866427 0.602643
O O7 0.261068 0.000000 0.492899
O O8 0.650283 0.500000 0.226284
O O9 0.640935 0.369189 0.450844
O O10 0.637230 0.324252 0.167729
O O11 0.067953 0.173698 0.781943
O O12 0.072236 0.352764 0.670951
O O13 0.972271 0.244236 0.762927
O O14 0.000000 0.308780 0.000000
O O15 0.388184 0.500000 0.301172
O O16 0.101115 0.500000 0.467227
O O17 0.092689 0.663790 0.348424
#
# Coordination Sequence:
#
# PCOD8115590 Si02
#       7
#     8   8   8   8   8   8   8
#     4   9  18  36  62  93 126 159 197 245 305 366
#     4   8  17  38  67  94 120 157 202 248 309 368
#     4   9  19  38  64  92 122 158 202 253 309 364
#     4  12  27  43  59  88 125 168 213 245 299 372
#     4   9  19  41  68  92 122 159 203 256 305 361
#     4  11  24  42  64  93 124 159 205 258 307 356
#     4  12  23  39  61  91 129 163 204 249 301 363
#
# _framework density 21.707068
#
# number of rings (size 3 to 8) (size 9 to 14) (size 15 to 20)
#    0.000    2.000    1.429    3.857    0.000    3.429 
#    5.143    1.429    0.000    0.000    0.000    0.000 
#    0.000    0.000    0.000    0.000    0.000    0.000 
#
# Total GULP energy -347236.424277 kJ/mol
# GULP energy per Si atom -12401.300867 kJ/mol
# Density = 2.165766 g / cm^3
# Si number density = 21.707068 Si / 1000 Ang^3
#
#
#
# Elastic Constant Matrix: (Units=GPa)
#
#
# Indices 1 2 3 4 5 6 
#
# 1 128.0485 35.1527 39.9673 0.0000 -6.0263 0.0000
# 2 35.1527 72.9280 25.0857 0.0000 -6.8840 0.0000
# 3 39.9673 25.0857 62.7876 0.0000 -4.8910 0.0000
# 4 0.0000 0.0000 0.0000 26.7053 0.0000 -6.1468
# 5 -6.0263 -6.8840 -4.8910 0.0000 28.7166 0.0000
# 6 0.0000 0.0000 0.0000 -6.1468 0.0000 25.8508
#
#
#
# Elastic Compliance Matrix: (Units=1/GPa)
#
#
# Indices 1 2 3 4 5 6 
#
# 1 0.010343 -0.003113 -0.005299 0.000000 0.000522 0.000000
# 2 -0.003113 0.017054 -0.004626 0.000000 0.002647 0.000000
# 3 -0.005299 -0.004626 0.021257 0.000000 0.001400 0.000000
# 4 0.000000 0.000000 0.000000 0.039614 0.000000 0.009419
# 5 0.000522 0.002647 0.001400 0.000000 0.035805 0.000000
# 6 0.000000 0.000000 0.000000 0.009419 0.000000 0.040923
#
#
# Mechanical properties :
#
#
# Convention : Reuss Voigt Hill
#
# Bulk Modulus (GPa) = 44.29211 51.57507 47.93359
# Shear Modulus (GPa) = 25.17648 27.15844 26.16746
#
# Velocity S-wave (km/s) = 3.40932 3.54097 3.47577
# Velocity P-wave (km/s) = 5.99556 6.36625 6.18368
#
# Compressibility (1/GPa) = 0.02257739
#
# Stress axis : x y z
#
# Youngs Moduli (GPa) = 96.68558 58.63787 47.04343
#
# Poissons Ratio (x) = 0.18256 0.24929
# Poissons Ratio (y) = 0.30102 0.21760
# Poissons Ratio (z) = 0.51235 0.27123
#
# Static dielectric constant tensor:
#      x y z
#    x 4.057140 0.000000 -0.091210 
#    y 0.000000 3.858000 0.000000 
#    z -0.091210 0.000000 3.650510 
# 
# 
# High freq. dielectric constant tensor:
#      x y z
#    x 1.859060 0.000000 -0.003490 
#    y 0.000000 1.856780 0.000000 
#    z -0.003490 0.000000 1.833830 
# 
# From -- ./inp_files/96782.got.cif
#   From: 2010.06.25/outbox.cif.g09.slc.cpg/sg12_49_cif.got.tgz:96782.got - 2010.06.28 00:19:55.
