data_PCOD8115562
_publ_section_title
;
Structure prediction by ZEFSAII (Michael W. Deem and Ramdas Pophale) SiO2 
 PCOD8115562
Probable space group: C 2/M
;
_chemical_formula_sum "Si O2"
_cell_formula_units_Z 40
_cell_length_a 10.237025
_cell_length_b 8.611449
_cell_length_c 22.249542
_cell_angle_alpha 90.000000
_cell_angle_beta 97.187035
_cell_angle_gamma 90.000000
_cell_volume 1946.011319
_symmetry_space_group_name_H-M "C 2/M"
_symmetry_group_IT_number 12
_symmetry_cell_setting 'monoclinic'
loop_
_space_group_symop_operation_xyz
x,y,z
-x,y,-z
-x,-y,-z
x,-y,z
1/2+x,1/2+y,z
1/2-x,1/2+y,-z
1/2-x,1/2-y,-z
1/2+x,1/2-y,z
loop_
_atom_site_type_symbol
_atom_site_label
_atom_site_fract_x
_atom_site_fract_y
_atom_site_fract_z
Si Si1 0.747044 0.318863 0.433895
Si Si2 0.649529 0.819224 0.164025
Si Si3 0.963775 0.820667 0.360919
Si Si4 0.635968 0.317755 0.033324
Si Si5 0.905048 0.319249 0.232055
O O1 0.783604 0.500000 0.437206
O O2 0.750000 0.250000 0.500000
O O3 0.852197 0.226385 0.401089
O O4 0.604151 0.289439 0.398424
O O5 0.656324 0.723124 0.103569
O O6 0.775082 0.779813 0.211851
O O7 0.518242 0.770737 0.191817
O O8 0.649863 0.000000 0.148434
O O9 0.954984 0.715740 0.301472
O O10 0.945938 0.000000 0.342052
O O11 0.638350 0.500000 0.026010
O O12 0.500000 0.247782 0.000000
O O13 0.750000 0.250000 0.000000
O O14 0.870518 0.500000 0.224617
#
# Coordination Sequence:
#
# PCOD8115562 Si02
#       5
#     8   8   8   8   8
#     4  11  24  41  63  91 123 160 202 249 301 358
#     4  11  24  41  63  91 123 160 202 249 301 358
#     4  11  24  41  62  90 123 159 202 250 300 357
#     4  11  24  41  63  91 123 160 202 249 301 357
#     4  11  24  41  63  91 122 159 202 248 301 359
#
# _framework density 20.554866000000001
#
# number of rings (size 3 to 8) (size 9 to 14) (size 15 to 20)
#    0.000    1.000    0.000    6.000    0.000   16.800 
#    0.000    0.000    0.000    0.000    0.000    0.000 
#    0.000    0.000    0.000    0.000    0.000    0.000 
#
# Total GULP energy -248159.404280 kJ/mol
# GULP energy per Si atom -12407.970214 kJ/mol
# Density = 2.050808 g / cm^3
# Si number density = 20.554866 Si / 1000 Ang^3
#
#
#
# Elastic Constant Matrix: (Units=GPa)
#
#
# Indices 1 2 3 4 5 6 
#
# 1 133.0212 50.6987 31.1165 0.0000 -6.0296 0.0000
# 2 50.6987 48.7344 20.9851 0.0000 -0.9504 0.0000
# 3 31.1165 20.9851 114.7202 0.0000 -7.4764 0.0000
# 4 0.0000 0.0000 0.0000 41.0495 0.0000 0.1906
# 5 -6.0296 -0.9504 -7.4764 0.0000 44.3873 0.0000
# 6 0.0000 0.0000 0.0000 0.1906 0.0000 34.8839
#
#
#
# Elastic Compliance Matrix: (Units=1/GPa)
#
#
# Indices 1 2 3 4 5 6 
#
# 1 0.012655 -0.012698 -0.001027 0.000000 0.001274 0.000000
# 2 -0.012698 0.035018 -0.003058 0.000000 -0.001490 0.000000
# 3 -0.001027 -0.003058 0.009647 0.000000 0.001420 0.000000
# 4 0.000000 0.000000 0.000000 0.024361 0.000000 -0.000133
# 5 0.001274 -0.001490 0.001420 0.000000 0.022909 0.000000
# 6 0.000000 0.000000 0.000000 -0.000133 0.000000 0.028667
#
#
# Mechanical properties :
#
#
# Convention : Reuss Voigt Hill
#
# Bulk Modulus (GPa) = 42.09970 55.78627 48.94299
# Shear Modulus (GPa) = 28.61343 36.97584 32.79463
#
# Velocity S-wave (km/s) = 3.73507 4.24593 3.99866
# Velocity P-wave (km/s) = 6.25516 7.15795 6.72173
#
# Compressibility (1/GPa) = 0.02375314
#
# Stress axis : x y z
#
# Youngs Moduli (GPa) = 79.01805 28.55706 103.65555
#
# Poissons Ratio (x) = 0.36263 0.10642
# Poissons Ratio (y) = 1.00341 0.31702
# Poissons Ratio (z) = 0.08113 0.08734
#
# Static dielectric constant tensor:
#      x y z
#    x 4.061290 0.000000 0.084500 
#    y 0.000000 3.836540 0.000000 
#    z 0.084500 0.000000 3.729150 
# 
# 
# High freq. dielectric constant tensor:
#      x y z
#    x 1.824500 0.000000 -0.000380 
#    y 0.000000 1.815930 0.000000 
#    z -0.000380 0.000000 1.821010 
# 
# From -- ./inp_files/303444.got.cif
#   From: 2010.06.25/outbox.cif.g09.slc.cpg/sg12_152_cif.got.tgz:303444.got - 2010.06.28 00:19:55.
