data_PCOD8115555
_publ_section_title
;
Structure prediction by ZEFSAII (Michael W. Deem and Ramdas Pophale) SiO2 
 PCOD8115555
Probable space group: C 2/M
;
_chemical_formula_sum "Si O2"
_cell_formula_units_Z 56
_cell_length_a 9.986100
_cell_length_b 27.032689
_cell_length_c 18.674069
_cell_angle_alpha 90.000000
_cell_angle_beta 36.626000
_cell_angle_gamma 90.000000
_cell_volume 3007.457143
_symmetry_space_group_name_H-M "C 2/M"
_symmetry_group_IT_number 12
_symmetry_cell_setting 'monoclinic'
loop_
_space_group_symop_operation_xyz
x,y,z
-x,y,-z
-x,-y,-z
x,-y,z
1/2+x,1/2+y,z
1/2-x,1/2+y,-z
1/2-x,1/2-y,-z
1/2+x,1/2-y,z
loop_
_atom_site_type_symbol
_atom_site_label
_atom_site_fract_x
_atom_site_fract_y
_atom_site_fract_z
Si Si1 0.621588 0.151692 0.763518
Si Si2 0.864034 0.444600 0.861422
Si Si3 0.898457 0.847529 0.238613
Si Si4 0.453161 0.444664 0.136980
Si Si5 0.087991 0.184143 0.611675
Si Si6 0.508988 0.798527 0.664354
Si Si7 0.654539 0.795623 0.997928
O O1 0.566457 0.094244 0.773713
O O2 0.549347 0.186040 0.728493
O O3 0.490919 0.169380 0.889286
O O4 0.886989 0.153919 0.661863
O O5 0.963282 0.500000 0.826533
O O6 0.733112 0.439329 0.843707
O O7 0.696072 0.433190 0.998943
O O8 0.827397 0.840335 0.351195
O O9 0.730090 0.818617 0.258641
O O10 0.897094 0.906024 0.223450
O O11 0.146598 0.827310 0.120899
O O12 0.449035 0.500000 0.171407
O O13 0.294794 0.180211 0.469186
O O14 0.003754 0.239544 0.662432
O O15 0.500000 0.775208 0.000000
O O16 0.750000 0.750000 0.000000
#
# Coordination Sequence:
#
# PCOD8115555 Si02
#       7
#     8   8   8   8   8   8   8
#     4  12  22  38  62  88 122 155 200 254 303 353
#     4   9  18  35  59  88 119 157 204 246 298 372
#     4  12  22  38  62  88 122 155 200 254 303 353
#     4   9  18  35  59  88 119 157 204 246 298 372
#     4  11  24  41  58  85 124 161 209 246 290 356
#     4  11  24  41  62  83 114 173 211 240 284 360
#     4  12  26  38  57  90 131 163 190 241 313 372
#
# _framework density 18.620381999999999
#
# number of rings (size 3 to 8) (size 9 to 14) (size 15 to 20)
#    0.000    1.143    4.286    4.286    2.000    2.286 
#    0.000    0.714    0.000    7.714    0.000    0.000 
#    0.000    0.000    0.000    0.000    0.000    0.000 
#
# Total GULP energy -347323.623765 kJ/mol
# GULP energy per Si atom -12404.415134 kJ/mol
# Density = 1.857800 g / cm^3
# Si number density = 18.620382 Si / 1000 Ang^3
#
#
#
# Elastic Constant Matrix: (Units=GPa)
#
#
# Indices 1 2 3 4 5 6 
#
# 1 63.9782 20.6895 21.6651 -0.0006 3.1263 -0.0002
# 2 20.6895 108.7730 28.5232 -0.0002 -2.6211 -0.0001
# 3 21.6651 28.5232 71.6601 0.0003 0.5321 0.0007
# 4 -0.0006 -0.0002 0.0003 22.9701 0.0000 -3.1975
# 5 3.1263 -2.6211 0.5321 0.0000 25.2471 -0.0001
# 6 -0.0002 -0.0001 0.0007 -3.1975 -0.0001 21.3875
#
#
#
# Elastic Compliance Matrix: (Units=1/GPa)
#
#
# Indices 1 2 3 4 5 6 
#
# 1 0.018019 -0.002301 -0.004514 0.000001 -0.002375 0.000000
# 2 -0.002301 0.010592 -0.003531 0.000000 0.001459 0.000000
# 3 -0.004514 -0.003531 0.016726 0.000000 -0.000160 -0.000001
# 4 0.000001 0.000000 0.000000 0.044460 0.000000 0.006647
# 5 -0.002375 0.001459 -0.000160 0.000000 0.040057 0.000000
# 6 0.000000 0.000000 -0.000001 0.006647 0.000000 0.047750
#
#
# Mechanical properties :
#
#
# Convention : Reuss Voigt Hill
#
# Bulk Modulus (GPa) = 40.57645 42.90744 41.74194
# Shear Modulus (GPa) = 24.21152 25.48983 24.85067
#
# Velocity S-wave (km/s) = 3.60984 3.70391 3.65717
# Velocity P-wave (km/s) = 6.26205 6.43313 6.34817
#
# Compressibility (1/GPa) = 0.02464484
#
# Stress axis : x y z
#
# Youngs Moduli (GPa) = 55.49662 94.40854 59.78587
#
# Poissons Ratio (x) = 0.21722 0.26989
# Poissons Ratio (y) = 0.12769 0.21112
# Poissons Ratio (z) = 0.25053 0.33339
#
# Static dielectric constant tensor:
#      x y z
#    x 3.450020 0.000000 0.014030 
#    y 0.000000 3.490000 0.000000 
#    z 0.014030 0.000000 3.429350 
# 
# 
# High freq. dielectric constant tensor:
#      x y z
#    x 1.726960 0.000000 -0.000090 
#    y 0.000000 1.718590 0.000000 
#    z -0.000090 0.000000 1.718290 
# 
# From -- ./inp_files/124339.got.cif
#   From: 2010.06.25/outbox.cif.g09.slc.cpg/sg12_63_cif.got.tgz:124339.got - 2010.06.28 00:19:55.
