data_PCOD8115643
_publ_section_title
;
Structure prediction by ZEFSAII (Michael W. Deem and Ramdas Pophale) SiO2 
 PCOD8115643
Probable space group: C 2/M
;
_chemical_formula_sum "Si O2"
_cell_formula_units_Z 40
_cell_length_a 9.715403
_cell_length_b 21.215992
_cell_length_c 8.671864
_cell_angle_alpha 90.000000
_cell_angle_beta 82.438016
_cell_angle_gamma 90.000000
_cell_volume 1771.915775
_symmetry_space_group_name_H-M "C 2/M"
_symmetry_group_IT_number 12
_symmetry_cell_setting 'monoclinic'
loop_
_space_group_symop_operation_xyz
x,y,z
-x,y,-z
-x,-y,-z
x,-y,z
1/2+x,1/2+y,z
1/2-x,1/2+y,-z
1/2-x,1/2-y,-z
1/2+x,1/2-y,z
loop_
_atom_site_type_symbol
_atom_site_label
_atom_site_fract_x
_atom_site_fract_y
_atom_site_fract_z
Si Si1 0.909189 0.070189 0.364201
Si Si2 0.622260 0.885314 0.374863
Si Si3 0.629586 0.743374 0.391929
Si Si4 0.404188 0.348356 0.877813
Si Si5 0.352502 0.928410 0.962466
O O1 0.771770 0.109049 0.436257
O O2 0.000000 0.066571 0.500000
O O3 0.991643 0.102267 0.213770
O O4 0.869085 0.000000 0.313828
O O5 0.500000 0.913024 0.500000
O O6 0.589111 0.812880 0.337907
O O7 0.637229 0.927918 0.222598
O O8 0.500000 0.711632 0.500000
O O9 0.750000 0.750000 0.500000
O O10 0.657516 0.702605 0.234341
O O11 0.500000 0.317079 0.000000
O O12 0.269999 0.383482 0.962834
O O13 0.325688 0.000000 0.023750
O O14 0.500000 0.902628 0.000000
#
# Coordination Sequence:
#
# PCOD8115643 Si02
#       5
#     8   8   8   8   8
#     4  11  24  43  71 103 138 187 241 292 355 424
#     4  11  25  45  69  99 140 189 233 289 346 425
#     4  11  26  46  72 101 143 188 239 292 352 432
#     4  12  25  45  74 104 142 184 240 303 366 418
#     4  11  27  46  68 102 144 186 233 294 362 426
#
# _framework density 22.574435999999999
#
# number of rings (size 3 to 8) (size 9 to 14) (size 15 to 20)
#    0.000    0.800    2.000    4.200    8.400    4.000 
#    0.000    0.000    0.000    0.000    0.000    0.000 
#    0.000    0.000    0.000    0.000    0.000    0.000 
#
# Total GULP energy -247995.276762 kJ/mol
# GULP energy per Si atom -12399.763838 kJ/mol
# Density = 2.252306 g / cm^3
# Si number density = 22.574436 Si / 1000 Ang^3
#
#
#
# Elastic Constant Matrix: (Units=GPa)
#
#
# Indices 1 2 3 4 5 6 
#
# 1 186.5611 39.1775 78.2060 0.0000 -10.9044 0.0000
# 2 39.1775 83.1608 45.9405 0.0000 -1.2405 0.0000
# 3 78.2060 45.9405 133.6474 0.0000 -3.9143 0.0000
# 4 0.0000 0.0000 0.0000 21.5560 0.0000 8.6976
# 5 -10.9044 -1.2405 -3.9143 0.0000 50.1295 0.0000
# 6 0.0000 0.0000 0.0000 8.6976 0.0000 30.2041
#
#
#
# Elastic Compliance Matrix: (Units=1/GPa)
#
#
# Indices 1 2 3 4 5 6 
#
# 1 0.007296 -0.001333 -0.003774 0.000000 0.001259 0.000000
# 2 -0.001333 0.015087 -0.004414 0.000000 -0.000261 0.000000
# 3 -0.003774 -0.004414 0.011206 0.000000 -0.000055 0.000000
# 4 0.000000 0.000000 0.000000 0.052490 0.000000 -0.015115
# 5 0.001259 -0.000261 -0.000055 0.000000 0.020211 0.000000
# 6 0.000000 0.000000 0.000000 -0.015115 0.000000 0.037461
#
#
# Mechanical properties :
#
#
# Convention : Reuss Voigt Hill
#
# Bulk Modulus (GPa) = 68.74043 81.11303 74.92673
# Shear Modulus (GPa) = 29.82537 36.38094 33.10315
#
# Velocity S-wave (km/s) = 3.63878 4.01883 3.83351
# Velocity P-wave (km/s) = 6.94053 7.58578 7.27031
#
# Compressibility (1/GPa) = 0.01454748
#
# Stress axis : x y z
#
# Youngs Moduli (GPa) = 137.06363 66.28054 89.23508
#
# Poissons Ratio (x) = 0.08838 0.33678
# Poissons Ratio (y) = 0.18277 0.39384
# Poissons Ratio (z) = 0.51729 0.29253
#
# Static dielectric constant tensor:
#      x y z
#    x 4.210490 0.000000 0.345480 
#    y 0.000000 4.246190 0.000000 
#    z 0.345480 0.000000 3.830810 
# 
# 
# High freq. dielectric constant tensor:
#      x y z
#    x 1.909740 0.000000 0.004090 
#    y 0.000000 1.892780 0.000000 
#    z 0.004090 0.000000 1.889830 
# 
# From -- ./inp_files/39178.got.cif
#   From: 2010.06.25/outbox.cif.g09.slc.cpg/sg12_20_cif.got.tgz:39178.got - 2010.06.28 00:19:55.
