data_PCOD8115861
_publ_section_title
;
Structure prediction by ZEFSAII (Michael W. Deem and Ramdas Pophale) SiO2 
 PCOD8115861
Probable space group: C 2/M
;
_chemical_formula_sum "Si O2"
_cell_formula_units_Z 64
_cell_length_a 17.635177
_cell_length_b 14.255857
_cell_length_c 16.154197
_cell_angle_alpha 90.000000
_cell_angle_beta 121.088388
_cell_angle_gamma 90.000000
_cell_volume 3477.930196
_symmetry_space_group_name_H-M "C 2/M"
_symmetry_group_IT_number 12
_symmetry_cell_setting 'monoclinic'
loop_
_space_group_symop_operation_xyz
x,y,z
-x,y,-z
-x,-y,-z
x,-y,z
1/2+x,1/2+y,z
1/2-x,1/2+y,-z
1/2-x,1/2-y,-z
1/2+x,1/2-y,z
loop_
_atom_site_type_symbol
_atom_site_label
_atom_site_fract_x
_atom_site_fract_y
_atom_site_fract_z
Si Si1 0.386319 0.389817 0.570817
Si Si2 0.968197 0.107677 0.114005
Si Si3 0.974360 0.763115 0.270463
Si Si4 0.106757 0.604319 0.352711
Si Si5 0.283921 0.396605 0.351086
Si Si6 0.197803 0.282440 0.732601
Si Si7 0.140753 0.107325 0.110445
Si Si8 0.286214 0.889996 0.427685
O O1 0.405304 0.500000 0.590554
O O2 0.475795 0.333109 0.638564
O O3 0.354861 0.365492 0.460544
O O4 0.310765 0.358948 0.594245
O O5 0.943557 0.178191 0.173462
O O6 0.069219 0.124795 0.142443
O O7 0.957553 0.000000 0.137447
O O8 0.901865 0.129606 0.001975
O O9 0.892351 0.711753 0.267302
O O10 0.036808 0.677778 0.277905
O O11 0.064650 0.500000 0.333658
O O12 0.187890 0.602369 0.336431
O O13 0.139979 0.635733 0.462488
O O14 0.307838 0.500000 0.330901
O O15 0.284474 0.327056 0.274119
O O16 0.276560 0.324400 0.831642
O O17 0.188999 0.336636 0.641408
O O18 0.173599 0.000000 0.132948
O O19 0.285926 0.000000 0.409308
#
# Coordination Sequence:
#
# PCOD8115861 Si02
#       8
#     8   8   8   8   8   8   8   8
#     4   9  18  34  55  75  97 133 183 230 259 281
#     4   9  19  38  63  84  98 120 164 220 266 301
#     4  12  23  31  48  78 111 140 164 198 258 322
#     4   9  19  35  52  71 100 141 185 219 244 284
#     4   9  19  35  52  71 100 141 185 219 244 284
#     4  12  23  31  48  78 111 140 164 198 258 322
#     4   9  19  38  63  84  98 120 164 220 266 301
#     4   9  18  34  55  75  97 133 183 230 259 281
#
# _framework density 18.401748999999999
#
# number of rings (size 3 to 8) (size 9 to 14) (size 15 to 20)
#    0.000    2.250    0.000    6.000    0.000    8.500 
#    0.000    2.500    0.000    0.750    0.000    3.500 
#    0.000    0.000    0.000    0.000    0.000    0.000 
#
# Total GULP energy -396825.721009 kJ/mol
# GULP energy per Si atom -12400.803782 kJ/mol
# Density = 1.835987 g / cm^3
# Si number density = 18.401749 Si / 1000 Ang^3
#
#
#
# Elastic Constant Matrix: (Units=GPa)
#
#
# Indices 1 2 3 4 5 6 
#
# 1 46.9273 22.6401 26.2300 0.0000 9.0410 0.0000
# 2 22.6401 70.0610 42.3964 0.0000 7.1096 0.0000
# 3 26.2300 42.3964 68.8458 0.0000 7.7988 0.0000
# 4 0.0000 0.0000 0.0000 38.0973 0.0000 0.5314
# 5 9.0410 7.1096 7.7988 0.0000 8.9967 0.0000
# 6 0.0000 0.0000 0.0000 0.5314 0.0000 10.0559
#
#
#
# Elastic Compliance Matrix: (Units=1/GPa)
#
#
# Indices 1 2 3 4 5 6 
#
# 1 0.031378 -0.003451 -0.007282 0.000000 -0.022493 0.000000
# 2 -0.003451 0.023476 -0.012678 0.000000 -0.004094 0.000000
# 3 -0.007282 -0.012678 0.025663 0.000000 -0.004910 0.000000
# 4 0.000000 0.000000 0.000000 0.026268 0.000000 -0.001388
# 5 -0.022493 -0.004094 -0.004910 0.000000 0.141247 0.000000
# 6 0.000000 0.000000 0.000000 -0.001388 0.000000 0.099518
#
#
# Mechanical properties :
#
#
# Convention : Reuss Voigt Hill
#
# Bulk Modulus (GPa) = 29.67767 40.92966 35.30367
# Shear Modulus (GPa) = 12.32730 17.73448 15.03089
#
# Velocity S-wave (km/s) = 2.59105 3.10778 2.86110
# Velocity P-wave (km/s) = 5.01139 5.93029 5.49010
#
# Compressibility (1/GPa) = 0.03369536
#
# Stress axis : x y z
#
# Youngs Moduli (GPa) = 31.86929 42.59675 38.96605
#
# Poissons Ratio (x) = 0.14699 0.28375
# Poissons Ratio (y) = 0.10997 0.49403
# Poissons Ratio (z) = 0.23207 0.54006
#
# Static dielectric constant tensor:
#      x y z
#    x 3.154370 0.000000 0.048260 
#    y 0.000000 3.684870 0.000000 
#    z 0.048260 0.000000 3.229660 
# 
# 
# High freq. dielectric constant tensor:
#      x y z
#    x 1.693420 0.000000 0.003140 
#    y 0.000000 1.726390 0.000000 
#    z 0.003140 0.000000 1.695440 
# 
# From -- ./inp_files/225342.got.cif
#   From: 2010.06.25/outbox.cif.g09.slc.cpg/sg12_113_cif.got.tgz:225342.got - 2010.06.28 00:19:55.
