data_PCOD8115569
_publ_section_title
;
Structure prediction by ZEFSAII (Michael W. Deem and Ramdas Pophale) SiO2 
 PCOD8115569
Probable space group: C 2/M
;
_chemical_formula_sum "Si O2"
_cell_formula_units_Z 40
_cell_length_a 13.105616
_cell_length_b 14.698787
_cell_length_c 10.440329
_cell_angle_alpha 90.000000
_cell_angle_beta 109.647946
_cell_angle_gamma 90.000000
_cell_volume 1894.091385
_symmetry_space_group_name_H-M "C 2/M"
_symmetry_group_IT_number 12
_symmetry_cell_setting 'monoclinic'
loop_
_space_group_symop_operation_xyz
x,y,z
-x,y,-z
-x,-y,-z
x,-y,z
1/2+x,1/2+y,z
1/2-x,1/2+y,-z
1/2-x,1/2-y,-z
1/2+x,1/2-y,z
loop_
_atom_site_type_symbol
_atom_site_label
_atom_site_fract_x
_atom_site_fract_y
_atom_site_fract_z
Si Si1 0.509743 0.099279 0.653150
Si Si2 0.593302 0.335918 0.941732
Si Si3 0.294161 0.184561 0.626832
Si Si4 0.975650 0.000000 0.270234
Si Si5 0.289158 0.802738 0.179514
Si Si6 0.667152 0.500000 0.538147
O O1 0.500000 0.090867 0.500000
O O2 0.424438 0.172380 0.674923
O O3 0.634557 0.127742 0.715967
O O4 0.491741 0.000000 0.710394
O O5 0.550659 0.412603 0.826900
O O6 0.629827 0.245754 0.884773
O O7 0.500000 0.308670 0.000000
O O8 0.698572 0.364414 0.070095
O O9 0.250000 0.250000 0.500000
O O10 0.264822 0.226205 0.752235
O O11 0.241714 0.087644 0.576842
O O12 0.906509 0.000000 0.368486
O O13 0.099604 0.000000 0.375120
#
# Coordination Sequence:
#
# PCOD8115569 Si02
#       6
#     8   8   8   4   8   4
#     4  11  24  41  64 102 137 175 230 285 349 414
#     4  11  25  45  66  99 134 183 236 275 344 420
#     4  12  24  44  73  99 141 183 228 292 358 415
#     4  11  25  44  69  97 143 175 229 295 344 411
#     4  11  25  43  71  96 138 182 231 286 347 417
#     4  11  26  44  72 107 135 178 235 295 355 417
#
# _framework density 21.118303999999998
#
# number of rings (size 3 to 8) (size 9 to 14) (size 15 to 20)
#    0.000    0.800    5.000    1.500    7.000    0.000 
#    0.000    0.000    0.000    4.200    0.000    0.000 
#    0.000    0.000    0.000    0.000    0.000    0.000 
#
# Total GULP energy -247923.766562 kJ/mol
# GULP energy per Si atom -12396.188328 kJ/mol
# Density = 2.107024 g / cm^3
# Si number density = 21.118304 Si / 1000 Ang^3
#
#
#
# Elastic Constant Matrix: (Units=GPa)
#
#
# Indices 1 2 3 4 5 6 
#
# 1 114.9275 33.0139 43.8412 0.0000 -1.2453 0.0000
# 2 33.0139 74.4689 43.5285 0.0000 1.0167 0.0000
# 3 43.8412 43.5285 123.2358 0.0000 17.2051 0.0000
# 4 0.0000 0.0000 0.0000 -8.0440 0.0000 -8.2804
# 5 -1.2453 1.0167 17.2051 0.0000 41.2538 0.0000
# 6 0.0000 0.0000 0.0000 -8.2804 0.0000 32.7800
#
#
#
# Elastic Compliance Matrix: (Units=1/GPa)
#
#
# Indices 1 2 3 4 5 6 
#
# 1 0.010725 -0.003041 -0.002970 0.000000 0.001637 0.000000
# 2 -0.003041 0.017975 -0.005514 0.000000 0.001765 0.000000
# 3 -0.002970 -0.005514 0.011799 0.000000 -0.004875 0.000000
# 4 0.000000 0.000000 0.000000 -0.098662 0.000000 -0.024922
# 5 0.001637 0.001765 -0.004875 0.000000 0.026279 0.000000
# 6 0.000000 0.000000 0.000000 -0.024922 0.000000 0.024211
#
#
# Mechanical properties :
#
#
# Convention : Reuss Voigt Hill
#
# Bulk Modulus (GPa) = 57.30531 61.48883 59.39707
# Shear Modulus (GPa) = 235.91039 26.01455 130.96247
#
# Velocity S-wave (km/s) = 10.58071 3.51358 7.88342
# Velocity P-wave (km/s) = 13.28393 6.75573 10.53809
#
# Compressibility (1/GPa) = 0.01745039
#
# Stress axis : x y z
#
# Youngs Moduli (GPa) = 93.23625 55.63167 84.75204
#
# Poissons Ratio (x) = 0.16919 0.25171
# Poissons Ratio (y) = 0.28355 0.46729
# Poissons Ratio (z) = 0.27691 0.30673
#
# Static dielectric constant tensor:
#      x y z
#    x 4.263990 0.000000 0.235200 
#    y 0.000000 3.783640 0.000000 
#    z 0.235200 0.000000 4.182890 
# 
# 
# High freq. dielectric constant tensor:
#      x y z
#    x 1.844960 0.000000 0.006660 
#    y 0.000000 1.822370 0.000000 
#    z 0.006660 0.000000 1.840100 
# 
# From -- ./inp_files/129831.got.cif
#   From: 2010.06.25/outbox.cif.g09.slc.cpg/sg12_65_cif.got.tgz:129831.got - 2010.06.28 00:19:55.
