data_PCOD8115970
_publ_section_title
;
Structure prediction by ZEFSAII (Michael W. Deem and Ramdas Pophale) SiO2 
 PCOD8115970
Probable space group: C 2/M
;
_chemical_formula_sum "Si O2"
_cell_formula_units_Z 56
_cell_length_a 32.844480
_cell_length_b 9.805378
_cell_length_c 18.366981
_cell_angle_alpha 90.000000
_cell_angle_beta 141.882265
_cell_angle_gamma 90.000000
_cell_volume 3651.289866
_symmetry_space_group_name_H-M "C 2/M"
_symmetry_group_IT_number 12
_symmetry_cell_setting 'monoclinic'
loop_
_space_group_symop_operation_xyz
x,y,z
-x,y,-z
-x,-y,-z
x,-y,z
1/2+x,1/2+y,z
1/2-x,1/2+y,-z
1/2-x,1/2-y,-z
1/2+x,1/2-y,z
loop_
_atom_site_type_symbol
_atom_site_label
_atom_site_fract_x
_atom_site_fract_y
_atom_site_fract_z
Si Si1 0.843421 0.651846 0.104110
Si Si2 0.747153 0.161983 0.232423
Si Si3 0.221930 0.842401 0.564213
Si Si4 0.696368 0.348130 0.835867
Si Si5 0.151915 0.342763 0.355516
Si Si6 0.609826 0.837461 0.982088
Si Si7 0.512302 0.837778 0.098069
O O1 0.865507 0.500000 0.158778
O O2 0.851573 0.749966 0.185340
O O3 0.888460 0.706814 0.100618
O O4 0.768584 0.648189 0.971941
O O5 0.774455 0.213284 0.348131
O O6 0.797212 0.206703 0.238233
O O7 0.741339 0.000000 0.224806
O O8 0.673876 0.221867 0.114484
O O9 0.168487 0.749876 0.448304
O O10 0.293970 0.824073 0.630967
O O11 0.199408 0.000000 0.528646
O O12 0.665676 0.500000 0.794110
O O13 0.147553 0.500000 0.374695
O O14 0.083119 0.289014 0.226393
O O15 0.544093 0.779236 0.927542
O O16 0.611584 0.000000 0.988255
O O17 0.509434 0.000000 0.091681
O O18 0.500000 0.778609 0.000000
#
# Coordination Sequence:
#
# PCOD8115970 Si02
#       7
#     8   8   8   8   8   8   8
#     4   8  13  21  33  51  76 102 123 146 185 233
#     4   8  13  22  37  57  78 101 130 159 188 225
#     4   9  16  27  42  57  77 105 131 156 189 228
#     4   8  13  21  34  52  74  98 124 155 186 219
#     4   9  17  27  40  60  81 100 127 161 192 222
#     4   8  13  21  35  56  80 103 127 157 191 226
#     4   9  15  23  38  60  82 102 127 160 192 221
#
# _framework density 15.337046000000001
#
# number of rings (size 3 to 8) (size 9 to 14) (size 15 to 20)
#    0.000    3.571    0.000    2.571    0.000    3.429 
#    0.000    0.714    0.000    2.143    0.000    1.000 
#    0.000    8.000    0.000    0.000    0.000    0.000 
#
# Total GULP energy -347001.282676 kJ/mol
# GULP energy per Si atom -12392.902953 kJ/mol
# Density = 1.530214 g / cm^3
# Si number density = 15.337046 Si / 1000 Ang^3
#
#
#
# Elastic Constant Matrix: (Units=GPa)
#
#
# Indices 1 2 3 4 5 6 
#
# 1 117.1818 37.2680 63.3143 0.0000 -20.7720 0.0000
# 2 37.2680 41.2054 36.6198 0.0000 -10.3692 0.0000
# 3 63.3143 36.6198 101.9631 0.0000 -15.0666 0.0000
# 4 0.0000 0.0000 0.0000 17.4429 0.0000 -4.9724
# 5 -20.7720 -10.3692 -15.0666 0.0000 24.9847 0.0000
# 6 0.0000 0.0000 0.0000 -4.9724 0.0000 17.3667
#
#
#
# Elastic Compliance Matrix: (Units=1/GPa)
#
#
# Indices 1 2 3 4 5 6 
#
# 1 0.014978 -0.006687 -0.006004 0.000000 0.006057 0.000000
# 2 -0.006687 0.040059 -0.009441 0.000000 0.005373 0.000000
# 3 -0.006004 -0.009441 0.017137 0.000000 0.001424 0.000000
# 4 0.000000 0.000000 0.000000 0.062425 0.000000 0.017874
# 5 0.006057 0.005373 0.001424 0.000000 0.048149 0.000000
# 6 0.000000 0.000000 0.000000 0.017874 0.000000 0.062699
#
#
# Mechanical properties :
#
#
# Convention : Reuss Voigt Hill
#
# Bulk Modulus (GPa) = 35.82936 59.41720 47.62328
# Shear Modulus (GPa) = 16.72162 20.16872 18.44517
#
# Velocity S-wave (km/s) = 3.30552 3.63027 3.47169
# Velocity P-wave (km/s) = 6.16284 7.50979 6.86941
#
# Compressibility (1/GPa) = 0.02791007
#
# Stress axis : x y z
#
# Youngs Moduli (GPa) = 66.76403 24.96333 58.35340
#
# Poissons Ratio (x) = 0.16692 0.35037
# Poissons Ratio (y) = 0.44643 0.55091
# Poissons Ratio (z) = 0.40087 0.23568
#
# Static dielectric constant tensor:
#      x y z
#    x 3.208150 0.000000 -0.229800 
#    y 0.000000 2.702620 0.000000 
#    z -0.229800 0.000000 2.826900 
# 
# 
# High freq. dielectric constant tensor:
#      x y z
#    x 1.589890 0.000000 -0.021390 
#    y 0.000000 1.545310 0.000000 
#    z -0.021390 0.000000 1.557830 
# 
# From -- ./inp_files/223337.got.cif
#   From: 2010.06.25/outbox.cif.g09.slc.cpg/sg12_112_cif.got.tgz:223337.got - 2010.06.28 00:19:55.
