data_PCOD8115976
_publ_section_title
;
Structure prediction by ZEFSAII (Michael W. Deem and Ramdas Pophale) SiO2 
 PCOD8115976
Probable space group: C 2/M
;
_chemical_formula_sum "Si O2"
_cell_formula_units_Z 40
_cell_length_a 23.198022
_cell_length_b 9.466363
_cell_length_c 11.541325
_cell_angle_alpha 90.000000
_cell_angle_beta 72.453000
_cell_angle_gamma 90.000000
_cell_volume 2416.555619
_symmetry_space_group_name_H-M "C 2/M"
_symmetry_group_IT_number 12
_symmetry_cell_setting 'monoclinic'
loop_
_space_group_symop_operation_xyz
x,y,z
-x,y,-z
-x,-y,-z
x,-y,z
1/2+x,1/2+y,z
1/2-x,1/2+y,-z
1/2-x,1/2-y,-z
1/2+x,1/2-y,z
loop_
_atom_site_type_symbol
_atom_site_label
_atom_site_fract_x
_atom_site_fract_y
_atom_site_fract_z
Si Si1 0.532597 0.832026 0.151980
Si Si2 0.089713 0.332293 0.884998
Si Si3 0.443526 0.168349 0.607530
Si Si4 0.318938 0.836239 0.573443
Si Si5 0.703957 0.164151 0.678690
O O1 0.466056 0.774351 0.158553
O O2 0.552387 0.770603 0.264267
O O3 0.530419 0.000000 0.158767
O O4 0.580705 0.784268 0.024109
O O5 0.089678 0.500000 0.875136
O O6 0.153149 0.275139 0.797127
O O7 0.500000 0.228007 0.500000
O O8 0.381552 0.221961 0.587613
O O9 0.445294 0.000000 0.606338
O O10 0.320694 0.809879 0.435390
O O11 0.264843 0.750314 0.665875
O O12 0.309201 0.000000 0.609102
O O13 0.717813 0.000000 0.691997
#
# Coordination Sequence:
#
# PCOD8115976 Si02
#       5
#     8   8   8   8   8
#     4   8  13  21  35  57  81 101 127 164 200 232
#     4   8  13  22  37  57  79 102 129 162 197 231
#     4   9  15  23  37  57  80 103 127 161 203 237
#     4   9  17  27  40  60  82 103 131 164 196 232
#     4   9  16  27  42  58  79 107 135 161 191 230
#
# _framework density 16.552484
#
# number of rings (size 3 to 8) (size 9 to 14) (size 15 to 20)
#    0.000    3.400    0.000    2.400    0.000    4.800 
#    0.000    1.000    0.000    0.600    0.000    4.200 
#    0.000    0.000    0.000    0.000    0.000    0.000 
#
# Total GULP energy -247888.237723 kJ/mol
# GULP energy per Si atom -12394.411886 kJ/mol
# Density = 1.651481 g / cm^3
# Si number density = 16.552484 Si / 1000 Ang^3
#
#
#
# Elastic Constant Matrix: (Units=GPa)
#
#
# Indices 1 2 3 4 5 6 
#
# 1 150.1579 27.5932 90.3204 0.0000 -14.7703 0.0000
# 2 27.5932 17.4460 22.9694 0.0000 -6.5496 0.0000
# 3 90.3204 22.9694 138.0606 0.0000 -19.1333 0.0000
# 4 0.0000 0.0000 0.0000 10.5463 0.0000 -5.0889
# 5 -14.7703 -6.5496 -19.1333 0.0000 35.4034 0.0000
# 6 0.0000 0.0000 0.0000 -5.0889 0.0000 18.0079
#
#
#
# Elastic Compliance Matrix: (Units=1/GPa)
#
#
# Indices 1 2 3 4 5 6 
#
# 1 0.012586 -0.011691 -0.006335 0.000000 -0.000336 0.000000
# 2 -0.011691 0.086170 -0.005572 0.000000 0.008053 0.000000
# 3 -0.006335 -0.005572 0.012761 0.000000 0.003223 0.000000
# 4 0.000000 0.000000 0.000000 0.109791 0.000000 0.031026
# 5 -0.000336 0.008053 0.003223 0.000000 0.031337 0.000000
# 6 0.000000 0.000000 0.000000 0.031026 0.000000 0.064299
#
#
# Mechanical properties :
#
#
# Convention : Reuss Voigt Hill
#
# Bulk Modulus (GPa) = 15.54706 65.27006 40.40856
# Shear Modulus (GPa) = 12.96746 23.77696 18.37221
#
# Velocity S-wave (km/s) = 2.80199 3.79418 3.33519
# Velocity P-wave (km/s) = 4.45883 7.66239 6.26871
#
# Compressibility (1/GPa) = 0.06432083
#
# Stress axis : x y z
#
# Youngs Moduli (GPa) = 79.45622 11.60496 78.36203
#
# Poissons Ratio (x) = 0.13568 0.49643
# Poissons Ratio (y) = 0.92894 0.43662
# Poissons Ratio (z) = 0.50336 0.06466
#
# Static dielectric constant tensor:
#      x y z
#    x 3.235710 0.000000 -0.072660 
#    y 0.000000 2.520250 0.000000 
#    z -0.072660 0.000000 3.403620 
# 
# 
# High freq. dielectric constant tensor:
#      x y z
#    x 1.637300 0.000000 -0.008140 
#    y 0.000000 1.566500 0.000000 
#    z -0.008140 0.000000 1.645140 
# 
# From -- ./inp_files/152680.got.cif
#   From: 2010.06.25/outbox.cif.g09.slc.cpg/sg12_77_cif.got.tgz:152680.got - 2010.06.28 00:19:55.
