data_PCOD8115684
_publ_section_title
;
Structure prediction by ZEFSAII (Michael W. Deem and Ramdas Pophale) SiO2 
 PCOD8115684
Probable space group: C 2/M
;
_chemical_formula_sum "Si O2"
_cell_formula_units_Z 56
_cell_length_a 9.196238
_cell_length_b 22.204221
_cell_length_c 16.019812
_cell_angle_alpha 90.000000
_cell_angle_beta 55.103084
_cell_angle_gamma 90.000000
_cell_volume 2682.957220
_symmetry_space_group_name_H-M "C 2/M"
_symmetry_group_IT_number 12
_symmetry_cell_setting 'monoclinic'
loop_
_space_group_symop_operation_xyz
x,y,z
-x,y,-z
-x,-y,-z
x,-y,z
1/2+x,1/2+y,z
1/2-x,1/2+y,-z
1/2-x,1/2-y,-z
1/2+x,1/2-y,z
loop_
_atom_site_type_symbol
_atom_site_label
_atom_site_fract_x
_atom_site_fract_y
_atom_site_fract_z
Si Si1 0.902270 0.068857 0.870874
Si Si2 0.190335 0.434396 0.246140
Si Si3 0.259216 0.154302 0.197829
Si Si4 0.868562 0.611384 0.900497
Si Si5 0.471016 0.176715 0.603629
Si Si6 0.811853 0.202980 0.604669
Si Si7 0.298712 0.269911 0.075028
O O1 0.886414 0.110026 0.793639
O O2 0.101462 0.075674 0.836217
O O3 0.852279 0.000000 0.866114
O O4 0.774766 0.093686 0.984268
O O5 0.153814 0.500000 0.300135
O O6 0.109014 0.437986 0.179302
O O7 0.106151 0.381589 0.327006
O O8 0.447376 0.124061 0.113613
O O9 0.228324 0.156493 0.307371
O O10 0.251998 0.220300 0.159334
O O11 0.814093 0.671176 0.865353
O O12 0.500000 0.154857 0.500000
O O13 0.652421 0.200068 0.589181
O O14 0.328889 0.231332 0.642899
O O15 0.000000 0.186432 0.500000
O O16 0.500000 0.288466 0.000000
O O17 0.250000 0.250000 0.000000
#
# Coordination Sequence:
#
# PCOD8115684 Si02
#       7
#     8   8   8   8   8   8   8
#     4  11  25  42  65  92 130 183 225 270 321 390
#     4  11  25  44  68  98 131 179 228 268 329 393
#     4  12  25  40  64  95 135 172 220 273 337 395
#     4  12  23  42  62  94 134 175 220 276 320 396
#     4  11  24  45  75 101 132 171 215 281 336 400
#     4  11  25  44  69 106 133 169 215 276 349 402
#     4  12  22  37  58  94 133 171 217 263 333 393
#
# _framework density 20.872489999999999
#
# number of rings (size 3 to 8) (size 9 to 14) (size 15 to 20)
#    0.000    0.571    4.286    4.714    4.000    3.143 
#    0.000    0.000    0.000    0.857    0.000    0.000 
#    0.000    0.000    0.000    0.000    0.000    0.000 
#
# Total GULP energy -347126.877438 kJ/mol
# GULP energy per Si atom -12397.388480 kJ/mol
# Density = 2.082498 g / cm^3
# Si number density = 20.872490 Si / 1000 Ang^3
#
#
#
# Elastic Constant Matrix: (Units=GPa)
#
#
# Indices 1 2 3 4 5 6 
#
# 1 94.4831 37.2962 34.7593 0.0000 8.0673 0.0000
# 2 37.2962 106.1772 44.0462 0.0000 -5.9233 0.0000
# 3 34.7593 44.0462 99.5682 0.0000 13.5786 0.0000
# 4 0.0000 0.0000 0.0000 10.9192 0.0000 -20.2394
# 5 8.0673 -5.9233 13.5786 0.0000 34.9588 0.0000
# 6 0.0000 0.0000 0.0000 -20.2394 0.0000 13.1453
#
#
#
# Elastic Compliance Matrix: (Units=1/GPa)
#
#
# Indices 1 2 3 4 5 6 
#
# 1 0.013240 -0.003715 -0.002615 0.000000 -0.002669 0.000000
# 2 -0.003715 0.013179 -0.005232 0.000000 0.005122 0.000000
# 3 -0.002615 -0.005232 0.014054 0.000000 -0.005742 0.000000
# 4 0.000000 0.000000 0.000000 -0.049400 0.000000 -0.076060
# 5 -0.002669 0.005122 -0.005742 0.000000 0.032319 0.000000
# 6 0.000000 0.000000 0.000000 -0.076060 0.000000 -0.041034
#
#
# Mechanical properties :
#
#
# Convention : Reuss Voigt Hill
#
# Bulk Modulus (GPa) = 57.63697 59.15911 58.39804
# Shear Modulus (GPa) = 443.88275 24.07978 233.98126
#
# Velocity S-wave (km/s) = 14.59883 3.40024 10.59923
# Velocity P-wave (km/s) = 17.65903 6.61968 13.33532
#
# Compressibility (1/GPa) = 0.01734998
#
# Stress axis : x y z
#
# Youngs Moduli (GPa) = 75.52751 75.87668 71.15613
#
# Poissons Ratio (x) = 0.28188 0.18605
# Poissons Ratio (y) = 0.28059 0.37227
# Poissons Ratio (z) = 0.19748 0.39697
#
# Static dielectric constant tensor:
#      x y z
#    x 3.986610 0.000000 0.112860 
#    y 0.000000 3.727060 0.000000 
#    z 0.112860 0.000000 3.666850 
# 
# 
# High freq. dielectric constant tensor:
#      x y z
#    x 1.833160 0.000000 0.009880 
#    y 0.000000 1.816040 0.000000 
#    z 0.009880 0.000000 1.811440 
# 
# From -- ./inp_files/198795.got.cif
#   From: 2010.06.25/outbox.cif.g09.slc.cpg/sg12_100_cif.got.tgz:198795.got - 2010.06.28 00:19:55.
