data_PCOD8115996
_publ_section_title
;
Structure prediction by ZEFSAII (Michael W. Deem and Ramdas Pophale) SiO2 
 PCOD8115996
Probable space group: C 2/M
;
_chemical_formula_sum "Si O2"
_cell_formula_units_Z 56
_cell_length_a 28.804959
_cell_length_b 9.278294
_cell_length_c 28.893373
_cell_angle_alpha 90.000000
_cell_angle_beta 28.626794
_cell_angle_gamma 90.000000
_cell_volume 3699.661341
_symmetry_space_group_name_H-M "C 2/M"
_symmetry_group_IT_number 12
_symmetry_cell_setting 'monoclinic'
loop_
_space_group_symop_operation_xyz
x,y,z
-x,y,-z
-x,-y,-z
x,-y,z
1/2+x,1/2+y,z
1/2-x,1/2+y,-z
1/2-x,1/2-y,-z
1/2+x,1/2-y,z
loop_
_atom_site_type_symbol
_atom_site_label
_atom_site_fract_x
_atom_site_fract_y
_atom_site_fract_z
Si Si1 0.598632 0.328540 0.934741
Si Si2 0.910261 0.837239 0.543945
Si Si3 0.385085 0.831326 0.798551
Si Si4 0.029907 0.334323 0.372165
Si Si5 0.148686 0.831461 0.087336
Si Si6 0.330091 0.667061 0.031745
Si Si7 0.294131 0.167616 0.715217
O O1 0.590993 0.500000 0.943103
O O2 0.613874 0.264272 0.973394
O O3 0.688444 0.281338 0.824108
O O4 0.500000 0.262039 0.000000
O O5 0.820057 0.755280 0.646129
O O6 0.000000 0.829554 0.500000
O O7 0.941640 0.761236 0.468680
O O8 0.879027 0.000000 0.560308
O O9 0.458827 0.800726 0.692132
O O10 0.420214 0.742806 0.813587
O O11 0.278864 0.770756 0.877484
O O12 0.381123 0.000000 0.814515
O O13 0.002506 0.500000 0.404725
O O14 0.130913 0.298073 0.309124
O O15 0.162079 0.000000 0.086714
O O16 0.250000 0.750000 0.000000
O O17 0.108985 0.810142 0.069351
O O18 0.316137 0.500000 0.055297
O O19 0.296056 0.000000 0.700632
#
# Coordination Sequence:
#
# PCOD8115996 Si02
#       7
#     8   8   8   8   8   8   8
#     4   9  15  23  39  61  79  99 134 173 198 220
#     4   9  17  26  36  53  77 102 129 161 192 228
#     4   9  15  24  38  55  78 103 129 158 190 231
#     4   9  15  24  39  56  76 104 131 156 189 232
#     4   9  16  24  36  52  74 102 131 160 191 231
#     4   8  13  23  35  50  75 103 128 159 195 225
#     4   9  15  25  40  55  74 102 133 161 193 230
#
# _framework density 15.136520000000001
#
# number of rings (size 3 to 8) (size 9 to 14) (size 15 to 20)
#    0.000    3.143    1.429    1.714    0.000    2.286 
#    0.000    0.000    0.000    0.429    0.000    0.000 
#    0.000    1.143    0.000    2.286    0.000    3.000 
#
# Total GULP energy -346953.620281 kJ/mol
# GULP energy per Si atom -12391.200724 kJ/mol
# Density = 1.510207 g / cm^3
# Si number density = 15.136520 Si / 1000 Ang^3
#
#
#
# Elastic Constant Matrix: (Units=GPa)
#
#
# Indices 1 2 3 4 5 6 
#
# 1 71.2988 31.3161 53.3141 0.0009 20.7608 0.0027
# 2 31.3161 63.7108 46.4041 0.0055 18.7172 -0.0020
# 3 53.3141 46.4041 100.4059 0.0200 26.4579 -0.0136
# 4 0.0009 0.0055 0.0200 18.9853 -0.0043 9.7589
# 5 20.7608 18.7172 26.4579 -0.0043 25.6557 0.0000
# 6 0.0027 -0.0020 -0.0136 9.7589 0.0000 13.7787
#
#
#
# Elastic Compliance Matrix: (Units=1/GPa)
#
#
# Indices 1 2 3 4 5 6 
#
# 1 0.024933 -0.002708 -0.009875 0.000025 -0.008017 -0.000033
# 2 -0.002708 0.025287 -0.008191 0.000003 -0.007810 -0.000006
# 3 -0.009875 -0.008191 0.021021 -0.000051 -0.007711 0.000057
# 4 0.000025 0.000003 -0.000051 0.082826 0.000044 -0.058663
# 5 -0.008017 -0.007810 -0.007711 0.000044 0.059115 -0.000038
# 6 -0.000033 -0.000006 0.000057 -0.058663 -0.000038 0.114124
#
#
# Mechanical properties :
#
#
# Convention : Reuss Voigt Hill
#
# Bulk Modulus (GPa) = 33.67772 55.27598 44.47685
# Shear Modulus (GPa) = 13.20119 18.64269 15.92194
#
# Velocity S-wave (km/s) = 2.95641 3.51328 3.24680
# Velocity P-wave (km/s) = 5.82678 7.28389 6.59570
#
# Compressibility (1/GPa) = 0.02969322
#
# Stress axis : x y z
#
# Youngs Moduli (GPa) = 40.10669 39.54537 47.57161
#
# Poissons Ratio (x) = 0.10708 0.46979
# Poissons Ratio (y) = 0.10860 0.38967
# Poissons Ratio (z) = 0.39607 0.32392
#
# Static dielectric constant tensor:
#      x y z
#    x 2.989530 -0.000010 0.398960 
#    y -0.000010 2.806280 0.000010 
#    z 0.398960 0.000010 2.926420 
# 
# 
# High freq. dielectric constant tensor:
#      x y z
#    x 1.543870 0.000000 0.043440 
#    y 0.000000 1.559170 0.000000 
#    z 0.043440 0.000000 1.562520 
# 
# From -- ./inp_files/247812.got.cif
#   From: 2010.06.25/outbox.cif.g09.slc.cpg/sg12_124_cif.got.tgz:247812.got - 2010.06.28 00:19:55.
