data_PCOD8115788
_publ_section_title
;
Structure prediction by ZEFSAII (Michael W. Deem and Ramdas Pophale) SiO2 
 PCOD8115788
Probable space group: C 2/M
;
_chemical_formula_sum "Si O2"
_cell_formula_units_Z 24
_cell_length_a 9.836746
_cell_length_b 20.684417
_cell_length_c 4.982883
_cell_angle_alpha 90.000000
_cell_angle_beta 117.278155
_cell_angle_gamma 90.000000
_cell_volume 901.105388
_symmetry_space_group_name_H-M "C 2/M"
_symmetry_group_IT_number 12
_symmetry_cell_setting 'monoclinic'
loop_
_space_group_symop_operation_xyz
x,y,z
-x,y,-z
-x,-y,-z
x,-y,z
1/2+x,1/2+y,z
1/2-x,1/2+y,-z
1/2-x,1/2-y,-z
1/2+x,1/2-y,z
loop_
_atom_site_type_symbol
_atom_site_label
_atom_site_fract_x
_atom_site_fract_y
_atom_site_fract_z
Si Si1 0.339686 0.572196 0.222547
Si Si2 0.397647 0.866819 0.662572
Si Si3 0.676100 0.301337 0.126527
O O1 0.500000 0.591392 0.500000
O O2 0.346245 0.500000 0.103861
O O3 0.204733 0.573388 0.323933
O O4 0.306106 0.624904 0.964928
O O5 0.500000 0.887848 0.500000
O O6 0.281705 0.806437 0.491671
O O7 0.500000 0.840324 0.000000
O O8 0.500000 0.283165 0.000000
O O9 0.750000 0.250000 0.000000
#
# Coordination Sequence:
#
# PCOD8115788 Si02
#       3
#     8   8   8
#     4  11  26  52  85 122 166 224 284 348 418 498
#     4  12  27  52  80 125 169 216 273 346 422 492
#     4  12  29  53  86 122 171 225 283 345 418 504
#
# _framework density 26.633953999999999
#
# number of rings (size 3 to 8) (size 9 to 14) (size 15 to 20)
#    0.000    0.333    6.667    0.000    4.667    6.000 
#    0.000    1.667    0.000    0.000    0.000    0.000 
#    0.000    0.000    0.000    0.000    0.000    0.000 
#
# Total GULP energy -148788.537340 kJ/mol
# GULP energy per Si atom -12399.044778 kJ/mol
# Density = 2.657333 g / cm^3
# Si number density = 26.633954 Si / 1000 Ang^3
#
#
#
# Elastic Constant Matrix: (Units=GPa)
#
#
# Indices 1 2 3 4 5 6 
#
# 1 245.4241 39.7636 78.6416 0.0000 10.7280 0.0000
# 2 39.7636 130.5369 29.0976 0.0000 7.4940 0.0000
# 3 78.6416 29.0976 153.3411 0.0000 27.5743 0.0000
# 4 0.0000 0.0000 0.0000 1.9142 0.0000 -26.0848
# 5 10.7280 7.4940 27.5743 0.0000 63.1291 0.0000
# 6 0.0000 0.0000 0.0000 -26.0848 0.0000 14.5948
#
#
#
# Elastic Compliance Matrix: (Units=1/GPa)
#
#
# Indices 1 2 3 4 5 6 
#
# 1 0.005003 -0.001000 -0.002436 0.000000 0.000332 0.000000
# 2 -0.001000 0.008205 -0.000976 0.000000 -0.000378 0.000000
# 3 -0.002436 -0.000976 0.008530 0.000000 -0.003196 0.000000
# 4 0.000000 0.000000 0.000000 -0.022368 0.000000 -0.039978
# 5 0.000332 -0.000378 -0.003196 0.000000 0.017225 0.000000
# 6 0.000000 0.000000 0.000000 -0.039978 0.000000 -0.002934
#
#
# Mechanical properties :
#
#
# Convention : Reuss Voigt Hill
#
# Bulk Modulus (GPa) = 77.43436 91.58975 84.51205
# Shear Modulus (GPa) = 186.64626 41.38091 114.01358
#
# Velocity S-wave (km/s) = 8.38036 3.94596 6.54985
# Velocity P-wave (km/s) = 11.08049 7.43127 9.43401
#
# Compressibility (1/GPa) = 0.01291416
#
# Stress axis : x y z
#
# Youngs Moduli (GPa) = 199.89983 121.88360 117.22659
#
# Poissons Ratio (x) = 0.12189 0.28551
# Poissons Ratio (y) = 0.19990 0.11442
# Poissons Ratio (z) = 0.48687 0.11897
#
# Static dielectric constant tensor:
#      x y z
#    x 6.014940 0.000000 0.506100 
#    y 0.000000 4.625050 0.000000 
#    z 0.506100 0.000000 5.264180 
# 
# 
# High freq. dielectric constant tensor:
#      x y z
#    x 2.102820 0.000000 0.015420 
#    y 0.000000 2.062920 0.000000 
#    z 0.015420 0.000000 2.074170 
# 
# From -- ./inp_files/5243.got.cif
#   From: 2010.06.25/outbox.cif.g09.slc.cpg/sg12_3_cif.got.tgz:5243.got - 2010.06.28 00:19:55.
