data_PCOD8115243
_publ_section_title
;
Structure prediction by ZEFSAII (Michael W. Deem and Ramdas Pophale) SiO2 
 PCOD8115243
Probable space group: C 2/M
;
_chemical_formula_sum "Si O2"
_cell_formula_units_Z 52
_cell_length_a 20.000876
_cell_length_b 20.880164
_cell_length_c 11.386383
_cell_angle_alpha 90.000000
_cell_angle_beta 146.251515
_cell_angle_gamma 90.000000
_cell_volume 2641.742557
_symmetry_space_group_name_H-M "C 2/M"
_symmetry_group_IT_number 12
_symmetry_cell_setting 'monoclinic'
loop_
_space_group_symop_operation_xyz
x,y,z
-x,y,-z
-x,-y,-z
x,-y,z
1/2+x,1/2+y,z
1/2-x,1/2+y,-z
1/2-x,1/2-y,-z
1/2+x,1/2-y,z
loop_
_atom_site_type_symbol
_atom_site_label
_atom_site_fract_x
_atom_site_fract_y
_atom_site_fract_z
Si Si1 0.867850 0.676104 0.264870
Si Si2 0.234790 0.072681 0.202115
Si Si3 0.246209 0.195824 0.856084
Si Si4 0.023151 0.071668 0.283272
Si Si5 0.865950 0.706316 0.791613
Si Si6 0.500000 0.624453 0.500000
Si Si7 0.685939 0.345815 0.353820
O O1 0.840600 0.609161 0.288298
O O2 0.767920 0.727410 0.160072
O O3 0.000000 0.698053 0.500000
O O4 0.850894 0.671476 0.098632
O O5 0.212982 0.100008 0.299287
O O6 0.277685 0.000000 0.279081
O O7 0.115289 0.078599 0.951627
O O8 0.288135 0.179511 0.786523
O O9 0.116840 0.166719 0.700966
O O10 0.096658 0.125334 0.320632
O O11 0.034320 0.081135 0.438984
O O12 0.070093 0.000000 0.321050
O O13 0.811325 0.675707 0.594651
O O14 0.871489 0.783444 0.791085
O O15 0.000000 0.679735 0.000000
#
# Coordination Sequence:
#
# PCOD8115243 Si02
#       7
#     8   8   8   8   8   4   8
#     4  11  24  39  64  91 125 162 204 250 319 372
#     4  11  23  40  60  89 123 164 212 252 301 372
#     4  11  23  40  64  95 125 160 201 261 313 375
#     4  11  23  40  64  91 124 162 207 260 307 366
#     4  11  24  38  64  94 123 159 204 258 316 372
#     4  12  21  42  64  96 125 158 206 262 318 372
#     4  11  23  39  63  90 124 161 204 255 317 369
#
# _framework density 19.683976000000001
#
# number of rings (size 3 to 8) (size 9 to 14) (size 15 to 20)
#    0.000    0.923    5.385    2.077    2.154    1.538 
#    0.000    0.000    0.000    1.846    0.000    0.000 
#    0.000    0.000    0.000    0.000    0.000    0.000 
#
# Total GULP energy -322467.158954 kJ/mol
# GULP energy per Si atom -12402.583037 kJ/mol
# Density = 1.963917 g / cm^3
# Si number density = 19.683976 Si / 1000 Ang^3
#
#
#
# Elastic Constant Matrix: (Units=GPa)
#
#
# Indices 1 2 3 4 5 6 
#
# 1 93.2643 28.2318 25.2050 0.0000 -14.0964 0.0000
# 2 28.2318 74.1685 16.5964 0.0000 -3.8394 0.0000
# 3 25.2050 16.5964 108.4255 0.0000 -8.0963 0.0000
# 4 0.0000 0.0000 0.0000 22.1365 0.0000 -2.5371
# 5 -14.0964 -3.8394 -8.0963 0.0000 33.3303 0.0000
# 6 0.0000 0.0000 0.0000 -2.5371 0.0000 34.8455
#
#
#
# Elastic Compliance Matrix: (Units=1/GPa)
#
#
# Indices 1 2 3 4 5 6 
#
# 1 0.013302 -0.004359 -0.002080 0.000000 0.004618 0.000000
# 2 -0.004359 0.015430 -0.001378 0.000000 -0.000401 0.000000
# 3 -0.002080 -0.001378 0.010022 0.000000 0.001396 0.000000
# 4 0.000000 0.000000 0.000000 0.045554 0.000000 0.003317
# 5 0.004618 -0.000401 0.001396 0.000000 0.032249 0.000000
# 6 0.000000 0.000000 0.000000 0.003317 0.000000 0.028940
#
#
# Mechanical properties :
#
#
# Convention : Reuss Voigt Hill
#
# Bulk Modulus (GPa) = 43.25544 46.21388 44.73466
# Shear Modulus (GPa) = 29.61439 31.78413 30.69926
#
# Velocity S-wave (km/s) = 3.88299 4.02272 3.95347
# Velocity P-wave (km/s) = 6.49046 6.71604 6.60422
#
# Compressibility (1/GPa) = 0.02311848
#
# Stress axis : x y z
#
# Youngs Moduli (GPa) = 75.17758 64.81036 99.78333
#
# Poissons Ratio (x) = 0.28249 0.20757
# Poissons Ratio (y) = 0.32768 0.13755
# Poissons Ratio (z) = 0.15638 0.08934
#
# Static dielectric constant tensor:
#      x y z
#    x 3.462760 0.000000 -0.183580 
#    y 0.000000 3.544270 0.000000 
#    z -0.183580 0.000000 3.587310 
# 
# 
# High freq. dielectric constant tensor:
#      x y z
#    x 1.766210 0.000000 -0.015550 
#    y 0.000000 1.757820 0.000000 
#    z -0.015550 0.000000 1.772720 
# 
# From -- ./inp_files/169827.got.cif
#   From: 2010.06.25/outbox.cif.g09.slc.cpg/sg12_85_cif.got.tgz:169827.got - 2010.06.28 00:19:55.
