data_PCOD8115951
_publ_section_title
;
Structure prediction by ZEFSAII (Michael W. Deem and Ramdas Pophale) SiO2 
 PCOD8115951
Probable space group: C 2/M
;
_chemical_formula_sum "Si O2"
_cell_formula_units_Z 56
_cell_length_a 30.818086
_cell_length_b 9.135441
_cell_length_c 12.791533
_cell_angle_alpha 90.000000
_cell_angle_beta 89.999943
_cell_angle_gamma 90.000000
_cell_volume 3601.287350
_symmetry_space_group_name_H-M "C 2/M"
_symmetry_group_IT_number 12
_symmetry_cell_setting 'monoclinic'
loop_
_space_group_symop_operation_xyz
x,y,z
-x,y,-z
-x,-y,-z
x,-y,z
1/2+x,1/2+y,z
1/2-x,1/2+y,-z
1/2-x,1/2-y,-z
1/2+x,1/2-y,z
loop_
_atom_site_type_symbol
_atom_site_label
_atom_site_fract_x
_atom_site_fract_y
_atom_site_fract_z
Si Si1 0.951494 0.675128 0.775494
Si Si2 0.791734 0.165055 0.375591
Si Si3 0.877672 0.671900 0.620280
Si Si4 0.951494 0.324872 0.224507
Si Si5 0.122328 0.671900 0.620280
Si Si6 0.551314 0.840534 1.000000
Si Si7 0.208266 0.165055 0.375591
O O1 0.951740 0.500000 0.781886
O O2 0.918495 0.730102 0.686920
O O3 1.000000 0.731032 0.746870
O O4 0.936339 0.739098 0.889958
O O5 0.835089 0.246327 0.337485
O O6 0.789806 0.165400 0.500000
O O7 0.750000 0.250000 0.329907
O O8 0.791565 0.000000 0.331832
O O9 0.869831 0.500000 0.634941
O O10 0.887396 0.710866 0.500000
O O11 0.835089 0.753673 0.662515
O O12 0.951740 0.500000 0.218114
O O13 0.918495 0.269899 0.313080
O O14 0.936339 0.260902 0.110042
O O15 0.130169 0.500000 0.634940
O O16 0.573910 0.000000 1.000000
O O17 0.500000 0.861143 0.000000
O O18 0.208435 0.000000 0.331832
#
# Coordination Sequence:
#
# PCOD8115951 Si02
#       7
#     8   8   8   8   8   8   8
#     4   8  13  21  34  53  77 104 132 161 190 219
#     4   9  16  26  40  56  75 100 129 159 190 225
#     4   9  16  24  35  55  82 106 127 153 188 230
#     4   8  13  21  34  53  77 104 132 161 190 219
#     4   9  16  24  35  55  82 106 127 153 188 230
#     4   7  10  18  32  50  72  97 128 165 196 217
#     4   9  16  26  40  56  75 100 129 159 190 225
#
# _framework density 15.549994999999999
#
# number of rings (size 3 to 8) (size 9 to 14) (size 15 to 20)
#    0.000    3.571    0.000    2.571    0.000    4.000 
#    0.000    2.857    0.000    0.857    0.000    6.000 
#    0.000    3.429    0.000    0.000    0.000    0.000 
#
# Total GULP energy -346870.874779 kJ/mol
# GULP energy per Si atom -12388.245528 kJ/mol
# Density = 1.551460 g / cm^3
# Si number density = 15.549995 Si / 1000 Ang^3
#
#
#
# Elastic Constant Matrix: (Units=GPa)
#
#
# Indices 1 2 3 4 5 6 
#
# 1 135.4692 40.0839 65.9366 0.0000 0.0003 0.0000
# 2 40.0839 45.2780 23.6523 0.0000 0.0001 0.0000
# 3 65.9366 23.6523 78.8442 0.0000 0.0001 0.0000
# 4 0.0000 0.0000 0.0000 4.8367 0.0000 0.0000
# 5 0.0003 0.0001 0.0001 0.0000 3.2241 0.0000
# 6 0.0000 0.0000 0.0000 0.0000 0.0000 18.5146
#
#
#
# Elastic Compliance Matrix: (Units=1/GPa)
#
#
# Indices 1 2 3 4 5 6 
#
# 1 0.014382 -0.007648 -0.009733 0.000000 -0.000001 0.000000
# 2 -0.007648 0.030257 -0.002681 0.000000 0.000000 0.000000
# 3 -0.009733 -0.002681 0.021627 0.000000 0.000001 0.000000
# 4 0.000000 0.000000 0.000000 0.206752 0.000000 0.000000
# 5 -0.000001 0.000000 0.000001 0.000000 0.310167 0.000000
# 6 0.000000 0.000000 0.000000 0.000000 0.000000 0.054012
#
#
# Mechanical properties :
#
#
# Convention : Reuss Voigt Hill
#
# Bulk Modulus (GPa) = 38.25244 57.65967 47.95605
# Shear Modulus (GPa) = 7.28826 13.97631 10.63229
#
# Velocity S-wave (km/s) = 2.16729 3.00125 2.61770
# Velocity P-wave (km/s) = 5.56021 7.01218 6.32798
#
# Compressibility (1/GPa) = 0.02614213
#
# Stress axis : x y z
#
# Youngs Moduli (GPa) = 69.53053 33.05054 46.23754
#
# Poissons Ratio (x) = 0.25276 0.45005
# Poissons Ratio (y) = 0.53175 0.12396
# Poissons Ratio (z) = 0.67677 0.08861
#
# Static dielectric constant tensor:
#      x y z
#    x 3.035940 0.000000 0.000000 
#    y 0.000000 2.664580 0.000000 
#    z 0.000000 0.000000 3.050660 
# 
# 
# High freq. dielectric constant tensor:
#      x y z
#    x 1.589890 0.000000 0.000000 
#    y 0.000000 1.557110 0.000000 
#    z 0.000000 0.000000 1.568030 
# 
# From -- ./inp_files/247865.got.cif
#   From: 2010.06.25/outbox.cif.g09.slc.cpg/sg12_124_cif.got.tgz:247865.got - 2010.06.28 00:19:55.
