data_PCOD8115303
_publ_section_title
;
Structure prediction by ZEFSAII (Michael W. Deem and Ramdas Pophale) SiO2 
 PCOD8115303
Probable space group: C 2/M
;
_chemical_formula_sum "Si O2"
_cell_formula_units_Z 40
_cell_length_a 29.457064
_cell_length_b 14.476315
_cell_length_c 9.415376
_cell_angle_alpha 90.000000
_cell_angle_beta 151.196662
_cell_angle_gamma 90.000000
_cell_volume 1934.444200
_symmetry_space_group_name_H-M "C 2/M"
_symmetry_group_IT_number 12
_symmetry_cell_setting 'monoclinic'
loop_
_space_group_symop_operation_xyz
x,y,z
-x,y,-z
-x,-y,-z
x,-y,z
1/2+x,1/2+y,z
1/2-x,1/2+y,-z
1/2-x,1/2-y,-z
1/2+x,1/2-y,z
loop_
_atom_site_type_symbol
_atom_site_label
_atom_site_fract_x
_atom_site_fract_y
_atom_site_fract_z
Si Si1 0.841651 0.771094 0.337287
Si Si2 0.893002 0.103269 0.237102
Si Si3 0.722858 0.342170 0.342473
Si Si4 0.890537 0.102897 0.708899
Si Si5 0.900295 0.396633 0.663564
O O1 0.902239 0.840950 0.409347
O O2 0.826608 0.824257 0.445767
O O3 0.886251 0.671463 0.491812
O O4 0.750000 0.750000 0.000000
O O5 0.000000 0.085962 0.500000
O O6 0.845309 0.000000 0.119357
O O7 0.835452 0.166389 0.965770
O O8 0.750000 0.250000 0.500000
O O9 0.653380 0.401027 0.253391
O O10 0.821369 0.390465 0.571182
O O11 0.883708 0.000000 0.625102
O O12 0.000000 0.135754 0.000000
O O13 0.902050 0.500000 0.606490
O O14 0.000000 0.368351 0.000000
#
# Coordination Sequence:
#
# PCOD8115303 Si02
#       5
#     8   8   8   8   8
#     4  12  23  40  63  94 127 165 205 261 320 376
#     4  11  24  41  66  98 132 164 201 263 336 390
#     4  12  23  41  65  95 129 170 211 259 316 378
#     4  11  23  40  66  96 125 158 205 266 323 378
#     4  11  25  44  66  89 126 178 224 261 304 371
#
# _framework density 20.677775
#
# number of rings (size 3 to 8) (size 9 to 14) (size 15 to 20)
#    0.000    0.600    4.000    4.200    2.800    4.000 
#    0.000    0.000    0.000    0.600    0.000    0.000 
#    0.000    0.000    0.000    0.000    0.000    0.000 
#
# Total GULP energy -247823.683161 kJ/mol
# GULP energy per Si atom -12391.184158 kJ/mol
# Density = 2.063071 g / cm^3
# Si number density = 20.677775 Si / 1000 Ang^3
#
#
#
# Elastic Constant Matrix: (Units=GPa)
#
#
# Indices 1 2 3 4 5 6 
#
# 1 115.0180 27.5008 44.0736 0.0000 2.5140 0.0000
# 2 27.5008 143.9756 61.7906 0.0000 -21.0486 0.0000
# 3 44.0736 61.7906 135.1463 0.0000 0.9547 0.0000
# 4 0.0000 0.0000 0.0000 41.8247 0.0000 -27.0630
# 5 2.5140 -21.0486 0.9547 0.0000 39.8980 0.0000
# 6 0.0000 0.0000 0.0000 -27.0630 0.0000 65.0199
#
#
#
# Elastic Compliance Matrix: (Units=1/GPa)
#
#
# Indices 1 2 3 4 5 6 
#
# 1 0.010018 -0.000821 -0.002885 0.000000 -0.000995 0.000000
# 2 -0.000821 0.009669 -0.004190 0.000000 0.005253 0.000000
# 3 -0.002885 -0.004190 0.010272 0.000000 -0.002274 0.000000
# 4 0.000000 0.000000 0.000000 0.032722 0.000000 0.013620
# 5 -0.000995 0.005253 -0.002274 0.000000 0.027952 0.000000
# 6 0.000000 0.000000 0.000000 0.013620 0.000000 0.021049
#
#
# Mechanical properties :
#
#
# Convention : Reuss Voigt Hill
#
# Bulk Modulus (GPa) = 70.58610 73.42999 72.00804
# Shear Modulus (GPa) = 37.82301 46.73352 42.27827
#
# Velocity S-wave (km/s) = 4.28151 4.75919 4.52666
# Velocity P-wave (km/s) = 7.65847 8.11101 7.88799
#
# Compressibility (1/GPa) = 0.01416710
#
# Stress axis : x y z
#
# Youngs Moduli (GPa) = 99.82361 103.42765 97.35348
#
# Poissons Ratio (x) = 0.08492 0.28082
# Poissons Ratio (y) = 0.08196 0.40791
# Poissons Ratio (z) = 0.28794 0.43336
#
# Static dielectric constant tensor:
#      x y z
#    x 5.087050 0.000000 0.229000 
#    y 0.000000 4.481680 0.000000 
#    z 0.229000 0.000000 3.995620 
# 
# 
# High freq. dielectric constant tensor:
#      x y z
#    x 1.804430 0.000000 0.000570 
#    y 0.000000 1.824140 0.000000 
#    z 0.000570 0.000000 1.812990 
# 
# From -- ./inp_files/58946.got.cif
#   From: 2010.06.25/outbox.cif.g09.slc.cpg/sg12_30_cif.got.tgz:58946.got - 2010.06.28 00:19:55.
