data_PCOD8115571
_publ_section_title
;
Structure prediction by ZEFSAII (Michael W. Deem and Ramdas Pophale) SiO2 
 PCOD8115571
Probable space group: C 2/M
;
_chemical_formula_sum "Si O2"
_cell_formula_units_Z 32
_cell_length_a 10.077826
_cell_length_b 23.690139
_cell_length_c 9.932122
_cell_angle_alpha 90.000000
_cell_angle_beta 140.100108
_cell_angle_gamma 90.000000
_cell_volume 1521.031090
_symmetry_space_group_name_H-M "C 2/M"
_symmetry_group_IT_number 12
_symmetry_cell_setting 'monoclinic'
loop_
_space_group_symop_operation_xyz
x,y,z
-x,y,-z
-x,-y,-z
x,-y,z
1/2+x,1/2+y,z
1/2-x,1/2+y,-z
1/2-x,1/2-y,-z
1/2+x,1/2-y,z
loop_
_atom_site_type_symbol
_atom_site_label
_atom_site_fract_x
_atom_site_fract_y
_atom_site_fract_z
Si Si1 0.485323 0.237448 0.644224
Si Si2 0.365848 0.563680 0.102700
Si Si3 0.826254 0.673221 0.971595
Si Si4 0.281079 0.063567 0.314330
O O1 0.500000 0.219382 0.500000
O O2 0.250000 0.250000 0.500000
O O3 0.617941 0.293320 0.776217
O O4 0.585167 0.187200 0.811033
O O5 0.356460 0.500000 0.157306
O O6 0.230708 0.606851 0.085780
O O7 0.600623 0.588484 0.270614
O O8 0.278978 0.562727 0.886255
O O9 0.000000 0.689643 0.000000
O O10 0.500000 0.096610 0.500000
O O11 0.308615 0.000000 0.389302
#
# Coordination Sequence:
#
# PCOD8115571 Si02
#       4
#     8   8   8   8
#     4  11  24  45  68  90 121 163 212 266 319 362
#     4   9  19  34  56  88 126 161 198 246 304 370
#     4  11  24  41  64  93 126 162 209 258 313 384
#     4   8  15  31  52  80 117 159 205 247 287 351
#
# _framework density 21.038360000000001
#
# number of rings (size 3 to 8) (size 9 to 14) (size 15 to 20)
#    0.000    2.250    2.500    1.500    0.000    7.500 
#    0.000    0.000    0.000    0.750    0.000    0.000 
#    0.000    0.000    0.000    0.000    0.000    0.000 
#
# Total GULP energy -198260.098578 kJ/mol
# GULP energy per Si atom -12391.256161 kJ/mol
# Density = 2.099048 g / cm^3
# Si number density = 21.038360 Si / 1000 Ang^3
#
#
#
# Elastic Constant Matrix: (Units=GPa)
#
#
# Indices 1 2 3 4 5 6 
#
# 1 125.4896 41.2244 61.7202 0.0000 19.2004 0.0000
# 2 41.2244 102.9366 30.7558 0.0000 10.3752 0.0000
# 3 61.7202 30.7558 112.3624 0.0000 18.4903 0.0000
# 4 0.0000 0.0000 0.0000 13.0968 0.0000 3.5310
# 5 19.2004 10.3752 18.4903 0.0000 48.0809 0.0000
# 6 0.0000 0.0000 0.0000 3.5310 0.0000 27.8022
#
#
#
# Elastic Compliance Matrix: (Units=1/GPa)
#
#
# Indices 1 2 3 4 5 6 
#
# 1 0.011904 -0.002949 -0.005395 0.000000 -0.002042 0.000000
# 2 -0.002949 0.011381 -0.001372 0.000000 -0.000751 0.000000
# 3 -0.005395 -0.001372 0.012635 0.000000 -0.002409 0.000000
# 4 0.000000 0.000000 0.000000 0.079062 0.000000 -0.010041
# 5 -0.002042 -0.000751 -0.002409 0.000000 0.022702 0.000000
# 6 0.000000 0.000000 0.000000 -0.010041 0.000000 0.037244
#
#
# Mechanical properties :
#
#
# Convention : Reuss Voigt Hill
#
# Bulk Modulus (GPa) = 60.65170 67.57659 64.11414
# Shear Modulus (GPa) = 25.01796 31.60187 28.30991
#
# Velocity S-wave (km/s) = 3.45216 3.87991 3.67227
# Velocity P-wave (km/s) = 6.69190 7.22924 6.96576
#
# Compressibility (1/GPa) = 0.01648758
#
# Stress axis : x y z
#
# Youngs Moduli (GPa) = 84.00703 87.86267 79.14394
#
# Poissons Ratio (x) = 0.25914 0.42701
# Poissons Ratio (y) = 0.24777 0.10856
# Poissons Ratio (z) = 0.45324 0.12052
#
# Static dielectric constant tensor:
#      x y z
#    x 3.856710 0.000000 0.428910 
#    y 0.000000 3.724210 0.000000 
#    z 0.428910 0.000000 4.013620 
# 
# 
# High freq. dielectric constant tensor:
#      x y z
#    x 1.816350 0.000000 0.030080 
#    y 0.000000 1.810240 0.000000 
#    z 0.030080 0.000000 1.824800 
# 
# From -- ./inp_files/40076.got.cif
#   From: 2010.06.25/outbox.cif.g09.slc.cpg/sg12_21_cif.got.tgz:40076.got - 2010.06.28 00:19:55.
