data_PCOD8115644
_publ_section_title
;
Structure prediction by ZEFSAII (Michael W. Deem and Ramdas Pophale) SiO2 
 PCOD8115644
Probable space group: C 2/M
;
_chemical_formula_sum "Si O2"
_cell_formula_units_Z 40
_cell_length_a 16.511337
_cell_length_b 14.606044
_cell_length_c 11.628449
_cell_angle_alpha 90.000000
_cell_angle_beta 38.120496
_cell_angle_gamma 90.000000
_cell_volume 1731.191515
_symmetry_space_group_name_H-M "C 2/M"
_symmetry_group_IT_number 12
_symmetry_cell_setting 'monoclinic'
loop_
_space_group_symop_operation_xyz
x,y,z
-x,y,-z
-x,-y,-z
x,-y,z
1/2+x,1/2+y,z
1/2-x,1/2+y,-z
1/2-x,1/2-y,-z
1/2+x,1/2-y,z
loop_
_atom_site_type_symbol
_atom_site_label
_atom_site_fract_x
_atom_site_fract_y
_atom_site_fract_z
Si Si1 0.705592 0.898359 0.774007
Si Si2 0.065110 0.101613 0.643842
Si Si3 0.851080 0.601919 0.673238
Si Si4 0.871992 0.208458 0.207651
Si Si5 0.235818 0.144001 0.037403
O O1 0.856035 0.890052 0.563583
O O2 0.622667 0.819341 0.802103
O O3 0.694896 0.884210 0.922123
O O4 0.649802 0.000000 0.805453
O O5 0.124467 0.175996 0.665181
O O6 0.914894 0.118005 0.784908
O O7 0.082845 0.000000 0.677600
O O8 0.842879 0.500000 0.627277
O O9 0.758967 0.672335 0.708043
O O10 0.000000 0.639480 0.500000
O O11 0.807111 0.592147 0.854351
O O12 0.000000 0.168149 0.000000
O O13 0.250000 0.250000 0.000000
#
# Coordination Sequence:
#
# PCOD8115644 Si02
#       5
#     8   8   8   8   8
#     4  11  25  44  67 100 140 182 226 280 343 411
#     4  11  24  43  72 104 136 180 230 285 344 405
#     4  11  25  44  70 101 136 181 229 283 340 398
#     4  12  24  45  71 102 138 182 226 285 344 405
#     4  12  23  42  70 102 138 180 230 282 340 405
#
# _framework density 23.105474000000001
#
# number of rings (size 3 to 8) (size 9 to 14) (size 15 to 20)
#    0.000    0.600    4.000    3.600    2.800    2.800 
#    3.600    0.000    0.000    0.000    0.000    0.000 
#    0.000    0.000    0.000    0.000    0.000    0.000 
#
# Total GULP energy -248054.352552 kJ/mol
# GULP energy per Si atom -12402.717628 kJ/mol
# Density = 2.305288 g / cm^3
# Si number density = 23.105474 Si / 1000 Ang^3
#
#
#
# Elastic Constant Matrix: (Units=GPa)
#
#
# Indices 1 2 3 4 5 6 
#
# 1 69.4566 34.3782 9.9952 0.0000 -1.1055 0.0000
# 2 34.3782 151.7370 -2.2102 0.0000 2.2648 0.0000
# 3 9.9952 -2.2102 86.5875 0.0000 -10.2412 0.0000
# 4 0.0000 0.0000 0.0000 30.2385 0.0000 0.3031
# 5 -1.1055 2.2648 -10.2412 0.0000 44.6627 0.0000
# 6 0.0000 0.0000 0.0000 0.3031 0.0000 21.4536
#
#
#
# Elastic Compliance Matrix: (Units=1/GPa)
#
#
# Indices 1 2 3 4 5 6 
#
# 1 0.016559 -0.003783 -0.001991 0.000000 0.000145 0.000000
# 2 -0.003783 0.007461 0.000587 0.000000 -0.000337 0.000000
# 3 -0.001991 0.000587 0.012113 0.000000 0.002698 0.000000
# 4 0.000000 0.000000 0.000000 0.033075 0.000000 -0.000467
# 5 0.000145 -0.000337 0.002698 0.000000 0.023029 0.000000
# 6 0.000000 0.000000 0.000000 -0.000467 0.000000 0.046619
#
#
# Mechanical properties :
#
#
# Convention : Reuss Voigt Hill
#
# Bulk Modulus (GPa) = 38.82015 43.56748 41.19381
# Shear Modulus (GPa) = 31.68264 36.97885 34.33075
#
# Velocity S-wave (km/s) = 3.70701 4.00489 3.85882
# Velocity P-wave (km/s) = 5.92962 6.34684 6.14177
#
# Compressibility (1/GPa) = 0.02575982
#
# Stress axis : x y z
#
# Youngs Moduli (GPa) = 60.39168 134.03073 82.55619
#
# Poissons Ratio (x) = 0.50700 0.16435
# Poissons Ratio (y) = 0.22845 -0.04848
# Poissons Ratio (z) = 0.12023 -0.07870
#
# Static dielectric constant tensor:
#      x y z
#    x 3.854150 0.000000 0.084610 
#    y 0.000000 4.413080 0.000000 
#    z 0.084610 0.000000 4.433680 
# 
# 
# High freq. dielectric constant tensor:
#      x y z
#    x 1.888320 0.000000 -0.000630 
#    y 0.000000 1.932630 0.000000 
#    z -0.000630 0.000000 1.930010 
# 
# From -- ./inp_files/155754.got.cif
#   From: 2010.06.25/outbox.cif.g09.slc.cpg/sg12_78_cif.got.tgz:155754.got - 2010.06.28 00:19:55.
