data_PCOD8115432
_publ_section_title
;
Structure prediction by ZEFSAII (Michael W. Deem and Ramdas Pophale) SiO2 
 PCOD8115432
Probable space group: C 2/M
;
_chemical_formula_sum "Si O2"
_cell_formula_units_Z 52
_cell_length_a 9.023140
_cell_length_b 18.485705
_cell_length_c 15.283349
_cell_angle_alpha 90.000000
_cell_angle_beta 98.461027
_cell_angle_gamma 90.000000
_cell_volume 2521.503345
_symmetry_space_group_name_H-M "C 2/M"
_symmetry_group_IT_number 12
_symmetry_cell_setting 'monoclinic'
loop_
_space_group_symop_operation_xyz
x,y,z
-x,y,-z
-x,-y,-z
x,-y,z
1/2+x,1/2+y,z
1/2-x,1/2+y,-z
1/2-x,1/2-y,-z
1/2+x,1/2-y,z
loop_
_atom_site_type_symbol
_atom_site_label
_atom_site_fract_x
_atom_site_fract_y
_atom_site_fract_z
Si Si1 0.049416 0.500000 0.201444
Si Si2 0.139804 0.421453 0.453527
Si Si3 0.187718 0.785086 0.259796
Si Si4 0.019962 0.652830 0.282838
Si Si5 0.336695 0.500000 0.131695
Si Si6 0.852595 0.186676 0.544866
Si Si7 0.711595 0.000000 0.937609
Si Si8 0.937596 0.118008 0.900889
O O1 0.229560 0.500000 0.207221
O O2 0.994101 0.572459 0.244406
O O3 0.962624 0.500000 0.101706
O O4 0.185497 0.500000 0.414347
O O5 0.276675 0.391523 0.523078
O O6 0.000000 0.438844 0.500000
O O7 0.091400 0.357818 0.384012
O O8 0.364324 0.802349 0.273300
O O9 0.117207 0.807800 0.347885
O O10 0.104536 0.819591 0.169668
O O11 0.145525 0.700091 0.242248
O O12 0.437032 0.571171 0.137558
O O13 0.221583 0.500000 0.041808
O O14 0.750000 0.250000 0.500000
O O15 0.000000 0.189927 0.500000
O O16 0.791388 0.929398 0.905397
O O17 0.000000 0.147859 0.000000
#
# Coordination Sequence:
#
# PCOD8115432 Si02
#       8
#     4   8   8   8   4   8   4   8
#     4  12  23  40  65 101 128 171 230 274 323 396
#     4  11  23  43  65  92 130 172 219 272 326 386
#     4  12  25  43  67  97 134 177 223 271 339 396
#     4  12  26  41  68  95 134 177 222 272 332 399
#     4   9  21  37  67  97 134 169 221 284 334 380
#     4  12  24  41  68  94 129 174 220 270 327 394
#     4   9  17  41  67  94 126 181 223 267 331 410
#     4   9  20  42  68  95 134 179 220 270 338 401
#
# _framework density 20.622619
#
# number of rings (size 3 to 8) (size 9 to 14) (size 15 to 20)
#    0.000    1.077    5.385    2.538    2.154    0.308 
#    2.769    2.308    0.000    0.000    0.000    0.000 
#    0.000    0.000    0.000    0.000    0.000    0.000 
#
# Total GULP energy -322189.973473 kJ/mol
# GULP energy per Si atom -12391.922057 kJ/mol
# Density = 2.057568 g / cm^3
# Si number density = 20.622619 Si / 1000 Ang^3
#
#
#
# Elastic Constant Matrix: (Units=GPa)
#
#
# Indices 1 2 3 4 5 6 
#
# 1 105.2962 43.6939 17.8628 0.0000 -4.4621 0.0000
# 2 43.6939 136.5241 44.0720 0.0000 7.8309 0.0000
# 3 17.8628 44.0720 101.0625 0.0000 12.3644 0.0000
# 4 0.0000 0.0000 0.0000 65.1313 0.0000 28.6669
# 5 -4.4621 7.8309 12.3644 0.0000 30.8531 0.0000
# 6 0.0000 0.0000 0.0000 28.6669 0.0000 44.2368
#
#
#
# Elastic Compliance Matrix: (Units=1/GPa)
#
#
# Indices 1 2 3 4 5 6 
#
# 1 0.011200 -0.003487 -0.000805 0.000000 0.002827 0.000000
# 2 -0.003487 0.009625 -0.003387 0.000000 -0.001590 0.000000
# 3 -0.000805 -0.003387 0.012012 0.000000 -0.004071 0.000000
# 4 0.000000 0.000000 0.000000 0.021480 0.000000 -0.013920
# 5 0.002827 -0.001590 -0.004071 0.000000 0.034856 0.000000
# 6 0.000000 0.000000 0.000000 -0.013920 0.000000 0.031626
#
#
# Mechanical properties :
#
#
# Convention : Reuss Voigt Hill
#
# Bulk Modulus (GPa) = 57.20639 61.57113 59.38876
# Shear Modulus (GPa) = 35.21540 43.86118 39.53829
#
# Velocity S-wave (km/s) = 4.13681 4.61678 4.38337
# Velocity P-wave (km/s) = 7.11459 7.63809 7.38099
#
# Compressibility (1/GPa) = 0.01748057
#
# Stress axis : x y z
#
# Youngs Moduli (GPa) = 89.28300 103.89480 83.25016
#
# Poissons Ratio (x) = 0.36227 0.06701
# Poissons Ratio (y) = 0.31132 0.28193
# Poissons Ratio (z) = 0.07187 0.35184
#
# Static dielectric constant tensor:
#      x y z
#    x 3.703200 0.000000 0.093990 
#    y 0.000000 3.998900 0.000000 
#    z 0.093990 0.000000 3.751230 
# 
# 
# High freq. dielectric constant tensor:
#      x y z
#    x 1.805580 0.000000 0.009990 
#    y 0.000000 1.808280 0.000000 
#    z 0.009990 0.000000 1.805620 
# 
# From -- ./inp_files/256658.got.cif
#   From: 2010.06.25/outbox.cif.g09.slc.cpg/sg12_129_cif.got.tgz:256658.got - 2010.06.28 00:19:55.
