data_PCOD8115351
_publ_section_title
;
Structure prediction by ZEFSAII (Michael W. Deem and Ramdas Pophale) SiO2 
 PCOD8115351
Probable space group: C 2/M
;
_chemical_formula_sum "Si O2"
_cell_formula_units_Z 64
_cell_length_a 17.539399
_cell_length_b 15.054765
_cell_length_c 17.668491
_cell_angle_alpha 90.000000
_cell_angle_beta 41.737138
_cell_angle_gamma 90.000000
_cell_volume 3105.817624
_symmetry_space_group_name_H-M "C 2/M"
_symmetry_group_IT_number 12
_symmetry_cell_setting 'monoclinic'
loop_
_space_group_symop_operation_xyz
x,y,z
-x,y,-z
-x,-y,-z
x,-y,z
1/2+x,1/2+y,z
1/2-x,1/2+y,-z
1/2-x,1/2-y,-z
1/2+x,1/2-y,z
loop_
_atom_site_type_symbol
_atom_site_label
_atom_site_fract_x
_atom_site_fract_y
_atom_site_fract_z
Si Si1 0.126678 0.759140 0.380316
Si Si2 0.198579 0.738516 0.620317
Si Si3 0.866419 0.102793 0.757958
Si Si4 0.993889 0.602069 0.763677
Si Si5 0.044495 0.098800 0.753415
Si Si6 0.823353 0.687972 0.001527
Si Si7 0.587363 0.643113 0.001832
Si Si8 0.176262 0.599003 0.241808
O O1 0.201467 0.789192 0.396436
O O2 0.123770 0.840872 0.325142
O O3 0.184086 0.671429 0.301853
O O4 0.000000 0.733881 0.500000
O O5 0.250000 0.750000 0.500000
O O6 0.105784 0.661168 0.688250
O O7 0.145301 0.830821 0.689372
O O8 0.977169 0.123421 0.726836
O O9 0.859684 0.000000 0.740138
O O10 0.754189 0.128136 0.887667
O O11 0.031532 0.500000 0.741122
O O12 0.905694 0.622266 0.895854
O O13 0.932756 0.622968 0.729304
O O14 0.097710 0.000000 0.708182
O O15 0.956622 0.099912 0.888188
O O16 0.750000 0.750000 0.000000
O O17 0.900745 0.750927 0.997330
O O18 0.709962 0.600248 0.893376
O O19 0.500000 0.620439 0.000000
O O20 0.162879 0.500000 0.286306
#
# Coordination Sequence:
#
# PCOD8115351 Si02
#       8
#     8   8   8   8   8   8   8   8
#     4  12  26  45  68  92 126 169 218 272 328 388
#     4  12  26  45  68  92 126 169 218 272 329 389
#     4  11  23  41  67  98 130 172 219 265 319 384
#     4  11  23  41  67  99 132 171 214 264 325 388
#     4  11  23  41  66  96 130 169 215 267 322 384
#     4  12  19  37  67  94 135 174 216 255 316 385
#     4  12  23  36  61  97 134 170 208 257 318 379
#     4  11  23  41  66  97 132 168 209 264 328 391
#
# _framework density 20.606490000000001
#
# number of rings (size 3 to 8) (size 9 to 14) (size 15 to 20)
#    0.000    0.500    5.000    3.750    0.000    6.000 
#    0.000    0.000    0.000    2.250    0.000    0.000 
#    0.000    0.000    0.000    0.000    0.000    0.000 
#
# Total GULP energy -396978.117874 kJ/mol
# GULP energy per Si atom -12405.566184 kJ/mol
# Density = 2.055959 g / cm^3
# Si number density = 20.606490 Si / 1000 Ang^3
#
#
#
# Elastic Constant Matrix: (Units=GPa)
#
#
# Indices 1 2 3 4 5 6 
#
# 1 129.9094 50.4153 34.2170 0.0000 2.0662 0.0000
# 2 50.4153 115.5836 33.8701 0.0000 3.1231 0.0000
# 3 34.2170 33.8701 111.4087 0.0000 3.3561 0.0000
# 4 0.0000 0.0000 0.0000 2.2797 0.0000 0.3811
# 5 2.0662 3.1231 3.3561 0.0000 31.3745 0.0000
# 6 0.0000 0.0000 0.0000 0.3811 0.0000 15.9964
#
#
#
# Elastic Compliance Matrix: (Units=1/GPa)
#
#
# Indices 1 2 3 4 5 6 
#
# 1 0.009598 -0.003646 -0.001837 0.000000 -0.000073 0.000000
# 2 -0.003646 0.010896 -0.002174 0.000000 -0.000612 0.000000
# 3 -0.001837 -0.002174 0.010224 0.000000 -0.000756 0.000000
# 4 0.000000 0.000000 0.000000 0.440416 0.000000 -0.010492
# 5 -0.000073 -0.000612 -0.000756 0.000000 0.032020 0.000000
# 6 0.000000 0.000000 0.000000 -0.010492 0.000000 0.062764
#
#
# Mechanical properties :
#
#
# Convention : Reuss Voigt Hill
#
# Bulk Modulus (GPa) = 64.92389 65.98960 65.45675
# Shear Modulus (GPa) = 8.52710 25.82339 17.17524
#
# Velocity S-wave (km/s) = 2.03643 3.54385 2.89015
# Velocity P-wave (km/s) = 6.09133 6.98845 6.55525
#
# Compressibility (1/GPa) = 0.01540265
#
# Stress axis : x y z
#
# Youngs Moduli (GPa) = 104.19217 91.77910 97.80929
#
# Poissons Ratio (x) = 0.33463 0.17969
# Poissons Ratio (y) = 0.37989 0.21266
# Poissons Ratio (z) = 0.19141 0.19955
#
# Static dielectric constant tensor:
#      x y z
#    x 3.765800 0.000000 0.036890 
#    y 0.000000 3.828880 0.000000 
#    z 0.036890 0.000000 3.375790 
# 
# 
# High freq. dielectric constant tensor:
#      x y z
#    x 1.806210 0.000000 0.000500 
#    y 0.000000 1.816200 0.000000 
#    z 0.000500 0.000000 1.806190 
# 
# From -- ./inp_files/278147.got.cif
#   From: 2010.06.25/outbox.cif.g09.slc.cpg/sg12_140_cif.got.tgz:278147.got - 2010.06.28 00:19:55.
