data_PCOD8115197
_publ_section_title
;
Structure prediction by ZEFSAII (Michael W. Deem and Ramdas Pophale) SiO2 
 PCOD8115197
Probable space group: C 2/M
;
_chemical_formula_sum "Si O2"
_cell_formula_units_Z 48
_cell_length_a 9.177210
_cell_length_b 18.611842
_cell_length_c 28.700822
_cell_angle_alpha 90.000000
_cell_angle_beta 149.670991
_cell_angle_gamma 90.000000
_cell_volume 2475.456962
_symmetry_space_group_name_H-M "C 2/M"
_symmetry_group_IT_number 12
_symmetry_cell_setting 'monoclinic'
loop_
_space_group_symop_operation_xyz
x,y,z
-x,y,-z
-x,-y,-z
x,-y,z
1/2+x,1/2+y,z
1/2-x,1/2+y,-z
1/2-x,1/2-y,-z
1/2+x,1/2-y,z
loop_
_atom_site_type_symbol
_atom_site_label
_atom_site_fract_x
_atom_site_fract_y
_atom_site_fract_z
Si Si1 0.356879 0.918734 0.915775
Si Si2 0.240979 0.817113 0.462366
Si Si3 0.207938 0.187578 0.740694
Si Si4 0.357754 0.669244 0.738838
Si Si5 0.194205 0.417099 0.439964
Si Si6 0.172825 0.417608 0.908265
O O1 0.578335 0.911005 0.935122
O O2 0.051024 0.887605 0.818277
O O3 0.289271 0.000000 0.910591
O O4 0.500000 0.879573 0.000000
O O5 0.500000 0.802149 0.500000
O O6 0.250000 0.750000 0.500000
O O7 0.275151 0.892835 0.498123
O O8 0.951516 0.826025 0.352352
O O9 0.354417 0.264604 0.773786
O O10 0.462833 0.129364 0.817554
O O11 0.985156 0.187956 0.722713
O O12 0.040638 0.634816 0.648359
O O13 0.500000 0.405192 0.500000
O O14 0.094109 0.500000 0.410582
O O15 0.157829 0.500000 0.886103
O O16 0.500000 0.388455 0.000000
#
# Coordination Sequence:
#
# PCOD8115197 Si02
#       6
#     8   8   8   8   8   8
#     4   9  19  38  62  85 114 156 198 241 298 359
#     4  12  22  40  63  89 122 165 204 250 301 364
#     4  11  23  38  63  89 118 163 201 246 305 362
#     4  11  23  40  60  89 121 157 200 250 303 358
#     4  11  25  42  61  87 122 159 202 255 306 360
#     4   9  20  40  62  88 122 155 196 251 305 359
#
# _framework density 19.390360000000001
#
# number of rings (size 3 to 8) (size 9 to 14) (size 15 to 20)
#    0.000    1.500    3.333    1.000    2.333    3.667 
#    0.000    3.333    0.000    0.000    0.000    0.000 
#    0.000    0.000    0.000    0.000    0.000    0.000 
#
# Total GULP energy -297527.390188 kJ/mol
# GULP energy per Si atom -12396.974591 kJ/mol
# Density = 1.934623 g / cm^3
# Si number density = 19.390360 Si / 1000 Ang^3
#
#
#
# Elastic Constant Matrix: (Units=GPa)
#
#
# Indices 1 2 3 4 5 6 
#
# 1 84.9413 56.1719 63.6673 0.0054 -1.0733 0.0017
# 2 56.1719 106.1859 60.6417 0.0093 2.6005 0.0046
# 3 63.6673 60.6417 152.3759 0.0135 -2.9468 0.0023
# 4 0.0054 0.0093 0.0135 11.9896 0.0067 -15.6409
# 5 -1.0733 2.6005 -2.9468 0.0067 39.0704 0.0010
# 6 0.0017 0.0046 0.0023 -15.6409 0.0010 21.3654
#
#
#
# Elastic Compliance Matrix: (Units=1/GPa)
#
#
# Indices 1 2 3 4 5 6 
#
# 1 0.021408 -0.008077 -0.005717 0.000078 0.000694 0.000058
# 2 -0.008077 0.015289 -0.002738 -0.000162 -0.001446 -0.000121
# 3 -0.005717 -0.002738 0.010056 -0.000160 0.000784 -0.000117
# 4 0.000078 -0.000162 -0.000160 1.853916 -0.000353 1.357193
# 5 0.000694 -0.001446 0.000784 -0.000353 0.025769 -0.000259
# 6 0.000058 -0.000121 -0.000117 1.357193 -0.000259 1.040363
#
#
# Mechanical properties :
#
#
# Convention : Reuss Voigt Hill
#
# Bulk Modulus (GPa) = 73.04726 78.27388 75.66057
# Shear Modulus (GPa) = 1.66421 25.35324 13.50873
#
# Velocity S-wave (km/s) = 0.92743 3.61988 2.64232
# Velocity P-wave (km/s) = 6.23703 7.61094 6.95798
#
# Compressibility (1/GPa) = 0.01368977
#
# Stress axis : x y z
#
# Youngs Moduli (GPa) = 46.71137 65.40641 99.44013
#
# Poissons Ratio (x) = 0.52827 0.56852
# Poissons Ratio (y) = 0.37728 0.27225
# Poissons Ratio (z) = 0.26706 0.17907
#
# Static dielectric constant tensor:
#      x y z
#    x 3.671570 -0.000010 -0.058240 
#    y -0.000010 3.726490 -0.000010 
#    z -0.058240 -0.000010 3.728080 
# 
# 
# High freq. dielectric constant tensor:
#      x y z
#    x 1.756910 0.000000 0.002140 
#    y 0.000000 1.753120 0.000000 
#    z 0.002140 0.000000 1.769820 
# 
# From -- ./inp_files/373026.got.cif
#   From: 2010.06.25/outbox.cif.g09.slc.cpg/sg12_187_cif.got.tgz:373026.got - 2010.06.28 00:19:55.
