data_PCOD8115549
_publ_section_title
;
Structure prediction by ZEFSAII (Michael W. Deem and Ramdas Pophale) SiO2 
 PCOD8115549
Probable space group: C 2/M
;
_chemical_formula_sum "Si O2"
_cell_formula_units_Z 32
_cell_length_a 22.548753
_cell_length_b 17.177882
_cell_length_c 5.100277
_cell_angle_alpha 90.000000
_cell_angle_beta 51.157416
_cell_angle_gamma 90.000000
_cell_volume 1538.693152
_symmetry_space_group_name_H-M "C 2/M"
_symmetry_group_IT_number 12
_symmetry_cell_setting 'monoclinic'
loop_
_space_group_symop_operation_xyz
x,y,z
-x,y,-z
-x,-y,-z
x,-y,z
1/2+x,1/2+y,z
1/2-x,1/2+y,-z
1/2-x,1/2-y,-z
1/2+x,1/2-y,z
loop_
_atom_site_type_symbol
_atom_site_label
_atom_site_fract_x
_atom_site_fract_y
_atom_site_fract_z
Si Si1 0.081123 0.584279 0.141475
Si Si2 0.237753 0.412356 0.955718
Si Si3 0.449775 0.247822 0.898577
Si Si4 0.293925 0.327428 0.307089
O O1 0.095864 0.500000 0.954295
O O2 0.082872 0.660134 0.947549
O O3 0.000000 0.579195 0.500000
O O4 0.146602 0.596402 0.178114
O O5 0.260589 0.500000 0.968099
O O6 0.278384 0.392431 0.568228
O O7 0.265863 0.354970 0.102174
O O8 0.500000 0.244396 0.500000
O O9 0.500000 0.277149 0.000000
O O10 0.383412 0.310061 0.041970
O O11 0.250000 0.250000 0.500000
#
# Coordination Sequence:
#
# PCOD8115549 Si02
#       4
#     8   8   8   8
#     4   9  20  36  58  90 132 170 201 240 305 386
#     4  11  24  42  65  94 129 169 208 258 317 372
#     4  11  24  40  63  91 126 165 207 258 314 368
#     4  12  24  41  67  94 127 165 214 263 308 366
#
# _framework density 20.796869000000001
#
# number of rings (size 3 to 8) (size 9 to 14) (size 15 to 20)
#    0.000    1.250    2.500    3.000    7.000    0.500 
#    0.000    0.000    0.000   15.000    0.000    0.000 
#    0.000    0.000    0.000    0.000    0.000    0.000 
#
# Total GULP energy -198363.529515 kJ/mol
# GULP energy per Si atom -12397.720595 kJ/mol
# Density = 2.074953 g / cm^3
# Si number density = 20.796869 Si / 1000 Ang^3
#
#
#
# Elastic Constant Matrix: (Units=GPa)
#
#
# Indices 1 2 3 4 5 6 
#
# 1 152.4967 52.4292 53.7362 0.0000 -13.7134 0.0000
# 2 52.4292 84.7584 28.1859 0.0000 -19.3933 0.0000
# 3 53.7362 28.1859 78.1030 0.0000 -1.7192 0.0000
# 4 0.0000 0.0000 0.0000 16.8344 0.0000 5.6924
# 5 -13.7134 -19.3933 -1.7192 0.0000 33.6786 0.0000
# 6 0.0000 0.0000 0.0000 5.6924 0.0000 34.8282
#
#
#
# Elastic Compliance Matrix: (Units=1/GPa)
#
#
# Indices 1 2 3 4 5 6 
#
# 1 0.009972 -0.004051 -0.005367 0.000000 0.001454 0.000000
# 2 -0.004051 0.017244 -0.003257 0.000000 0.008114 0.000000
# 3 -0.005367 -0.003257 0.017602 0.000000 -0.003162 0.000000
# 4 0.000000 0.000000 0.000000 0.062877 0.000000 -0.010277
# 5 0.001454 0.008114 -0.003162 0.000000 0.034795 0.000000
# 6 0.000000 0.000000 0.000000 -0.010277 0.000000 0.030392
#
#
# Mechanical properties :
#
#
# Convention : Reuss Voigt Hill
#
# Bulk Modulus (GPa) = 51.36784 64.89562 58.13173
# Shear Modulus (GPa) = 24.42331 29.13536 26.77933
#
# Velocity S-wave (km/s) = 3.43063 3.74699 3.59229
# Velocity P-wave (km/s) = 6.35970 7.07051 6.72450
#
# Compressibility (1/GPa) = 0.01946743
#
# Stress axis : x y z
#
# Youngs Moduli (GPa) = 100.27760 57.99203 56.81138
#
# Poissons Ratio (x) = 0.23493 0.30492
# Poissons Ratio (y) = 0.40624 0.18504
# Poissons Ratio (z) = 0.53820 0.18888
#
# Static dielectric constant tensor:
#      x y z
#    x 3.891710 0.000000 -0.145630 
#    y 0.000000 4.347440 0.000000 
#    z -0.145630 0.000000 3.837700 
# 
# 
# High freq. dielectric constant tensor:
#      x y z
#    x 1.821950 0.000000 -0.009100 
#    y 0.000000 1.818220 0.000000 
#    z -0.009100 0.000000 1.799160 
# 
# From -- ./inp_files/19950.got.cif
#   From: 2010.06.25/outbox.cif.g09.slc.cpg/sg12_10_cif.got.tgz:19950.got - 2010.06.28 00:19:55.
