data_PCOD8115004
_publ_section_title
;
Structure prediction by ZEFSAII (Michael W. Deem and Ramdas Pophale) SiO2 
 PCOD8115004
Probable space group: C 2/M
;
_chemical_formula_sum "Si O2"
_cell_formula_units_Z 32
_cell_length_a 16.431340
_cell_length_b 15.873575
_cell_length_c 10.386381
_cell_angle_alpha 90.000000
_cell_angle_beta 145.748382
_cell_angle_gamma 90.000000
_cell_volume 1524.712228
_symmetry_space_group_name_H-M "C 2/M"
_symmetry_group_IT_number 12
_symmetry_cell_setting 'monoclinic'
loop_
_space_group_symop_operation_xyz
x,y,z
-x,y,-z
-x,-y,-z
x,-y,z
1/2+x,1/2+y,z
1/2-x,1/2+y,-z
1/2-x,1/2-y,-z
1/2+x,1/2-y,z
loop_
_atom_site_type_symbol
_atom_site_label
_atom_site_fract_x
_atom_site_fract_y
_atom_site_fract_z
Si Si1 0.383068 0.095306 0.243771
Si Si2 0.517187 0.849233 0.163149
Si Si3 0.893927 0.163283 0.016311
Si Si4 0.185973 0.902630 0.366942
O O1 0.500000 0.131004 0.500000
O O2 0.445891 0.095288 0.182040
O O3 0.237510 0.151941 0.055305
O O4 0.342782 0.000000 0.229403
O O5 0.688619 0.843396 0.412248
O O6 0.500000 0.891940 0.000000
O O7 0.438191 0.759647 0.057658
O O8 0.838482 0.124098 0.811312
O O9 0.036993 0.112977 0.250894
O O10 0.232616 0.000000 0.436703
#
# Coordination Sequence:
#
# PCOD8115004 Si02
#       4
#     8   8   8   8
#     4  11  23  42  67  95 130 173 223 266 316 388
#     4  12  25  41  66 100 136 171 209 273 336 385
#     4  11  22  41  68  96 129 171 224 268 316 383
#     4  11  22  40  68  96 130 172 220 265 319 390
#
# _framework density 20.987568
#
# number of rings (size 3 to 8) (size 9 to 14) (size 15 to 20)
#    0.000    0.750    5.000    5.250    0.000    2.000 
#    0.000    1.250    0.000    3.000    0.000    0.000 
#    0.000    0.000    0.000    0.000    0.000    0.000 
#
# Total GULP energy -198374.313244 kJ/mol
# GULP energy per Si atom -12398.394578 kJ/mol
# Density = 2.093980 g / cm^3
# Si number density = 20.987568 Si / 1000 Ang^3
#
#
#
# Elastic Constant Matrix: (Units=GPa)
#
#
# Indices 1 2 3 4 5 6 
#
# 1 130.0607 16.3642 79.3225 0.0000 9.4422 0.0000
# 2 16.3642 73.1043 24.3677 0.0000 6.3513 0.0000
# 3 79.3225 24.3677 133.3020 0.0000 31.0736 0.0000
# 4 0.0000 0.0000 0.0000 812.6488 0.0000 -966.3315
# 5 9.4422 6.3513 31.0736 0.0000 35.4963 0.0000
# 6 0.0000 0.0000 0.0000 -966.3315 0.0000 1240.3755
#
#
#
# Elastic Compliance Matrix: (Units=1/GPa)
#
#
# Indices 1 2 3 4 5 6 
#
# 1 0.012516 -0.000379 -0.008315 0.000000 0.004017 0.000000
# 2 -0.000379 0.014582 -0.002331 0.000000 -0.000468 0.000000
# 3 -0.008315 -0.002331 0.015407 0.000000 -0.010858 0.000000
# 4 0.000000 0.000000 0.000000 0.016718 0.000000 0.013025
# 5 0.004017 -0.000468 -0.010858 0.000000 0.036692 0.000000
# 6 0.000000 0.000000 0.000000 0.013025 0.000000 0.010953
#
#
# Mechanical properties :
#
#
# Convention : Reuss Voigt Hill
#
# Bulk Modulus (GPa) = 48.88888 64.06395 56.47642
# Shear Modulus (GPa) = 36.83625 432.13164 234.48394
#
# Velocity S-wave (km/s) = 4.19399 14.36474 10.58148
# Velocity P-wave (km/s) = 6.84087 17.48482 13.27623
#
# Compressibility (1/GPa) = 0.02045455
#
# Stress axis : x y z
#
# Youngs Moduli (GPa) = 79.89837 68.57985 64.90635
#
# Poissons Ratio (x) = 0.02600 0.53969
# Poissons Ratio (y) = 0.03029 0.15129
# Poissons Ratio (z) = 0.66434 0.15985
#
# Static dielectric constant tensor:
#      x y z
#    x 3.986880 0.000000 0.340670 
#    y 0.000000 3.681160 0.000000 
#    z 0.340670 0.000000 4.067710 
# 
# 
# High freq. dielectric constant tensor:
#      x y z
#    x 1.815470 0.000000 0.023760 
#    y 0.000000 1.817760 0.000000 
#    z 0.023760 0.000000 1.826760 
# 
# From -- ./inp_files/46417.got.cif
#   From: 2010.06.25/outbox.cif.g09.slc.cpg/sg12_24_cif.got.tgz:46417.got - 2010.06.28 00:19:55.
