data_PCOD8115791
_publ_section_title
;
Structure prediction by ZEFSAII (Michael W. Deem and Ramdas Pophale) SiO2 
 PCOD8115791
Probable space group: C 2/M
;
_chemical_formula_sum "Si O2"
_cell_formula_units_Z 40
_cell_length_a 29.873370
_cell_length_b 14.882010
_cell_length_c 8.949764
_cell_angle_alpha 90.000000
_cell_angle_beta 28.005558
_cell_angle_gamma 90.000000
_cell_volume 1868.296964
_symmetry_space_group_name_H-M "C 2/M"
_symmetry_group_IT_number 12
_symmetry_cell_setting 'monoclinic'
loop_
_space_group_symop_operation_xyz
x,y,z
-x,y,-z
-x,-y,-z
x,-y,z
1/2+x,1/2+y,z
1/2-x,1/2+y,-z
1/2-x,1/2-y,-z
1/2+x,1/2-y,z
loop_
_atom_site_type_symbol
_atom_site_label
_atom_site_fract_x
_atom_site_fract_y
_atom_site_fract_z
Si Si1 0.687275 0.177060 0.772466
Si Si2 0.350740 0.234969 0.782247
Si Si3 0.371994 0.401018 0.299066
Si Si4 0.552755 0.605349 0.612629
Si Si5 0.997156 0.394618 0.184788
O O1 0.750000 0.250000 0.500000
O O2 0.762936 0.096577 0.570527
O O3 0.656711 0.207322 0.025288
O O4 0.598193 0.141643 0.944132
O O5 0.405352 0.330708 0.638290
O O6 0.410527 0.159877 0.514917
O O7 0.250000 0.250000 0.000000
O O8 0.413854 0.500000 0.194672
O O9 0.386716 0.360461 0.420496
O O10 0.443438 0.360936 0.962665
O O11 0.565141 0.500000 0.532027
O O12 0.984559 0.500000 0.261958
O O13 0.000000 0.379071 0.000000
#
# Coordination Sequence:
#
# PCOD8115791 Si02
#       5
#     8   8   8   8   8
#     4  12  24  41  66  97 135 178 229 277 339 408
#     4  12  24  40  67  99 132 179 224 279 342 409
#     4   9  18  35  62  91 124 168 214 266 327 395
#     4   9  19  37  63  97 132 168 213 269 333 399
#     4  11  27  48  69  97 138 184 232 292 352 408
#
# _framework density 21.409873999999999
#
# number of rings (size 3 to 8) (size 9 to 14) (size 15 to 20)
#    0.000    1.400    2.000    4.800    2.800    3.200 
#    0.000    2.000    0.000    4.800    0.000    0.000 
#    0.000    0.000    0.000    0.000    0.000    0.000 
#
# Total GULP energy -247785.893874 kJ/mol
# GULP energy per Si atom -12389.294694 kJ/mol
# Density = 2.136114 g / cm^3
# Si number density = 21.409874 Si / 1000 Ang^3
#
#
#
# Elastic Constant Matrix: (Units=GPa)
#
#
# Indices 1 2 3 4 5 6 
#
# 1 134.2572 47.2190 81.1189 0.0000 -13.4121 0.0000
# 2 47.2190 130.7939 81.1665 0.0000 4.3590 0.0000
# 3 81.1189 81.1665 162.2139 0.0000 -11.4695 0.0000
# 4 0.0000 0.0000 0.0000 37.4973 0.0000 -5.1510
# 5 -13.4121 4.3590 -11.4695 0.0000 46.6865 0.0000
# 6 0.0000 0.0000 0.0000 -5.1510 0.0000 22.6219
#
#
#
# Elastic Compliance Matrix: (Units=1/GPa)
#
#
# Indices 1 2 3 4 5 6 
#
# 1 0.010915 -0.001032 -0.004796 0.000000 0.002054 0.000000
# 2 -0.001032 0.011467 -0.005412 0.000000 -0.002697 0.000000
# 3 -0.004796 -0.005412 0.011408 0.000000 0.001930 0.000000
# 4 0.000000 0.000000 0.000000 0.027530 0.000000 0.006268
# 5 0.002054 -0.002697 0.001930 0.000000 0.022735 0.000000
# 6 0.000000 0.000000 0.000000 0.006268 0.000000 0.045632
#
#
# Mechanical properties :
#
#
# Convention : Reuss Voigt Hill
#
# Bulk Modulus (GPa) = 88.43611 94.03041 91.23326
# Shear Modulus (GPa) = 32.06429 35.87853 33.97141
#
# Velocity S-wave (km/s) = 3.87413 4.09809 3.98768
# Velocity P-wave (km/s) = 7.83631 8.14905 7.99421
#
# Compressibility (1/GPa) = 0.01130760
#
# Stress axis : x y z
#
# Youngs Moduli (GPa) = 91.62032 87.20910 87.66044
#
# Poissons Ratio (x) = 0.09003 0.42045
# Poissons Ratio (y) = 0.09459 0.47442
# Poissons Ratio (z) = 0.43944 0.47197
#
# Static dielectric constant tensor:
#      x y z
#    x 3.936830 0.000000 -0.121000 
#    y 0.000000 4.248630 0.000000 
#    z -0.121000 0.000000 4.147410 
# 
# 
# High freq. dielectric constant tensor:
#      x y z
#    x 1.836890 0.000000 -0.009290 
#    y 0.000000 1.846380 0.000000 
#    z -0.009290 0.000000 1.858930 
# 
# From -- ./inp_files/111854.got.cif
#   From: 2010.06.25/outbox.cif.g09.slc.cpg/sg12_56_cif.got.tgz:111854.got - 2010.06.28 00:19:55.
