data_PCOD8115733
_publ_section_title
;
Structure prediction by ZEFSAII (Michael W. Deem and Ramdas Pophale) SiO2 
 PCOD8115733
Probable space group: C 2/M
;
_chemical_formula_sum "Si O2"
_cell_formula_units_Z 64
_cell_length_a 8.922628
_cell_length_b 18.522840
_cell_length_c 28.380239
_cell_angle_alpha 90.000000
_cell_angle_beta 140.202991
_cell_angle_gamma 90.000000
_cell_volume 3002.227552
_symmetry_space_group_name_H-M "C 2/M"
_symmetry_group_IT_number 12
_symmetry_cell_setting 'monoclinic'
loop_
_space_group_symop_operation_xyz
x,y,z
-x,y,-z
-x,-y,-z
x,-y,z
1/2+x,1/2+y,z
1/2-x,1/2+y,-z
1/2-x,1/2-y,-z
1/2+x,1/2-y,z
loop_
_atom_site_type_symbol
_atom_site_label
_atom_site_fract_x
_atom_site_fract_y
_atom_site_fract_z
Si Si1 0.652968 0.327373 0.489762
Si Si2 0.458162 0.307443 0.118159
Si Si3 0.045699 0.583237 0.627329
Si Si4 0.922504 0.692226 0.286433
Si Si5 0.845882 0.172037 0.327833
Si Si6 0.096102 0.339329 0.106734
Si Si7 0.913426 0.082812 0.257778
Si Si8 0.627080 0.583265 0.981933
O O1 0.500000 0.324277 0.500000
O O2 0.750000 0.250000 0.500000
O O3 0.494406 0.354807 0.408352
O O4 0.869511 0.382295 0.546836
O O5 0.658479 0.312329 0.205461
O O6 0.211345 0.318409 0.084759
O O7 0.460008 0.229612 0.094254
O O8 0.493873 0.369445 0.087953
O O9 0.982577 0.500000 0.618018
O O10 0.010903 0.619957 0.669563
O O11 0.309263 0.595976 0.673622
O O12 0.969226 0.760905 0.331272
O O13 0.089993 0.699020 0.281795
O O14 0.814293 0.105053 0.284789
O O15 0.296616 0.367015 0.190268
O O16 0.903629 0.401024 0.052465
O O17 0.849770 0.000000 0.231954
O O18 0.592936 0.500000 0.959838
O O19 0.500000 0.601601 0.000000
#
# Coordination Sequence:
#
# PCOD8115733 Si02
#       8
#     8   8   8   8   8   8   8   8
#     4  12  25  42  69  98 132 180 226 285 344 409
#     4  12  25  42  75 103 137 181 231 282 340 401
#     4  11  25  45  66  99 139 178 228 285 343 408
#     4  12  23  43  69 102 134 180 224 289 335 406
#     4  12  24  42  70  99 136 174 234 278 345 403
#     4  12  24  45  72 104 140 180 230 284 337 403
#     4  11  26  45  69 100 138 181 227 284 345 405
#     4  11  27  48  70 103 144 183 227 277 339 406
#
# _framework density 21.317505000000001
#
# number of rings (size 3 to 8) (size 9 to 14) (size 15 to 20)
#    0.000    0.375    5.000    3.375    3.500    3.250 
#    0.000    1.250    0.000    0.000    0.000    0.000 
#    0.000    0.000    0.000    0.000    0.000    0.000 
#
# Total GULP energy -397027.636335 kJ/mol
# GULP energy per Si atom -12407.113635 kJ/mol
# Density = 2.126899 g / cm^3
# Si number density = 21.317505 Si / 1000 Ang^3
#
#
#
# Elastic Constant Matrix: (Units=GPa)
#
#
# Indices 1 2 3 4 5 6 
#
# 1 131.0522 50.8242 15.9387 -0.0001 -2.4508 0.0002
# 2 50.8242 127.6476 31.8637 0.0002 -7.3137 0.0002
# 3 15.9387 31.8637 88.1237 -0.0013 -7.6458 -0.0006
# 4 -0.0001 0.0002 -0.0013 39.9457 -0.0011 -2.7251
# 5 -2.4508 -7.3137 -7.6458 -0.0011 36.8635 -0.0004
# 6 0.0002 0.0002 -0.0006 -2.7251 -0.0004 32.9211
#
#
#
# Elastic Compliance Matrix: (Units=1/GPa)
#
#
# Indices 1 2 3 4 5 6 
#
# 1 0.009036 -0.003513 -0.000379 0.000000 -0.000175 0.000000
# 2 -0.003513 0.010020 -0.002887 0.000000 0.001156 0.000000
# 3 -0.000379 -0.002887 0.012636 0.000001 0.002023 0.000000
# 4 0.000000 0.000000 0.000001 0.025176 0.000001 0.002084
# 5 -0.000175 0.001156 0.002023 0.000001 0.027764 0.000000
# 6 0.000000 0.000000 0.000000 0.002084 0.000000 0.030548
#
#
# Mechanical properties :
#
#
# Convention : Reuss Voigt Hill
#
# Bulk Modulus (GPa) = 55.15045 60.45296 57.80171
# Shear Modulus (GPa) = 37.09663 38.49252 37.79457
#
# Velocity S-wave (km/s) = 4.17609 4.25394 4.21519
# Velocity P-wave (km/s) = 7.01285 7.24899 7.13190
#
# Compressibility (1/GPa) = 0.01813222
#
# Stress axis : x y z
#
# Youngs Moduli (GPa) = 110.67062 99.80273 79.14049
#
# Poissons Ratio (x) = 0.35061 0.03001
# Poissons Ratio (y) = 0.38879 0.22850
# Poissons Ratio (z) = 0.04197 0.28816
#
# Static dielectric constant tensor:
#      x y z
#    x 4.060870 0.000000 -0.056570 
#    y 0.000000 3.841300 0.000000 
#    z -0.056570 0.000000 3.990030 
# 
# 
# High freq. dielectric constant tensor:
#      x y z
#    x 1.847200 0.000000 0.000620 
#    y 0.000000 1.834800 0.000000 
#    z 0.000620 0.000000 1.847930 
# 
# From -- ./inp_files/372992.got.cif
#   From: 2010.06.25/outbox.cif.g09.slc.cpg/sg12_187_cif.got.tgz:372992.got - 2010.06.28 00:19:55.
