data_PCOD8115600
_publ_section_title
;
Structure prediction by ZEFSAII (Michael W. Deem and Ramdas Pophale) SiO2 
 PCOD8115600
Probable space group: C 2/M
;
_chemical_formula_sum "Si O2"
_cell_formula_units_Z 56
_cell_length_a 11.095968
_cell_length_b 31.147586
_cell_length_c 14.386813
_cell_angle_alpha 90.000000
_cell_angle_beta 28.677071
_cell_angle_gamma 90.000000
_cell_volume 2386.052490
_symmetry_space_group_name_H-M "C 2/M"
_symmetry_group_IT_number 12
_symmetry_cell_setting 'monoclinic'
loop_
_space_group_symop_operation_xyz
x,y,z
-x,y,-z
-x,-y,-z
x,-y,z
1/2+x,1/2+y,z
1/2-x,1/2+y,-z
1/2-x,1/2-y,-z
1/2+x,1/2-y,z
loop_
_atom_site_type_symbol
_atom_site_label
_atom_site_fract_x
_atom_site_fract_y
_atom_site_fract_z
Si Si1 0.466668 0.904642 0.416386
Si Si2 0.296146 0.048910 0.901193
Si Si3 0.742458 0.186206 0.480748
Si Si4 0.030880 0.050263 0.259287
Si Si5 0.037553 0.257932 0.776661
Si Si6 0.730643 0.172005 0.776126
Si Si7 0.744071 0.080039 0.716435
O O1 0.500000 0.918781 0.500000
O O2 0.697318 0.919676 0.193293
O O3 0.419543 0.854179 0.441961
O O4 0.234779 0.930591 0.529588
O O5 0.529116 0.053002 0.813401
O O6 0.273504 0.000000 0.880603
O O7 0.065963 0.061379 0.125599
O O8 0.554043 0.214790 0.670334
O O9 0.826198 0.212352 0.332026
O O10 0.998255 0.172327 0.359295
O O11 0.245463 0.072103 0.178648
O O12 0.035731 0.000000 0.273570
O O13 0.193883 0.283008 0.748841
O O14 0.750000 0.250000 0.000000
O O15 0.715539 0.131391 0.716186
O O16 0.500000 0.165801 0.000000
O O17 0.000000 0.062196 0.500000
#
# Coordination Sequence:
#
# PCOD8115600 Si02
#       7
#     8   8   8   8   8   8   8
#     4  12  27  47  68  97 136 190 242 295 344 416
#     4  11  24  42  67 101 139 180 229 291 354 415
#     4  11  25  45  68  98 137 179 230 284 350 413
#     4  11  24  43  70 104 141 182 232 288 352 425
#     4  11  24  43  68 101 136 173 227 282 350 424
#     4  12  22  40  70 100 138 183 221 279 349 419
#     4  12  22  38  69 108 144 180 224 286 356 427
#
# _framework density 23.469726999999999
#
# number of rings (size 3 to 8) (size 9 to 14) (size 15 to 20)
#    0.000    0.571    4.286    4.286    0.000    6.857 
#    0.000    1.429    0.000    0.000    0.000    0.000 
#    0.000    0.000    0.000    0.000    0.000    0.000 
#
# Total GULP energy -347205.681445 kJ/mol
# GULP energy per Si atom -12400.202909 kJ/mol
# Density = 2.341631 g / cm^3
# Si number density = 23.469727 Si / 1000 Ang^3
#
#
#
# Elastic Constant Matrix: (Units=GPa)
#
#
# Indices 1 2 3 4 5 6 
#
# 1 57.2956 5.0509 -5.5595 0.0001 20.9042 0.0000
# 2 5.0509 108.6551 26.4840 0.0001 12.9696 0.0000
# 3 -5.5595 26.4840 103.3358 0.0003 20.0632 -0.0001
# 4 0.0001 0.0001 0.0003 31.7087 -0.0001 11.4817
# 5 20.9042 12.9696 20.0632 -0.0001 30.3001 0.0000
# 6 0.0000 0.0000 -0.0001 11.4817 0.0000 32.4261
#
#
#
# Elastic Compliance Matrix: (Units=1/GPa)
#
#
# Indices 1 2 3 4 5 6 
#
# 1 0.025844 0.000011 0.005566 0.000000 -0.021520 0.000000
# 2 0.000011 0.010046 -0.001994 0.000000 -0.002987 0.000000
# 3 0.005566 -0.001994 0.012700 0.000000 -0.011396 0.000000
# 4 0.000000 0.000000 0.000000 0.036175 0.000001 -0.012809
# 5 -0.021520 -0.002987 -0.011396 0.000001 0.056674 0.000000
# 6 0.000000 0.000000 0.000000 -0.012809 0.000000 0.035375
#
#
# Mechanical properties :
#
#
# Convention : Reuss Voigt Hill
#
# Bulk Modulus (GPa) = 17.93569 35.69304 26.81436
# Shear Modulus (GPa) = 26.56268 35.10772 30.83520
#
# Velocity S-wave (km/s) = 3.36785 3.87185 3.62861
# Velocity P-wave (km/s) = 4.77304 5.93544 5.38569
#
# Compressibility (1/GPa) = 0.05575475
#
# Stress axis : x y z
#
# Youngs Moduli (GPa) = 38.69373 99.54701 78.73862
#
# Poissons Ratio (x) = -0.00107 -0.43825
# Poissons Ratio (y) = -0.00041 0.15701
# Poissons Ratio (z) = -0.21536 0.19850
#
# Static dielectric constant tensor:
#      x y z
#    x 3.957720 0.000000 0.281590 
#    y 0.000000 4.280960 0.000000 
#    z 0.281590 0.000000 4.549240 
# 
# 
# High freq. dielectric constant tensor:
#      x y z
#    x 1.910190 0.000000 0.016260 
#    y 0.000000 1.932480 0.000000 
#    z 0.016260 0.000000 1.947820 
# 
# From -- ./inp_files/209987.got.cif
#   From: 2010.06.25/outbox.cif.g09.slc.cpg/sg12_105_cif.got.tgz:209987.got - 2010.06.28 00:19:55.
