data_PCOD8115214
_publ_section_title
;
Structure prediction by ZEFSAII (Michael W. Deem and Ramdas Pophale) SiO2 
 PCOD8115214
Probable space group: C 2/M
;
_chemical_formula_sum "Si O2"
_cell_formula_units_Z 48
_cell_length_a 8.880442
_cell_length_b 17.760563
_cell_length_c 30.493467
_cell_angle_alpha 90.000000
_cell_angle_beta 30.314579
_cell_angle_gamma 90.000000
_cell_volume 2427.572002
_symmetry_space_group_name_H-M "C 2/M"
_symmetry_group_IT_number 12
_symmetry_cell_setting 'monoclinic'
loop_
_space_group_symop_operation_xyz
x,y,z
-x,y,-z
-x,-y,-z
x,-y,z
1/2+x,1/2+y,z
1/2-x,1/2+y,-z
1/2-x,1/2-y,-z
1/2+x,1/2-y,z
loop_
_atom_site_type_symbol
_atom_site_label
_atom_site_fract_x
_atom_site_fract_y
_atom_site_fract_z
Si Si1 0.344795 0.414244 0.162009
Si Si2 0.864187 0.914196 0.817567
Si Si3 0.182369 0.587186 0.496997
Si Si4 0.300902 0.410473 0.010174
Si Si5 0.209429 0.663132 0.662025
Si Si6 0.105624 0.675669 0.351820
O O1 0.250243 0.500000 0.175041
O O2 0.536744 0.410678 0.157380
O O3 0.047786 0.364708 0.240500
O O4 0.549720 0.379927 0.071947
O O5 0.532570 0.879086 0.898943
O O6 0.075665 0.864829 0.733501
O O7 0.874239 0.000000 0.797569
O O8 0.124344 0.500000 0.521592
O O9 0.533408 0.600406 0.401983
O O10 0.000000 0.613442 0.500000
O O11 0.080606 0.634765 0.564097
O O12 0.281395 0.500000 0.012812
O O13 0.500000 0.381155 0.000000
O O14 0.345582 0.739193 0.646462
O O15 0.084377 0.673524 0.644718
#
# Coordination Sequence:
#
# PCOD8115214 Si02
#       6
#     8   8   8   8   8   8
#     4   9  18  34  56  80 107 143 186 229 274 327
#     4   9  18  34  56  80 107 143 186 229 274 327
#     4  11  24  41  62  87 113 143 182 229 278 329
#     4   9  17  29  50  81 112 141 177 227 280 325
#     4  11  23  39  59  83 114 150 187 228 277 332
#     4  11  23  39  59  83 114 150 187 228 277 332
#
# _framework density 19.772842000000001
#
# number of rings (size 3 to 8) (size 9 to 14) (size 15 to 20)
#    0.000    2.000    0.000    3.500    0.000    7.333 
#    0.000    4.167    0.000    0.000    0.000    0.000 
#    0.000    0.000    0.000    0.000    0.000    0.000 
#
# Total GULP energy -297682.829629 kJ/mol
# GULP energy per Si atom -12403.451235 kJ/mol
# Density = 1.972784 g / cm^3
# Si number density = 19.772842 Si / 1000 Ang^3
#
#
#
# Elastic Constant Matrix: (Units=GPa)
#
#
# Indices 1 2 3 4 5 6 
#
# 1 69.6909 16.2734 33.6923 0.0854 -16.5644 -0.1153
# 2 16.2734 55.3167 16.0183 0.0404 -5.8490 -0.1204
# 3 33.6923 16.0183 109.5755 0.0338 -19.9121 -0.0581
# 4 0.0854 0.0404 0.0338 28.7715 0.0702 5.0380
# 5 -16.5644 -5.8490 -19.9121 0.0702 32.8120 0.0249
# 6 -0.1153 -0.1204 -0.0581 5.0380 0.0249 12.6671
#
#
#
# Elastic Compliance Matrix: (Units=1/GPa)
#
#
# Indices 1 2 3 4 5 6 
#
# 1 0.018663 -0.003648 -0.004059 -0.000085 0.006308 0.000138
# 2 -0.003648 0.019696 -0.001634 -0.000045 0.000678 0.000163
# 3 -0.004059 -0.001634 0.011451 -0.000009 0.004608 -0.000005
# 4 -0.000085 -0.000045 -0.000009 0.037359 -0.000125 -0.014860
# 5 0.006308 0.000678 0.004608 -0.000125 0.036579 0.000063
# 6 0.000138 0.000163 -0.000005 -0.014860 0.000063 0.084857
#
#
# Mechanical properties :
#
#
# Convention : Reuss Voigt Hill
#
# Bulk Modulus (GPa) = 32.12574 40.72790 36.42682
# Shear Modulus (GPa) = 21.03826 26.09008 23.56417
#
# Velocity S-wave (km/s) = 3.26544 3.63642 3.45591
# Velocity P-wave (km/s) = 5.52269 6.18660 5.86405
#
# Compressibility (1/GPa) = 0.03112769
#
# Stress axis : x y z
#
# Youngs Moduli (GPa) = 53.58265 50.77141 87.33234
#
# Poissons Ratio (x) = 0.18520 0.35446
# Poissons Ratio (y) = 0.19545 0.14274
# Poissons Ratio (z) = 0.21748 0.08298
#
# Static dielectric constant tensor:
#      x y z
#    x 3.636290 0.000040 -0.070840 
#    y 0.000040 3.398450 -0.000180 
#    z -0.070840 -0.000180 3.819690 
# 
# 
# High freq. dielectric constant tensor:
#      x y z
#    x 1.775970 0.000000 -0.003470 
#    y 0.000000 1.749520 -0.000020 
#    z -0.003470 -0.000020 1.788790 
# 
# From -- ./inp_files/195969.got.cif
#   From: 2010.06.25/outbox.cif.g09.slc.cpg/sg12_98_cif.got.tgz:195969.got - 2010.06.28 00:19:55.
