data_PCOD8115364
_publ_section_title
;
Structure prediction by ZEFSAII (Michael W. Deem and Ramdas Pophale) SiO2 
 PCOD8115364
Probable space group: C 2/M
;
_chemical_formula_sum "Si O2"
_cell_formula_units_Z 64
_cell_length_a 9.127042
_cell_length_b 23.979952
_cell_length_c 29.565705
_cell_angle_alpha 90.000000
_cell_angle_beta 151.775250
_cell_angle_gamma 90.000000
_cell_volume 3060.305358
_symmetry_space_group_name_H-M "C 2/M"
_symmetry_group_IT_number 12
_symmetry_cell_setting 'monoclinic'
loop_
_space_group_symop_operation_xyz
x,y,z
-x,y,-z
-x,-y,-z
x,-y,z
1/2+x,1/2+y,z
1/2-x,1/2+y,-z
1/2-x,1/2-y,-z
1/2+x,1/2-y,z
loop_
_atom_site_type_symbol
_atom_site_label
_atom_site_fract_x
_atom_site_fract_y
_atom_site_fract_z
Si Si1 0.744452 0.138220 0.966773
Si Si2 0.298333 0.933856 0.792322
Si Si3 0.771389 0.633327 0.328561
Si Si4 0.181728 0.212832 0.840283
Si Si5 0.297051 0.937485 0.609764
Si Si6 0.288010 0.120804 0.693136
Si Si7 0.703751 0.806863 0.513699
Si Si8 0.602551 0.676859 0.143612
O O1 0.571990 0.082003 0.902415
O O2 0.489192 0.185209 0.904301
O O3 0.000000 0.157653 0.000000
O O4 0.904145 0.132612 0.059615
O O5 0.361464 0.902321 0.762594
O O6 0.966065 0.913239 0.718481
O O7 0.297074 0.000000 0.785479
O O8 0.605110 0.690318 0.267587
O O9 0.934087 0.605269 0.330102
O O10 0.023631 0.647083 0.435306
O O11 0.247197 0.277532 0.849691
O O12 0.110457 0.201506 0.873949
O O13 0.200763 0.929852 0.636008
O O14 0.000000 0.922475 0.500000
O O15 0.412322 0.000000 0.632417
O O16 0.600486 0.145628 0.756074
O O17 0.021530 0.167577 0.619564
O O18 0.500000 0.788360 0.500000
O O19 0.750000 0.750000 0.500000
#
# Coordination Sequence:
#
# PCOD8115364 Si02
#       8
#     8   8   8   8   8   8   8   8
#     4  11  23  44  68  97 131 165 215 272 330 397
#     4  11  25  46  71  97 129 174 224 277 338 390
#     4  11  23  44  66  98 136 175 219 278 323 391
#     4  11  25  40  70  95 135 174 217 264 334 396
#     4  11  23  41  67  96 128 175 224 272 330 384
#     4  12  24  43  67  96 136 172 226 274 322 398
#     4  12  27  42  66  98 139 180 223 269 331 392
#     4  12  24  42  65  99 132 175 216 271 329 400
#
# _framework density 20.912945000000001
#
# number of rings (size 3 to 8) (size 9 to 14) (size 15 to 20)
#    0.000    0.625    5.000    3.000    3.500    2.250 
#    0.000    0.625    0.000    1.500    0.000    0.000 
#    0.000    0.000    0.000    0.000    0.000    0.000 
#
# Total GULP energy -396692.819846 kJ/mol
# GULP energy per Si atom -12396.650620 kJ/mol
# Density = 2.086535 g / cm^3
# Si number density = 20.912945 Si / 1000 Ang^3
#
#
#
# Elastic Constant Matrix: (Units=GPa)
#
#
# Indices 1 2 3 4 5 6 
#
# 1 117.7720 54.4952 30.3100 0.0362 -10.0960 0.0202
# 2 54.4952 93.3535 56.4084 -0.0011 12.6691 -0.0081
# 3 30.3100 56.4084 108.5981 0.0683 -3.5047 0.0356
# 4 0.0362 -0.0011 0.0683 21.6511 0.0341 -1.5430
# 5 -10.0960 12.6691 -3.5047 0.0341 23.5555 0.0200
# 6 0.0202 -0.0081 0.0356 -1.5430 0.0200 26.0397
#
#
#
# Elastic Compliance Matrix: (Units=1/GPa)
#
#
# Indices 1 2 3 4 5 6 
#
# 1 0.014284 -0.011508 0.002399 -0.000054 0.012669 -0.000031
# 2 -0.011508 0.027420 -0.011722 0.000095 -0.021424 0.000056
# 3 0.002399 -0.011722 0.014936 -0.000069 0.009556 -0.000037
# 4 -0.000054 0.000095 -0.000069 0.046383 -0.000154 0.002749
# 5 0.012669 -0.021424 0.009556 -0.000154 0.060828 -0.000085
# 6 -0.000031 0.000056 -0.000037 0.002749 -0.000085 0.038566
#
#
# Mechanical properties :
#
#
# Convention : Reuss Voigt Hill
#
# Bulk Modulus (GPa) = 66.75884 66.90567 66.83225
# Shear Modulus (GPa) = 20.07454 26.14993 23.11224
#
# Velocity S-wave (km/s) = 3.10160 3.53996 3.32801
# Velocity P-wave (km/s) = 6.69464 6.98358 6.84063
#
# Compressibility (1/GPa) = 0.01497929
#
# Stress axis : x y z
#
# Youngs Moduli (GPa) = 70.00710 36.46935 66.95265
#
# Poissons Ratio (x) = 0.41967 -0.16065
# Poissons Ratio (y) = 0.80561 0.78485
# Poissons Ratio (z) = -0.16798 0.42751
#
# Static dielectric constant tensor:
#      x y z
#    x 3.841950 -0.000060 0.091700 
#    y -0.000060 3.576700 -0.000090 
#    z 0.091700 -0.000090 4.047110 
# 
# 
# High freq. dielectric constant tensor:
#      x y z
#    x 1.834230 0.000000 0.001990 
#    y 0.000000 1.800180 -0.000010 
#    z 0.001990 -0.000010 1.835000 
# 
# From -- ./inp_files/373298.got.cif
#   From: 2010.06.25/outbox.cif.g09.slc.cpg/sg12_187_cif.got.tgz:373298.got - 2010.06.28 00:19:55.
