data_PCOD8115497
_publ_section_title
;
Structure prediction by ZEFSAII (Michael W. Deem and Ramdas Pophale) SiO2 
 PCOD8115497
Probable space group: C 2/M
;
_chemical_formula_sum "Si O2"
_cell_formula_units_Z 48
_cell_length_a 18.299802
_cell_length_b 28.667005
_cell_length_c 9.430045
_cell_angle_alpha 90.000000
_cell_angle_beta 26.591596
_cell_angle_gamma 90.000000
_cell_volume 2214.418268
_symmetry_space_group_name_H-M "C 2/M"
_symmetry_group_IT_number 12
_symmetry_cell_setting 'monoclinic'
loop_
_space_group_symop_operation_xyz
x,y,z
-x,y,-z
-x,-y,-z
x,-y,z
1/2+x,1/2+y,z
1/2-x,1/2+y,-z
1/2-x,1/2-y,-z
1/2+x,1/2-y,z
loop_
_atom_site_type_symbol
_atom_site_label
_atom_site_fract_x
_atom_site_fract_y
_atom_site_fract_z
Si Si1 0.169265 0.500000 0.855729
Si Si2 0.312895 0.679292 0.806878
Si Si3 0.108337 0.080092 0.428761
Si Si4 0.876555 0.905773 0.087508
Si Si5 0.308635 0.000000 0.518674
Si Si6 0.758005 0.310610 0.752946
Si Si7 0.054484 0.726933 0.063808
O O1 0.253601 0.547170 0.753820
O O2 0.178027 0.500000 0.672595
O O3 0.997227 0.500000 0.236408
O O4 0.500000 0.696957 0.500000
O O5 0.305837 0.624169 0.792420
O O6 0.218748 0.689715 0.117268
O O7 0.221920 0.703152 0.831154
O O8 0.000000 0.052900 0.500000
O O9 0.984977 0.097540 0.760919
O O10 0.781547 0.954649 0.264469
O O11 0.750725 0.862729 0.297455
O O12 0.000000 0.899576 0.000000
O O13 0.912195 0.284881 0.419037
O O14 0.593328 0.282327 0.995324
O O15 0.000000 0.710591 0.000000
#
# Coordination Sequence:
#
# PCOD8115497 Si02
#       7
#     4   8   8   8   4   8   8
#     4  11  24  45  72 105 150 173 242 302 363 425
#     4  11  24  48  73 105 145 195 242 294 369 433
#     4  11  23  45  73 101 141 190 242 290 358 435
#     4  12  24  45  74 103 144 189 245 292 362 440
#     4  11  26  44  70 112 142 190 229 300 372 424
#     4  12  26  47  73 107 148 194 243 303 365 435
#     4  12  28  46  75 108 146 188 250 304 367 426
#
# _framework density 21.676120999999998
#
# number of rings (size 3 to 8) (size 9 to 14) (size 15 to 20)
#    0.000    0.500    5.000    4.000    4.667    0.000 
#    0.000    1.667    0.000    0.000    0.000    0.000 
#    0.000    0.000    0.000    0.000    0.000    0.000 
#
# Total GULP energy -297558.041239 kJ/mol
# GULP energy per Si atom -12398.251718 kJ/mol
# Density = 2.162679 g / cm^3
# Si number density = 21.676121 Si / 1000 Ang^3
#
#
#
# Elastic Constant Matrix: (Units=GPa)
#
#
# Indices 1 2 3 4 5 6 
#
# 1 260.3330 19.0497 30.2111 -0.0260 12.6207 0.0026
# 2 19.0497 130.8163 49.9409 -0.0002 -13.9899 0.0005
# 3 30.2111 49.9409 118.5145 -0.0083 1.7043 0.0024
# 4 -0.0260 -0.0002 -0.0083 24.5453 0.0030 1.9392
# 5 12.6207 -13.9899 1.7043 0.0030 37.2094 -0.0022
# 6 0.0026 0.0005 0.0024 1.9392 -0.0022 33.7736
#
#
#
# Elastic Compliance Matrix: (Units=1/GPa)
#
#
# Indices 1 2 3 4 5 6 
#
# 1 0.004041 -0.000433 -0.000826 0.000004 -0.001496 -0.000001
# 2 -0.000433 0.009666 -0.004020 -0.000002 0.003965 0.000001
# 3 -0.000826 -0.004020 0.010367 0.000003 -0.001706 -0.000001
# 4 0.000004 -0.000002 0.000003 0.040927 -0.000006 -0.002350
# 5 -0.001496 0.003965 -0.001706 -0.000006 0.028951 0.000002
# 6 -0.000001 0.000001 -0.000001 -0.002350 0.000002 0.029744
#
#
# Mechanical properties :
#
#
# Convention : Reuss Voigt Hill
#
# Bulk Modulus (GPa) = 73.98598 78.67416 76.33007
# Shear Modulus (GPa) = 36.03360 46.46980 41.25170
#
# Velocity S-wave (km/s) = 4.08163 4.63517 4.36718
# Velocity P-wave (km/s) = 7.51129 8.06353 7.79231
#
# Compressibility (1/GPa) = 0.01351607
#
# Stress axis : x y z
#
# Youngs Moduli (GPa) = 247.44443 103.45504 96.46145
#
# Poissons Ratio (x) = 0.04480 0.07970
# Poissons Ratio (y) = 0.10715 0.38776
# Poissons Ratio (z) = 0.20444 0.41587
#
# Static dielectric constant tensor:
#      x y z
#    x 4.161240 0.000000 -0.027600 
#    y 0.000000 3.938340 0.000010 
#    z -0.027600 0.000010 3.922610 
# 
# 
# High freq. dielectric constant tensor:
#      x y z
#    x 1.864990 0.000000 0.004780 
#    y 0.000000 1.860290 0.000000 
#    z 0.004780 0.000000 1.853960 
# 
# From -- ./inp_files/80662.got.cif
#   From: 2010.06.25/outbox.cif.g09.slc.cpg/sg12_41_cif.got.tgz:80662.got - 2010.06.28 00:19:55.
