data_PCOD8115640
_publ_section_title
;
Structure prediction by ZEFSAII (Michael W. Deem and Ramdas Pophale) SiO2 
 PCOD8115640
Probable space group: C 2/M
;
_chemical_formula_sum "Si O2"
_cell_formula_units_Z 48
_cell_length_a 14.826841
_cell_length_b 24.902386
_cell_length_c 11.688367
_cell_angle_alpha 90.000000
_cell_angle_beta 149.576689
_cell_angle_gamma 90.000000
_cell_volume 2185.364850
_symmetry_space_group_name_H-M "C 2/M"
_symmetry_group_IT_number 12
_symmetry_cell_setting 'monoclinic'
loop_
_space_group_symop_operation_xyz
x,y,z
-x,y,-z
-x,-y,-z
x,-y,z
1/2+x,1/2+y,z
1/2-x,1/2+y,-z
1/2-x,1/2-y,-z
1/2+x,1/2-y,z
loop_
_atom_site_type_symbol
_atom_site_label
_atom_site_fract_x
_atom_site_fract_y
_atom_site_fract_z
Si Si1 0.060386 0.109238 0.320805
Si Si2 0.556095 0.110927 0.337567
Si Si3 0.035316 0.000000 0.903196
Si Si4 0.373018 0.179989 0.963806
Si Si5 0.500000 0.639979 0.500000
Si Si6 0.616105 0.699853 0.017191
Si Si7 0.054152 0.500000 0.691323
Si Si8 0.500000 0.170780 0.500000
O O1 0.265376 0.126233 0.535012
O O2 0.016823 0.101678 0.407197
O O3 0.048417 0.053757 0.239348
O O4 0.930927 0.156283 0.131259
O O5 0.518863 0.048394 0.312250
O O6 0.576741 0.133153 0.486397
O O7 0.394462 0.138555 0.092088
O O8 0.235938 0.000000 0.082701
O O9 0.000000 0.000000 0.000000
O O10 0.170197 0.178816 0.697988
O O11 0.431182 0.239355 0.071890
O O12 0.500000 0.161693 0.000000
O O13 0.828413 0.703931 0.271028
O O14 0.500000 0.683010 0.000000
O O15 0.000000 0.500000 0.500000
#
# Coordination Sequence:
#
# PCOD8115640 Si02
#       8
#     8   8   4   8   4   8   4   4
#     4  12  26  46  71 104 141 187 234 290 349 417
#     4  12  25  45  70 104 141 178 231 289 351 418
#     4  12  26  45  74 105 144 178 231 295 350 416
#     4  11  25  46  70 100 141 189 237 286 340 418
#     4  12  25  47  72  98 144 187 239 280 350 418
#     4  11  24  43  70 103 140 184 237 290 351 410
#     4  12  24  44  71 106 135 176 222 284 353 408
#     4  12  23  41  70 102 142 179 229 286 356 416
#
# _framework density 21.964295
#
# number of rings (size 3 to 8) (size 9 to 14) (size 15 to 20)
#    0.000    0.333    4.167    5.500    0.000    5.000 
#    0.000    1.250    0.000    0.000    0.000    0.000 
#    0.000    0.000    0.000    0.000    0.000    0.000 
#
# Total GULP energy -297611.835817 kJ/mol
# GULP energy per Si atom -12400.493159 kJ/mol
# Density = 2.191430 g / cm^3
# Si number density = 21.964295 Si / 1000 Ang^3
#
#
#
# Elastic Constant Matrix: (Units=GPa)
#
#
# Indices 1 2 3 4 5 6 
#
# 1 148.3674 42.9913 45.7639 0.0000 -9.0539 0.0000
# 2 42.9913 136.7590 37.8336 0.0000 -27.5454 0.0000
# 3 45.7639 37.8336 125.4830 0.0000 9.4135 0.0000
# 4 0.0000 0.0000 0.0000 29.2473 0.0000 -4.7328
# 5 -9.0539 -27.5454 9.4135 0.0000 49.5578 0.0000
# 6 0.0000 0.0000 0.0000 -4.7328 0.0000 44.8951
#
#
#
# Elastic Compliance Matrix: (Units=1/GPa)
#
#
# Indices 1 2 3 4 5 6 
#
# 1 0.008053 -0.001621 -0.002527 0.000000 0.001050 0.000000
# 2 -0.001621 0.009720 -0.002762 0.000000 0.005631 0.000000
# 3 -0.002527 -0.002762 0.010016 0.000000 -0.003899 0.000000
# 4 0.000000 0.000000 0.000000 0.034785 0.000000 0.003667
# 5 0.001050 0.005631 -0.003899 0.000000 0.024241 0.000000
# 6 0.000000 0.000000 0.000000 0.003667 0.000000 0.022661
#
#
# Mechanical properties :
#
#
# Convention : Reuss Voigt Hill
#
# Bulk Modulus (GPa) = 71.58482 73.75412 72.66947
# Shear Modulus (GPa) = 39.07718 43.67474 41.37596
#
# Velocity S-wave (km/s) = 4.22254 4.46403 4.34497
# Velocity P-wave (km/s) = 7.51235 7.76029 7.63732
#
# Compressibility (1/GPa) = 0.01396944
#
# Stress axis : x y z
#
# Youngs Moduli (GPa) = 124.17259 102.88147 99.83935
#
# Poissons Ratio (x) = 0.16677 0.25231
# Poissons Ratio (y) = 0.20128 0.27574
# Poissons Ratio (z) = 0.31380 0.28414
#
# Static dielectric constant tensor:
#      x y z
#    x 4.396890 0.000000 0.430880 
#    y 0.000000 3.676910 0.000000 
#    z 0.430880 0.000000 4.356750 
# 
# 
# High freq. dielectric constant tensor:
#      x y z
#    x 1.881980 0.000000 0.014840 
#    y 0.000000 1.855140 0.000000 
#    z 0.014840 0.000000 1.872250 
# 
# From -- ./inp_files/149941.got.cif
#   From: 2010.06.25/outbox.cif.g09.slc.cpg/sg12_75_cif.got.tgz:149941.got - 2010.06.28 00:19:55.
