data_PCOD8115080
_publ_section_title
;
Structure prediction by ZEFSAII (Michael W. Deem and Ramdas Pophale) SiO2 
 PCOD8115080
Probable space group: C 2/M
;
_chemical_formula_sum "Si O2"
_cell_formula_units_Z 40
_cell_length_a 9.537940
_cell_length_b 29.108670
_cell_length_c 14.296743
_cell_angle_alpha 90.000000
_cell_angle_beta 153.436806
_cell_angle_gamma 90.000000
_cell_volume 1775.010398
_symmetry_space_group_name_H-M "C 2/M"
_symmetry_group_IT_number 12
_symmetry_cell_setting 'monoclinic'
loop_
_space_group_symop_operation_xyz
x,y,z
-x,y,-z
-x,-y,-z
x,-y,z
1/2+x,1/2+y,z
1/2-x,1/2+y,-z
1/2-x,1/2-y,-z
1/2+x,1/2-y,z
loop_
_atom_site_type_symbol
_atom_site_label
_atom_site_fract_x
_atom_site_fract_y
_atom_site_fract_z
Si Si1 0.507983 0.950353 0.797458
Si Si2 0.672220 0.856104 0.843703
Si Si3 0.449124 0.449597 0.317067
Si Si4 0.211562 0.703695 0.035146
Si Si5 0.230464 0.138062 0.410957
O O1 0.742659 0.909432 0.910459
O O2 0.214691 0.948086 0.553778
O O3 0.386842 0.944049 0.832073
O O4 0.678007 0.000000 0.889534
O O5 0.386222 0.849072 0.602432
O O6 0.556764 0.831695 0.869769
O O7 0.000000 0.835347 0.000000
O O8 0.461594 0.500000 0.273624
O O9 0.503719 0.406770 0.279680
O O10 0.545315 0.683086 0.266453
O O11 0.250000 0.750000 0.000000
O O12 0.000000 0.711601 0.000000
O O13 0.500000 0.124684 0.500000
#
# Coordination Sequence:
#
# PCOD8115080 Si02
#       5
#     8   8   8   8   8
#     4   8  15  30  57  91 132 179 225 268 321 385
#     4  11  22  42  67  98 139 178 223 276 328 395
#     4   8  15  31  57  93 133 177 225 269 319 386
#     4  12  28  49  72 100 129 167 220 282 341 407
#     4  11  23  42  70  99 137 181 220 272 336 396
#
# _framework density 22.535077999999999
#
# number of rings (size 3 to 8) (size 9 to 14) (size 15 to 20)
#    0.000    2.000    2.000    3.000    0.000    4.000 
#    0.000    1.000    0.000    3.600    0.000    0.000 
#    0.000    0.000    0.000    0.000    0.000    0.000 
#
# Total GULP energy -247889.726431 kJ/mol
# GULP energy per Si atom -12394.486322 kJ/mol
# Density = 2.248379 g / cm^3
# Si number density = 22.535078 Si / 1000 Ang^3
#
#
#
# Elastic Constant Matrix: (Units=GPa)
#
#
# Indices 1 2 3 4 5 6 
#
# 1 135.9634 68.7367 32.7930 0.0000 -4.5545 0.0000
# 2 68.7367 170.1133 47.0898 0.0000 -6.7232 0.0000
# 3 32.7930 47.0898 61.3328 0.0000 -11.2423 0.0000
# 4 0.0000 0.0000 0.0000 23.7524 0.0000 6.7949
# 5 -4.5545 -6.7232 -11.2423 0.0000 34.5887 0.0000
# 6 0.0000 0.0000 0.0000 6.7949 0.0000 25.9671
#
#
#
# Elastic Compliance Matrix: (Units=1/GPa)
#
#
# Indices 1 2 3 4 5 6 
#
# 1 0.009593 -0.003116 -0.002782 0.000000 -0.000247 0.000000
# 2 -0.003116 0.008483 -0.004913 0.000000 -0.000358 0.000000
# 3 -0.002782 -0.004913 0.022673 0.000000 0.006048 0.000000
# 4 0.000000 0.000000 0.000000 0.045508 0.000000 -0.011908
# 5 -0.000247 -0.000358 0.006048 0.000000 0.030775 0.000000
# 6 0.000000 0.000000 0.000000 -0.011908 0.000000 0.041626
#
#
# Mechanical properties :
#
#
# Convention : Reuss Voigt Hill
#
# Bulk Modulus (GPa) = 52.28176 73.84984 63.06580
# Shear Modulus (GPa) = 26.78743 31.44762 29.11752
#
# Velocity S-wave (km/s) = 3.45149 3.73969 3.59848
# Velocity P-wave (km/s) = 6.25574 7.17560 6.73140
#
# Compressibility (1/GPa) = 0.01912713
#
# Stress axis : x y z
#
# Youngs Moduli (GPa) = 104.24431 117.87972 44.10610
#
# Poissons Ratio (x) = 0.36729 0.12271
# Poissons Ratio (y) = 0.32480 0.21669
# Poissons Ratio (z) = 0.29001 0.57914
#
# Static dielectric constant tensor:
#      x y z
#    x 4.166200 0.000000 -0.177460 
#    y 0.000000 4.448400 0.000000 
#    z -0.177460 0.000000 3.894430 
# 
# 
# High freq. dielectric constant tensor:
#      x y z
#    x 1.888290 0.000000 -0.016400 
#    y 0.000000 1.891940 0.000000 
#    z -0.016400 0.000000 1.872960 
# 
# From -- ./inp_files/201115.got.cif
#   From: 2010.06.25/outbox.cif.g09.slc.cpg/sg12_101_cif.got.tgz:201115.got - 2010.06.28 00:19:55.
