data_PCOD8115518
_publ_section_title
;
Structure prediction by ZEFSAII (Michael W. Deem and Ramdas Pophale) SiO2 
 PCOD8115518
Probable space group: C 2/M
;
_chemical_formula_sum "Si O2"
_cell_formula_units_Z 48
_cell_length_a 23.962588
_cell_length_b 9.339278
_cell_length_c 23.648047
_cell_angle_alpha 90.000000
_cell_angle_beta 153.016426
_cell_angle_gamma 90.000000
_cell_volume 2401.290062
_symmetry_space_group_name_H-M "C 2/M"
_symmetry_group_IT_number 12
_symmetry_cell_setting 'monoclinic'
loop_
_space_group_symop_operation_xyz
x,y,z
-x,y,-z
-x,-y,-z
x,-y,z
1/2+x,1/2+y,z
1/2-x,1/2+y,-z
1/2-x,1/2-y,-z
1/2+x,1/2-y,z
loop_
_atom_site_type_symbol
_atom_site_label
_atom_site_fract_x
_atom_site_fract_y
_atom_site_fract_z
Si Si1 0.719067 0.663746 0.237372
Si Si2 0.526048 0.664045 0.158292
Si Si3 0.828492 0.165780 0.243824
Si Si4 0.210502 0.332594 0.020925
Si Si5 0.069822 0.664388 0.485462
Si Si6 0.760915 0.838544 0.565349
O O1 0.696616 0.500000 0.199640
O O2 0.609572 0.712348 0.180402
O O3 0.717864 0.759167 0.179459
O O4 0.854084 0.679512 0.387709
O O5 0.480548 0.500000 0.109334
O O6 0.604609 0.675643 0.286401
O O7 0.414076 0.771726 0.064815
O O8 0.812520 0.189270 0.162031
O O9 0.954972 0.231739 0.379584
O O10 0.826615 0.000000 0.257697
O O11 0.193750 0.500000 0.991116
O O12 0.250000 0.250000 0.000000
O O13 0.026607 0.500000 0.438680
O O14 0.159212 0.716618 0.516778
O O15 0.750000 0.750000 0.500000
O O16 0.732546 0.000000 0.523040
#
# Coordination Sequence:
#
# PCOD8115518 Si02
#       6
#     8   8   8   8   8   8
#     4   9  19  38  63  89 118 152 190 234 286 347
#     4   9  20  40  62  85 116 150 191 242 287 339
#     4  11  24  38  56  86 120 153 192 242 292 337
#     4  11  26  44  60  82 115 155 198 244 291 342
#     4   9  19  36  57  85 119 153 190 231 282 347
#     4   9  19  34  55  84 115 148 188 236 286 339
#
# _framework density 19.989255
#
# number of rings (size 3 to 8) (size 9 to 14) (size 15 to 20)
#    0.000    2.333    0.000    3.500    2.333    8.000 
#    0.000    6.667    0.000    0.000    0.000    0.000 
#    0.000    0.000    0.000    0.000    0.000    0.000 
#
# Total GULP energy -297556.224626 kJ/mol
# GULP energy per Si atom -12398.176026 kJ/mol
# Density = 1.994376 g / cm^3
# Si number density = 19.989255 Si / 1000 Ang^3
#
#
#
# Elastic Constant Matrix: (Units=GPa)
#
#
# Indices 1 2 3 4 5 6 
#
# 1 99.4665 68.2758 41.1471 0.0000 -12.0273 0.0000
# 2 68.2758 108.8932 40.2232 0.0000 1.7029 0.0000
# 3 41.1471 40.2232 49.8707 0.0000 11.9089 0.0000
# 4 0.0000 0.0000 0.0000 31.6822 0.0000 -1.6611
# 5 -12.0273 1.7029 11.9089 0.0000 28.7652 0.0000
# 6 0.0000 0.0000 0.0000 -1.6611 0.0000 40.0993
#
#
#
# Elastic Compliance Matrix: (Units=1/GPa)
#
#
# Indices 1 2 3 4 5 6 
#
# 1 0.027640 -0.010611 -0.019038 0.000000 0.020067 0.000000
# 2 -0.010611 0.017580 -0.004567 0.000000 -0.003587 0.000000
# 3 -0.019038 -0.004567 0.045808 0.000000 -0.026655 0.000000
# 4 0.000000 0.000000 0.000000 0.031632 0.000000 0.001310
# 5 0.020067 -0.003587 -0.026655 0.000000 0.054402 0.000000
# 6 0.000000 0.000000 0.000000 0.001310 0.000000 0.024992
#
#
# Mechanical properties :
#
#
# Convention : Reuss Voigt Hill
#
# Bulk Modulus (GPa) = 44.25865 61.94697 53.10281
# Shear Modulus (GPa) = 17.98441 27.34829 22.66635
#
# Velocity S-wave (km/s) = 3.00276 3.70286 3.37104
# Velocity P-wave (km/s) = 5.84905 7.02417 6.46337
#
# Compressibility (1/GPa) = 0.02259445
#
# Stress axis : x y z
#
# Youngs Moduli (GPa) = 36.18007 56.88336 21.83016
#
# Poissons Ratio (x) = 0.60362 0.41560
# Poissons Ratio (y) = 0.38392 0.09970
# Poissons Ratio (z) = 0.68879 0.25980
#
# Static dielectric constant tensor:
#      x y z
#    x 3.761390 0.000000 -0.006160 
#    y 0.000000 3.007660 0.000000 
#    z -0.006160 0.000000 3.538770 
# 
# 
# High freq. dielectric constant tensor:
#      x y z
#    x 1.794700 0.000000 -0.001200 
#    y 0.000000 1.772500 0.000000 
#    z -0.001200 0.000000 1.772480 
# 
# From -- ./inp_files/348743.got.cif
#   From: 2010.06.25/outbox.cif.g09.slc.cpg/sg12_175_cif.got.tgz:348743.got - 2010.06.28 00:19:55.
