data_PCOD8115440
_publ_section_title
;
Structure prediction by ZEFSAII (Michael W. Deem and Ramdas Pophale) SiO2 
 PCOD8115440
Probable space group: C 2/M
;
_chemical_formula_sum "Si O2"
_cell_formula_units_Z 44
_cell_length_a 18.134189
_cell_length_b 23.153751
_cell_length_c 5.197710
_cell_angle_alpha 90.000000
_cell_angle_beta 72.465274
_cell_angle_gamma 90.000000
_cell_volume 2080.980270
_symmetry_space_group_name_H-M "C 2/M"
_symmetry_group_IT_number 12
_symmetry_cell_setting 'monoclinic'
loop_
_space_group_symop_operation_xyz
x,y,z
-x,y,-z
-x,-y,-z
x,-y,z
1/2+x,1/2+y,z
1/2-x,1/2+y,-z
1/2-x,1/2-y,-z
1/2+x,1/2-y,z
loop_
_atom_site_type_symbol
_atom_site_label
_atom_site_fract_x
_atom_site_fract_y
_atom_site_fract_z
Si Si1 0.000000 0.275223 0.000000
Si Si2 0.411641 0.065352 0.674595
Si Si3 0.622671 0.865984 0.775955
Si Si4 0.422765 0.682054 0.735311
Si Si5 0.737833 0.287204 0.265974
Si Si6 0.448401 0.560888 0.807015
O O1 0.058772 0.316147 0.778200
O O2 0.940469 0.235702 0.902986
O O3 0.500000 0.065499 0.500000
O O4 0.363867 0.098940 0.502790
O O5 0.379747 0.000000 0.727270
O O6 0.406476 0.094197 0.960009
O O7 0.704804 0.841371 0.783719
O O8 0.500000 0.671017 0.500000
O O9 0.351556 0.694763 0.624605
O O10 0.399961 0.620581 0.893429
O O11 0.750000 0.250000 0.500000
O O12 0.750000 0.250000 0.000000
O O13 0.500000 0.564545 0.500000
O O14 0.399091 0.500000 0.844577
O O15 0.500000 0.556350 0.000000
#
# Coordination Sequence:
#
# PCOD8115440 Si02
#       6
#     4   8   8   8   8   8
#     4  12  22  36  64  96 128 162 216 262 318 392
#     4  11  23  43  68  96 129 174 226 275 323 388
#     4  12  24  40  65  97 134 173 217 269 332 392
#     4  11  24  40  65  94 128 167 221 265 320 390
#     4  12  26  43  62  94 140 174 210 267 334 396
#     4   9  18  35  58  86 116 152 201 257 308 359
#
# _framework density 21.143882000000001
#
# number of rings (size 3 to 8) (size 9 to 14) (size 15 to 20)
#    0.000    0.909    4.545    2.727    2.545    1.455 
#    0.000    1.818    0.000    4.364    0.000    0.000 
#    0.000    0.000    0.000    0.000    0.000    0.000 
#
# Total GULP energy -272573.682494 kJ/mol
# GULP energy per Si atom -12389.712841 kJ/mol
# Density = 2.109576 g / cm^3
# Si number density = 21.143882 Si / 1000 Ang^3
#
#
#
# Elastic Constant Matrix: (Units=GPa)
#
#
# Indices 1 2 3 4 5 6 
#
# 1 128.9864 55.5764 15.3010 0.0000 5.2396 0.0000
# 2 55.5764 178.8306 37.5217 0.0000 15.2386 0.0000
# 3 15.3010 37.5217 89.0450 0.0000 25.9650 0.0000
# 4 0.0000 0.0000 0.0000 25.5267 0.0000 11.0686
# 5 5.2396 15.2386 25.9650 0.0000 34.4015 0.0000
# 6 0.0000 0.0000 0.0000 11.0686 0.0000 33.4569
#
#
#
# Elastic Compliance Matrix: (Units=1/GPa)
#
#
# Indices 1 2 3 4 5 6 
#
# 1 0.008965 -0.002706 -0.000451 0.000000 0.000174 0.000000
# 2 -0.002706 0.006977 -0.002172 0.000000 -0.001039 0.000000
# 3 -0.000451 -0.002172 0.015287 0.000000 -0.010507 0.000000
# 4 0.000000 0.000000 0.000000 0.045735 0.000000 -0.015131
# 5 0.000174 -0.001039 -0.010507 0.000000 0.037433 0.000000
# 6 0.000000 0.000000 0.000000 -0.015131 0.000000 0.034895
#
#
# Mechanical properties :
#
#
# Convention : Reuss Voigt Hill
#
# Bulk Modulus (GPa) = 48.61211 68.18447 58.39829
# Shear Modulus (GPa) = 29.97462 37.90787 33.94125
#
# Velocity S-wave (km/s) = 3.76925 4.23880 4.01091
# Velocity P-wave (km/s) = 6.47951 7.50163 7.00923
#
# Compressibility (1/GPa) = 0.02057101
#
# Stress axis : x y z
#
# Youngs Moduli (GPa) = 111.54129 143.32293 65.41593
#
# Poissons Ratio (x) = 0.38789 0.02948
# Poissons Ratio (y) = 0.30188 0.14208
# Poissons Ratio (z) = 0.05027 0.31130
#
# Static dielectric constant tensor:
#      x y z
#    x 3.551350 0.000000 0.234230 
#    y 0.000000 5.550610 0.000000 
#    z 0.234230 0.000000 4.033650 
# 
# 
# High freq. dielectric constant tensor:
#      x y z
#    x 1.807660 0.000000 0.022890 
#    y 0.000000 1.860290 0.000000 
#    z 0.022890 0.000000 1.821830 
# 
# From -- ./inp_files/16132.got.cif
#   From: 2010.06.25/outbox.cif.g09.slc.cpg/sg12_9_cif.got.tgz:16132.got - 2010.06.28 00:19:55.
