data_PCOD8115012
_publ_section_title
;
Structure prediction by ZEFSAII (Michael W. Deem and Ramdas Pophale) SiO2 
 PCOD8115012
Probable space group: C 2/M
;
_chemical_formula_sum "Si O2"
_cell_formula_units_Z 56
_cell_length_a 12.367838
_cell_length_b 25.777857
_cell_length_c 8.539908
_cell_angle_alpha 90.000000
_cell_angle_beta 69.372799
_cell_angle_gamma 90.000000
_cell_volume 2548.119012
_symmetry_space_group_name_H-M "C 2/M"
_symmetry_group_IT_number 12
_symmetry_cell_setting 'monoclinic'
loop_
_space_group_symop_operation_xyz
x,y,z
-x,y,-z
-x,-y,-z
x,-y,z
1/2+x,1/2+y,z
1/2-x,1/2+y,-z
1/2-x,1/2-y,-z
1/2+x,1/2-y,z
loop_
_atom_site_type_symbol
_atom_site_label
_atom_site_fract_x
_atom_site_fract_y
_atom_site_fract_z
Si Si1 0.454547 0.057286 0.853635
Si Si2 0.907501 0.060550 0.735532
Si Si3 0.102339 0.386137 0.566384
Si Si4 0.106413 0.190138 0.827826
Si Si5 0.250443 0.128701 0.984539
Si Si6 0.637161 0.394213 0.576503
Si Si7 0.115627 0.309275 0.841065
O O1 0.561792 0.062428 0.680452
O O2 0.359521 0.099036 0.857490
O O3 0.401954 0.000000 0.873564
O O4 0.500000 0.071722 0.000000
O O5 0.871096 0.097003 0.606300
O O6 0.046193 0.064027 0.695613
O O7 0.873562 0.000000 0.727772
O O8 0.840949 0.084692 0.916796
O O9 0.229607 0.400602 0.433703
O O10 0.111427 0.337627 0.677773
O O11 0.000000 0.371517 0.500000
O O12 0.212599 0.162370 0.857288
O O13 0.090470 0.161905 0.666170
O O14 0.138235 0.249725 0.785715
O O15 0.000000 0.183315 0.000000
O O16 0.278861 0.167634 0.112455
O O17 0.000000 0.316510 0.000000
#
# Coordination Sequence:
#
# PCOD8115012 Si02
#       7
#     8   8   8   8   8   8   8
#     4  11  22  40  69  99 130 176 222 269 331 396
#     4  11  24  44  72  97 131 186 221 266 340 398
#     4  12  24  43  66  99 144 172 217 279 332 399
#     4  11  25  43  67  96 133 171 225 276 335 385
#     4  12  20  45  70  99 132 170 223 285 318 402
#     4  11  23  44  63  96 138 171 220 274 320 402
#     4  11  23  45  68  98 130 180 218 270 337 400
#
# _framework density 21.976997000000001
#
# number of rings (size 3 to 8) (size 9 to 14) (size 15 to 20)
#    0.000    0.714    5.714    2.571    0.000    3.143 
#    2.571    6.429    0.000    0.000    0.000    0.000 
#    0.000    0.000    0.000    0.000    0.000    0.000 
#
# Total GULP energy -346974.191111 kJ/mol
# GULP energy per Si atom -12391.935397 kJ/mol
# Density = 2.192698 g / cm^3
# Si number density = 21.976997 Si / 1000 Ang^3
#
#
#
# Elastic Constant Matrix: (Units=GPa)
#
#
# Indices 1 2 3 4 5 6 
#
# 1 111.4277 72.5567 31.3484 0.0000 0.3540 0.0000
# 2 72.5567 76.9116 21.8138 0.0000 5.2589 0.0000
# 3 31.3484 21.8138 61.0236 0.0000 -0.1285 0.0000
# 4 0.0000 0.0000 0.0000 65.8642 0.0000 2.7165
# 5 0.3540 5.2589 -0.1285 0.0000 38.9350 0.0000
# 6 0.0000 0.0000 0.0000 2.7165 0.0000 27.6793
#
#
#
# Elastic Compliance Matrix: (Units=1/GPa)
#
#
# Indices 1 2 3 4 5 6 
#
# 1 0.024761 -0.022191 -0.004781 0.000000 0.002756 0.000000
# 2 -0.022191 0.034510 -0.000946 0.000000 -0.004463 0.000000
# 3 -0.004781 -0.000946 0.019182 0.000000 0.000235 0.000000
# 4 0.000000 0.000000 0.000000 0.015244 0.000000 -0.001496
# 5 0.002756 -0.004463 0.000235 0.000000 0.026262 0.000000
# 6 0.000000 0.000000 0.000000 -0.001496 0.000000 0.036275
#
#
# Mechanical properties :
#
#
# Convention : Reuss Voigt Hill
#
# Bulk Modulus (GPa) = 44.21643 55.64452 49.93048
# Shear Modulus (GPa) = 22.76775 34.73864 28.75320
#
# Velocity S-wave (km/s) = 3.22216 3.98009 3.62101
# Velocity P-wave (km/s) = 5.83148 6.81879 6.34437
#
# Compressibility (1/GPa) = 0.02261603
#
# Stress axis : x y z
#
# Youngs Moduli (GPa) = 40.38674 28.97734 52.13237
#
# Poissons Ratio (x) = 0.64303 0.24927
# Poissons Ratio (y) = 0.89622 0.04930
# Poissons Ratio (z) = 0.19311 0.02740
#
# Static dielectric constant tensor:
#      x y z
#    x 4.361340 0.000000 -0.222220 
#    y 0.000000 3.972650 0.000000 
#    z -0.222220 0.000000 4.005930 
# 
# 
# High freq. dielectric constant tensor:
#      x y z
#    x 1.865920 0.000000 -0.012950 
#    y 0.000000 1.859320 0.000000 
#    z -0.012950 0.000000 1.867390 
# 
# From -- ./inp_files/53158.got.cif
#   From: 2010.06.25/outbox.cif.g09.slc.cpg/sg12_27_cif.got.tgz:53158.got - 2010.06.28 00:19:55.
