data_PCOD8115276
_publ_section_title
;
Structure prediction by ZEFSAII (Michael W. Deem and Ramdas Pophale) SiO2 
 PCOD8115276
Probable space group: C 2/M
;
_chemical_formula_sum "Si O2"
_cell_formula_units_Z 40
_cell_length_a 8.683340
_cell_length_b 26.488425
_cell_length_c 15.380650
_cell_angle_alpha 90.000000
_cell_angle_beta 149.186166
_cell_angle_gamma 90.000000
_cell_volume 1812.173630
_symmetry_space_group_name_H-M "C 2/M"
_symmetry_group_IT_number 12
_symmetry_cell_setting 'monoclinic'
loop_
_space_group_symop_operation_xyz
x,y,z
-x,y,-z
-x,-y,-z
x,-y,z
1/2+x,1/2+y,z
1/2-x,1/2+y,-z
1/2-x,1/2-y,-z
1/2+x,1/2-y,z
loop_
_atom_site_type_symbol
_atom_site_label
_atom_site_fract_x
_atom_site_fract_y
_atom_site_fract_z
Si Si1 0.683479 0.608678 0.674025
Si Si2 0.311294 0.782126 0.678631
Si Si3 0.368041 0.406706 0.025941
Si Si4 0.845734 0.942603 0.662724
Si Si5 0.122861 0.205117 0.148441
O O1 0.500000 0.589080 0.500000
O O2 0.721982 0.668699 0.690425
O O3 0.497819 0.595283 0.669385
O O4 0.012203 0.584541 0.843709
O O5 0.515905 0.798038 0.694640
O O6 0.470748 0.741544 0.818387
O O7 0.000000 0.755921 0.500000
O O8 0.494378 0.439250 0.166377
O O9 0.467336 0.348722 0.089375
O O10 0.500000 0.427668 0.000000
O O11 0.500000 0.925945 0.500000
O O12 0.874492 0.000000 0.643084
O O13 0.000000 0.228994 0.000000
#
# Coordination Sequence:
#
# PCOD8115276 Si02
#       5
#     8   8   8   8   8
#     4  11  24  44  69  99 137 179 227 277 337 402
#     4  11  24  40  63  96 134 180 227 270 332 393
#     4  11  23  44  69  98 140 179 221 279 336 401
#     4  11  27  47  73 104 131 171 226 284 349 408
#     4  11  23  40  61  97 135 176 226 269 329 392
#
# _framework density 22.072938000000001
#
# number of rings (size 3 to 8) (size 9 to 14) (size 15 to 20)
#    0.000    1.000    4.000    3.000    5.600    3.200 
#    0.000    0.000    0.000    0.000    0.000    0.000 
#    0.000    0.000    0.000    0.000    0.000    0.000 
#
# Total GULP energy -247964.072624 kJ/mol
# GULP energy per Si atom -12398.203631 kJ/mol
# Density = 2.202270 g / cm^3
# Si number density = 22.072938 Si / 1000 Ang^3
#
#
#
# Elastic Constant Matrix: (Units=GPa)
#
#
# Indices 1 2 3 4 5 6 
#
# 1 125.0006 37.2369 30.4844 0.0000 12.2800 0.0000
# 2 37.2369 55.8326 5.7510 0.0000 2.8396 0.0000
# 3 30.4844 5.7510 145.0847 0.0001 18.5282 0.0000
# 4 0.0000 0.0000 0.0001 24.5315 0.0000 -3.5570
# 5 12.2800 2.8396 18.5282 0.0000 44.8760 0.0000
# 6 0.0000 0.0000 0.0000 -3.5570 0.0000 16.6430
#
#
#
# Elastic Compliance Matrix: (Units=1/GPa)
#
#
# Indices 1 2 3 4 5 6 
#
# 1 0.010628 -0.006820 -0.001738 0.000000 -0.001759 0.000000
# 2 -0.006820 0.022394 0.000515 0.000000 0.000237 0.000000
# 3 -0.001738 0.000515 0.007580 0.000000 -0.002687 0.000000
# 4 0.000000 0.000000 0.000000 0.042067 0.000000 0.008991
# 5 -0.001759 0.000237 -0.002687 0.000000 0.023859 0.000000
# 6 0.000000 0.000000 0.000000 0.008991 0.000000 0.062007
#
#
# Mechanical properties :
#
#
# Convention : Reuss Voigt Hill
#
# Bulk Modulus (GPa) = 40.78839 52.54027 46.66433
# Shear Modulus (GPa) = 25.93433 34.03982 29.98708
#
# Velocity S-wave (km/s) = 3.43146 3.93128 3.68984
# Velocity P-wave (km/s) = 5.84969 6.66794 6.27217
#
# Compressibility (1/GPa) = 0.02451678
#
# Stress axis : x y z
#
# Youngs Moduli (GPa) = 94.08861 44.65475 131.91851
#
# Poissons Ratio (x) = 0.30454 0.22930
# Poissons Ratio (y) = 0.64167 -0.06795
# Poissons Ratio (z) = 0.16354 -0.02300
#
# Static dielectric constant tensor:
#      x y z
#    x 4.109260 0.000000 0.141290 
#    y 0.000000 3.585250 0.000000 
#    z 0.141290 0.000000 4.506590 
# 
# 
# High freq. dielectric constant tensor:
#      x y z
#    x 1.873220 0.000000 0.012960 
#    y 0.000000 1.844270 0.000000 
#    z 0.012960 0.000000 1.892460 
# 
# From -- ./inp_files/41454.got.cif
#   From: 2010.06.25/outbox.cif.g09.slc.cpg/sg12_21_cif.got.tgz:41454.got - 2010.06.28 00:19:55.
