data_PCOD8115674
_publ_section_title
;
Structure prediction by ZEFSAII (Michael W. Deem and Ramdas Pophale) SiO2 
 PCOD8115674
Probable space group: C 2/M
;
_chemical_formula_sum "Si O2"
_cell_formula_units_Z 24
_cell_length_a 13.688501
_cell_length_b 12.835295
_cell_length_c 14.122459
_cell_angle_alpha 90.000000
_cell_angle_beta 153.199009
_cell_angle_gamma 90.000000
_cell_volume 1118.782185
_symmetry_space_group_name_H-M "C 2/M"
_symmetry_group_IT_number 12
_symmetry_cell_setting 'monoclinic'
loop_
_space_group_symop_operation_xyz
x,y,z
-x,y,-z
-x,-y,-z
x,-y,z
1/2+x,1/2+y,z
1/2-x,1/2+y,-z
1/2-x,1/2-y,-z
1/2+x,1/2-y,z
loop_
_atom_site_type_symbol
_atom_site_label
_atom_site_fract_x
_atom_site_fract_y
_atom_site_fract_z
Si Si1 0.763650 0.322236 0.424002
Si Si2 0.254643 0.000000 0.831283
Si Si3 0.082793 0.000000 0.888909
Si Si4 0.000000 0.828033 0.500000
Si Si5 0.439340 0.000000 0.336761
O O1 0.750000 0.250000 0.500000
O O2 0.554771 0.394102 0.228251
O O3 0.811533 0.247152 0.376785
O O4 0.963719 0.395829 0.623183
O O5 0.247591 0.000000 0.940637
O O6 0.120586 0.898628 0.682222
O O7 0.500000 0.000000 0.000000
O O8 0.194042 0.000000 0.088672
O O9 0.500000 0.000000 0.500000
#
# Coordination Sequence:
#
# PCOD8115674 Si02
#       5
#     8   4   4   4   4
#     4  11  24  45  69  99 139 182 226 284 339 415
#     4  11  26  42  69 105 139 176 228 283 341 415
#     4  11  26  44  72 102 136 186 230 281 352 402
#     4  11  24  47  68 100 142 179 224 285 342 402
#     4  11  26  46  64 100 138 177 234 287 335 404
#
# _framework density 21.451896999999999
#
# number of rings (size 3 to 8) (size 9 to 14) (size 15 to 20)
#    0.000    1.000    5.000    0.000    4.667    6.667 
#    0.000    0.000    0.000    0.000    0.000    0.000 
#    0.000    0.000    0.000    0.000    0.000    0.000 
#
# Total GULP energy -148673.715311 kJ/mol
# GULP energy per Si atom -12389.476276 kJ/mol
# Density = 2.140307 g / cm^3
# Si number density = 21.451897 Si / 1000 Ang^3
#
#
#
# Elastic Constant Matrix: (Units=GPa)
#
#
# Indices 1 2 3 4 5 6 
#
# 1 143.7060 68.2127 58.9095 -0.0079 0.9525 -0.0036
# 2 68.2127 170.1423 61.6155 -0.0373 -2.7614 -0.0323
# 3 58.9095 61.6155 152.8380 -0.0323 -9.1874 -0.0233
# 4 -0.0079 -0.0373 -0.0323 -4.0663 -0.0195 10.4678
# 5 0.9525 -2.7614 -9.1874 -0.0195 35.6584 -0.0128
# 6 -0.0036 -0.0323 -0.0233 10.4678 -0.0128 52.1350
#
#
#
# Elastic Compliance Matrix: (Units=1/GPa)
#
#
# Indices 1 2 3 4 5 6 
#
# 1 0.009355 -0.002856 -0.002522 0.000018 -0.001121 -0.000006
# 2 -0.002856 0.007755 -0.002016 -0.000027 0.000157 0.000009
# 3 -0.002522 -0.002016 0.008453 -0.000031 0.002089 0.000009
# 4 0.000018 -0.000027 -0.000031 -0.162124 -0.000087 0.032552
# 5 -0.001121 0.000157 0.002089 -0.000087 0.028624 0.000025
# 6 -0.000006 0.000009 0.000009 0.032552 0.000025 0.012645
#
#
# Mechanical properties :
#
#
# Convention : Reuss Voigt Hill
#
# Bulk Modulus (GPa) = 92.79925 93.79574 93.29749
# Shear Modulus (GPa) = -65.01019 35.27530 -14.86744
#
# Velocity S-wave (km/s) = -5.51098 4.05951 -2.63546
# Velocity P-wave (km/s) = 1.69075 8.11119 5.85876
#
# Compressibility (1/GPa) = 0.01077595
#
# Stress axis : x y z
#
# Youngs Moduli (GPa) = 106.88993 128.94903 118.29533
#
# Poissons Ratio (x) = 0.36822 0.29835
# Poissons Ratio (y) = 0.30523 0.23852
# Poissons Ratio (z) = 0.26959 0.26000
#
# Static dielectric constant tensor:
#      x y z
#    x 3.825260 -0.000010 0.025100 
#    y -0.000010 4.268860 0.000000 
#    z 0.025100 0.000000 3.257390 
# 
# 
# High freq. dielectric constant tensor:
#      x y z
#    x 1.852940 0.000000 0.004800 
#    y 0.000000 1.874030 0.000000 
#    z 0.004800 0.000000 1.823970 
# 
# From -- ./inp_files/9313.got.cif
#   From: 2010.06.25/outbox.cif.g09.slc.cpg/sg12_5_cif.got.tgz:9313.got - 2010.06.28 00:19:55.
