data_PCOD8115309
_publ_section_title
;
Structure prediction by ZEFSAII (Michael W. Deem and Ramdas Pophale) SiO2 
 PCOD8115309
Probable space group: C 2/M
;
_chemical_formula_sum "Si O2"
_cell_formula_units_Z 52
_cell_length_a 16.424332
_cell_length_b 23.600049
_cell_length_c 11.001945
_cell_angle_alpha 90.000000
_cell_angle_beta 144.252627
_cell_angle_gamma 90.000000
_cell_volume 2491.385317
_symmetry_space_group_name_H-M "C 2/M"
_symmetry_group_IT_number 12
_symmetry_cell_setting 'monoclinic'
loop_
_space_group_symop_operation_xyz
x,y,z
-x,y,-z
-x,-y,-z
x,-y,z
1/2+x,1/2+y,z
1/2-x,1/2+y,-z
1/2-x,1/2-y,-z
1/2+x,1/2-y,z
loop_
_atom_site_type_symbol
_atom_site_label
_atom_site_fract_x
_atom_site_fract_y
_atom_site_fract_z
Si Si1 0.151300 0.500000 0.852889
Si Si2 0.153002 0.681838 0.724199
Si Si3 0.661465 0.608618 0.230330
Si Si4 0.777779 0.118965 0.075853
Si Si5 0.500000 0.246890 0.000000
Si Si6 0.536044 0.673233 0.270110
Si Si7 0.834646 0.500000 0.419342
Si Si8 0.285275 0.299746 0.294497
O O1 0.168416 0.500000 0.729606
O O2 0.984344 0.500000 0.668127
O O3 0.226131 0.554114 0.005125
O O4 0.266976 0.649806 0.780118
O O5 0.178748 0.749020 0.754719
O O6 0.000000 0.663374 0.500000
O O7 0.164051 0.660231 0.875919
O O8 0.662804 0.638848 0.362983
O O9 0.750103 0.553508 0.361438
O O10 0.500000 0.596066 0.000000
O O11 0.793274 0.139948 0.234047
O O12 0.920641 0.128057 0.174768
O O13 0.479034 0.284053 0.097090
O O14 0.635023 0.207241 0.175206
O O15 0.596414 0.705794 0.459373
#
# Coordination Sequence:
#
# PCOD8115309 Si02
#       8
#     4   8   8   8   4   8   4   8
#     4  11  24  44  68  97 139 173 233 291 332 400
#     4  12  23  38  67 100 136 178 220 277 340 406
#     4  12  21  40  66  96 139 175 221 290 338 392
#     4  12  24  45  67  97 140 182 231 280 340 403
#     4  12  24  44  66 100 142 182 222 282 334 410
#     4  12  23  45  65 103 137 180 229 274 341 416
#     4  11  23  40  67 105 126 175 238 284 342 391
#     4  12  27  41  68 100 142 183 223 275 344 420
#
# _framework density 20.871922999999999
#
# number of rings (size 3 to 8) (size 9 to 14) (size 15 to 20)
#    0.000    0.154    6.923    3.462    2.154    1.846 
#    0.000    2.308    0.000    1.385    0.000    0.000 
#    0.000    0.000    0.000    0.000    0.000    0.000 
#
# Total GULP energy -322314.583177 kJ/mol
# GULP energy per Si atom -12396.714738 kJ/mol
# Density = 2.082442 g / cm^3
# Si number density = 20.871923 Si / 1000 Ang^3
#
#
#
# Elastic Constant Matrix: (Units=GPa)
#
#
# Indices 1 2 3 4 5 6 
#
# 1 72.8343 32.4619 38.6958 0.0000 9.5306 0.0000
# 2 32.4619 125.2769 41.0449 0.0000 -1.5886 0.0000
# 3 38.6958 41.0449 118.5556 0.0000 6.0059 0.0000
# 4 0.0000 0.0000 0.0000 30.0504 0.0000 4.2270
# 5 9.5306 -1.5886 6.0059 0.0000 43.5713 0.0000
# 6 0.0000 0.0000 0.0000 4.2270 0.0000 34.3445
#
#
#
# Elastic Compliance Matrix: (Units=1/GPa)
#
#
# Indices 1 2 3 4 5 6 
#
# 1 0.018059 -0.003213 -0.004608 0.000000 -0.003432 0.000000
# 2 -0.003213 0.009601 -0.002345 0.000000 0.001376 0.000000
# 3 -0.004608 -0.002345 0.010779 0.000000 -0.000563 0.000000
# 4 0.000000 0.000000 0.000000 0.033864 0.000000 -0.004168
# 5 -0.003432 0.001376 -0.000563 0.000000 0.023829 0.000000
# 6 0.000000 0.000000 0.000000 -0.004168 0.000000 0.029630
#
#
# Mechanical properties :
#
#
# Convention : Reuss Voigt Hill
#
# Bulk Modulus (GPa) = 55.22768 60.11914 57.67341
# Shear Modulus (GPa) = 32.86667 35.22418 34.04543
#
# Velocity S-wave (km/s) = 3.97253 4.11254 4.04314
# Velocity P-wave (km/s) = 6.89631 7.17057 7.03477
#
# Compressibility (1/GPa) = 0.01810686
#
# Stress axis : x y z
#
# Youngs Moduli (GPa) = 55.37322 104.16006 92.77110
#
# Poissons Ratio (x) = 0.33470 0.42750
# Poissons Ratio (y) = 0.17793 0.21752
# Poissons Ratio (z) = 0.25517 0.24423
#
# Static dielectric constant tensor:
#      x y z
#    x 3.867250 0.000000 0.194960 
#    y 0.000000 3.739910 0.000000 
#    z 0.194960 0.000000 3.960500 
# 
# 
# High freq. dielectric constant tensor:
#      x y z
#    x 1.815460 0.000000 0.017260 
#    y 0.000000 1.802250 0.000000 
#    z 0.017260 0.000000 1.825640 
# 
# From -- ./inp_files/160861.got.cif
#   From: 2010.06.25/outbox.cif.g09.slc.cpg/sg12_81_cif.got.tgz:160861.got - 2010.06.28 00:19:55.
