data_PCOD8115220
_publ_section_title
;
Structure prediction by ZEFSAII (Michael W. Deem and Ramdas Pophale) SiO2 
 PCOD8115220
Probable space group: C 2/M
;
_chemical_formula_sum "Si O2"
_cell_formula_units_Z 40
_cell_length_a 14.587208
_cell_length_b 8.416426
_cell_length_c 30.728224
_cell_angle_alpha 90.000000
_cell_angle_beta 32.582971
_cell_angle_gamma 90.000000
_cell_volume 2031.605986
_symmetry_space_group_name_H-M "C 2/M"
_symmetry_group_IT_number 12
_symmetry_cell_setting 'monoclinic'
loop_
_space_group_symop_operation_xyz
x,y,z
-x,y,-z
-x,-y,-z
x,-y,z
1/2+x,1/2+y,z
1/2-x,1/2+y,-z
1/2-x,1/2-y,-z
1/2+x,1/2-y,z
loop_
_atom_site_type_symbol
_atom_site_label
_atom_site_fract_x
_atom_site_fract_y
_atom_site_fract_z
Si Si1 0.863844 0.184330 0.915769
Si Si2 0.711627 0.815994 0.804886
Si Si3 0.183012 0.815743 0.908679
Si Si4 0.033213 0.812613 0.620464
Si Si5 0.905568 0.687691 0.495118
O O1 0.824361 0.283443 0.888388
O O2 0.061027 0.206338 0.847476
O O3 0.822255 0.000000 0.925306
O O4 0.750000 0.250000 0.000000
O O5 0.733251 0.790048 0.847476
O O6 0.883619 0.759803 0.712548
O O7 0.671492 0.000000 0.811557
O O8 0.180550 0.000000 0.896383
O O9 0.000000 0.761455 0.000000
O O10 0.995512 0.738671 0.588146
O O11 0.211059 0.748186 0.569605
O O12 0.041932 0.000000 0.611436
O O13 0.906330 0.500000 0.498597
O O14 0.000000 0.760426 0.500000
#
# Coordination Sequence:
#
# PCOD8115220 Si02
#       5
#     8   8   8   8   8
#     4  12  24  39  60  84 112 150 197 246 298 349
#     4  11  23  39  59  85 121 158 198 246 292 347
#     4  11  23  39  60  85 114 151 197 244 293 352
#     4   9  20  37  56  85 119 151 189 235 287 341
#     4   9  18  35  60  86 116 152 190 232 282 343
#
# _framework density 19.688858
#
# number of rings (size 3 to 8) (size 9 to 14) (size 15 to 20)
#    0.000    1.600    2.000    3.000    0.000    4.400 
#    0.000    2.000    0.000    0.000    0.000    0.000 
#    0.000    0.000    0.000    0.000    0.000    0.000 
#
# Total GULP energy -248085.696794 kJ/mol
# GULP energy per Si atom -12404.284840 kJ/mol
# Density = 1.964405 g / cm^3
# Si number density = 19.688858 Si / 1000 Ang^3
#
#
#
# Elastic Constant Matrix: (Units=GPa)
#
#
# Indices 1 2 3 4 5 6 
#
# 1 151.7901 8.6344 60.1332 0.0003 11.4124 -0.0010
# 2 8.6344 41.8500 24.6302 0.0047 0.0247 0.0006
# 3 60.1332 24.6302 146.0531 -0.0024 10.6967 0.0003
# 4 0.0003 0.0047 -0.0024 27.7813 0.0010 3.9179
# 5 11.4124 0.0247 10.6967 0.0010 26.2672 0.0009
# 6 -0.0010 0.0006 0.0003 3.9179 0.0009 31.8653
#
#
#
# Elastic Compliance Matrix: (Units=1/GPa)
#
#
# Indices 1 2 3 4 5 6 
#
# 1 0.007995 0.000216 -0.003168 0.000000 -0.002184 0.000000
# 2 0.000216 0.026621 -0.004710 -0.000005 0.001799 0.000000
# 3 -0.003168 -0.004710 0.009116 0.000002 -0.002331 0.000000
# 4 0.000000 -0.000005 0.000002 0.036631 -0.000002 -0.004504
# 5 -0.002184 0.001799 -0.002331 -0.000002 0.039967 -0.000001
# 6 0.000000 0.000000 0.000000 -0.004504 -0.000001 0.031936
#
#
# Mechanical properties :
#
#
# Convention : Reuss Voigt Hill
#
# Bulk Modulus (GPa) = 35.20079 58.49878 46.84979
# Shear Modulus (GPa) = 28.23906 33.60245 30.92075
#
# Velocity S-wave (km/s) = 3.79128 4.13567 3.96721
# Velocity P-wave (km/s) = 6.08953 7.25129 6.69565
#
# Compressibility (1/GPa) = 0.02840845
#
# Stress axis : x y z
#
# Youngs Moduli (GPa) = 125.07702 37.56392 109.69281
#
# Poissons Ratio (x) = -0.00813 0.34754
# Poissons Ratio (y) = -0.02707 0.51668
# Poissons Ratio (z) = 0.39628 0.17694
#
# Static dielectric constant tensor:
#      x y z
#    x 3.787630 0.000000 -0.075970 
#    y 0.000000 3.551930 -0.000010 
#    z -0.075970 -0.000010 3.767740 
# 
# 
# High freq. dielectric constant tensor:
#      x y z
#    x 1.776580 0.000000 0.002740 
#    y 0.000000 1.764260 0.000000 
#    z 0.002740 0.000000 1.763400 
# 
# From -- ./inp_files/211217.got.cif
#   From: 2010.06.25/outbox.cif.g09.slc.cpg/sg12_106_cif.got.tgz:211217.got - 2010.06.28 00:19:55.
