data_PCOD8115205
_publ_section_title
;
Structure prediction by ZEFSAII (Michael W. Deem and Ramdas Pophale) SiO2 
 PCOD8115205
Probable space group: C 2/M
;
_chemical_formula_sum "Si O2"
_cell_formula_units_Z 56
_cell_length_a 13.836311
_cell_length_b 23.818529
_cell_length_c 9.017390
_cell_angle_alpha 90.000000
_cell_angle_beta 120.889610
_cell_angle_gamma 90.000000
_cell_volume 2550.253598
_symmetry_space_group_name_H-M "C 2/M"
_symmetry_group_IT_number 12
_symmetry_cell_setting 'monoclinic'
loop_
_space_group_symop_operation_xyz
x,y,z
-x,y,-z
-x,-y,-z
x,-y,z
1/2+x,1/2+y,z
1/2-x,1/2+y,-z
1/2-x,1/2-y,-z
1/2+x,1/2-y,z
loop_
_atom_site_type_symbol
_atom_site_label
_atom_site_fract_x
_atom_site_fract_y
_atom_site_fract_z
Si Si1 0.106891 0.111998 0.988248
Si Si2 0.822431 0.288204 0.811309
Si Si3 0.671338 0.500000 0.553372
Si Si4 0.264269 0.623067 0.457029
Si Si5 0.201137 0.331198 0.694277
Si Si6 0.494244 0.669273 0.660947
Si Si7 0.565534 0.500000 0.790830
Si Si8 0.539166 0.210607 0.793893
O O1 0.097145 0.049137 0.926168
O O2 0.103493 0.150403 0.838638
O O3 0.222009 0.122794 0.163627
O O4 0.000000 0.131366 0.000000
O O5 0.740770 0.340214 0.700572
O O6 0.762112 0.229657 0.722576
O O7 0.932453 0.307634 0.805220
O O8 0.854760 0.282643 0.009704
O O9 0.744788 0.556329 0.581214
O O10 0.638602 0.500000 0.699544
O O11 0.565176 0.500000 0.358962
O O12 0.172037 0.644073 0.507068
O O13 0.381265 0.639125 0.633509
O O14 0.085433 0.328644 0.697928
O O15 0.500000 0.645815 0.500000
O O16 0.493612 0.735567 0.670288
#
# Coordination Sequence:
#
# PCOD8115205 Si02
#       8
#     8   8   4   8   8   8   4   8
#     4  12  22  40  61  94 139 176 215 271 327 399
#     4  11  24  44  64  97 135 177 217 277 332 399
#     4  11  24  44  64  99 131 176 223 282 325 398
#     4  12  25  42  69  93 137 172 225 271 336 391
#     4  12  24  40  65 100 135 178 217 271 336 395
#     4  12  23  37  62  94 133 176 210 263 326 404
#     4  11  23  38  66  95 130 175 227 265 341 398
#     4  11  25  41  64  94 138 173 223 267 334 398
#
# _framework density 21.958603
#
# number of rings (size 3 to 8) (size 9 to 14) (size 15 to 20)
#    0.000    0.429    5.714    2.786    6.000    0.571 
#    0.000    0.000    0.000    4.286    0.000    0.000 
#    0.000    0.000    0.000    0.000    0.000    0.000 
#
# Total GULP energy -346927.516689 kJ/mol
# GULP energy per Si atom -12390.268453 kJ/mol
# Density = 2.190862 g / cm^3
# Si number density = 21.958603 Si / 1000 Ang^3
#
#
#
# Elastic Constant Matrix: (Units=GPa)
#
#
# Indices 1 2 3 4 5 6 
#
# 1 76.8673 10.0366 0.6071 0.0000 -16.7625 0.0000
# 2 10.0366 114.6280 22.5348 0.0000 -7.1065 0.0000
# 3 0.6071 22.5348 82.4458 0.0000 -14.4180 0.0000
# 4 0.0000 0.0000 0.0000 58.0942 0.0000 -1.7680
# 5 -16.7625 -7.1065 -14.4180 0.0000 29.0181 0.0000
# 6 0.0000 0.0000 0.0000 -1.7680 0.0000 25.0681
#
#
#
# Elastic Compliance Matrix: (Units=1/GPa)
#
#
# Indices 1 2 3 4 5 6 
#
# 1 0.015193 -0.001108 0.001838 0.000000 0.009419 0.000000
# 2 -0.001108 0.009332 -0.002469 0.000000 0.000419 0.000000
# 3 0.001838 -0.002469 0.014095 0.000000 0.007460 0.000000
# 4 0.000000 0.000000 0.000000 0.017250 0.000000 0.001217
# 5 0.009419 0.000419 0.007460 0.000000 0.043711 0.000000
# 6 0.000000 0.000000 0.000000 0.001217 0.000000 0.039977
#
#
# Mechanical properties :
#
#
# Convention : Reuss Voigt Hill
#
# Bulk Modulus (GPa) = 28.45539 37.81091 33.13315
# Shear Modulus (GPa) = 32.30970 38.48694 35.39832
#
# Velocity S-wave (km/s) = 3.84003 4.19107 4.01939
# Velocity P-wave (km/s) = 5.71384 6.37783 6.05494
#
# Compressibility (1/GPa) = 0.03514272
#
# Stress axis : x y z
#
# Youngs Moduli (GPa) = 65.81777 107.15496 70.94579
#
# Poissons Ratio (x) = 0.11870 -0.13040
# Poissons Ratio (y) = 0.07291 0.17519
# Poissons Ratio (z) = -0.12097 0.26461
#
# Static dielectric constant tensor:
#      x y z
#    x 4.083440 0.000000 -0.134700 
#    y 0.000000 3.798830 0.000000 
#    z -0.134700 0.000000 4.209990 
# 
# 
# High freq. dielectric constant tensor:
#      x y z
#    x 1.855560 0.000000 -0.022770 
#    y 0.000000 1.834590 0.000000 
#    z -0.022770 0.000000 1.882790 
# 
# From -- ./inp_files/65999.got.cif
#   From: 2010.06.25/outbox.cif.g09.slc.cpg/sg12_33_cif.got.tgz:65999.got - 2010.06.28 00:19:55.
