data_PCOD8115020
_publ_section_title
;
Structure prediction by ZEFSAII (Michael W. Deem and Ramdas Pophale) SiO2 
 PCOD8115020
Probable space group: C 2/M
;
_chemical_formula_sum "Si O2"
_cell_formula_units_Z 64
_cell_length_a 11.754315
_cell_length_b 29.957414
_cell_length_c 18.348700
_cell_angle_alpha 90.000000
_cell_angle_beta 150.566045
_cell_angle_gamma 90.000000
_cell_volume 3175.117115
_symmetry_space_group_name_H-M "C 2/M"
_symmetry_group_IT_number 12
_symmetry_cell_setting 'monoclinic'
loop_
_space_group_symop_operation_xyz
x,y,z
-x,y,-z
-x,-y,-z
x,-y,z
1/2+x,1/2+y,z
1/2-x,1/2+y,-z
1/2-x,1/2-y,-z
1/2+x,1/2-y,z
loop_
_atom_site_type_symbol
_atom_site_label
_atom_site_fract_x
_atom_site_fract_y
_atom_site_fract_z
Si Si1 0.848389 0.132621 0.203619
Si Si2 0.224630 0.377613 0.854872
Si Si3 0.023340 0.745895 0.152483
Si Si4 0.415688 0.949165 0.335928
Si Si5 0.811246 0.210117 0.619349
Si Si6 0.864362 0.948967 0.678417
Si Si7 0.590464 0.212504 0.703945
Si Si8 0.477803 0.852791 0.108698
O O1 0.698408 0.123869 0.193334
O O2 0.059697 0.165922 0.338892
O O3 0.924736 0.083568 0.221113
O O4 0.707471 0.155673 0.058945
O O5 0.120375 0.420119 0.755910
O O6 0.119233 0.333639 0.761042
O O7 0.139907 0.381115 0.891832
O O8 0.500000 0.377554 0.000000
O O9 0.072182 0.693979 0.194138
O O10 0.148631 0.783116 0.272687
O O11 0.161094 0.761378 0.156818
O O12 0.750000 0.750000 0.000000
O O13 0.675131 0.943357 0.509665
O O14 0.239804 0.934789 0.301678
O O15 0.368853 0.000000 0.287188
O O16 0.540662 0.204744 0.447130
O O17 0.913874 0.256868 0.649048
O O18 0.953568 0.000000 0.730660
#
# Coordination Sequence:
#
# PCOD8115020 Si02
#       8
#     8   8   8   8   8   8   8   8
#     4  11  22  41  63  86 120 162 209 252 314 375
#     4  12  24  40  60  90 126 159 203 256 314 370
#     4  12  22  39  60  83 121 165 211 259 302 360
#     4   9  20  40  66  94 123 153 198 254 311 372
#     4  11  23  39  59  84 123 162 211 255 304 365
#     4   9  19  40  68  94 119 155 200 253 309 368
#     4  11  25  38  56  89 120 162 209 259 306 362
#     4  11  24  39  58  89 123 162 205 253 308 372
#
# _framework density 20.156737
#
# number of rings (size 3 to 8) (size 9 to 14) (size 15 to 20)
#    0.000    1.250    3.750    3.375    1.750    0.250 
#    0.000    5.000    0.000    1.500    0.000    0.000 
#    0.000    0.000    0.000    0.000    0.000    0.000 
#
# Total GULP energy -396573.942080 kJ/mol
# GULP energy per Si atom -12392.935690 kJ/mol
# Density = 2.011086 g / cm^3
# Si number density = 20.156737 Si / 1000 Ang^3
#
#
#
# Elastic Constant Matrix: (Units=GPa)
#
#
# Indices 1 2 3 4 5 6 
#
# 1 112.8619 43.8424 40.9089 -0.0004 6.3035 -0.0005
# 2 43.8424 94.8994 26.0535 -0.0001 3.2682 -0.0002
# 3 40.9089 26.0535 75.4999 -0.0004 7.8410 -0.0010
# 4 -0.0004 -0.0001 -0.0004 32.6384 -0.0003 2.7083
# 5 6.3035 3.2682 7.8410 -0.0003 32.4585 -0.0006
# 6 -0.0005 -0.0002 -0.0010 2.7083 -0.0006 24.1452
#
#
#
# Elastic Compliance Matrix: (Units=1/GPa)
#
#
# Indices 1 2 3 4 5 6 
#
# 1 0.012453 -0.004304 -0.005186 0.000000 -0.000732 0.000000
# 2 -0.004304 0.013129 -0.002203 0.000000 0.000046 0.000000
# 3 -0.005186 -0.002203 0.017117 0.000000 -0.002906 0.000001
# 4 0.000000 0.000000 0.000000 0.030927 0.000000 -0.003469
# 5 -0.000732 0.000046 -0.002906 0.000000 0.031648 0.000001
# 6 0.000000 0.000000 0.000001 -0.003469 0.000001 0.041805
#
#
# Mechanical properties :
#
#
# Convention : Reuss Voigt Hill
#
# Bulk Modulus (GPa) = 51.78062 56.09677 53.93870
# Shear Modulus (GPa) = 28.26385 29.34552 28.80468
#
# Velocity S-wave (km/s) = 3.74866 3.81972 3.78436
# Velocity P-wave (km/s) = 6.66944 6.88073 6.77591
#
# Compressibility (1/GPa) = 0.01931224
#
# Stress axis : x y z
#
# Youngs Moduli (GPa) = 80.30098 76.16585 58.42045
#
# Poissons Ratio (x) = 0.32783 0.30299
# Poissons Ratio (y) = 0.34563 0.12872
# Poissons Ratio (z) = 0.41646 0.16781
#
# Static dielectric constant tensor:
#      x y z
#    x 3.896000 0.000000 0.031060 
#    y 0.000000 3.576320 0.000000 
#    z 0.031060 0.000000 4.045580 
# 
# 
# High freq. dielectric constant tensor:
#      x y z
#    x 1.790820 0.000000 0.004670 
#    y 0.000000 1.776230 0.000000 
#    z 0.004670 0.000000 1.784780 
# 
# From -- ./inp_files/80762.got.cif
#   From: 2010.06.25/outbox.cif.g09.slc.cpg/sg12_41_cif.got.tgz:80762.got - 2010.06.28 00:19:55.
