data_PCOD8115849
_publ_section_title
;
Structure prediction by ZEFSAII (Michael W. Deem and Ramdas Pophale) SiO2 
 PCOD8115849
Probable space group: C 2/M
;
_chemical_formula_sum "Si O2"
_cell_formula_units_Z 40
_cell_length_a 26.589683
_cell_length_b 9.916068
_cell_length_c 13.137708
_cell_angle_alpha 90.000000
_cell_angle_beta 146.971840
_cell_angle_gamma 90.000000
_cell_volume 1888.032786
_symmetry_space_group_name_H-M "C 2/M"
_symmetry_group_IT_number 12
_symmetry_cell_setting 'monoclinic'
loop_
_space_group_symop_operation_xyz
x,y,z
-x,y,-z
-x,-y,-z
x,-y,z
1/2+x,1/2+y,z
1/2-x,1/2+y,-z
1/2-x,1/2-y,-z
1/2+x,1/2-y,z
loop_
_atom_site_type_symbol
_atom_site_label
_atom_site_fract_x
_atom_site_fract_y
_atom_site_fract_z
Si Si1 0.778774 0.000000 0.922624
Si Si2 0.534962 0.500000 0.447228
Si Si3 0.271737 0.500000 0.139512
Si Si4 0.285744 0.343104 0.470793
Si Si5 0.169023 0.719519 0.076102
Si Si6 0.969632 0.255627 0.684293
Si Si7 0.927800 0.500000 0.468069
O O1 0.811535 0.874584 0.912156
O O2 0.669593 0.000000 0.752825
O O3 0.817193 0.000000 0.103824
O O4 0.500000 0.500000 0.500000
O O5 0.646837 0.500000 0.637444
O O6 0.495776 0.630115 0.324070
O O7 0.209384 0.632382 0.050727
O O8 0.290281 0.500000 0.512022
O O9 0.250000 0.250000 0.500000
O O10 0.215509 0.328441 0.258557
O O11 0.388246 0.290352 0.620440
O O12 0.058832 0.693954 0.898716
O O13 0.933865 0.369353 0.548112
O O14 0.000000 0.500000 0.500000
#
# Coordination Sequence:
#
# PCOD8115849 Si02
#       7
#     4   4   4   8   8   8   4
#     4  12  24  38  68 106 141 187 234 278 340 415
#     4  12  22  42  68 100 141 193 234 280 342 419
#     4  12  22  44  64 100 149 191 230 280 344 419
#     4  12  28  52  76 101 136 185 236 297 359 409
#     4  12  24  45  69 101 142 182 230 290 345 415
#     4  12  24  45  69 101 142 182 230 289 344 416
#     4  12  24  40  64 106 149 185 230 278 340 413
#
# _framework density 21.186073
#
# number of rings (size 3 to 8) (size 9 to 14) (size 15 to 20)
#    0.000    0.000    6.000    4.800    2.800    0.800 
#    0.000    2.000    0.000    0.000    0.000    0.000 
#    0.000    0.000    0.000    0.000    0.000    0.000 
#
# Total GULP energy -248120.634791 kJ/mol
# GULP energy per Si atom -12406.031740 kJ/mol
# Density = 2.113785 g / cm^3
# Si number density = 21.186073 Si / 1000 Ang^3
#
#
#
# Elastic Constant Matrix: (Units=GPa)
#
#
# Indices 1 2 3 4 5 6 
#
# 1 113.7933 37.5371 15.2582 0.0000 2.7317 0.0000
# 2 37.5371 143.6085 -7.2148 0.0000 -4.9807 0.0000
# 3 15.2582 -7.2148 112.4266 0.0000 19.5008 0.0000
# 4 0.0000 0.0000 0.0000 30.4336 0.0000 -0.2865
# 5 2.7317 -4.9807 19.5008 0.0000 28.4590 0.0000
# 6 0.0000 0.0000 0.0000 -0.2865 0.0000 46.1958
#
#
#
# Elastic Compliance Matrix: (Units=1/GPa)
#
#
# Indices 1 2 3 4 5 6 
#
# 1 0.009871 -0.002667 -0.001436 0.000000 -0.000430 0.000000
# 2 -0.002667 0.007734 0.000657 0.000000 0.001159 0.000000
# 3 -0.001436 0.000657 0.010314 0.000000 -0.006814 0.000000
# 4 0.000000 0.000000 0.000000 0.032860 0.000000 0.000204
# 5 -0.000430 0.001159 -0.006814 0.000000 0.040052 0.000000
# 6 0.000000 0.000000 0.000000 0.000204 0.000000 0.021648
#
#
# Mechanical properties :
#
#
# Convention : Reuss Voigt Hill
#
# Bulk Modulus (GPa) = 47.56019 51.22103 49.39061
# Shear Modulus (GPa) = 36.66247 42.63419 39.64833
#
# Velocity S-wave (km/s) = 4.16444 4.49081 4.33070
# Velocity P-wave (km/s) = 6.75433 7.14976 6.95485
#
# Compressibility (1/GPa) = 0.02102599
#
# Stress axis : x y z
#
# Youngs Moduli (GPa) = 101.31140 129.30362 96.95789
#
# Poissons Ratio (x) = 0.34486 0.13925
# Poissons Ratio (y) = 0.27021 -0.06372
# Poissons Ratio (z) = 0.14550 -0.08498
#
# Static dielectric constant tensor:
#      x y z
#    x 3.676150 0.000000 0.224530 
#    y 0.000000 4.134150 0.000000 
#    z 0.224530 0.000000 4.214310 
# 
# 
# High freq. dielectric constant tensor:
#      x y z
#    x 1.815780 0.000000 0.015920 
#    y 0.000000 1.851360 0.000000 
#    z 0.015920 0.000000 1.848120 
# 
# From -- ./inp_files/250278.got.cif
#   From: 2010.06.25/outbox.cif.g09.slc.cpg/sg12_126_cif.got.tgz:250278.got - 2010.06.28 00:19:55.
