data_PCOD8115486
_publ_section_title
;
Structure prediction by ZEFSAII (Michael W. Deem and Ramdas Pophale) SiO2 
 PCOD8115486
Probable space group: C 2/M
;
_chemical_formula_sum "Si O2"
_cell_formula_units_Z 56
_cell_length_a 9.728077
_cell_length_b 14.468112
_cell_length_c 22.871440
_cell_angle_alpha 90.000000
_cell_angle_beta 61.129401
_cell_angle_gamma 90.000000
_cell_volume 2818.992188
_symmetry_space_group_name_H-M "C 2/M"
_symmetry_group_IT_number 12
_symmetry_cell_setting 'monoclinic'
loop_
_space_group_symop_operation_xyz
x,y,z
-x,y,-z
-x,-y,-z
x,-y,z
1/2+x,1/2+y,z
1/2-x,1/2+y,-z
1/2-x,1/2-y,-z
1/2+x,1/2-y,z
loop_
_atom_site_type_symbol
_atom_site_label
_atom_site_fract_x
_atom_site_fract_y
_atom_site_fract_z
Si Si1 0.956067 0.754222 0.744806
Si Si2 0.847909 0.895795 0.366419
Si Si3 0.140706 0.390224 0.507972
Si Si4 0.904786 0.189631 0.960249
Si Si5 0.458965 0.000000 0.105881
Si Si6 0.888953 0.695925 0.170410
Si Si7 0.958140 0.603631 0.650659
Si Si8 0.252483 0.500000 0.964729
O O1 0.794650 0.790954 0.805694
O O2 0.925803 0.662614 0.714288
O O3 0.019969 0.831990 0.688188
O O4 0.077715 0.728034 0.770473
O O5 0.805289 0.862387 0.442251
O O6 0.690226 0.891748 0.361306
O O7 0.915525 0.000000 0.353347
O O8 0.125581 0.500000 0.507079
O O9 0.000000 0.344179 0.500000
O O10 0.113975 0.362103 0.581790
O O11 0.862416 0.089230 0.944606
O O12 0.017227 0.238616 0.891801
O O13 0.750000 0.250000 0.000000
O O14 0.000000 0.179318 0.000000
O O15 0.437172 0.910334 0.150753
O O16 0.336098 0.000000 0.078464
O O17 0.633966 0.000000 0.043739
O O18 0.984874 0.500000 0.667919
#
# Coordination Sequence:
#
# PCOD8115486 Si02
#       8
#     8   8   8   8   4   8   8   4
#     4  12  24  41  57  90 126 169 203 247 301 373
#     4   9  18  36  59  86 118 159 209 255 301 362
#     4   7  12  27  56  85 109 151 206 259 304 347
#     4  12  24  46  71  98 129 159 210 264 304 363
#     4  11  24  44  70  94 128 161 201 245 322 376
#     4  12  27  43  63  92 126 167 202 245 306 373
#     4   9  18  36  59  83 120 160 207 258 304 357
#     4  11  23  44  74 102 120 160 201 262 316 356
#
# _framework density 19.865255999999999
#
# number of rings (size 3 to 8) (size 9 to 14) (size 15 to 20)
#    0.000    1.714    2.857    4.500    2.000    0.571 
#    2.571    0.000    0.000    0.000    0.000    3.000 
#    0.000    0.000    0.000    0.000    0.000    0.000 
#
# Total GULP energy -347061.377917 kJ/mol
# GULP energy per Si atom -12395.049211 kJ/mol
# Density = 1.982004 g / cm^3
# Si number density = 19.865256 Si / 1000 Ang^3
#
#
#
# Elastic Constant Matrix: (Units=GPa)
#
#
# Indices 1 2 3 4 5 6 
#
# 1 50.3075 16.9012 13.4928 0.0000 -14.6620 0.0000
# 2 16.9012 115.6939 46.7973 0.0000 -18.9825 0.0000
# 3 13.4928 46.7973 109.7100 0.0000 -23.0633 0.0000
# 4 0.0000 0.0000 0.0000 28.9044 0.0000 -13.7370
# 5 -14.6620 -18.9825 -23.0633 0.0000 22.8648 0.0000
# 6 0.0000 0.0000 0.0000 -13.7370 0.0000 1.5551
#
#
#
# Elastic Compliance Matrix: (Units=1/GPa)
#
#
# Indices 1 2 3 4 5 6 
#
# 1 0.024633 -0.001391 0.000814 0.000000 0.015463 0.000000
# 2 -0.001391 0.011057 -0.003557 0.000000 0.004699 0.000000
# 3 0.000814 -0.003557 0.012718 0.000000 0.010397 0.000000
# 4 0.000000 0.000000 0.000000 -0.010817 0.000000 -0.095557
# 5 0.015463 0.004699 0.010397 0.000000 0.068039 0.000000
# 6 0.000000 0.000000 0.000000 -0.095557 0.000000 -0.201064
#
#
# Mechanical properties :
#
#
# Convention : Reuss Voigt Hill
#
# Bulk Modulus (GPa) = 24.91286 47.78821 36.35054
# Shear Modulus (GPa) = -67.76295 23.89952 -21.93172
#
# Velocity S-wave (km/s) = -5.84682 3.47231 -3.32629
# Velocity P-wave (km/s) = 5.74563 6.33911 1.89367
#
# Compressibility (1/GPa) = 0.04013991
#
# Stress axis : x y z
#
# Youngs Moduli (GPa) = 40.59561 90.44355 78.62945
#
# Poissons Ratio (x) = 0.12580 -0.06403
# Poissons Ratio (y) = 0.05646 0.27971
# Poissons Ratio (z) = -0.03306 0.32174
#
# Static dielectric constant tensor:
#      x y z
#    x 3.383920 0.000000 -0.021610 
#    y 0.000000 3.662310 0.000000 
#    z -0.021610 0.000000 4.245270 
# 
# 
# High freq. dielectric constant tensor:
#      x y z
#    x 1.747070 0.000000 -0.003400 
#    y 0.000000 1.776550 0.000000 
#    z -0.003400 0.000000 1.793730 
# 
# From -- ./inp_files/332888.got.cif
#   From: 2010.06.25/outbox.cif.g09.slc.cpg/sg12_167_cif.got.tgz:332888.got - 2010.06.28 00:19:55.
