data_PCOD8115586
_publ_section_title
;
Structure prediction by ZEFSAII (Michael W. Deem and Ramdas Pophale) SiO2 
 PCOD8115586
Probable space group: C 2/M
;
_chemical_formula_sum "Si O2"
_cell_formula_units_Z 48
_cell_length_a 8.958412
_cell_length_b 17.306170
_cell_length_c 21.137965
_cell_angle_alpha 90.000000
_cell_angle_beta 50.733108
_cell_angle_gamma 90.000000
_cell_volume 2537.182732
_symmetry_space_group_name_H-M "C 2/M"
_symmetry_group_IT_number 12
_symmetry_cell_setting 'monoclinic'
loop_
_space_group_symop_operation_xyz
x,y,z
-x,y,-z
-x,-y,-z
x,-y,z
1/2+x,1/2+y,z
1/2-x,1/2+y,-z
1/2-x,1/2-y,-z
1/2+x,1/2-y,z
loop_
_atom_site_type_symbol
_atom_site_label
_atom_site_fract_x
_atom_site_fract_y
_atom_site_fract_z
Si Si1 0.535412 0.089373 0.916871
Si Si2 0.569621 0.691303 0.550584
Si Si3 0.271340 0.710414 0.304297
Si Si4 0.779847 0.811676 0.047497
Si Si5 0.789091 0.586869 0.584791
Si Si6 0.302215 0.728558 0.804676
O O1 0.333305 0.109348 0.937316
O O2 0.700163 0.145645 0.844376
O O3 0.591761 0.000000 0.889123
O O4 0.500000 0.106096 0.000000
O O5 0.500000 0.663439 0.500000
O O6 0.750000 0.750000 0.500000
O O7 0.376265 0.725660 0.632322
O O8 0.634653 0.620005 0.576315
O O9 0.202744 0.627452 0.348496
O O10 0.481565 0.719318 0.279321
O O11 0.301240 0.718414 0.220754
O O12 0.689699 0.777021 0.134214
O O13 0.750000 0.750000 0.000000
O O14 0.000000 0.833222 0.000000
O O15 0.727286 0.500000 0.614372
O O16 0.000000 0.595383 0.500000
#
# Coordination Sequence:
#
# PCOD8115586 Si02
#       6
#     8   8   8   8   8   8
#     4  11  24  42  63  92 128 166 209 262 320 376
#     4  12  20  39  67  92 121 166 219 259 299 380
#     4  12  22  37  64  94 120 165 212 257 316 379
#     4  12  20  39  67  92 121 166 219 257 300 380
#     4  11  24  42  63  91 128 166 210 264 319 376
#     4  12  22  37  64  93 120 165 210 259 311 378
#
# _framework density 18.918621000000002
#
# number of rings (size 3 to 8) (size 9 to 14) (size 15 to 20)
#    0.000    0.333   10.000    0.000    0.000    1.333 
#    0.000    0.833    0.000    0.000    0.000    0.000 
#    0.000    0.000    0.000    0.000    0.000    0.000 
#
# Total GULP energy -297482.576869 kJ/mol
# GULP energy per Si atom -12395.107370 kJ/mol
# Density = 1.887556 g / cm^3
# Si number density = 18.918621 Si / 1000 Ang^3
#
#
#
# Elastic Constant Matrix: (Units=GPa)
#
#
# Indices 1 2 3 4 5 6 
#
# 1 120.8079 66.4383 48.6260 0.0005 -1.7074 -0.0004
# 2 66.4383 137.3758 59.0217 0.0004 11.8601 -0.0004
# 3 48.6260 59.0217 93.3706 0.0014 3.4482 -0.0008
# 4 0.0005 0.0004 0.0014 26.9278 -0.0007 -0.3417
# 5 -1.7074 11.8601 3.4482 -0.0007 53.2142 0.0005
# 6 -0.0004 -0.0004 -0.0008 -0.3417 0.0005 31.0798
#
#
#
# Elastic Compliance Matrix: (Units=1/GPa)
#
#
# Indices 1 2 3 4 5 6 
#
# 1 0.012222 -0.004518 -0.003569 0.000000 0.001630 0.000000
# 2 -0.004518 0.011843 -0.005042 0.000000 -0.002458 0.000000
# 3 -0.003569 -0.005042 0.015757 -0.000001 -0.000012 0.000000
# 4 0.000000 0.000000 -0.000001 0.037142 0.000001 0.000408
# 5 0.001630 -0.002458 -0.000012 0.000001 0.019393 0.000000
# 6 0.000000 0.000000 0.000000 0.000408 0.000000 0.032180
#
#
# Mechanical properties :
#
#
# Convention : Reuss Voigt Hill
#
# Bulk Modulus (GPa) = 73.73537 77.74737 75.74137
# Shear Modulus (GPa) = 31.38411 34.07559 32.72985
#
# Velocity S-wave (km/s) = 4.07738 4.24862 4.16388
# Velocity P-wave (km/s) = 7.82473 8.07791 7.95232
#
# Compressibility (1/GPa) = 0.01356201
#
# Stress axis : x y z
#
# Youngs Moduli (GPa) = 81.81935 84.43792 63.46492
#
# Poissons Ratio (x) = 0.38150 0.22652
# Poissons Ratio (y) = 0.36967 0.32002
# Poissons Ratio (z) = 0.29203 0.42578
#
# Static dielectric constant tensor:
#      x y z
#    x 4.001290 0.000000 0.035520 
#    y 0.000000 3.391060 0.000000 
#    z 0.035520 0.000000 3.601770 
# 
# 
# High freq. dielectric constant tensor:
#      x y z
#    x 1.755300 0.000000 -0.002120 
#    y 0.000000 1.707120 0.000000 
#    z -0.002120 0.000000 1.750300 
# 
# From -- ./inp_files/256150.got.cif
#   From: 2010.06.25/outbox.cif.g09.slc.cpg/sg12_129_cif.got.tgz:256150.got - 2010.06.28 00:19:55.
