data_PCOD8115626
_publ_section_title
;
Structure prediction by ZEFSAII (Michael W. Deem and Ramdas Pophale) SiO2 
 PCOD8115626
Probable space group: C 2/M
;
_chemical_formula_sum "Si O2"
_cell_formula_units_Z 40
_cell_length_a 8.980345
_cell_length_b 18.448888
_cell_length_c 11.912350
_cell_angle_alpha 90.000000
_cell_angle_beta 100.885299
_cell_angle_gamma 90.000000
_cell_volume 1938.096210
_symmetry_space_group_name_H-M "C 2/M"
_symmetry_group_IT_number 12
_symmetry_cell_setting 'monoclinic'
loop_
_space_group_symop_operation_xyz
x,y,z
-x,y,-z
-x,-y,-z
x,-y,z
1/2+x,1/2+y,z
1/2-x,1/2+y,-z
1/2-x,1/2-y,-z
1/2+x,1/2-y,z
loop_
_atom_site_type_symbol
_atom_site_label
_atom_site_fract_x
_atom_site_fract_y
_atom_site_fract_z
Si Si1 0.772164 0.819988 0.798225
Si Si2 0.647069 0.581187 0.596858
Si Si3 0.833244 0.585403 0.018716
Si Si4 0.622079 0.332667 0.819852
Si Si5 0.824537 0.322524 0.466980
O O1 0.693919 0.880761 0.863191
O O2 0.711185 0.742389 0.827622
O O3 0.728016 0.840152 0.665731
O O4 0.952811 0.819590 0.840397
O O5 0.500000 0.581929 0.500000
O O6 0.687103 0.500000 0.643248
O O7 0.616623 0.632646 0.696821
O O8 0.785947 0.610542 0.542665
O O9 0.815014 0.500000 0.027429
O O10 0.707010 0.613665 0.915349
O O11 0.000000 0.607239 0.000000
O O12 0.750000 0.250000 0.500000
O O13 0.000000 0.308099 0.500000
#
# Coordination Sequence:
#
# PCOD8115626 Si02
#       5
#     8   8   8   8   8
#     4  12  25  42  72 101 134 177 232 276 334 404
#     4  11  24  43  67 100 139 179 223 274 342 406
#     4  11  27  48  69  98 137 179 225 282 342 398
#     4  12  24  44  70 100 134 180 224 283 334 403
#     4  12  24  42  69 102 139 177 223 278 333 399
#
# _framework density 20.638809999999999
#
# number of rings (size 3 to 8) (size 9 to 14) (size 15 to 20)
#    0.000    0.400    4.000    4.800    2.800    3.600 
#    0.000    0.000    0.000    0.000    0.000    0.000 
#    0.000    0.000    0.000    0.000    0.000    0.000 
#
# Total GULP energy -248141.907025 kJ/mol
# GULP energy per Si atom -12407.095351 kJ/mol
# Density = 2.059184 g / cm^3
# Si number density = 20.638810 Si / 1000 Ang^3
#
#
#
# Elastic Constant Matrix: (Units=GPa)
#
#
# Indices 1 2 3 4 5 6 
#
# 1 188.2020 81.8568 53.6770 0.0000 -5.5823 0.0000
# 2 81.8568 128.4630 49.3359 0.0000 -11.1928 0.0000
# 3 53.6770 49.3359 119.1219 0.0000 -10.8125 0.0000
# 4 0.0000 0.0000 0.0000 37.1475 0.0000 1.8533
# 5 -5.5823 -11.1928 -10.8125 0.0000 37.7697 0.0000
# 6 0.0000 0.0000 0.0000 1.8533 0.0000 34.8687
#
#
#
# Elastic Compliance Matrix: (Units=1/GPa)
#
#
# Indices 1 2 3 4 5 6 
#
# 1 0.007642 -0.004257 -0.001738 0.000000 -0.000629 0.000000
# 2 -0.004257 0.011734 -0.002755 0.000000 0.002060 0.000000
# 3 -0.001738 -0.002755 0.010494 0.000000 0.001931 0.000000
# 4 0.000000 0.000000 0.000000 0.026991 0.000000 -0.001435
# 5 -0.000629 0.002060 0.001931 0.000000 0.027546 0.000000
# 6 0.000000 0.000000 0.000000 -0.001435 0.000000 0.028755
#
#
# Mechanical properties :
#
#
# Convention : Reuss Voigt Hill
#
# Bulk Modulus (GPa) = 80.83054 89.50291 85.16672
# Shear Modulus (GPa) = 37.09604 38.68499 37.89052
#
# Velocity S-wave (km/s) = 4.24417 4.33411 4.28937
# Velocity P-wave (km/s) = 7.95403 8.27686 8.11705
#
# Compressibility (1/GPa) = 0.01237156
#
# Stress axis : x y z
#
# Youngs Moduli (GPa) = 130.85840 85.22035 95.29349
#
# Poissons Ratio (x) = 0.36278 0.16557
# Poissons Ratio (y) = 0.55706 0.26251
# Poissons Ratio (z) = 0.22737 0.23476
#
# Static dielectric constant tensor:
#      x y z
#    x 4.133060 0.000000 -0.186010 
#    y 0.000000 3.975400 0.000000 
#    z -0.186010 0.000000 4.003260 
# 
# 
# High freq. dielectric constant tensor:
#      x y z
#    x 1.823500 0.000000 -0.003750 
#    y 0.000000 1.817540 0.000000 
#    z -0.003750 0.000000 1.822970 
# 
# From -- ./inp_files/118910.got.cif
#   From: 2010.06.25/outbox.cif.g09.slc.cpg/sg12_60_cif.got.tgz:118910.got - 2010.06.28 00:19:55.
