data_PCOD8115162
_publ_section_title
;
Structure prediction by ZEFSAII (Michael W. Deem and Ramdas Pophale) SiO2 
 PCOD8115162
Probable space group: C 2/M
;
_chemical_formula_sum "Si O2"
_cell_formula_units_Z 44
_cell_length_a 22.050164
_cell_length_b 14.162481
_cell_length_c 7.483209
_cell_angle_alpha 90.000000
_cell_angle_beta 109.655883
_cell_angle_gamma 90.000000
_cell_volume 2200.722906
_symmetry_space_group_name_H-M "C 2/M"
_symmetry_group_IT_number 12
_symmetry_cell_setting 'monoclinic'
loop_
_space_group_symop_operation_xyz
x,y,z
-x,y,-z
-x,-y,-z
x,-y,z
1/2+x,1/2+y,z
1/2-x,1/2+y,-z
1/2-x,1/2-y,-z
1/2+x,1/2-y,z
loop_
_atom_site_type_symbol
_atom_site_label
_atom_site_fract_x
_atom_site_fract_y
_atom_site_fract_z
Si Si1 0.332742 0.720699 0.814853
Si Si2 0.283814 0.896182 0.220437
Si Si3 0.000000 0.156845 0.500000
Si Si4 0.446286 0.395524 0.806519
Si Si5 0.250621 0.105970 0.773030
Si Si6 0.133963 0.772890 0.738802
O O1 0.275028 0.646851 0.724903
O O2 0.391043 0.685350 0.746950
O O3 0.305460 0.825668 0.738672
O O4 0.356886 0.715576 0.041254
O O5 0.346111 0.831103 0.306715
O O6 0.299950 0.000000 0.309674
O O7 0.264165 0.898170 0.995310
O O8 0.021772 0.092982 0.355987
O O9 0.059461 0.221117 0.618400
O O10 0.419562 0.500000 0.834122
O O11 0.500000 0.362438 0.000000
O O12 0.178794 0.149861 0.679757
O O13 0.253545 0.000000 0.692522
#
# Coordination Sequence:
#
# PCOD8115162 Si02
#       6
#     8   8   4   8   8   8
#     4   9  16  33  55  80 107 141 181 226 270 317
#     4   8  14  28  53  81 107 141 182 226 271 316
#     4  12  23  38  53  78 116 150 175 220 271 322
#     4  11  23  37  55  80 111 147 181 218 266 326
#     4   8  15  28  53  82 108 139 181 226 271 318
#     4   9  18  31  52  80 112 144 179 220 270 320
#
# _framework density 19.993431000000001
#
# number of rings (size 3 to 8) (size 9 to 14) (size 15 to 20)
#    0.000    2.727    1.818    3.000    0.000    2.182 
#    0.000    4.091    0.000    4.909    0.000    0.000 
#    0.000    0.000    0.000    0.000    0.000    0.000 
#
# Total GULP energy -272639.318954 kJ/mol
# GULP energy per Si atom -12392.696316 kJ/mol
# Density = 1.994792 g / cm^3
# Si number density = 19.993431 Si / 1000 Ang^3
#
#
#
# Elastic Constant Matrix: (Units=GPa)
#
#
# Indices 1 2 3 4 5 6 
#
# 1 129.0426 72.5634 29.0546 0.0000 14.4080 0.0000
# 2 72.5634 178.1813 18.7403 0.0000 18.1395 0.0000
# 3 29.0546 18.7403 35.2070 0.0000 8.2155 0.0000
# 4 0.0000 0.0000 0.0000 -5.4431 0.0000 -4.9666
# 5 14.4080 18.1395 8.2155 0.0000 39.7958 0.0000
# 6 0.0000 0.0000 0.0000 -4.9666 0.0000 23.8570
#
#
#
# Elastic Compliance Matrix: (Units=1/GPa)
#
#
# Indices 1 2 3 4 5 6 
#
# 1 0.011703 -0.003896 -0.007365 0.000000 -0.000941 0.000000
# 2 -0.003896 0.007424 -0.000290 0.000000 -0.001914 0.000000
# 3 -0.007365 -0.000290 0.035703 0.000000 -0.004572 0.000000
# 4 0.000000 0.000000 0.000000 -0.154392 0.000000 -0.032142
# 5 -0.000941 -0.001914 -0.004572 0.000000 0.027285 0.000000
# 6 0.000000 0.000000 0.000000 -0.032142 0.000000 0.035225
#
#
# Mechanical properties :
#
#
# Convention : Reuss Voigt Hill
#
# Bulk Modulus (GPa) = 31.51768 64.79418 48.15593
# Shear Modulus (GPa) = -1482.14695 26.44678 -727.85009
#
# Velocity S-wave (km/s) = -27.25667 3.64094 -19.10065
# Velocity P-wave (km/s) = 31.22131 7.08190 21.50136
#
# Compressibility (1/GPa) = 0.03172822
#
# Stress axis : x y z
#
# Youngs Moduli (GPa) = 85.44554 134.69610 28.00909
#
# Poissons Ratio (x) = 0.52474 0.20629
# Poissons Ratio (y) = 0.33287 0.00813
# Poissons Ratio (z) = 0.62931 0.03910
#
# Static dielectric constant tensor:
#      x y z
#    x 3.564350 0.000000 0.035470 
#    y 0.000000 3.930980 0.000000 
#    z 0.035470 0.000000 3.393700 
# 
# 
# High freq. dielectric constant tensor:
#      x y z
#    x 1.765270 0.000000 -0.000720 
#    y 0.000000 1.770510 0.000000 
#    z -0.000720 0.000000 1.771110 
# 
# From -- ./inp_files/85277.got.cif
#   From: 2010.06.25/outbox.cif.g09.slc.cpg/sg12_43_cif.got.tgz:85277.got - 2010.06.28 00:19:55.
