data_PCOD8115350
_publ_section_title
;
Structure prediction by ZEFSAII (Michael W. Deem and Ramdas Pophale) SiO2 
 PCOD8115350
Probable space group: C 2/M
;
_chemical_formula_sum "Si O2"
_cell_formula_units_Z 40
_cell_length_a 24.761906
_cell_length_b 8.519503
_cell_length_c 9.976724
_cell_angle_alpha 90.000000
_cell_angle_beta 66.516988
_cell_angle_gamma 90.000000
_cell_volume 1930.367698
_symmetry_space_group_name_H-M "C 2/M"
_symmetry_group_IT_number 12
_symmetry_cell_setting 'monoclinic'
loop_
_space_group_symop_operation_xyz
x,y,z
-x,y,-z
-x,-y,-z
x,-y,z
1/2+x,1/2+y,z
1/2-x,1/2+y,-z
1/2-x,1/2-y,-z
1/2+x,1/2-y,z
loop_
_atom_site_type_symbol
_atom_site_label
_atom_site_fract_x
_atom_site_fract_y
_atom_site_fract_z
Si Si1 0.925773 0.681750 0.815281
Si Si2 0.372019 0.318237 0.122694
Si Si3 0.439721 0.182678 0.294520
Si Si4 0.755398 0.318232 0.347242
Si Si5 0.874854 0.179179 0.605787
O O1 0.919543 0.500000 0.859173
O O2 0.904016 0.708041 0.685924
O O3 0.993050 0.737720 0.760436
O O4 0.885791 0.783520 0.954300
O O5 0.381592 0.500000 0.145420
O O6 0.416755 0.216781 0.168169
O O7 0.304687 0.273625 0.216129
O O8 0.400200 0.281586 0.435122
O O9 0.433254 0.000000 0.334930
O O10 0.772977 0.500000 0.341022
O O11 0.750000 0.250000 0.500000
O O12 0.695019 0.294175 0.326519
O O13 0.890236 0.000000 0.625690
#
# Coordination Sequence:
#
# PCOD8115350 Si02
#       5
#     8   8   8   8   8
#     4  11  25  43  63  92 129 169 209 256 317 376
#     4  12  25  41  65  95 126 166 211 261 316 369
#     4  11  23  41  66  93 126 168 212 257 310 375
#     4  11  23  41  66  94 125 163 209 258 312 374
#     4  11  24  41  65  96 127 164 209 258 313 372
#
# _framework density 20.721440999999999
#
# number of rings (size 3 to 8) (size 9 to 14) (size 15 to 20)
#    0.000    0.800    2.000    5.400    0.000   11.200 
#    0.000    0.000    0.000    0.000    0.000    0.000 
#    0.000    0.000    0.000    0.000    0.000    0.000 
#
# Total GULP energy -248194.621428 kJ/mol
# GULP energy per Si atom -12409.731071 kJ/mol
# Density = 2.067428 g / cm^3
# Si number density = 20.721441 Si / 1000 Ang^3
#
#
#
# Elastic Constant Matrix: (Units=GPa)
#
#
# Indices 1 2 3 4 5 6 
#
# 1 83.9460 45.6133 13.8666 0.0000 -9.1057 0.0000
# 2 45.6133 79.1589 23.7449 0.0000 -12.3386 0.0000
# 3 13.8666 23.7449 71.4810 0.0000 -3.3497 0.0000
# 4 0.0000 0.0000 0.0000 38.3745 0.0000 2.7820
# 5 -9.1057 -12.3386 -3.3497 0.0000 31.9562 0.0000
# 6 0.0000 0.0000 0.0000 2.7820 0.0000 30.8509
#
#
#
# Elastic Compliance Matrix: (Units=1/GPa)
#
#
# Indices 1 2 3 4 5 6 
#
# 1 0.017382 -0.009819 -0.000056 0.000000 0.001156 0.000000
# 2 -0.009819 0.020404 -0.004658 0.000000 0.004592 0.000000
# 3 -0.000056 -0.004658 0.015539 0.000000 -0.000186 0.000000
# 4 0.000000 0.000000 0.000000 0.026230 0.000000 -0.002365
# 5 0.001156 0.004592 -0.000186 0.000000 0.033376 0.000000
# 6 0.000000 0.000000 0.000000 -0.002365 0.000000 0.032627
#
#
# Mechanical properties :
#
#
# Convention : Reuss Voigt Hill
#
# Bulk Modulus (GPa) = 41.22138 44.55950 42.89044
# Shear Modulus (GPa) = 27.36551 30.32705 28.84628
#
# Velocity S-wave (km/s) = 3.63800 3.82980 3.73513
# Velocity P-wave (km/s) = 6.13050 6.41149 6.27257
#
# Compressibility (1/GPa) = 0.02425926
#
# Stress axis : x y z
#
# Youngs Moduli (GPa) = 57.52917 49.01034 64.35356
#
# Poissons Ratio (x) = 0.48124 0.00361
# Poissons Ratio (y) = 0.56489 0.29975
# Poissons Ratio (z) = 0.00322 0.22828
#
# Static dielectric constant tensor:
#      x y z
#    x 3.879160 0.000000 -0.127100 
#    y 0.000000 3.763320 0.000000 
#    z -0.127100 0.000000 3.566710 
# 
# 
# High freq. dielectric constant tensor:
#      x y z
#    x 1.822990 0.000000 -0.004600 
#    y 0.000000 1.821840 0.000000 
#    z -0.004600 0.000000 1.813370 
# 
# From -- ./inp_files/92758.got.cif
#   From: 2010.06.25/outbox.cif.g09.slc.cpg/sg12_47_cif.got.tgz:92758.got - 2010.06.28 00:19:55.
