data_PCOD8115659
_publ_section_title
;
Structure prediction by ZEFSAII (Michael W. Deem and Ramdas Pophale) SiO2 
 PCOD8115659
Probable space group: C 2/M
;
_chemical_formula_sum "Si O2"
_cell_formula_units_Z 40
_cell_length_a 17.794839
_cell_length_b 13.371932
_cell_length_c 20.879309
_cell_angle_alpha 90.000000
_cell_angle_beta 19.839888
_cell_angle_gamma 90.000000
_cell_volume 1686.192070
_symmetry_space_group_name_H-M "C 2/M"
_symmetry_group_IT_number 12
_symmetry_cell_setting 'monoclinic'
loop_
_space_group_symop_operation_xyz
x,y,z
-x,y,-z
-x,-y,-z
x,-y,z
1/2+x,1/2+y,z
1/2-x,1/2+y,-z
1/2-x,1/2-y,-z
1/2+x,1/2-y,z
loop_
_atom_site_type_symbol
_atom_site_label
_atom_site_fract_x
_atom_site_fract_y
_atom_site_fract_z
Si Si1 0.443989 0.190479 0.973607
Si Si2 0.172409 0.108863 0.416457
Si Si3 0.884310 0.113990 0.859238
Si Si4 0.840842 0.703792 0.489913
Si Si5 0.766328 0.113188 0.092843
O O1 0.593706 0.135995 0.801882
O O2 0.500000 0.147965 0.000000
O O3 0.197285 0.171273 0.140597
O O4 0.459335 0.311426 0.963204
O O5 0.080584 0.202226 0.530251
O O6 0.000000 0.090644 0.500000
O O7 0.197596 0.000000 0.432817
O O8 0.130582 0.143728 0.686725
O O9 0.885906 0.000000 0.836849
O O10 0.725726 0.132410 0.048744
O O11 0.750000 0.750000 0.500000
O O12 0.043683 0.629637 0.312754
O O13 0.849646 0.000000 0.037004
#
# Coordination Sequence:
#
# PCOD8115659 Si02
#       5
#     8   8   8   8   8
#     4  12  24  45  69  97 141 185 226 286 344 407
#     4  11  26  46  69 103 144 181 226 286 348 412
#     4  11  24  44  71 103 139 179 229 287 342 406
#     4  12  23  43  71 101 141 181 226 281 340 406
#     4  11  24  45  73 103 137 180 231 283 340 408
#
# _framework density 23.722090000000001
#
# number of rings (size 3 to 8) (size 9 to 14) (size 15 to 20)
#    0.000    0.600    4.000    4.200    0.000    5.200 
#    0.000    0.000    0.000    3.000    0.000    0.000 
#    0.000    0.000    0.000    0.000    0.000    0.000 
#
# Total GULP energy -247803.420492 kJ/mol
# GULP energy per Si atom -12390.171025 kJ/mol
# Density = 2.366810 g / cm^3
# Si number density = 23.722090 Si / 1000 Ang^3
#
#
#
# Elastic Constant Matrix: (Units=GPa)
#
#
# Indices 1 2 3 4 5 6 
#
# 1 85.9855 46.3716 18.5813 -0.0659 9.7238 0.0780
# 2 46.3716 142.9203 35.7479 -0.0995 7.7085 0.0017
# 3 18.5813 35.7479 87.2490 0.0763 7.1068 0.0552
# 4 -0.0659 -0.0995 0.0763 41.2419 0.0276 -1.3424
# 5 9.7238 7.7085 7.1068 0.0276 32.5912 -0.0668
# 6 0.0780 0.0017 0.0552 -1.3424 -0.0668 28.3408
#
#
#
# Elastic Compliance Matrix: (Units=1/GPa)
#
#
# Indices 1 2 3 4 5 6 
#
# 1 0.014518 -0.004271 -0.001091 0.000016 -0.003084 -0.000044
# 2 -0.004271 0.009096 -0.002796 0.000021 -0.000267 0.000017
# 3 -0.001091 -0.002796 0.012990 -0.000032 -0.001846 -0.000028
# 4 0.000016 0.000021 -0.000032 0.024285 -0.000021 0.001150
# 5 -0.003084 -0.000267 -0.001846 -0.000021 0.032069 0.000087
# 6 -0.000044 0.000017 -0.000028 0.001150 0.000087 0.035340
#
#
# Mechanical properties :
#
#
# Convention : Reuss Voigt Hill
#
# Bulk Modulus (GPa) = 49.28837 57.50626 53.39731
# Shear Modulus (GPa) = 33.03049 34.79838 33.91443
#
# Velocity S-wave (km/s) = 3.73553 3.83419 3.78518
# Velocity P-wave (km/s) = 6.27918 6.62538 6.45460
#
# Compressibility (1/GPa) = 0.02028876
#
# Stress axis : x y z
#
# Youngs Moduli (GPa) = 68.88099 109.93291 76.98497
#
# Poissons Ratio (x) = 0.46956 0.08396
# Poissons Ratio (y) = 0.29421 0.21522
# Poissons Ratio (z) = 0.07512 0.30733
#
# Static dielectric constant tensor:
#      x y z
#    x 4.874950 -0.008220 -2.460710 
#    y -0.008220 5.447290 0.029290 
#    z -2.460710 0.029290 12.721830 
# 
# 
# High freq. dielectric constant tensor:
#      x y z
#    x 1.919340 -0.000010 0.007670 
#    y -0.000010 1.955530 0.000040 
#    z 0.007670 0.000040 1.939090 
# 
# From -- ./inp_files/316616.got.cif
#   From: 2010.06.25/outbox.cif.g09.slc.cpg/sg12_159_cif.got.tgz:316616.got - 2010.06.28 00:19:55.
