data_PCOD8115008
_publ_section_title
;
Structure prediction by ZEFSAII (Michael W. Deem and Ramdas Pophale) SiO2 
 PCOD8115008
Probable space group: C 2/M
;
_chemical_formula_sum "Si O2"
_cell_formula_units_Z 48
_cell_length_a 20.939759
_cell_length_b 11.071955
_cell_length_c 10.846698
_cell_angle_alpha 90.000000
_cell_angle_beta 58.612620
_cell_angle_gamma 90.000000
_cell_volume 2146.749089
_symmetry_space_group_name_H-M "C 2/M"
_symmetry_group_IT_number 12
_symmetry_cell_setting 'monoclinic'
loop_
_space_group_symop_operation_xyz
x,y,z
-x,y,-z
-x,-y,-z
x,-y,z
1/2+x,1/2+y,z
1/2-x,1/2+y,-z
1/2-x,1/2-y,-z
1/2+x,1/2-y,z
loop_
_atom_site_type_symbol
_atom_site_label
_atom_site_fract_x
_atom_site_fract_y
_atom_site_fract_z
Si Si1 0.870581 0.500000 0.164740
Si Si2 0.836531 0.778782 0.431306
Si Si3 0.333412 0.500000 0.850707
Si Si4 0.325914 0.000000 0.925535
Si Si5 0.896575 0.252775 0.858572
Si Si6 0.793560 0.000000 0.616595
Si Si7 0.917738 0.245088 0.110128
Si Si8 0.469293 0.859447 0.394738
O O1 0.795477 0.500000 0.325950
O O2 0.920556 0.384978 0.151335
O O3 0.852083 0.500000 0.039783
O O4 0.750000 0.750000 0.500000
O O5 0.840292 0.888869 0.519864
O O6 0.872380 0.822024 0.263954
O O7 0.882627 0.673630 0.456418
O O8 0.380018 0.623569 0.813879
O O9 0.294064 0.500000 0.760762
O O10 0.262611 0.500000 0.014275
O O11 0.356017 0.128171 0.837953
O O12 0.984766 0.279165 0.751582
O O13 0.873164 0.238196 0.025517
O O14 0.000000 0.191112 0.000000
O O15 0.500000 0.825397 0.500000
O O16 0.481876 0.000000 0.356292
#
# Coordination Sequence:
#
# PCOD8115008 Si02
#       8
#     4   8   4   4   8   4   8   8
#     4   9  19  36  67  99 130 172 231 289 357 423
#     4  12  26  44  72 106 147 189 242 306 369 439
#     4  11  24  42  71  98 147 199 239 301 367 449
#     4   9  20  39  65 101 143 177 238 296 359 435
#     4  11  22  43  69 105 139 185 244 305 373 434
#     4  11  24  45  64 100 145 190 237 291 370 440
#     4  11  22  40  69 101 136 179 233 302 365 429
#     4  11  25  46  71 103 145 195 250 304 365 444
#
# _framework density 22.359390000000001
#
# number of rings (size 3 to 8) (size 9 to 14) (size 15 to 20)
#    0.000    1.167    4.167    1.750    2.333    1.333 
#    3.000    2.500    0.000    0.000    0.000    0.000 
#    0.000    0.000    0.000    0.000    0.000    0.000 
#
# Total GULP energy -297412.820394 kJ/mol
# GULP energy per Si atom -12392.200850 kJ/mol
# Density = 2.230850 g / cm^3
# Si number density = 22.359390 Si / 1000 Ang^3
#
#
#
# Elastic Constant Matrix: (Units=GPa)
#
#
# Indices 1 2 3 4 5 6 
#
# 1 109.0188 40.8346 35.1463 0.0000 -19.2378 0.0000
# 2 40.8346 136.4419 22.2217 0.0000 -12.2561 0.0000
# 3 35.1463 22.2217 112.1372 0.0000 -14.6421 0.0000
# 4 0.0000 0.0000 0.0000 27.7323 0.0000 -0.5235
# 5 -19.2378 -12.2561 -14.6421 0.0000 37.6059 0.0000
# 6 0.0000 0.0000 0.0000 -0.5235 0.0000 25.1238
#
#
#
# Elastic Compliance Matrix: (Units=1/GPa)
#
#
# Indices 1 2 3 4 5 6 
#
# 1 0.011760 -0.002725 -0.002609 0.000000 0.004112 0.000000
# 2 -0.002725 0.008348 -0.000661 0.000000 0.001069 0.000000
# 3 -0.002609 -0.000661 0.010181 0.000000 0.002414 0.000000
# 4 0.000000 0.000000 0.000000 0.036073 0.000000 0.000752
# 5 0.004112 0.001069 0.002414 0.000000 0.029984 0.000000
# 6 0.000000 0.000000 0.000000 0.000752 0.000000 0.039819
#
#
# Mechanical properties :
#
#
# Convention : Reuss Voigt Hill
#
# Bulk Modulus (GPa) = 54.64319 61.55588 58.09953
# Shear Modulus (GPa) = 32.41377 35.38544 33.89961
#
# Velocity S-wave (km/s) = 3.81159 3.98248 3.89797
# Velocity P-wave (km/s) = 6.62288 6.98117 6.80439
#
# Compressibility (1/GPa) = 0.01830054
#
# Stress axis : x y z
#
# Youngs Moduli (GPa) = 85.03206 119.78313 98.21746
#
# Poissons Ratio (x) = 0.32645 0.25624
# Poissons Ratio (y) = 0.23174 0.06488
# Poissons Ratio (z) = 0.22184 0.07912
#
# Static dielectric constant tensor:
#      x y z
#    x 3.799640 0.000000 -0.030840 
#    y 0.000000 5.066780 0.000000 
#    z -0.030840 0.000000 4.172570 
# 
# 
# High freq. dielectric constant tensor:
#      x y z
#    x 1.872870 0.000000 -0.004390 
#    y 0.000000 1.866590 0.000000 
#    z -0.004390 0.000000 1.885700 
# 
# From -- ./inp_files/164755.got.cif
#   From: 2010.06.25/outbox.cif.g09.slc.cpg/sg12_83_cif.got.tgz:164755.got - 2010.06.28 00:19:55.
