data_PCOD8115978
_publ_section_title
;
Structure prediction by ZEFSAII (Michael W. Deem and Ramdas Pophale) SiO2 
 PCOD8115978
Probable space group: C 2/M
;
_chemical_formula_sum "Si O2"
_cell_formula_units_Z 56
_cell_length_a 27.516286
_cell_length_b 9.342589
_cell_length_c 16.097071
_cell_angle_alpha 90.000000
_cell_angle_beta 115.714640
_cell_angle_gamma 90.000000
_cell_volume 3728.313381
_symmetry_space_group_name_H-M "C 2/M"
_symmetry_group_IT_number 12
_symmetry_cell_setting 'monoclinic'
loop_
_space_group_symop_operation_xyz
x,y,z
-x,y,-z
-x,-y,-z
x,-y,z
1/2+x,1/2+y,z
1/2-x,1/2+y,-z
1/2-x,1/2-y,-z
1/2+x,1/2-y,z
loop_
_atom_site_type_symbol
_atom_site_label
_atom_site_fract_x
_atom_site_fract_y
_atom_site_fract_z
Si Si1 0.441329 0.838159 0.996409
Si Si2 0.200178 0.833741 0.364470
Si Si3 0.984620 0.169794 0.359832
Si Si4 0.583570 0.330078 0.539144
Si Si5 0.195109 0.832510 0.552563
Si Si6 0.099069 0.165723 0.179730
Si Si7 0.515888 0.333048 0.826478
O O1 0.443079 0.754645 0.084986
O O2 0.421247 0.000000 0.996308
O O3 0.500000 0.835114 0.000000
O O4 0.400355 0.758425 0.903978
O O5 0.186204 0.797598 0.449183
O O6 0.252542 0.747323 0.373138
O O7 0.149724 0.784805 0.271904
O O8 0.212731 0.000000 0.362142
O O9 0.934344 0.216047 0.381100
O O10 0.040145 0.230602 0.440499
O O11 0.976076 0.228356 0.260607
O O12 0.989252 0.000000 0.359208
O O13 0.584212 0.500000 0.531580
O O14 0.643040 0.270923 0.562860
O O15 0.203313 0.000000 0.574137
O O16 0.045851 0.194460 0.194277
O O17 0.102748 0.000000 0.156971
O O18 0.530685 0.500000 0.844943
#
# Coordination Sequence:
#
# PCOD8115978 Si02
#       7
#     8   8   8   8   8   8   8
#     4   9  17  27  38  55  80 106 129 156 194 237
#     4   9  17  27  39  57  80 106 135 163 192 226
#     4   8  13  21  37  61  83 103 130 162 193 225
#     4   8  13  22  37  59  84 105 129 163 195 222
#     4   9  16  26  40  58  81 107 133 161 192 227
#     4   9  16  26  40  57  78 104 133 163 192 226
#     4   9  15  24  40  60  80 103 131 160 191 229
#
# _framework density 15.020197
#
# number of rings (size 3 to 8) (size 9 to 14) (size 15 to 20)
#    0.000    3.286    0.000    2.143    0.000    5.714 
#    0.000    0.000    0.000    3.429    0.000    3.000 
#    0.000    0.000    0.000    0.000    0.000    0.000 
#
# Total GULP energy -347086.114613 kJ/mol
# GULP energy per Si atom -12395.932665 kJ/mol
# Density = 1.498601 g / cm^3
# Si number density = 15.020197 Si / 1000 Ang^3
#
#
#
# Elastic Constant Matrix: (Units=GPa)
#
#
# Indices 1 2 3 4 5 6 
#
# 1 94.2571 31.2514 51.9812 0.0000 0.9512 0.0000
# 2 31.2514 46.0346 46.8434 0.0000 2.8315 0.0000
# 3 51.9812 46.8434 130.0752 0.0000 -0.5526 0.0000
# 4 0.0000 0.0000 0.0000 16.0351 0.0000 5.1750
# 5 0.9512 2.8315 -0.5526 0.0000 23.5297 0.0000
# 6 0.0000 0.0000 0.0000 5.1750 0.0000 15.3302
#
#
#
# Elastic Compliance Matrix: (Units=1/GPa)
#
#
# Indices 1 2 3 4 5 6 
#
# 1 0.014685 -0.006318 -0.003593 0.000000 0.000082 0.000000
# 2 -0.006318 0.037471 -0.010989 0.000000 -0.004512 0.000000
# 3 -0.003593 -0.010989 0.013088 0.000000 0.001775 0.000000
# 4 0.000000 0.000000 0.000000 0.069988 0.000000 -0.023626
# 5 0.000082 -0.004512 0.001775 0.000000 0.043081 0.000000
# 6 0.000000 0.000000 0.000000 -0.023626 0.000000 0.073206
#
#
# Mechanical properties :
#
#
# Convention : Reuss Voigt Hill
#
# Bulk Modulus (GPa) = 42.65250 58.94655 50.79952
# Shear Modulus (GPa) = 16.60398 20.33173 18.46786
#
# Velocity S-wave (km/s) = 3.32843 3.68316 3.51028
# Velocity P-wave (km/s) = 6.57493 7.57744 7.09391
#
# Compressibility (1/GPa) = 0.02344529
#
# Stress axis : x y z
#
# Youngs Moduli (GPa) = 68.09880 26.68718 76.40380
#
# Poissons Ratio (x) = 0.16862 0.27449
# Poissons Ratio (y) = 0.43026 0.83957
# Poissons Ratio (z) = 0.24465 0.29325
#
# Static dielectric constant tensor:
#      x y z
#    x 2.851360 0.000000 -0.038180 
#    y 0.000000 2.691640 0.000000 
#    z -0.038180 0.000000 3.007530 
# 
# 
# High freq. dielectric constant tensor:
#      x y z
#    x 1.548860 0.000000 0.000230 
#    y 0.000000 1.548820 0.000000 
#    z 0.000230 0.000000 1.573230 
# 
# From -- ./inp_files/243250.got.cif
#   From: 2010.06.25/outbox.cif.g09.slc.cpg/sg12_122_cif.got.tgz:243250.got - 2010.06.28 00:19:55.
