data_PCOD8115151
_publ_section_title
;
Structure prediction by ZEFSAII (Michael W. Deem and Ramdas Pophale) SiO2 
 PCOD8115151
Probable space group: C 2/M
;
_chemical_formula_sum "Si O2"
_cell_formula_units_Z 64
_cell_length_a 16.752285
_cell_length_b 24.188337
_cell_length_c 13.962939
_cell_angle_alpha 90.000000
_cell_angle_beta 146.881488
_cell_angle_gamma 90.000000
_cell_volume 3091.333161
_symmetry_space_group_name_H-M "C 2/M"
_symmetry_group_IT_number 12
_symmetry_cell_setting 'monoclinic'
loop_
_space_group_symop_operation_xyz
x,y,z
-x,y,-z
-x,-y,-z
x,-y,z
1/2+x,1/2+y,z
1/2-x,1/2+y,-z
1/2-x,1/2-y,-z
1/2+x,1/2-y,z
loop_
_atom_site_type_symbol
_atom_site_label
_atom_site_fract_x
_atom_site_fract_y
_atom_site_fract_z
Si Si1 0.046983 0.345704 0.649886
Si Si2 0.225468 0.938899 0.574313
Si Si3 0.776804 0.934568 0.207659
Si Si4 0.939892 0.712179 0.841974
Si Si5 0.397603 0.739691 0.489289
Si Si6 0.017705 0.136512 0.708477
Si Si7 0.485285 0.104029 0.189173
Si Si8 0.178268 0.792145 0.003910
O O1 0.000000 0.372144 0.500000
O O2 0.920325 0.301746 0.551574
O O3 0.062784 0.392385 0.747628
O O4 0.199514 0.310613 0.795358
O O5 0.245346 0.917573 0.703911
O O6 0.384136 0.939638 0.685976
O O7 0.122464 0.900364 0.405178
O O8 0.158694 0.000000 0.506444
O O9 0.912153 0.897742 0.308708
O O10 0.808953 0.000000 0.229255
O O11 0.639692 0.918090 0.005666
O O12 0.773907 0.729579 0.695414
O O13 0.956801 0.664898 0.780003
O O14 0.038684 0.765344 0.914897
O O15 0.000000 0.686024 0.000000
O O16 0.500000 0.731666 0.500000
O O17 0.460697 0.697401 0.628994
O O18 0.132168 0.149052 0.908178
O O19 0.250000 0.750000 0.000000
#
# Coordination Sequence:
#
# PCOD8115151 Si02
#       8
#     8   8   8   8   8   8   8   8
#     4  11  24  43  64  88 125 164 211 261 310 367
#     4  11  24  40  60  94 130 160 204 260 312 379
#     4  11  23  41  63  91 126 164 205 254 316 380
#     4  12  24  37  63  95 130 168 208 250 310 377
#     4  11  23  36  59  90 128 167 204 246 300 373
#     4  12  22  37  63  87 127 171 206 246 306 371
#     4  12  23  38  64  92 123 166 208 256 316 371
#     4  12  23  42  60  92 132 168 210 259 305 368
#
# _framework density 20.703043000000001
#
# number of rings (size 3 to 8) (size 9 to 14) (size 15 to 20)
#    0.000    0.500    5.000    4.500    3.500    3.000 
#    0.000    0.000    0.000    1.500    0.000    0.875 
#    0.000    0.000    0.000    0.000    0.000    0.000 
#
# Total GULP energy -396640.151328 kJ/mol
# GULP energy per Si atom -12395.004729 kJ/mol
# Density = 2.065592 g / cm^3
# Si number density = 20.703043 Si / 1000 Ang^3
#
#
#
# Elastic Constant Matrix: (Units=GPa)
#
#
# Indices 1 2 3 4 5 6 
#
# 1 73.1893 13.4186 30.8741 0.0000 3.2104 0.0000
# 2 13.4186 58.0570 19.9918 0.0000 -9.5170 0.0000
# 3 30.8741 19.9918 121.7078 0.0000 0.4428 0.0000
# 4 0.0000 0.0000 0.0000 6.6839 0.0000 2.7854
# 5 3.2104 -9.5170 0.4428 0.0000 35.8487 0.0000
# 6 0.0000 0.0000 0.0000 2.7854 0.0000 25.3901
#
#
#
# Elastic Compliance Matrix: (Units=1/GPa)
#
#
# Indices 1 2 3 4 5 6 
#
# 1 0.015754 -0.002769 -0.003534 0.000000 -0.002102 0.000000
# 2 -0.002769 0.019641 -0.002544 0.000000 0.005494 0.000000
# 3 -0.003534 -0.002544 0.009532 0.000000 -0.000477 0.000000
# 4 0.000000 0.000000 0.000000 0.156781 0.000000 -0.017199
# 5 -0.002102 0.005494 -0.000477 0.000000 0.029548 0.000000
# 6 0.000000 0.000000 0.000000 -0.017199 0.000000 0.041272
#
#
# Mechanical properties :
#
#
# Convention : Reuss Voigt Hill
#
# Bulk Modulus (GPa) = 36.71878 42.39146 39.55512
# Shear Modulus (GPa) = 16.70570 26.16252 21.43411
#
# Velocity S-wave (km/s) = 2.84372 3.55872 3.22112
# Velocity P-wave (km/s) = 5.34385 6.11608 5.74296
#
# Compressibility (1/GPa) = 0.02723402
#
# Stress axis : x y z
#
# Youngs Moduli (GPa) = 63.47680 50.91411 104.90498
#
# Poissons Ratio (x) = 0.14097 0.37072
# Poissons Ratio (y) = 0.17576 0.26686
# Poissons Ratio (z) = 0.22432 0.12952
#
# Static dielectric constant tensor:
#      x y z
#    x 3.651290 0.000000 0.104970 
#    y 0.000000 3.676030 0.000000 
#    z 0.104970 0.000000 4.042070 
# 
# 
# High freq. dielectric constant tensor:
#      x y z
#    x 1.787230 0.000000 0.014380 
#    y 0.000000 1.789410 0.000000 
#    z 0.014380 0.000000 1.832640 
# 
# From -- ./inp_files/228163.got.cif
#   From: 2010.06.25/outbox.cif.g09.slc.cpg/sg12_115_cif.got.tgz:228163.got - 2010.06.28 00:19:55.
