data_PCOD8115246
_publ_section_title
;
Structure prediction by ZEFSAII (Michael W. Deem and Ramdas Pophale) SiO2 
 PCOD8115246
Probable space group: C 2/M
;
_chemical_formula_sum "Si O2"
_cell_formula_units_Z 40
_cell_length_a 19.620586
_cell_length_b 8.513706
_cell_length_c 11.317259
_cell_angle_alpha 90.000000
_cell_angle_beta 90.230093
_cell_angle_gamma 90.000000
_cell_volume 1890.463845
_symmetry_space_group_name_H-M "C 2/M"
_symmetry_group_IT_number 12
_symmetry_cell_setting 'monoclinic'
loop_
_space_group_symop_operation_xyz
x,y,z
-x,y,-z
-x,-y,-z
x,-y,z
1/2+x,1/2+y,z
1/2-x,1/2+y,-z
1/2-x,1/2-y,-z
1/2+x,1/2-y,z
loop_
_atom_site_type_symbol
_atom_site_label
_atom_site_fract_x
_atom_site_fract_y
_atom_site_fract_z
Si Si1 0.358353 0.318046 0.229155
Si Si2 0.104869 0.178832 0.238731
Si Si3 0.174048 0.316258 0.010260
Si Si4 0.518757 0.817086 0.631242
Si Si5 0.741200 0.679874 0.372143
O O1 0.363118 0.500000 0.196855
O O2 0.368016 0.218242 0.109660
O O3 0.414466 0.274569 0.326529
O O4 0.283897 0.281824 0.280086
O O5 0.162375 0.193538 0.338704
O O6 0.042167 0.286286 0.277769
O O7 0.079420 0.000000 0.227010
O O8 0.133194 0.233371 0.113893
O O9 0.177932 0.500000 0.034823
O O10 0.250000 0.250000 0.000000
O O11 0.500000 0.755640 0.500000
O O12 0.536090 0.000000 0.628502
O O13 0.766622 0.500000 0.368395
O O14 0.750000 0.750000 0.500000
#
# Coordination Sequence:
#
# PCOD8115246 Si02
#       5
#     8   8   8   8   8
#     4  12  25  42  67  96 131 173 219 270 329 391
#     4  11  24  42  66  96 131 173 219 269 328 389
#     4  12  24  42  68  98 133 171 218 272 330 389
#     4  11  25  45  68  96 134 175 220 272 329 391
#     4  11  23  39  63  94 130 169 218 272 325 388
#
# _framework density 21.158829000000001
#
# number of rings (size 3 to 8) (size 9 to 14) (size 15 to 20)
#    0.000    0.600    2.000    6.600    0.000    8.000 
#    0.000    4.000    0.000    0.000    0.000    0.000 
#    0.000    0.000    0.000    0.000    0.000    0.000 
#
# Total GULP energy -248167.366339 kJ/mol
# GULP energy per Si atom -12408.368317 kJ/mol
# Density = 2.111067 g / cm^3
# Si number density = 21.158829 Si / 1000 Ang^3
#
#
#
# Elastic Constant Matrix: (Units=GPa)
#
#
# Indices 1 2 3 4 5 6 
#
# 1 65.7988 16.4319 2.0401 0.0000 -1.0245 0.0000
# 2 16.4319 78.9633 9.5171 0.0000 9.8049 0.0000
# 3 2.0401 9.5171 99.7923 0.0000 3.6261 0.0000
# 4 0.0000 0.0000 0.0000 38.4279 0.0000 0.2099
# 5 -1.0245 9.8049 3.6261 0.0000 39.7806 0.0000
# 6 0.0000 0.0000 0.0000 0.2099 0.0000 36.7147
#
#
#
# Elastic Compliance Matrix: (Units=1/GPa)
#
#
# Indices 1 2 3 4 5 6 
#
# 1 0.016094 -0.003503 -0.000041 0.000000 0.001282 0.000000
# 2 -0.003503 0.013955 -0.001135 0.000000 -0.003426 0.000000
# 3 -0.000041 -0.001135 0.010153 0.000000 -0.000647 0.000000
# 4 0.000000 0.000000 0.000000 0.026024 0.000000 -0.000149
# 5 0.001282 -0.003426 -0.000647 0.000000 0.026074 0.000000
# 6 0.000000 0.000000 0.000000 -0.000149 0.000000 0.027238
#
#
# Mechanical properties :
#
#
# Convention : Reuss Voigt Hill
#
# Bulk Modulus (GPa) = 32.42154 33.39250 32.90702
# Shear Modulus (GPa) = 35.92503 37.42234 36.67369
#
# Velocity S-wave (km/s) = 4.12500 4.21008 4.16776
# Velocity P-wave (km/s) = 6.16796 6.28086 6.22466
#
# Compressibility (1/GPa) = 0.03084369
#
# Stress axis : x y z
#
# Youngs Moduli (GPa) = 62.13511 71.65712 98.48928
#
# Poissons Ratio (x) = 0.25103 0.00409
# Poissons Ratio (y) = 0.21767 0.11176
# Poissons Ratio (z) = 0.00258 0.08132
#
# Static dielectric constant tensor:
#      x y z
#    x 3.771590 0.000000 0.083980 
#    y 0.000000 4.027970 0.000000 
#    z 0.083980 0.000000 3.976440 
# 
# 
# High freq. dielectric constant tensor:
#      x y z
#    x 1.828680 0.000000 0.004070 
#    y 0.000000 1.842490 0.000000 
#    z 0.004070 0.000000 1.845380 
# 
# From -- ./inp_files/151720.got.cif
#   From: 2010.06.25/outbox.cif.g09.slc.cpg/sg12_76_cif.got.tgz:151720.got - 2010.06.28 00:19:55.
