data_PCOD8115297
_publ_section_title
;
Structure prediction by ZEFSAII (Michael W. Deem and Ramdas Pophale) SiO2 
 PCOD8115297
Probable space group: C 2/M
;
_chemical_formula_sum "Si O2"
_cell_formula_units_Z 40
_cell_length_a 18.942140
_cell_length_b 8.887038
_cell_length_c 28.270324
_cell_angle_alpha 90.000000
_cell_angle_beta 155.674149
_cell_angle_gamma 90.000000
_cell_volume 1960.358827
_symmetry_space_group_name_H-M "C 2/M"
_symmetry_group_IT_number 12
_symmetry_cell_setting 'monoclinic'
loop_
_space_group_symop_operation_xyz
x,y,z
-x,y,-z
-x,-y,-z
x,-y,z
1/2+x,1/2+y,z
1/2-x,1/2+y,-z
1/2-x,1/2-y,-z
1/2+x,1/2-y,z
loop_
_atom_site_type_symbol
_atom_site_label
_atom_site_fract_x
_atom_site_fract_y
_atom_site_fract_z
Si Si1 0.342263 0.325853 0.512098
Si Si2 0.278360 0.673913 0.281482
Si Si3 0.186295 0.175530 0.913611
Si Si4 0.525637 0.330240 0.960425
Si Si5 0.788890 0.176416 0.662882
O O1 0.289343 0.500000 0.478520
O O2 0.250000 0.250000 0.500000
O O3 0.547248 0.306976 0.642038
O O4 0.286635 0.248704 0.429930
O O5 0.234862 0.500000 0.263694
O O6 0.301069 0.752870 0.346124
O O7 0.126146 0.746676 0.159042
O O8 0.989235 0.213231 0.785683
O O9 0.222517 0.000000 0.937640
O O10 0.250000 0.250000 0.000000
O O11 0.293899 0.247505 0.936776
O O12 0.532892 0.500000 0.944698
O O13 0.500000 0.329322 0.000000
O O14 0.750839 0.000000 0.639342
#
# Coordination Sequence:
#
# PCOD8115297 Si02
#       5
#     8   8   8   8   8
#     4  11  26  45  66  95 128 166 213 263 320 378
#     4  11  24  43  67  94 126 167 214 262 315 378
#     4  11  23  40  65  96 130 167 212 259 312 377
#     4  11  25  42  63  95 131 169 212 260 318 378
#     4  11  24  42  67  97 128 167 213 260 314 377
#
# _framework density 20.404429
#
# number of rings (size 3 to 8) (size 9 to 14) (size 15 to 20)
#    0.000    1.000    2.000    3.600    2.800    9.600 
#    0.000    0.000    0.000    0.000    0.000    0.000 
#    0.000    0.000    0.000    0.000    0.000    0.000 
#
# Total GULP energy -248108.285850 kJ/mol
# GULP energy per Si atom -12405.414292 kJ/mol
# Density = 2.035799 g / cm^3
# Si number density = 20.404429 Si / 1000 Ang^3
#
#
#
# Elastic Constant Matrix: (Units=GPa)
#
#
# Indices 1 2 3 4 5 6 
#
# 1 110.6943 48.2922 34.3787 0.0006 8.4680 0.0005
# 2 48.2922 125.7515 51.3149 0.0016 10.2221 0.0002
# 3 34.3787 51.3149 69.6684 0.0059 1.3971 0.0012
# 4 0.0006 0.0016 0.0059 36.1887 -0.0009 -1.3935
# 5 8.4680 10.2221 1.3971 -0.0009 37.5084 -0.0005
# 6 0.0005 0.0002 0.0012 -1.3935 -0.0005 39.3750
#
#
#
# Elastic Compliance Matrix: (Units=1/GPa)
#
#
# Indices 1 2 3 4 5 6 
#
# 1 0.011502 -0.002827 -0.003560 0.000000 -0.001694 0.000000
# 2 -0.002827 0.012363 -0.007662 0.000001 -0.002446 0.000000
# 3 -0.003560 -0.007662 0.021712 -0.000003 0.002083 -0.000001
# 4 0.000000 0.000001 -0.000003 0.027671 0.000000 0.000979
# 5 -0.001694 -0.002446 0.002083 0.000000 0.027632 0.000000
# 6 0.000000 0.000000 -0.000001 0.000979 0.000000 0.025432
#
#
# Mechanical properties :
#
#
# Convention : Reuss Voigt Hill
#
# Bulk Modulus (GPa) = 57.20846 63.78730 60.49788
# Shear Modulus (GPa) = 31.20379 34.08963 32.64671
#
# Velocity S-wave (km/s) = 3.91482 4.09185 4.00432
# Velocity P-wave (km/s) = 6.96654 7.32487 7.14795
#
# Compressibility (1/GPa) = 0.01747993
#
# Stress axis : x y z
#
# Youngs Moduli (GPa) = 86.93890 80.88426 46.05678
#
# Poissons Ratio (x) = 0.22865 0.16395
# Poissons Ratio (y) = 0.24577 0.35290
# Poissons Ratio (z) = 0.30949 0.61976
#
# Static dielectric constant tensor:
#      x y z
#    x 0.242560 -0.000060 0.922010 
#    y -0.000060 4.042000 -0.000050 
#    z 0.922010 -0.000050 3.383930 
# 
# 
# High freq. dielectric constant tensor:
#      x y z
#    x 1.810750 0.000000 0.008090 
#    y 0.000000 1.818640 0.000000 
#    z 0.008090 0.000000 1.806920 
# 
# From -- ./inp_files/288647.got.cif
#   From: 2010.06.25/outbox.cif.g09.slc.cpg/sg12_145_cif.got.tgz:288647.got - 2010.06.28 00:19:55.
