data_PCOD8115130
_publ_section_title
;
Structure prediction by ZEFSAII (Michael W. Deem and Ramdas Pophale) SiO2 
 PCOD8115130
Probable space group: C 2/M
;
_chemical_formula_sum "Si O2"
_cell_formula_units_Z 40
_cell_length_a 15.129146
_cell_length_b 31.017778
_cell_length_c 9.001694
_cell_angle_alpha 90.000000
_cell_angle_beta 151.608713
_cell_angle_gamma 90.000000
_cell_volume 2008.589222
_symmetry_space_group_name_H-M "C 2/M"
_symmetry_group_IT_number 12
_symmetry_cell_setting 'monoclinic'
loop_
_space_group_symop_operation_xyz
x,y,z
-x,y,-z
-x,-y,-z
x,-y,z
1/2+x,1/2+y,z
1/2-x,1/2+y,-z
1/2-x,1/2-y,-z
1/2+x,1/2-y,z
loop_
_atom_site_type_symbol
_atom_site_label
_atom_site_fract_x
_atom_site_fract_y
_atom_site_fract_z
Si Si1 0.493735 0.438629 0.812397
Si Si2 0.298534 0.776076 0.713311
Si Si3 0.293447 0.000000 0.122421
Si Si4 0.495965 0.649102 0.661359
Si Si5 0.706460 0.000000 0.240242
Si Si6 0.286540 0.786464 0.169442
O O1 0.468735 0.388250 0.741582
O O2 0.314024 0.459076 0.467045
O O3 0.500000 0.446478 0.000000
O O4 0.681705 0.457964 0.016566
O O5 0.250000 0.750000 0.500000
O O6 0.156191 0.813142 0.550230
O O7 0.308517 0.734080 0.829934
O O8 0.500000 0.798766 0.000000
O O9 0.500000 0.000000 0.500000
O O10 0.297917 0.000000 0.947783
O O11 0.500000 0.630352 0.500000
O O12 0.696574 0.668570 0.991302
O O13 0.500000 0.000000 0.000000
O O14 0.500000 0.797574 0.500000
O O15 0.250000 0.750000 0.000000
#
# Coordination Sequence:
#
# PCOD8115130 Si02
#       6
#     8   8   4   8   4   8
#     4  11  25  44  67 103 138 174 222 277 331 394
#     4  12  23  37  61  86 120 162 221 278 333 384
#     4  11  22  45  78 104 138 175 212 259 338 404
#     4  12  25  42  62  90 131 173 222 274 333 399
#     4  11  22  45  78 104 138 175 212 263 330 408
#     4  12  21  41  61  84 116 170 221 270 329 392
#
# _framework density 19.914476000000001
#
# number of rings (size 3 to 8) (size 9 to 14) (size 15 to 20)
#    0.000    0.400    6.000    4.800    2.800    1.600 
#    0.000    4.000    0.000    0.000    0.000    0.000 
#    0.000    0.000    0.000    0.000    0.000    0.000 
#
# Total GULP energy -247791.595373 kJ/mol
# GULP energy per Si atom -12389.579769 kJ/mol
# Density = 1.986915 g / cm^3
# Si number density = 19.914476 Si / 1000 Ang^3
#
#
#
# Elastic Constant Matrix: (Units=GPa)
#
#
# Indices 1 2 3 4 5 6 
#
# 1 145.3420 30.6954 65.3767 0.0000 -21.5172 0.0000
# 2 30.6954 105.8412 45.5039 0.0000 -4.6161 0.0000
# 3 65.3767 45.5039 165.0457 0.0000 10.0533 0.0000
# 4 0.0000 0.0000 0.0000 40.6718 0.0000 -31.5210
# 5 -21.5172 -4.6161 10.0533 0.0000 54.7377 0.0000
# 6 0.0000 0.0000 0.0000 -31.5210 0.0000 58.5854
#
#
#
# Elastic Compliance Matrix: (Units=1/GPa)
#
#
# Indices 1 2 3 4 5 6 
#
# 1 0.009388 -0.000935 -0.003723 0.000000 0.004295 0.000000
# 2 -0.000935 0.010929 -0.002707 0.000000 0.001051 0.000000
# 3 -0.003723 -0.002707 0.008478 0.000000 -0.003249 0.000000
# 4 0.000000 0.000000 0.000000 0.042172 0.000000 0.022690
# 5 0.004295 0.001051 -0.003249 0.000000 0.020643 0.000000
# 6 0.000000 0.000000 0.000000 0.022690 0.000000 0.029277
#
#
# Mechanical properties :
#
#
# Convention : Reuss Voigt Hill
#
# Bulk Modulus (GPa) = 71.09385 77.70898 74.40142
# Shear Modulus (GPa) = 35.63688 49.10917 42.37302
#
# Velocity S-wave (km/s) = 4.23483 4.97127 4.61776
# Velocity P-wave (km/s) = 7.72585 8.48867 8.11623
#
# Compressibility (1/GPa) = 0.01406591
#
# Stress axis : x y z
#
# Youngs Moduli (GPa) = 106.51702 91.50094 117.95659
#
# Poissons Ratio (x) = 0.08554 0.43911
# Poissons Ratio (y) = 0.09958 0.31929
# Poissons Ratio (z) = 0.39653 0.24768
#
# Static dielectric constant tensor:
#      x y z
#    x 3.838560 0.000000 -0.138480 
#    y 0.000000 2.268360 0.000000 
#    z -0.138480 0.000000 3.776370 
# 
# 
# High freq. dielectric constant tensor:
#      x y z
#    x 1.796520 0.000000 -0.010180 
#    y 0.000000 1.766280 0.000000 
#    z -0.010180 0.000000 1.797870 
# 
# From -- ./inp_files/68784.got.cif
#   From: 2010.06.25/outbox.cif.g09.slc.cpg/sg12_35_cif.got.tgz:68784.got - 2010.06.28 00:19:55.
