data_PCOD8115434
_publ_section_title
;
Structure prediction by ZEFSAII (Michael W. Deem and Ramdas Pophale) SiO2 
 PCOD8115434
Probable space group: C 2/M
;
_chemical_formula_sum "Si O2"
_cell_formula_units_Z 44
_cell_length_a 13.785023
_cell_length_b 16.512494
_cell_length_c 9.262014
_cell_angle_alpha 90.000000
_cell_angle_beta 76.179576
_cell_angle_gamma 90.000000
_cell_volume 2047.230914
_symmetry_space_group_name_H-M "C 2/M"
_symmetry_group_IT_number 12
_symmetry_cell_setting 'monoclinic'
loop_
_space_group_symop_operation_xyz
x,y,z
-x,y,-z
-x,-y,-z
x,-y,z
1/2+x,1/2+y,z
1/2-x,1/2+y,-z
1/2-x,1/2-y,-z
1/2+x,1/2-y,z
loop_
_atom_site_type_symbol
_atom_site_label
_atom_site_fract_x
_atom_site_fract_y
_atom_site_fract_z
Si Si1 0.048352 0.869917 0.628539
Si Si2 0.646983 0.000000 0.381073
Si Si3 0.098197 0.000000 0.210601
Si Si4 0.500000 0.869273 0.500000
Si Si5 0.740514 0.000000 0.057953
Si Si6 0.805025 0.000000 0.536723
Si Si7 0.954376 0.288211 0.229511
Si Si8 0.336173 0.819975 0.994521
O O1 0.000000 0.831734 0.500000
O O2 0.143776 0.920939 0.548647
O O3 0.077405 0.804846 0.738093
O O4 0.966107 0.921610 0.740434
O O5 0.579318 0.078216 0.381971
O O6 0.736256 0.000000 0.232667
O O7 0.690552 0.000000 0.527939
O O8 0.190652 0.000000 0.291924
O O9 0.144443 0.000000 0.033795
O O10 0.441414 0.821921 0.396159
O O11 0.693379 0.086009 0.022324
O O12 0.872801 0.322977 0.148053
O O13 0.068879 0.296174 0.136925
O O14 0.250000 0.750000 0.000000
#
# Coordination Sequence:
#
# PCOD8115434 Si02
#       8
#     8   4   4   4   4   4   8   8
#     4   9  18  39  65  93 132 164 211 269 336 383
#     4  11  25  42  64  93 125 161 232 272 311 401
#     4   9  20  38  63  96 127 171 210 263 334 409
#     4  11  24  44  64  93 126 170 218 265 332 384
#     4  12  24  43  66  89 134 172 215 270 334 377
#     4   9  21  38  64  96 123 168 218 269 322 396
#     4  11  23  43  67  93 134 172 214 275 324 392
#     4  11  27  45  66  99 132 172 225 265 327 399
#
# _framework density 21.492446000000001
#
# number of rings (size 3 to 8) (size 9 to 14) (size 15 to 20)
#    0.000    1.636    2.727    2.182    5.091    2.182 
#    0.000    2.727    0.000    0.000    0.000    0.000 
#    0.000    0.000    0.000    0.000    0.000    0.000 
#
# Total GULP energy -272541.815331 kJ/mol
# GULP energy per Si atom -12388.264333 kJ/mol
# Density = 2.144353 g / cm^3
# Si number density = 21.492446 Si / 1000 Ang^3
#
#
#
# Elastic Constant Matrix: (Units=GPa)
#
#
# Indices 1 2 3 4 5 6 
#
# 1 67.4100 16.8855 12.5176 0.0000 8.7514 0.0000
# 2 16.8855 121.8845 23.8875 0.0000 12.1559 0.0000
# 3 12.5176 23.8875 102.4401 0.0000 1.1193 0.0000
# 4 0.0000 0.0000 0.0000 -113.8522 0.0000 45.7403
# 5 8.7514 12.1559 1.1193 0.0000 41.6512 0.0000
# 6 0.0000 0.0000 0.0000 45.7403 0.0000 -3.9748
#
#
#
# Elastic Compliance Matrix: (Units=1/GPa)
#
#
# Indices 1 2 3 4 5 6 
#
# 1 0.015892 -0.001619 -0.001533 0.000000 -0.002825 0.000000
# 2 -0.001619 0.009021 -0.001881 0.000000 -0.002242 0.000000
# 3 -0.001533 -0.001881 0.010381 0.000000 0.000592 0.000000
# 4 0.000000 0.000000 0.000000 0.002424 0.000000 0.027897
# 5 -0.002825 -0.002242 0.000592 0.000000 0.025241 0.000000
# 6 0.000000 0.000000 0.000000 0.027897 0.000000 0.069437
#
#
# Mechanical properties :
#
#
# Convention : Reuss Voigt Hill
#
# Bulk Modulus (GPa) = 39.64108 44.25731 41.94919
# Shear Modulus (GPa) = 33.14035 0.66110 16.90073
#
# Velocity S-wave (km/s) = 3.93103 0.55522 2.80725
# Velocity P-wave (km/s) = 6.25206 4.58778 5.48343
#
# Compressibility (1/GPa) = 0.02522636
#
# Stress axis : x y z
#
# Youngs Moduli (GPa) = 62.92578 110.85105 96.32633
#
# Poissons Ratio (x) = 0.17950 0.14771
# Poissons Ratio (y) = 0.10190 0.18121
# Poissons Ratio (z) = 0.09649 0.20854
#
# Static dielectric constant tensor:
#      x y z
#    x 3.686490 0.000000 0.031050 
#    y 0.000000 3.941740 0.000000 
#    z 0.031050 0.000000 3.911100 
# 
# 
# High freq. dielectric constant tensor:
#      x y z
#    x 1.827150 0.000000 0.000900 
#    y 0.000000 1.856590 0.000000 
#    z 0.000900 0.000000 1.851820 
# 
# From -- ./inp_files/61138.got.cif
#   From: 2010.06.25/outbox.cif.g09.slc.cpg/sg12_31_cif.got.tgz:61138.got - 2010.06.28 00:19:55.
