data_PCOD8115570
_publ_section_title
;
Structure prediction by ZEFSAII (Michael W. Deem and Ramdas Pophale) SiO2 
 PCOD8115570
Probable space group: C 2/M
;
_chemical_formula_sum "Si O2"
_cell_formula_units_Z 40
_cell_length_a 17.667232
_cell_length_b 8.364099
_cell_length_c 25.584677
_cell_angle_alpha 90.000000
_cell_angle_beta 150.044171
_cell_angle_gamma 90.000000
_cell_volume 1887.805270
_symmetry_space_group_name_H-M "C 2/M"
_symmetry_group_IT_number 12
_symmetry_cell_setting 'monoclinic'
loop_
_space_group_symop_operation_xyz
x,y,z
-x,y,-z
-x,-y,-z
x,-y,z
1/2+x,1/2+y,z
1/2-x,1/2+y,-z
1/2-x,1/2-y,-z
1/2+x,1/2-y,z
loop_
_atom_site_type_symbol
_atom_site_label
_atom_site_fract_x
_atom_site_fract_y
_atom_site_fract_z
Si Si1 0.097740 0.685481 0.608018
Si Si2 0.424948 0.684227 0.008845
Si Si3 0.573023 0.181943 0.198549
Si Si4 0.400362 0.682676 0.190152
Si Si5 0.418988 0.312424 0.597834
O O1 0.141354 0.500000 0.629788
O O2 0.249217 0.788374 0.700615
O O3 0.000000 0.741564 0.500000
O O4 0.002784 0.715023 0.603137
O O5 0.465429 0.500000 0.043726
O O6 0.492883 0.790401 0.095402
O O7 0.500000 0.743833 0.000000
O O8 0.244708 0.703480 0.898272
O O9 0.501377 0.296352 0.199088
O O10 0.545601 0.000000 0.199196
O O11 0.345275 0.500000 0.160188
O O12 0.500800 0.729107 0.299845
O O13 0.422315 0.500000 0.587233
O O14 0.250000 0.250000 0.500000
#
# Coordination Sequence:
#
# PCOD8115570 Si02
#       5
#     8   8   8   8   8
#     4  11  24  42  64  91 125 163 204 253 306 361
#     4  11  24  42  65  92 123 161 204 251 305 364
#     4  12  25  41  64  92 124 162 204 252 305 363
#     4  11  24  42  63  90 125 162 204 253 305 361
#     4  11  24  41  64  93 125 163 205 253 306 361
#
# _framework density 21.188627
#
# number of rings (size 3 to 8) (size 9 to 14) (size 15 to 20)
#    0.000    0.800    0.000    7.200    0.000   14.400 
#    0.000    0.000    0.000    0.000    0.000    0.000 
#    0.000    0.000    0.000    0.000    0.000    0.000 
#
# Total GULP energy -248199.801335 kJ/mol
# GULP energy per Si atom -12409.990067 kJ/mol
# Density = 2.114040 g / cm^3
# Si number density = 21.188627 Si / 1000 Ang^3
#
#
#
# Elastic Constant Matrix: (Units=GPa)
#
#
# Indices 1 2 3 4 5 6 
#
# 1 142.9320 6.8869 53.5906 0.0000 -4.3443 0.0000
# 2 6.8869 62.7842 31.4218 0.0000 -6.9693 0.0000
# 3 53.5906 31.4218 151.7991 -0.0004 -3.6748 -0.0011
# 4 0.0000 0.0000 -0.0004 35.1704 0.0000 -2.0956
# 5 -4.3443 -6.9693 -3.6748 0.0000 45.1386 -0.0002
# 6 0.0000 0.0000 -0.0011 -2.0956 -0.0002 39.3588
#
#
#
# Elastic Compliance Matrix: (Units=1/GPa)
#
#
# Indices 1 2 3 4 5 6 
#
# 1 0.008102 0.000676 -0.002985 0.000000 0.000641 0.000000
# 2 0.000676 0.018099 -0.003924 0.000000 0.002540 0.000000
# 3 -0.002985 -0.003924 0.008449 0.000000 -0.000205 0.000000
# 4 0.000000 0.000000 0.000000 0.028523 0.000000 0.001519
# 5 0.000641 0.002540 -0.000205 0.000000 0.022591 0.000000
# 6 0.000000 0.000000 0.000000 0.001519 0.000000 0.025488
#
#
# Mechanical properties :
#
#
# Convention : Reuss Voigt Hill
#
# Bulk Modulus (GPa) = 45.07455 60.14598 52.61026
# Shear Modulus (GPa) = 38.13514 41.64130 39.88822
#
# Velocity S-wave (km/s) = 4.24700 4.43794 4.34352
# Velocity P-wave (km/s) = 6.73562 7.39649 7.07377
#
# Compressibility (1/GPa) = 0.02218547
#
# Stress axis : x y z
#
# Youngs Moduli (GPa) = 123.42036 55.25151 118.36212
#
# Poissons Ratio (x) = -0.03737 0.35330
# Poissons Ratio (y) = -0.08347 0.46442
# Poissons Ratio (z) = 0.36840 0.21679
#
# Static dielectric constant tensor:
#      x y z
#    x 3.661170 0.000000 -0.323700 
#    y 0.000000 3.778070 0.000000 
#    z -0.323700 0.000000 3.634110 
# 
# 
# High freq. dielectric constant tensor:
#      x y z
#    x 1.846080 0.000000 -0.001330 
#    y 0.000000 1.838340 0.000000 
#    z -0.001330 0.000000 1.847670 
# 
# From -- ./inp_files/151938.got.cif
#   From: 2010.06.25/outbox.cif.g09.slc.cpg/sg12_76_cif.got.tgz:151938.got - 2010.06.28 00:19:55.
