data_PCOD8115534
_publ_section_title
;
Structure prediction by ZEFSAII (Michael W. Deem and Ramdas Pophale) SiO2 
 PCOD8115534
Probable space group: C 2/M
;
_chemical_formula_sum "Si O2"
_cell_formula_units_Z 48
_cell_length_a 18.033584
_cell_length_b 9.068226
_cell_length_c 27.308902
_cell_angle_alpha 90.000000
_cell_angle_beta 34.572729
_cell_angle_gamma 90.000000
_cell_volume 2534.181235
_symmetry_space_group_name_H-M "C 2/M"
_symmetry_group_IT_number 12
_symmetry_cell_setting 'monoclinic'
loop_
_space_group_symop_operation_xyz
x,y,z
-x,y,-z
-x,-y,-z
x,-y,z
1/2+x,1/2+y,z
1/2-x,1/2+y,-z
1/2-x,1/2-y,-z
1/2+x,1/2-y,z
loop_
_atom_site_type_symbol
_atom_site_label
_atom_site_fract_x
_atom_site_fract_y
_atom_site_fract_z
Si Si1 0.174825 0.327008 0.227870
Si Si2 0.437716 0.838330 0.419687
Si Si3 0.052972 0.669808 0.916910
Si Si4 0.890228 0.175550 0.923745
Si Si5 0.501142 0.826969 0.228934
Si Si6 0.238863 0.661741 0.579529
O O1 0.208673 0.500000 0.215895
O O2 0.299423 0.225011 0.166074
O O3 0.113546 0.299855 0.207811
O O4 0.073575 0.272762 0.325062
O O5 0.374423 0.749735 0.499370
O O6 0.335878 0.846921 0.430968
O O7 0.465593 0.000000 0.425375
O O8 0.046421 0.500000 0.902848
O O9 0.964715 0.773644 0.931550
O O10 0.000000 0.686930 0.000000
O O11 0.971453 0.226975 0.832620
O O12 0.874750 0.000000 0.932122
O O13 0.750000 0.250000 0.000000
O O14 0.360525 0.771833 0.326069
O O15 0.496478 0.000000 0.217609
O O16 0.280517 0.500000 0.574141
#
# Coordination Sequence:
#
# PCOD8115534 Si02
#       6
#     8   8   8   8   8   8
#     4   9  18  33  54  80 110 145 180 217 266 315
#     4   8  14  25  43  71 106 140 176 216 256 304
#     4  11  24  40  58  81 107 136 175 220 265 317
#     4  12  25  40  59  81 107 139 175 216 265 318
#     4   9  18  34  55  80 112 145 179 220 264 313
#     4   8  14  25  44  72 105 141 177 214 258 304
#
# _framework density 18.941027999999999
#
# number of rings (size 3 to 8) (size 9 to 14) (size 15 to 20)
#    0.000    2.500    0.000    5.000    0.000    6.000 
#    0.000    3.333    0.000    1.000    0.000    7.000 
#    0.000    0.000    0.000    0.000    0.000    0.000 
#
# Total GULP energy -297481.683428 kJ/mol
# GULP energy per Si atom -12395.070143 kJ/mol
# Density = 1.889792 g / cm^3
# Si number density = 18.941028 Si / 1000 Ang^3
#
#
#
# Elastic Constant Matrix: (Units=GPa)
#
#
# Indices 1 2 3 4 5 6 
#
# 1 60.0712 43.3711 43.4657 0.0001 0.1064 -0.0002
# 2 43.3711 112.0409 69.5136 0.0001 1.9470 -0.0005
# 3 43.4657 69.5136 150.2262 0.0000 -2.3371 -0.0001
# 4 0.0001 0.0001 0.0000 27.7449 0.0000 -3.0649
# 5 0.1064 1.9470 -2.3371 0.0000 23.8865 0.0000
# 6 -0.0002 -0.0005 -0.0001 -3.0649 0.0000 25.6033
#
#
#
# Elastic Compliance Matrix: (Units=1/GPa)
#
#
# Indices 1 2 3 4 5 6 
#
# 1 0.024557 -0.007154 -0.003793 0.000000 0.000103 0.000000
# 2 -0.007154 0.014665 -0.004741 0.000000 -0.001627 0.000000
# 3 -0.003793 -0.004741 0.009969 0.000000 0.001379 0.000000
# 4 0.000000 0.000000 0.000000 0.036526 0.000000 0.004372
# 5 0.000103 -0.001627 0.001379 0.000000 0.042132 0.000000
# 6 0.000000 0.000000 0.000000 0.004372 0.000000 0.039581
#
#
# Mechanical properties :
#
#
# Convention : Reuss Voigt Hill
#
# Bulk Modulus (GPa) = 56.13629 70.55991 63.34810
# Shear Modulus (GPa) = 24.42080 26.51278 25.46679
#
# Velocity S-wave (km/s) = 3.59459 3.74539 3.67076
# Velocity P-wave (km/s) = 6.85053 7.48580 7.17520
#
# Compressibility (1/GPa) = 0.01781379
#
# Stress axis : x y z
#
# Youngs Moduli (GPa) = 40.72209 68.19185 100.30818
#
# Poissons Ratio (x) = 0.48787 0.38047
# Poissons Ratio (y) = 0.29134 0.47556
# Poissons Ratio (z) = 0.15446 0.32329
#
# Static dielectric constant tensor:
#      x y z
#    x 3.308330 0.000000 0.048770 
#    y 0.000000 3.614520 0.000000 
#    z 0.048770 0.000000 3.790910 
# 
# 
# High freq. dielectric constant tensor:
#      x y z
#    x 1.696420 0.000000 0.000000 
#    y 0.000000 1.732220 0.000000 
#    z 0.000000 0.000000 1.758530 
# 
# From -- ./inp_files/380144.got.cif
#   From: 2010.06.25/outbox.cif.g09.slc.cpg/sg12_191_cif.got.tgz:380144.got - 2010.06.28 00:19:55.
