data_PCOD8115190
_publ_section_title
;
Structure prediction by ZEFSAII (Michael W. Deem and Ramdas Pophale) SiO2 
 PCOD8115190
Probable space group: C 2/M
;
_chemical_formula_sum "Si O2"
_cell_formula_units_Z 64
_cell_length_a 9.192623
_cell_length_b 18.551324
_cell_length_c 31.610654
_cell_angle_alpha 90.000000
_cell_angle_beta 141.580887
_cell_angle_gamma 90.000000
_cell_volume 3349.851088
_symmetry_space_group_name_H-M "C 2/M"
_symmetry_group_IT_number 12
_symmetry_cell_setting 'monoclinic'
loop_
_space_group_symop_operation_xyz
x,y,z
-x,y,-z
-x,-y,-z
x,-y,z
1/2+x,1/2+y,z
1/2-x,1/2+y,-z
1/2-x,1/2-y,-z
1/2+x,1/2-y,z
loop_
_atom_site_type_symbol
_atom_site_label
_atom_site_fract_x
_atom_site_fract_y
_atom_site_fract_z
Si Si1 0.268582 0.817131 0.472496
Si Si2 0.260807 0.413829 0.064530
Si Si3 0.467826 0.688463 0.323343
Si Si4 0.690419 0.169182 0.676773
Si Si5 0.617203 0.916500 0.199102
Si Si6 0.425951 0.417550 0.190588
Si Si7 0.237170 0.416672 0.455391
Si Si8 0.407700 0.414179 0.934208
O O1 0.500000 0.802163 0.500000
O O2 0.250000 0.750000 0.500000
O O3 0.057410 0.825405 0.391321
O O4 0.278492 0.892820 0.499414
O O5 0.256508 0.500000 0.064473
O O6 0.363552 0.381358 0.131508
O O7 0.417567 0.385141 0.061768
O O8 0.000000 0.383222 0.000000
O O9 0.340018 0.765188 0.297468
O O10 0.680079 0.690264 0.337729
O O11 0.274838 0.628516 0.267777
O O12 0.438235 0.133588 0.611036
O O13 0.839353 0.112404 0.736318
O O14 0.708405 0.906289 0.172284
O O15 0.351932 0.887053 0.137380
O O16 0.631647 0.000000 0.216640
O O17 0.479683 0.500000 0.194511
O O18 0.500000 0.402930 0.500000
O O19 0.162817 0.500000 0.434529
O O20 0.403369 0.500000 0.935533
O O21 0.500000 0.383014 0.000000
#
# Coordination Sequence:
#
# PCOD8115190 Si02
#       8
#     8   8   8   8   8   8   8   8
#     4  12  22  40  63  87 114 153 196 243 288 349
#     4   9  16  27  47  77 109 146 189 226 272 332
#     4  11  23  38  61  84 110 153 191 236 289 343
#     4  11  23  40  59  84 113 150 193 235 286 350
#     4   9  19  35  54  81 114 146 188 236 286 338
#     4   9  18  34  55  78 110 148 184 232 283 333
#     4  11  25  42  61  87 117 149 189 240 296 346
#     4   9  16  28  49  79 115 151 185 228 278 331
#
# _framework density 19.105326000000002
#
# number of rings (size 3 to 8) (size 9 to 14) (size 15 to 20)
#    0.000    1.875    2.500    1.500    1.750    5.250 
#    0.000    0.000    0.000    0.750    0.000    5.250 
#    0.000    0.000    0.000    0.000    0.000    0.000 
#
# Total GULP energy -396740.472313 kJ/mol
# GULP energy per Si atom -12398.139760 kJ/mol
# Density = 1.906184 g / cm^3
# Si number density = 19.105326 Si / 1000 Ang^3
#
#
#
# Elastic Constant Matrix: (Units=GPa)
#
#
# Indices 1 2 3 4 5 6 
#
# 1 128.1431 48.5023 80.2995 0.0000 4.3017 -0.0001
# 2 48.5023 65.4001 41.6561 0.0001 1.8803 0.0000
# 3 80.2995 41.6561 150.6179 0.0014 -2.7527 -0.0001
# 4 0.0000 0.0001 0.0014 9.5915 0.0003 -4.8206
# 5 4.3017 1.8803 -2.7527 0.0003 39.8667 -0.0001
# 6 -0.0001 0.0000 -0.0001 -4.8206 -0.0001 22.5437
#
#
#
# Elastic Compliance Matrix: (Units=1/GPa)
#
#
# Indices 1 2 3 4 5 6 
#
# 1 0.013890 -0.006702 -0.005580 0.000001 -0.001568 0.000000
# 2 -0.006702 0.021854 -0.002480 0.000000 -0.000479 0.000000
# 3 -0.005580 -0.002480 0.010326 -0.000002 0.001432 0.000000
# 4 0.000001 0.000000 -0.000002 0.116813 -0.000001 0.024979
# 5 -0.001568 -0.000479 0.001432 -0.000001 0.025374 0.000000
# 6 0.000000 0.000000 0.000000 0.024979 0.000000 0.049700
#
#
# Mechanical properties :
#
#
# Convention : Reuss Voigt Hill
#
# Bulk Modulus (GPa) = 60.43633 76.11965 68.27799
# Shear Modulus (GPa) = 18.31528 25.98060 22.14794
#
# Velocity S-wave (km/s) = 3.09956 3.69163 3.40848
# Velocity P-wave (km/s) = 6.67170 7.62230 7.16279
#
# Compressibility (1/GPa) = 0.01654634
#
# Stress axis : x y z
#
# Youngs Moduli (GPa) = 71.99507 45.75830 96.83866
#
# Poissons Ratio (x) = 0.30665 0.54039
# Poissons Ratio (y) = 0.48248 0.24016
# Poissons Ratio (z) = 0.40176 0.11348
#
# Static dielectric constant tensor:
#      x y z
#    x 3.670010 0.000000 -0.019200 
#    y 0.000000 3.289830 0.000000 
#    z -0.019200 0.000000 3.667830 
# 
# 
# High freq. dielectric constant tensor:
#      x y z
#    x 1.751260 0.000000 0.002870 
#    y 0.000000 1.708500 0.000000 
#    z 0.002870 0.000000 1.758480 
# 
# From -- ./inp_files/373015.got.cif
#   From: 2010.06.25/outbox.cif.g09.slc.cpg/sg12_187_cif.got.tgz:373015.got - 2010.06.28 00:19:55.
