data_PCOD8115662
_publ_section_title
;
Structure prediction by ZEFSAII (Michael W. Deem and Ramdas Pophale) SiO2 
 PCOD8115662
Probable space group: C 2/M
;
_chemical_formula_sum "Si O2"
_cell_formula_units_Z 48
_cell_length_a 14.788430
_cell_length_b 18.768682
_cell_length_c 11.235192
_cell_angle_alpha 90.000000
_cell_angle_beta 41.006659
_cell_angle_gamma 90.000000
_cell_volume 2046.149297
_symmetry_space_group_name_H-M "C 2/M"
_symmetry_group_IT_number 12
_symmetry_cell_setting 'monoclinic'
loop_
_space_group_symop_operation_xyz
x,y,z
-x,y,-z
-x,-y,-z
x,-y,z
1/2+x,1/2+y,z
1/2-x,1/2+y,-z
1/2-x,1/2-y,-z
1/2+x,1/2-y,z
loop_
_atom_site_type_symbol
_atom_site_label
_atom_site_fract_x
_atom_site_fract_y
_atom_site_fract_z
Si Si1 0.486162 0.103455 0.258477
Si Si2 0.105538 0.842344 0.132410
Si Si3 0.122843 0.254863 0.713413
Si Si4 0.669218 0.000000 0.932732
Si Si5 0.500000 0.144587 0.500000
Si Si6 0.449319 0.500000 0.751707
Si Si7 0.773620 0.500000 0.386474
Si Si8 0.280722 0.246016 0.784435
O O1 0.485414 0.185338 0.221665
O O2 0.518761 0.095004 0.365898
O O3 0.333563 0.069984 0.391439
O O4 0.609661 0.068760 0.060088
O O5 0.088629 0.927869 0.139270
O O6 0.136452 0.812212 0.236303
O O7 0.961577 0.817594 0.218086
O O8 0.230855 0.811844 0.930732
O O9 0.250000 0.250000 0.500000
O O10 0.161826 0.273038 0.812251
O O11 0.637865 0.000000 0.824452
O O12 0.836547 0.000000 0.758583
O O13 0.373971 0.198774 0.603997
O O14 0.607566 0.500000 0.548227
#
# Coordination Sequence:
#
# PCOD8115662 Si02
#       8
#     8   8   8   4   4   4   4   8
#     4  11  24  45  77 106 141 192 253 309 369 444
#     4  11  26  46  71 108 147 190 245 306 378 451
#     4  12  23  44  75 107 141 190 246 309 371 446
#     4  11  27  49  69 108 150 196 245 311 367 461
#     4  12  22  45  76 101 140 186 246 312 364 443
#     4  12  27  48  71 106 154 201 240 303 390 448
#     4  11  27  47  69 108 154 194 249 307 379 453
#     4  11  24  44  72 109 143 187 247 308 372 434
#
# _framework density 23.4587
#
# number of rings (size 3 to 8) (size 9 to 14) (size 15 to 20)
#    0.000    0.667    3.333    3.750    4.667    2.667 
#    3.000    3.333    0.000    0.000    0.000    0.000 
#    0.000    0.000    0.000    0.000    0.000    0.000 
#
# Total GULP energy -297455.591634 kJ/mol
# GULP energy per Si atom -12393.982985 kJ/mol
# Density = 2.340531 g / cm^3
# Si number density = 23.458700 Si / 1000 Ang^3
#
#
#
# Elastic Constant Matrix: (Units=GPa)
#
#
# Indices 1 2 3 4 5 6 
#
# 1 144.9282 39.0254 40.5518 -0.0003 15.4146 0.0003
# 2 39.0254 143.9724 37.3590 0.0000 5.6175 0.0000
# 3 40.5518 37.3590 94.6399 -0.0008 -7.4705 0.0006
# 4 -0.0003 0.0000 -0.0008 28.5000 0.0003 -2.6480
# 5 15.4146 5.6175 -7.4705 0.0003 47.8812 -0.0003
# 6 0.0003 0.0000 0.0006 -2.6480 -0.0003 30.4826
#
#
#
# Elastic Compliance Matrix: (Units=1/GPa)
#
#
# Indices 1 2 3 4 5 6 
#
# 1 0.008532 -0.001313 -0.003384 0.000000 -0.003121 0.000000
# 2 -0.001313 0.008035 -0.002683 0.000000 -0.000939 0.000000
# 3 -0.003384 -0.002683 0.013351 0.000000 0.003487 0.000000
# 4 0.000000 0.000000 0.000000 0.035373 0.000000 0.003073
# 5 -0.003121 -0.000939 0.003487 0.000000 0.022544 0.000000
# 6 0.000000 0.000000 0.000000 0.003073 0.000000 0.033073
#
#
# Mechanical properties :
#
#
# Convention : Reuss Voigt Hill
#
# Bulk Modulus (GPa) = 65.97409 68.60141 67.28775
# Shear Modulus (GPa) = 35.53158 39.14639 37.33899
#
# Velocity S-wave (km/s) = 3.89606 4.08945 3.99393
# Velocity P-wave (km/s) = 6.95871 7.18367 7.07208
#
# Compressibility (1/GPa) = 0.01515747
#
# Stress axis : x y z
#
# Youngs Moduli (GPa) = 117.20165 124.46303 74.90179
#
# Poissons Ratio (x) = 0.16341 0.25347
# Poissons Ratio (y) = 0.15387 0.20097
# Poissons Ratio (z) = 0.39662 0.33395
#
# Static dielectric constant tensor:
#      x y z
#    x 4.394200 0.000000 -0.121560 
#    y 0.000000 4.271940 0.000000 
#    z -0.121560 0.000000 4.121880 
# 
# 
# High freq. dielectric constant tensor:
#      x y z
#    x 1.941450 0.000000 -0.013080 
#    y 0.000000 1.921540 0.000000 
#    z -0.013080 0.000000 1.931350 
# 
# From -- ./inp_files/147991.got.cif
#   From: 2010.06.25/outbox.cif.g09.slc.cpg/sg12_74_cif.got.tgz:147991.got - 2010.06.28 00:19:55.
