data_PCOD8115496
_publ_section_title
;
Structure prediction by ZEFSAII (Michael W. Deem and Ramdas Pophale) SiO2 
 PCOD8115496
Probable space group: C 2/M
;
_chemical_formula_sum "Si O2"
_cell_formula_units_Z 52
_cell_length_a 18.822804
_cell_length_b 12.547038
_cell_length_c 11.776150
_cell_angle_alpha 90.000000
_cell_angle_beta 61.723881
_cell_angle_gamma 90.000000
_cell_volume 2449.314029
_symmetry_space_group_name_H-M "C 2/M"
_symmetry_group_IT_number 12
_symmetry_cell_setting 'monoclinic'
loop_
_space_group_symop_operation_xyz
x,y,z
-x,y,-z
-x,-y,-z
x,-y,z
1/2+x,1/2+y,z
1/2-x,1/2+y,-z
1/2-x,1/2-y,-z
1/2+x,1/2-y,z
loop_
_atom_site_type_symbol
_atom_site_label
_atom_site_fract_x
_atom_site_fract_y
_atom_site_fract_z
Si Si1 0.181849 0.693048 0.746036
Si Si2 0.858643 0.120959 0.600225
Si Si3 0.012936 0.500000 0.622550
Si Si4 0.657020 0.000000 0.131649
Si Si5 0.423746 0.381451 0.796850
Si Si6 0.903940 0.500000 0.076956
Si Si7 0.215252 0.828979 0.936755
Si Si8 0.432404 0.765982 0.359873
O O1 0.265383 0.640907 0.643865
O O2 0.120421 0.604209 0.836145
O O3 0.193162 0.781683 0.832517
O O4 0.142824 0.750562 0.666918
O O5 0.871289 0.140279 0.724028
O O6 0.915765 0.202205 0.488795
O O7 0.881341 0.000000 0.548207
O O8 0.928256 0.500000 0.746645
O O9 0.000000 0.500000 0.500000
O O10 0.059223 0.392336 0.623636
O O11 0.708628 0.096573 0.139522
O O12 0.643707 0.000000 0.006156
O O13 0.463599 0.500000 0.760802
O O14 0.489363 0.287332 0.758574
O O15 0.365012 0.381968 0.950184
O O16 0.000000 0.500000 0.000000
O O17 0.250000 0.750000 0.000000
#
# Coordination Sequence:
#
# PCOD8115496 Si02
#       8
#     8   8   4   4   8   4   8   8
#     4  12  26  44  68 103 140 179 227 287 349 411
#     4  11  23  46  75  98 130 183 239 286 334 414
#     4  12  28  46  72 104 145 184 231 288 347 423
#     4  12  24  46  66 104 133 179 231 278 348 415
#     4  11  23  45  72 102 132 178 237 287 341 410
#     4  12  24  42  72 101 136 175 229 288 346 414
#     4  12  23  41  72  99 134 173 226 286 342 411
#     4  12  27  46  67 103 143 184 227 284 352 415
#
# _framework density 21.230435
#
# number of rings (size 3 to 8) (size 9 to 14) (size 15 to 20)
#    0.000    0.308    4.615    4.615    4.308    1.231 
#    2.769    0.769    0.000    0.000    0.000    0.000 
#    0.000    0.000    0.000    0.000    0.000    0.000 
#
# Total GULP energy -322451.136362 kJ/mol
# GULP energy per Si atom -12401.966783 kJ/mol
# Density = 2.118211 g / cm^3
# Si number density = 21.230435 Si / 1000 Ang^3
#
#
#
# Elastic Constant Matrix: (Units=GPa)
#
#
# Indices 1 2 3 4 5 6 
#
# 1 99.4083 43.6046 12.6949 0.0000 5.1862 0.0000
# 2 43.6046 138.4507 32.2835 0.0000 4.7989 0.0000
# 3 12.6949 32.2835 82.1233 0.0000 -0.6013 0.0000
# 4 0.0000 0.0000 0.0000 28.7324 0.0000 -36.3103
# 5 5.1862 4.7989 -0.6013 0.0000 44.4028 0.0000
# 6 0.0000 0.0000 0.0000 -36.3103 0.0000 -68.5933
#
#
#
# Elastic Compliance Matrix: (Units=1/GPa)
#
#
# Indices 1 2 3 4 5 6 
#
# 1 0.011727 -0.003561 -0.000420 0.000000 -0.000991 0.000000
# 2 -0.003561 0.009069 -0.003019 0.000000 -0.000605 0.000000
# 3 -0.000420 -0.003019 0.013433 0.000000 0.000557 0.000000
# 4 0.000000 0.000000 0.000000 0.020854 0.000000 -0.011039
# 5 -0.000991 -0.000605 0.000557 0.000000 0.022710 0.000000
# 6 0.000000 0.000000 0.000000 -0.011039 0.000000 -0.008735
#
#
# Mechanical properties :
#
#
# Convention : Reuss Voigt Hill
#
# Bulk Modulus (GPa) = 49.43609 55.23870 52.33739
# Shear Modulus (GPa) = 55.67898 16.33502 36.00700
#
# Velocity S-wave (km/s) = 5.12669 2.77684 4.12273
# Velocity P-wave (km/s) = 7.64068 6.02962 6.88245
#
# Compressibility (1/GPa) = 0.02022814
#
# Stress axis : x y z
#
# Youngs Moduli (GPa) = 85.27426 110.26199 74.44511
#
# Poissons Ratio (x) = 0.39265 0.03128
# Poissons Ratio (y) = 0.30367 0.22476
# Poissons Ratio (z) = 0.03583 0.33290
#
# Static dielectric constant tensor:
#      x y z
#    x 3.873130 0.000000 -0.021620 
#    y 0.000000 4.032880 0.000000 
#    z -0.021620 0.000000 4.139670 
# 
# 
# High freq. dielectric constant tensor:
#      x y z
#    x 1.837240 0.000000 -0.006420 
#    y 0.000000 1.845490 0.000000 
#    z -0.006420 0.000000 1.835460 
# 
# From -- ./inp_files/165581.got.cif
#   From: 2010.06.25/outbox.cif.g09.slc.cpg/sg12_83_cif.got.tgz:165581.got - 2010.06.28 00:19:55.
