data_PCOD8115683
_publ_section_title
;
Structure prediction by ZEFSAII (Michael W. Deem and Ramdas Pophale) SiO2 
 PCOD8115683
Probable space group: C 2/M
;
_chemical_formula_sum "Si O2"
_cell_formula_units_Z 64
_cell_length_a 30.088244
_cell_length_b 16.701760
_cell_length_c 11.850917
_cell_angle_alpha 90.000000
_cell_angle_beta 30.250699
_cell_angle_gamma 90.000000
_cell_volume 3000.239002
_symmetry_space_group_name_H-M "C 2/M"
_symmetry_group_IT_number 12
_symmetry_cell_setting 'monoclinic'
loop_
_space_group_symop_operation_xyz
x,y,z
-x,y,-z
-x,-y,-z
x,-y,z
1/2+x,1/2+y,z
1/2-x,1/2+y,-z
1/2-x,1/2-y,-z
1/2+x,1/2-y,z
loop_
_atom_site_type_symbol
_atom_site_label
_atom_site_fract_x
_atom_site_fract_y
_atom_site_fract_z
Si Si1 0.207065 0.678296 0.160736
Si Si2 0.396625 0.905556 0.212043
Si Si3 0.091624 0.593468 0.236608
Si Si4 0.458231 0.405997 0.418363
Si Si5 0.530411 0.307857 0.815106
Si Si6 0.627549 0.593747 0.169330
Si Si7 0.811898 0.705933 0.559021
Si Si8 0.626173 0.797104 0.942690
O O1 0.162740 0.614882 0.175823
O O2 0.151179 0.707913 0.391342
O O3 0.250000 0.750000 0.000000
O O4 0.281624 0.631323 0.069603
O O5 0.331115 0.880622 0.459368
O O6 0.390085 0.000000 0.212368
O O7 0.500000 0.879558 0.000000
O O8 0.356676 0.864802 0.188102
O O9 0.102720 0.500000 0.175404
O O10 0.103309 0.654851 0.107976
O O11 0.000000 0.608342 0.500000
O O12 0.465926 0.500000 0.397737
O O13 0.435637 0.376536 0.343643
O O14 0.384788 0.381059 0.671681
O O15 0.550865 0.369267 0.259788
O O16 0.616920 0.259444 0.663560
O O17 0.456319 0.256584 0.913467
O O18 0.500000 0.346802 0.000000
O O19 0.628116 0.500000 0.153557
O O20 0.713276 0.741438 0.763434
#
# Coordination Sequence:
#
# PCOD8115683 Si02
#       8
#     8   8   8   8   8   8   8   8
#     4  12  23  40  61  98 129 166 211 260 324 394
#     4  11  24  45  72  99 130 178 231 280 341 397
#     4  11  26  44  67 100 138 175 215 275 339 397
#     4   9  20  38  63  91 123 167 208 254 318 388
#     4  12  24  42  65  92 128 173 218 278 332 386
#     4   9  19  39  62  88 124 162 203 253 312 381
#     4  12  24  43  69  98 132 172 226 276 332 401
#     4  12  23  46  69  96 137 174 223 277 336 402
#
# _framework density 21.331634000000001
#
# number of rings (size 3 to 8) (size 9 to 14) (size 15 to 20)
#    0.000    1.000    3.750    4.125    0.000    1.250 
#    0.000    1.250    0.000    0.000    0.000    0.000 
#    0.000    0.000    0.000    0.000    0.000    0.000 
#
# Total GULP energy -396562.219871 kJ/mol
# GULP energy per Si atom -12392.569371 kJ/mol
# Density = 2.128308 g / cm^3
# Si number density = 21.331634 Si / 1000 Ang^3
#
#
#
# Elastic Constant Matrix: (Units=GPa)
#
#
# Indices 1 2 3 4 5 6 
#
# 1 83.5656 35.5900 22.0675 0.0000 11.4505 0.0000
# 2 35.5900 57.4689 34.1346 0.0000 1.2099 0.0000
# 3 22.0675 34.1346 82.0987 0.0000 -0.4116 0.0000
# 4 0.0000 0.0000 0.0000 36.5131 0.0000 6.7327
# 5 11.4505 1.2099 -0.4116 0.0000 48.5133 0.0000
# 6 0.0000 0.0000 0.0000 6.7327 0.0000 33.9586
#
#
#
# Elastic Compliance Matrix: (Units=1/GPa)
#
#
# Indices 1 2 3 4 5 6 
#
# 1 0.016909 -0.010201 -0.000322 0.000000 -0.003739 0.000000
# 2 -0.010201 0.029283 -0.009425 0.000000 0.001598 0.000000
# 3 -0.000322 -0.009425 0.016188 0.000000 0.000448 0.000000
# 4 0.000000 0.000000 0.000000 0.028427 0.000000 -0.005636
# 5 -0.003739 0.001598 0.000448 0.000000 0.021459 0.000000
# 6 0.000000 0.000000 0.000000 -0.005636 0.000000 0.030565
#
#
# Mechanical properties :
#
#
# Convention : Reuss Voigt Hill
#
# Bulk Modulus (GPa) = 44.47917 45.19081 44.83499
# Shear Modulus (GPa) = 26.28504 32.55306 29.41905
#
# Velocity S-wave (km/s) = 3.51409 3.91070 3.71769
# Velocity P-wave (km/s) = 6.11242 6.45154 6.28427
#
# Compressibility (1/GPa) = 0.02248244
#
# Stress axis : x y z
#
# Youngs Moduli (GPa) = 59.14089 34.14964 61.77399
#
# Poissons Ratio (x) = 0.34837 0.01990
# Poissons Ratio (y) = 0.60332 0.58222
# Poissons Ratio (z) = 0.01906 0.32186
#
# Static dielectric constant tensor:
#      x y z
#    x 3.535350 0.000000 0.295230 
#    y 0.000000 3.862450 0.000000 
#    z 0.295230 0.000000 3.770020 
# 
# 
# High freq. dielectric constant tensor:
#      x y z
#    x 1.841090 0.000000 0.009020 
#    y 0.000000 1.834580 0.000000 
#    z 0.009020 0.000000 1.846780 
# 
# From -- ./inp_files/190037.got.cif
#   From: 2010.06.25/outbox.cif.g09.slc.cpg/sg12_96_cif.got.tgz:190037.got - 2010.06.28 00:19:55.
