data_PCOD8115116
_publ_section_title
;
Structure prediction by ZEFSAII (Michael W. Deem and Ramdas Pophale) SiO2 
 PCOD8115116
Probable space group: C 2/M
;
_chemical_formula_sum "Si O2"
_cell_formula_units_Z 48
_cell_length_a 16.942624
_cell_length_b 17.424692
_cell_length_c 13.687226
_cell_angle_alpha 90.000000
_cell_angle_beta 35.149506
_cell_angle_gamma 90.000000
_cell_volume 2326.304004
_symmetry_space_group_name_H-M "C 2/M"
_symmetry_group_IT_number 12
_symmetry_cell_setting 'monoclinic'
loop_
_space_group_symop_operation_xyz
x,y,z
-x,y,-z
-x,-y,-z
x,-y,z
1/2+x,1/2+y,z
1/2-x,1/2+y,-z
1/2-x,1/2-y,-z
1/2+x,1/2-y,z
loop_
_atom_site_type_symbol
_atom_site_label
_atom_site_fract_x
_atom_site_fract_y
_atom_site_fract_z
Si Si1 0.896477 0.086087 0.029287
Si Si2 0.990820 0.136612 0.281530
Si Si3 0.717254 0.910223 0.664097
Si Si4 0.784504 0.830800 0.797135
Si Si5 0.611051 0.167042 0.313221
Si Si6 0.480918 0.190340 0.805629
O O1 0.962860 0.085846 0.855781
O O2 0.871208 0.000000 0.089863
O O3 0.753074 0.126299 0.182659
O O4 0.000000 0.127757 0.000000
O O5 0.850572 0.102907 0.464313
O O6 0.110191 0.124146 0.240260
O O7 0.967088 0.224003 0.269976
O O8 0.743416 0.884028 0.748489
O O9 0.594619 0.860562 0.743348
O O10 0.676692 0.000000 0.705360
O O11 0.865589 0.755467 0.680533
O O12 0.651570 0.804110 0.991702
O O13 0.500000 0.132072 0.500000
O O14 0.558992 0.151853 0.256385
#
# Coordination Sequence:
#
# PCOD8115116 Si02
#       6
#     8   8   8   8   8   8
#     4  11  25  41  64  96 129 173 222 275 336 388
#     4  11  22  46  69  95 132 178 228 272 324 395
#     4  12  28  42  65 106 142 176 217 276 344 402
#     4  11  22  44  69  98 129 172 230 270 323 402
#     4  11  23  43  69  97 129 171 224 279 328 391
#     4  11  23  43  69 100 130 174 227 271 328 399
#
# _framework density 20.633589000000001
#
# number of rings (size 3 to 8) (size 9 to 14) (size 15 to 20)
#    0.000    0.833    3.333    5.000    4.667    4.333 
#    0.000    0.000    0.000    0.000    0.000    0.000 
#    0.000    0.000    0.000    0.000    0.000    0.000 
#
# Total GULP energy -297660.944159 kJ/mol
# GULP energy per Si atom -12402.539340 kJ/mol
# Density = 2.058663 g / cm^3
# Si number density = 20.633589 Si / 1000 Ang^3
#
#
#
# Elastic Constant Matrix: (Units=GPa)
#
#
# Indices 1 2 3 4 5 6 
#
# 1 139.4273 53.6949 46.5341 -0.0008 -15.3339 0.0004
# 2 53.6949 69.7878 7.0752 -0.0040 -0.3761 0.0018
# 3 46.5341 7.0752 114.1257 -0.0011 13.9916 0.0005
# 4 -0.0008 -0.0040 -0.0011 161.6375 0.0009 -62.5045
# 5 -15.3339 -0.3761 13.9916 0.0009 30.3977 -0.0003
# 6 0.0004 0.0018 0.0005 -62.5045 -0.0003 58.7561
#
#
#
# Elastic Compliance Matrix: (Units=1/GPa)
#
#
# Indices 1 2 3 4 5 6 
#
# 1 0.014474 -0.010422 -0.006502 0.000000 0.010165 0.000000
# 2 -0.010422 0.021936 0.003710 0.000000 -0.006694 0.000000
# 3 -0.006502 0.003710 0.012272 0.000000 -0.008883 0.000000
# 4 0.000000 0.000000 0.000000 0.010510 0.000000 0.011181
# 5 0.010165 -0.006694 -0.008883 0.000000 0.042031 0.000000
# 6 0.000000 0.000000 0.000000 0.011181 0.000000 0.028913
#
#
# Mechanical properties :
#
#
# Convention : Reuss Voigt Hill
#
# Bulk Modulus (GPa) = 44.93422 59.77214 52.35318
# Shear Modulus (GPa) = 30.49125 64.56069 47.52597
#
# Velocity S-wave (km/s) = 3.84832 5.59974 4.80451
# Velocity P-wave (km/s) = 6.44753 8.41669 7.49704
#
# Compressibility (1/GPa) = 0.02225475
#
# Stress axis : x y z
#
# Youngs Moduli (GPa) = 69.09051 45.58754 81.48461
#
# Poissons Ratio (x) = 0.47512 0.52979
# Poissons Ratio (y) = 0.72008 -0.30234
# Poissons Ratio (z) = 0.44920 -0.16915
#
# Static dielectric constant tensor:
#      x y z
#    x 4.095740 0.000000 0.013430 
#    y 0.000000 3.658240 0.000000 
#    z 0.013430 0.000000 3.717600 
# 
# 
# High freq. dielectric constant tensor:
#      x y z
#    x 1.824020 0.000000 -0.000230 
#    y 0.000000 1.796420 0.000000 
#    z -0.000230 0.000000 1.824170 
# 
# From -- ./inp_files/226731.got.cif
#   From: 2010.06.25/outbox.cif.g09.slc.cpg/sg12_114_cif.got.tgz:226731.got - 2010.06.28 00:19:55.
