data_PCOD8115482
_publ_section_title
;
Structure prediction by ZEFSAII (Michael W. Deem and Ramdas Pophale) SiO2 
 PCOD8115482
Probable space group: C 2/M
;
_chemical_formula_sum "Si O2"
_cell_formula_units_Z 48
_cell_length_a 11.145587
_cell_length_b 19.872030
_cell_length_c 14.561556
_cell_angle_alpha 90.000000
_cell_angle_beta 138.517823
_cell_angle_gamma 90.000000
_cell_volume 2136.312545
_symmetry_space_group_name_H-M "C 2/M"
_symmetry_group_IT_number 12
_symmetry_cell_setting 'monoclinic'
loop_
_space_group_symop_operation_xyz
x,y,z
-x,y,-z
-x,-y,-z
x,-y,z
1/2+x,1/2+y,z
1/2-x,1/2+y,-z
1/2-x,1/2-y,-z
1/2+x,1/2-y,z
loop_
_atom_site_type_symbol
_atom_site_label
_atom_site_fract_x
_atom_site_fract_y
_atom_site_fract_z
Si Si1 0.872146 0.578854 0.014190
Si Si2 0.008410 0.678917 0.765926
Si Si3 0.630275 0.366838 0.488749
Si Si4 0.528765 0.672921 0.785191
Si Si5 0.721537 0.000000 0.521243
Si Si6 0.169758 0.862205 0.159717
Si Si7 0.707961 0.000000 0.727341
O O1 0.830605 0.500000 0.011991
O O2 0.691490 0.621149 0.894085
O O3 0.971351 0.614764 0.155683
O O4 0.000000 0.584387 0.000000
O O5 0.147213 0.676370 0.760753
O O6 0.801412 0.678597 0.614400
O O7 0.060206 0.750934 0.840712
O O8 0.500000 0.381365 0.500000
O O9 0.519529 0.324509 0.349704
O O10 0.691765 0.436293 0.478886
O O11 0.361157 0.647791 0.749994
O O12 0.770877 0.000000 0.657097
O O13 0.507491 0.000000 0.386324
O O14 0.207844 0.940082 0.165946
O O15 0.000000 0.838509 0.000000
#
# Coordination Sequence:
#
# PCOD8115482 Si02
#       7
#     8   8   8   8   4   8   4
#     4  11  27  49  75 107 148 194 248 304 359 430
#     4  12  28  48  74 109 148 192 244 300 367 434
#     4  12  27  48  73 105 147 195 248 300 363 435
#     4  12  28  48  74 109 148 192 244 300 367 434
#     4  11  23  44  72 104 139 197 236 304 364 429
#     4  12  26  43  76 105 143 189 238 298 362 440
#     4  11  23  46  70 104 149 181 238 304 362 434
#
# _framework density 22.468620999999999
#
# number of rings (size 3 to 8) (size 9 to 14) (size 15 to 20)
#    0.000    0.333    5.000    2.500    9.333    0.667 
#    0.000    0.000    0.000    0.000    0.000    0.000 
#    0.000    0.000    0.000    0.000    0.000    0.000 
#
# Total GULP energy -297556.407681 kJ/mol
# GULP energy per Si atom -12398.183653 kJ/mol
# Density = 2.241748 g / cm^3
# Si number density = 22.468621 Si / 1000 Ang^3
#
#
#
# Elastic Constant Matrix: (Units=GPa)
#
#
# Indices 1 2 3 4 5 6 
#
# 1 121.5595 15.1040 9.2439 0.0005 10.4763 0.0003
# 2 15.1040 148.1027 11.4820 0.0002 10.8332 0.0001
# 3 9.2439 11.4820 76.7185 0.0010 -2.4605 0.0006
# 4 0.0005 0.0002 0.0010 29.3597 0.0005 -0.7760
# 5 10.4763 10.8332 -2.4605 0.0005 31.0119 0.0004
# 6 0.0003 0.0001 0.0006 -0.7760 0.0004 16.5604
#
#
#
# Elastic Compliance Matrix: (Units=1/GPa)
#
#
# Indices 1 2 3 4 5 6 
#
# 1 0.008619 -0.000595 -0.001039 0.000000 -0.002786 0.000000
# 2 -0.000595 0.007067 -0.001061 0.000000 -0.002352 0.000000
# 3 -0.001039 -0.001061 0.013376 0.000000 0.001783 -0.000001
# 4 0.000000 0.000000 0.000000 0.034102 -0.000001 0.001598
# 5 -0.002786 -0.002352 0.001783 -0.000001 0.034150 -0.000001
# 6 0.000000 0.000000 -0.000001 0.001598 -0.000001 0.060460
#
#
# Mechanical properties :
#
#
# Convention : Reuss Voigt Hill
#
# Bulk Modulus (GPa) = 42.24354 46.44895 44.34625
# Shear Modulus (GPa) = 29.23023 36.08979 32.66001
#
# Velocity S-wave (km/s) = 3.61076 4.01213 3.81672
# Velocity P-wave (km/s) = 6.01875 6.49466 6.26123
#
# Compressibility (1/GPa) = 0.02367226
#
# Stress axis : x y z
#
# Youngs Moduli (GPa) = 116.01646 141.50171 74.76133
#
# Poissons Ratio (x) = 0.08415 0.07767
# Poissons Ratio (y) = 0.06899 0.07936
# Poissons Ratio (z) = 0.12053 0.15020
#
# Static dielectric constant tensor:
#      x y z
#    x 4.297450 0.000000 -0.056040 
#    y 0.000000 4.235170 0.000000 
#    z -0.056040 0.000000 3.989310 
# 
# 
# High freq. dielectric constant tensor:
#      x y z
#    x 1.905410 0.000000 0.001430 
#    y 0.000000 1.900520 0.000000 
#    z 0.001430 0.000000 1.879400 
# 
# From -- ./inp_files/208036.got.cif
#   From: 2010.06.25/outbox.cif.g09.slc.cpg/sg12_105_cif.got.tgz:208036.got - 2010.06.28 00:19:55.
