data_PCOD8115262
_publ_section_title
;
Structure prediction by ZEFSAII (Michael W. Deem and Ramdas Pophale) SiO2 
 PCOD8115262
Probable space group: C 2/M
;
_chemical_formula_sum "Si O2"
_cell_formula_units_Z 48
_cell_length_a 20.256747
_cell_length_b 8.527342
_cell_length_c 14.660567
_cell_angle_alpha 90.000000
_cell_angle_beta 108.901567
_cell_angle_gamma 90.000000
_cell_volume 2395.854319
_symmetry_space_group_name_H-M "C 2/M"
_symmetry_group_IT_number 12
_symmetry_cell_setting 'monoclinic'
loop_
_space_group_symop_operation_xyz
x,y,z
-x,y,-z
-x,-y,-z
x,-y,z
1/2+x,1/2+y,z
1/2-x,1/2+y,-z
1/2-x,1/2-y,-z
1/2+x,1/2-y,z
loop_
_atom_site_type_symbol
_atom_site_label
_atom_site_fract_x
_atom_site_fract_y
_atom_site_fract_z
Si Si1 0.924548 0.817914 0.002001
Si Si2 0.566116 0.819256 0.799330
Si Si3 0.814000 0.317342 0.287313
Si Si4 0.921911 0.179691 0.691645
Si Si5 0.167030 0.681090 0.189116
Si Si6 0.681443 0.682379 0.515434
O O1 0.918298 0.786584 0.106162
O O2 0.912439 0.000000 0.976261
O O3 0.865624 0.719373 0.923718
O O4 0.000000 0.762638 0.000000
O O5 0.620798 0.772576 0.746269
O O6 0.489164 0.789288 0.726061
O O7 0.572608 0.000000 0.830642
O O8 0.795355 0.500000 0.273789
O O9 0.748614 0.218773 0.222221
O O10 0.834625 0.272833 0.399001
O O11 0.868866 0.215131 0.749441
O O12 0.884484 0.210716 0.579043
O O13 0.945757 0.000000 0.712018
O O14 0.155619 0.500000 0.207694
O O15 0.693713 0.500000 0.541250
O O16 0.750000 0.750000 0.500000
#
# Coordination Sequence:
#
# PCOD8115262 Si02
#       6
#     8   8   8   8   8   8
#     4  11  23  40  66  95 126 166 209 259 315 375
#     4  11  25  43  65  94 128 168 211 262 316 373
#     4  11  25  44  64  92 132 168 209 263 318 373
#     4  11  23  40  64  94 128 165 209 262 315 373
#     4  12  24  39  66  96 125 165 213 260 311 376
#     4  11  23  39  65  95 126 167 213 262 314 373
#
# _framework density 20.034607000000001
#
# number of rings (size 3 to 8) (size 9 to 14) (size 15 to 20)
#    0.000    0.833    3.333    4.000    0.000    6.667 
#    0.000    3.333    0.000    0.000    0.000    0.000 
#    0.000    0.000    0.000    0.000    0.000    0.000 
#
# Total GULP energy -297805.565982 kJ/mol
# GULP energy per Si atom -12408.565249 kJ/mol
# Density = 1.998901 g / cm^3
# Si number density = 20.034607 Si / 1000 Ang^3
#
#
#
# Elastic Constant Matrix: (Units=GPa)
#
#
# Indices 1 2 3 4 5 6 
#
# 1 107.5686 24.3291 42.6470 0.0000 -10.1839 0.0000
# 2 24.3291 55.5313 34.6092 0.0000 1.2061 0.0000
# 3 42.6470 34.6092 120.2181 0.0000 -5.9318 0.0000
# 4 0.0000 0.0000 0.0000 37.5241 0.0000 1.5401
# 5 -10.1839 1.2061 -5.9318 0.0000 36.9040 0.0000
# 6 0.0000 0.0000 0.0000 1.5401 0.0000 30.9495
#
#
#
# Elastic Compliance Matrix: (Units=1/GPa)
#
#
# Indices 1 2 3 4 5 6 
#
# 1 0.011481 -0.003215 -0.003010 0.000000 0.002790 0.000000
# 2 -0.003215 0.022958 -0.005594 0.000000 -0.002537 0.000000
# 3 -0.003010 -0.005594 0.011052 0.000000 0.001129 0.000000
# 4 0.000000 0.000000 0.000000 0.026704 0.000000 -0.001329
# 5 0.002790 -0.002537 0.001129 0.000000 0.028131 0.000000
# 6 0.000000 0.000000 0.000000 -0.001329 0.000000 0.032377
#
#
# Mechanical properties :
#
#
# Convention : Reuss Voigt Hill
#
# Bulk Modulus (GPa) = 45.75866 54.05431 49.90649
# Shear Modulus (GPa) = 30.55779 33.19102 31.87441
#
# Velocity S-wave (km/s) = 3.90968 4.07465 3.99302
# Velocity P-wave (km/s) = 6.57801 7.01257 6.79876
#
# Compressibility (1/GPa) = 0.02185379
#
# Stress axis : x y z
#
# Youngs Moduli (GPa) = 87.10195 43.55820 90.48136
#
# Poissons Ratio (x) = 0.14003 0.27232
# Poissons Ratio (y) = 0.28001 0.50615
# Poissons Ratio (z) = 0.26215 0.24366
#
# Static dielectric constant tensor:
#      x y z
#    x 3.609740 0.000000 0.072340 
#    y 0.000000 3.727270 0.000000 
#    z 0.072340 0.000000 3.817640 
# 
# 
# High freq. dielectric constant tensor:
#      x y z
#    x 1.778700 0.000000 0.006170 
#    y 0.000000 1.795240 0.000000 
#    z 0.006170 0.000000 1.795450 
# 
# From -- ./inp_files/230412.got.cif
#   From: 2010.06.25/outbox.cif.g09.slc.cpg/sg12_116_cif.got.tgz:230412.got - 2010.06.28 00:19:55.
