data_PCOD8115883
_publ_section_title
;
Structure prediction by ZEFSAII (Michael W. Deem and Ramdas Pophale) SiO2 
 PCOD8115883
Probable space group: C 2/M
;
_chemical_formula_sum "Si O2"
_cell_formula_units_Z 48
_cell_length_a 8.777130
_cell_length_b 18.122076
_cell_length_c 14.752110
_cell_angle_alpha 90.000000
_cell_angle_beta 65.607252
_cell_angle_gamma 90.000000
_cell_volume 2137.012665
_symmetry_space_group_name_H-M "C 2/M"
_symmetry_group_IT_number 12
_symmetry_cell_setting 'monoclinic'
loop_
_space_group_symop_operation_xyz
x,y,z
-x,y,-z
-x,-y,-z
x,-y,z
1/2+x,1/2+y,z
1/2-x,1/2+y,-z
1/2-x,1/2-y,-z
1/2+x,1/2-y,z
loop_
_atom_site_type_symbol
_atom_site_label
_atom_site_fract_x
_atom_site_fract_y
_atom_site_fract_z
Si Si1 0.116272 0.852965 0.551976
Si Si2 0.130808 0.000000 0.130532
Si Si3 0.935940 0.000000 0.648805
Si Si4 0.065666 0.345048 0.641225
Si Si5 0.827497 0.500000 0.912068
Si Si6 0.283144 0.275984 0.296435
Si Si7 0.070943 0.500000 0.708207
Si Si8 0.095722 0.875489 0.891293
O O1 0.308586 0.853260 0.473719
O O2 0.109324 0.805536 0.644692
O O3 0.000000 0.819959 0.500000
O O4 0.052135 0.932581 0.596138
O O5 0.153065 0.000000 0.231792
O O6 0.029609 0.073467 0.133373
O O7 0.302746 0.000000 0.027696
O O8 0.766535 0.000000 0.631740
O O9 0.169557 0.311271 0.703551
O O10 0.992438 0.425862 0.683914
O O11 0.912359 0.293577 0.647053
O O12 0.745317 0.426325 0.890536
O O13 0.019368 0.500000 0.828762
O O14 0.345237 0.307919 0.185549
O O15 0.000000 0.839025 0.000000
#
# Coordination Sequence:
#
# PCOD8115883 Si02
#       8
#     8   4   4   8   4   8   4   8
#     4  12  24  44  66  99 136 187 231 283 343 409
#     4   9  18  35  67 103 133 178 225 283 345 413
#     4  12  23  40  70  99 141 180 233 287 350 396
#     4  12  27  44  69  99 139 184 233 287 339 411
#     4   9  18  38  67 102 135 173 231 280 340 412
#     4  12  25  45  71 101 136 184 232 286 351 410
#     4  12  24  44  69  98 139 183 225 287 341 411
#     4   9  18  38  70 102 133 174 227 284 343 415
#
# _framework density 22.461262999999999
#
# number of rings (size 3 to 8) (size 9 to 14) (size 15 to 20)
#    0.000    1.000    5.000    3.750    0.000    1.000 
#    0.000    2.500    3.667    0.000    0.000    0.000 
#    0.000    0.000    0.000    0.000    0.000    0.000 
#
# Total GULP energy -297360.974710 kJ/mol
# GULP energy per Si atom -12390.040613 kJ/mol
# Density = 2.241014 g / cm^3
# Si number density = 22.461263 Si / 1000 Ang^3
#
#
#
# Elastic Constant Matrix: (Units=GPa)
#
#
# Indices 1 2 3 4 5 6 
#
# 1 89.3111 29.4602 29.1070 0.0000 -10.4811 0.0000
# 2 29.4602 103.0538 38.7313 0.0000 -1.2914 0.0000
# 3 29.1070 38.7313 148.1888 0.0000 -7.5023 0.0000
# 4 0.0000 0.0000 0.0000 29.6260 0.0000 -6.1039
# 5 -10.4811 -1.2914 -7.5023 0.0000 38.1853 0.0000
# 6 0.0000 0.0000 0.0000 -6.1039 0.0000 -28.8876
#
#
#
# Elastic Compliance Matrix: (Units=1/GPa)
#
#
# Indices 1 2 3 4 5 6 
#
# 1 0.013118 -0.003108 -0.001603 0.000000 0.003180 0.000000
# 2 -0.003108 0.011498 -0.002443 0.000000 -0.000944 0.000000
# 3 -0.001603 -0.002443 0.007752 0.000000 0.001000 0.000000
# 4 0.000000 0.000000 0.000000 0.032346 0.000000 -0.006835
# 5 0.003180 -0.000944 0.001000 0.000000 0.027226 0.000000
# 6 0.000000 0.000000 0.000000 -0.006835 0.000000 -0.033173
#
#
# Mechanical properties :
#
#
# Convention : Reuss Voigt Hill
#
# Bulk Modulus (GPa) = 55.36792 59.46120 57.41456
# Shear Modulus (GPa) = 63.21572 24.00174 43.60873
#
# Velocity S-wave (km/s) = 5.31088 3.27247 4.41104
# Velocity P-wave (km/s) = 7.89374 6.38819 7.18053
#
# Compressibility (1/GPa) = 0.01806100
#
# Stress axis : x y z
#
# Youngs Moduli (GPa) = 76.23320 86.96990 128.99658
#
# Poissons Ratio (x) = 0.27026 0.20683
# Poissons Ratio (y) = 0.23690 0.31509
# Poissons Ratio (z) = 0.12223 0.21244
#
# Static dielectric constant tensor:
#      x y z
#    x 3.850490 0.000000 -0.099960 
#    y 0.000000 4.245750 0.000000 
#    z -0.099960 0.000000 4.294380 
# 
# 
# High freq. dielectric constant tensor:
#      x y z
#    x 1.872340 0.000000 -0.017380 
#    y 0.000000 1.880150 0.000000 
#    z -0.017380 0.000000 1.895200 
# 
# From -- ./inp_files/196988.got.cif
#   From: 2010.06.25/outbox.cif.g09.slc.cpg/sg12_99_cif.got.tgz:196988.got - 2010.06.28 00:19:55.
