data_PCOD8115854
_publ_section_title
;
Structure prediction by ZEFSAII (Michael W. Deem and Ramdas Pophale) SiO2 
 PCOD8115854
Probable space group: C 2/M
;
_chemical_formula_sum "Si O2"
_cell_formula_units_Z 36
_cell_length_a 33.327646
_cell_length_b 10.587468
_cell_length_c 5.091419
_cell_angle_alpha 90.000000
_cell_angle_beta 73.326965
_cell_angle_gamma 90.000000
_cell_volume 1721.004039
_symmetry_space_group_name_H-M "C 2/M"
_symmetry_group_IT_number 12
_symmetry_cell_setting 'monoclinic'
loop_
_space_group_symop_operation_xyz
x,y,z
-x,y,-z
-x,-y,-z
x,-y,z
1/2+x,1/2+y,z
1/2-x,1/2+y,-z
1/2-x,1/2-y,-z
1/2+x,1/2-y,z
loop_
_atom_site_type_symbol
_atom_site_label
_atom_site_fract_x
_atom_site_fract_y
_atom_site_fract_z
Si Si1 0.137917 0.641599 0.011110
Si Si2 0.279003 0.742675 0.195280
Si Si3 0.906914 0.727634 0.404109
Si Si4 0.336150 0.500000 0.131216
Si Si5 0.392384 0.500000 0.525736
Si Si6 0.471021 0.000000 0.304529
O O1 0.120857 0.500000 0.010228
O O2 0.128927 0.691652 0.319804
O O3 0.187848 0.642095 0.869987
O O4 0.113236 0.726424 0.847067
O O5 0.250000 0.750000 0.500000
O O6 0.306877 0.618686 0.138447
O O7 0.250000 0.750000 0.000000
O O8 0.944663 0.629259 0.357831
O O9 0.920759 0.873446 0.430484
O O10 0.353762 0.500000 0.393716
O O11 0.374148 0.500000 0.853491
O O12 0.500000 0.000000 0.500000
O O13 0.500000 0.000000 0.000000
#
# Coordination Sequence:
#
# PCOD8115854 Si02
#       6
#     8   8   8   4   4   4
#     4  12  23  42  66  95 126 172 236 278 315 394
#     4  12  26  40  57  90 131 176 219 284 345 386
#     4  12  23  44  71 100 130 174 223 267 331 402
#     4  12  24  42  61  87 130 174 228 278 332 386
#     4  12  22  44  68  99 127 172 228 273 320 395
#     4  12  26  46  71 106 141 172 214 275 346 411
#
# _framework density 20.918021
#
# number of rings (size 3 to 8) (size 9 to 14) (size 15 to 20)
#    0.000    0.000    6.667    4.000    3.111    0.000 
#    0.000    1.111    0.000    0.000    0.000    0.000 
#    0.000    0.000    0.000    0.000    0.000    0.000 
#
# Total GULP energy -223239.464460 kJ/mol
# GULP energy per Si atom -12402.192470 kJ/mol
# Density = 2.087041 g / cm^3
# Si number density = 20.918021 Si / 1000 Ang^3
#
#
#
# Elastic Constant Matrix: (Units=GPa)
#
#
# Indices 1 2 3 4 5 6 
#
# 1 109.3723 29.9896 41.1171 0.0000 4.9093 0.0000
# 2 29.9896 161.3313 32.4062 0.0000 -18.5743 0.0000
# 3 41.1171 32.4062 129.3976 0.0000 6.5264 0.0000
# 4 0.0000 0.0000 0.0000 20.0327 0.0000 -6.0712
# 5 4.9093 -18.5743 6.5264 0.0000 34.8173 0.0000
# 6 0.0000 0.0000 0.0000 -6.0712 0.0000 39.3929
#
#
#
# Elastic Compliance Matrix: (Units=1/GPa)
#
#
# Indices 1 2 3 4 5 6 
#
# 1 0.010770 -0.001627 -0.002922 0.000000 -0.001839 0.000000
# 2 -0.001627 0.007319 -0.001539 0.000000 0.004423 0.000000
# 3 -0.002922 -0.001539 0.009149 0.000000 -0.002124 0.000000
# 4 0.000000 0.000000 0.000000 0.052364 0.000000 0.008070
# 5 -0.001839 0.004423 -0.002124 0.000000 0.031738 0.000000
# 6 0.000000 0.000000 0.000000 0.008070 0.000000 0.026629
#
#
# Mechanical properties :
#
#
# Convention : Reuss Voigt Hill
#
# Bulk Modulus (GPa) = 66.39026 67.45855 66.92440
# Shear Modulus (GPa) = 32.22337 38.62115 35.42226
#
# Velocity S-wave (km/s) = 3.92913 4.30153 4.11954
# Velocity P-wave (km/s) = 7.23818 7.54917 7.39531
#
# Compressibility (1/GPa) = 0.01506245
#
# Stress axis : x y z
#
# Youngs Moduli (GPa) = 92.84853 136.62781 109.29857
#
# Poissons Ratio (x) = 0.22226 0.31939
# Poissons Ratio (y) = 0.15104 0.16822
# Poissons Ratio (z) = 0.27132 0.21029
#
# Static dielectric constant tensor:
#      x y z
#    x 3.692260 0.000000 -0.009220 
#    y 0.000000 4.323260 0.000000 
#    z -0.009220 0.000000 4.058360 
# 
# 
# High freq. dielectric constant tensor:
#      x y z
#    x 1.796950 0.000000 0.015550 
#    y 0.000000 1.840500 0.000000 
#    z 0.015550 0.000000 1.838840 
# 
# From -- ./inp_files/30582.got.cif
#   From: 2010.06.25/outbox.cif.g09.slc.cpg/sg12_16_cif.got.tgz:30582.got - 2010.06.28 00:19:55.
