data_PCOD8115252
_publ_section_title
;
Structure prediction by ZEFSAII (Michael W. Deem and Ramdas Pophale) SiO2 
 PCOD8115252
Probable space group: C 2/M
;
_chemical_formula_sum "Si O2"
_cell_formula_units_Z 44
_cell_length_a 9.050221
_cell_length_b 17.132931
_cell_length_c 20.653488
_cell_angle_alpha 90.000000
_cell_angle_beta 41.618332
_cell_angle_gamma 90.000000
_cell_volume 2126.965913
_symmetry_space_group_name_H-M "C 2/M"
_symmetry_group_IT_number 12
_symmetry_cell_setting 'monoclinic'
loop_
_space_group_symop_operation_xyz
x,y,z
-x,y,-z
-x,-y,-z
x,-y,z
1/2+x,1/2+y,z
1/2-x,1/2+y,-z
1/2-x,1/2-y,-z
1/2+x,1/2-y,z
loop_
_atom_site_type_symbol
_atom_site_label
_atom_site_fract_x
_atom_site_fract_y
_atom_site_fract_z
Si Si1 0.286997 0.128356 0.108471
Si Si2 0.475024 0.153193 0.356962
Si Si3 0.476090 0.000000 0.136988
Si Si4 0.605153 0.297220 0.699930
Si Si5 0.901563 0.000000 0.920492
Si Si6 0.406337 0.000000 0.759826
Si Si7 0.740470 0.087169 0.452753
O O1 0.367185 0.077353 0.142973
O O2 0.139462 0.075985 0.109482
O O3 0.129713 0.198335 0.184847
O O4 0.500000 0.163096 0.000000
O O5 0.369509 0.212549 0.340194
O O6 0.689047 0.192942 0.319331
O O7 0.282650 0.132988 0.471908
O O8 0.544627 0.074483 0.299382
O O9 0.443425 0.000000 0.224909
O O10 0.738064 0.000000 0.035102
O O11 0.599706 0.364918 0.647257
O O12 0.150423 0.000000 0.865102
O O13 0.500000 0.080218 0.500000
O O14 0.840289 0.000000 0.430087
#
# Coordination Sequence:
#
# PCOD8115252 Si02
#       7
#     8   8   4   8   4   4   8
#     4   9  19  38  61  88 123 162 205 246 300 366
#     4  11  24  40  62  91 126 158 204 253 304 361
#     4   9  21  33  60  90 125 154 207 259 296 351
#     4  11  23  39  64  88 125 166 200 249 312 359
#     4   9  17  37  60  89 113 165 208 249 298 362
#     4  12  21  38  63  88 126 157 208 254 301 363
#     4   9  19  37  64  92 117 156 206 249 298 368
#
# _framework density 20.686744999999998
#
# number of rings (size 3 to 8) (size 9 to 14) (size 15 to 20)
#    0.000    2.000    2.727    1.909    6.364    0.000 
#    0.000    2.727    0.000    2.182    0.000    0.000 
#    0.000    0.000    0.000    0.000    0.000    0.000 
#
# Total GULP energy -272825.783161 kJ/mol
# GULP energy per Si atom -12401.171962 kJ/mol
# Density = 2.063966 g / cm^3
# Si number density = 20.686745 Si / 1000 Ang^3
#
#
#
# Elastic Constant Matrix: (Units=GPa)
#
#
# Indices 1 2 3 4 5 6 
#
# 1 74.6618 26.8595 23.0977 0.0362 19.4157 0.0081
# 2 26.8595 111.7941 26.7576 0.0585 11.5743 -0.0173
# 3 23.0977 26.7576 83.8541 0.0678 5.3174 0.0094
# 4 0.0362 0.0585 0.0678 27.8569 -0.0508 12.6721
# 5 19.4157 11.5743 5.3174 -0.0508 29.1565 -0.0086
# 6 0.0081 -0.0173 0.0094 12.6721 -0.0086 20.2765
#
#
#
# Elastic Compliance Matrix: (Units=1/GPa)
#
#
# Indices 1 2 3 4 5 6 
#
# 1 0.018071 -0.002413 -0.003546 -0.000033 -0.010429 0.000008
# 2 -0.002413 0.010335 -0.002504 -0.000029 -0.002039 0.000028
# 3 -0.003546 -0.002504 0.013646 -0.000026 0.000867 0.000010
# 4 -0.000033 -0.000029 -0.000026 0.050158 0.000116 -0.031347
# 5 -0.010429 -0.002039 0.000867 0.000116 0.041894 -0.000053
# 6 0.000008 0.000028 0.000010 -0.031347 -0.000053 0.068909
#
#
# Mechanical properties :
#
#
# Convention : Reuss Voigt Hill
#
# Bulk Modulus (GPa) = 39.79950 47.08216 43.44083
# Shear Modulus (GPa) = 21.89954 28.36434 25.13194
#
# Velocity S-wave (km/s) = 3.25718 3.70690 3.48930
# Velocity P-wave (km/s) = 5.78157 6.41331 6.10561
#
# Compressibility (1/GPa) = 0.02512594
#
# Stress axis : x y z
#
# Youngs Moduli (GPa) = 55.33709 96.75632 73.27967
#
# Poissons Ratio (x) = 0.23349 0.25987
# Poissons Ratio (y) = 0.13354 0.18349
# Poissons Ratio (z) = 0.19624 0.24227
#
# Static dielectric constant tensor:
#      x y z
#    x 3.487920 0.000000 0.094320 
#    y 0.000000 3.578690 0.000010 
#    z 0.094320 0.000010 3.875130 
# 
# 
# High freq. dielectric constant tensor:
#      x y z
#    x 1.794050 0.000000 0.004820 
#    y 0.000000 1.794160 0.000000 
#    z 0.004820 0.000000 1.819830 
# 
# From -- ./inp_files/195677.got.cif
#   From: 2010.06.25/outbox.cif.g09.slc.cpg/sg12_98_cif.got.tgz:195677.got - 2010.06.28 00:19:55.
