data_PCOD8115054
_publ_section_title
;
Structure prediction by ZEFSAII (Michael W. Deem and Ramdas Pophale) SiO2 
 PCOD8115054
Probable space group: C 2/M
;
_chemical_formula_sum "Si O2"
_cell_formula_units_Z 48
_cell_length_a 7.853141
_cell_length_b 16.078214
_cell_length_c 17.101459
_cell_angle_alpha 90.000000
_cell_angle_beta 94.517567
_cell_angle_gamma 90.000000
_cell_volume 2152.598387
_symmetry_space_group_name_H-M "C 2/M"
_symmetry_group_IT_number 12
_symmetry_cell_setting 'monoclinic'
loop_
_space_group_symop_operation_xyz
x,y,z
-x,y,-z
-x,-y,-z
x,-y,z
1/2+x,1/2+y,z
1/2-x,1/2+y,-z
1/2-x,1/2-y,-z
1/2+x,1/2-y,z
loop_
_atom_site_type_symbol
_atom_site_label
_atom_site_fract_x
_atom_site_fract_y
_atom_site_fract_z
Si Si1 0.498322 0.347604 0.090106
Si Si2 0.262926 0.500000 0.550173
Si Si3 0.691824 0.908205 0.806084
Si Si4 0.638340 0.175002 0.151583
Si Si5 0.856389 0.000000 0.387000
Si Si6 0.264105 0.170099 0.669765
Si Si7 0.134528 0.656810 0.639812
O O1 0.632891 0.406677 0.138859
O O2 0.567990 0.254828 0.103908
O O3 0.304152 0.361381 0.113135
O O4 0.500000 0.372091 0.000000
O O5 0.223265 0.500000 0.455524
O O6 0.461032 0.500000 0.569616
O O7 0.196945 0.586724 0.582918
O O8 0.524205 0.886423 0.851945
O O9 0.710499 0.852541 0.729813
O O10 0.661135 0.000000 0.773002
O O11 0.700320 0.198404 0.240446
O O12 0.842910 0.916020 0.334231
O O13 0.178361 0.247067 0.619576
O O14 0.433533 0.146841 0.630243
#
# Coordination Sequence:
#
# PCOD8115054 Si02
#       7
#     8   4   8   8   4   8   8
#     4  12  24  42  70  98 133 180 229 279 345 402
#     4  11  25  45  67  97 143 179 209 277 340 386
#     4  11  25  42  64 102 135 175 230 280 338 402
#     4  11  23  40  68  98 129 178 228 281 332 402
#     4  11  27  43  67 105 134 172 224 272 336 400
#     4  11  23  41  68 101 129 173 232 271 329 404
#     4  11  22  41  69  96 133 179 221 276 333 396
#
# _framework density 22.298632999999999
#
# number of rings (size 3 to 8) (size 9 to 14) (size 15 to 20)
#    0.000    0.833    4.167    3.000    5.833    3.000 
#    0.000    0.833    0.000    0.000    0.000    0.000 
#    0.000    0.000    0.000    0.000    0.000    0.000 
#
# Total GULP energy -297463.406396 kJ/mol
# GULP energy per Si atom -12394.308600 kJ/mol
# Density = 2.224788 g / cm^3
# Si number density = 22.298633 Si / 1000 Ang^3
#
#
#
# Elastic Constant Matrix: (Units=GPa)
#
#
# Indices 1 2 3 4 5 6 
#
# 1 69.8318 -8.2886 15.6495 0.0000 -16.0395 0.0000
# 2 -8.2886 123.5245 -1.4105 0.0000 -1.5102 0.0000
# 3 15.6495 -1.4105 45.0758 0.0000 -10.8841 0.0000
# 4 0.0000 0.0000 0.0000 28.0165 0.0000 -4.2860
# 5 -16.0395 -1.5102 -10.8841 0.0000 34.2173 0.0000
# 6 0.0000 0.0000 0.0000 -4.2860 0.0000 29.5797
#
#
#
# Elastic Compliance Matrix: (Units=1/GPa)
#
#
# Indices 1 2 3 4 5 6 
#
# 1 0.016934 0.001169 -0.004239 0.000000 0.006641 0.000000
# 2 0.001169 0.008186 0.000076 0.000000 0.000933 0.000000
# 3 -0.004239 0.000076 0.025108 0.000000 0.006003 0.000000
# 4 0.000000 0.000000 0.000000 0.036502 0.000000 0.005289
# 5 0.006641 0.000933 0.006003 0.000000 0.034289 0.000000
# 6 0.000000 0.000000 0.000000 0.005289 0.000000 0.034573
#
#
# Mechanical properties :
#
#
# Convention : Reuss Voigt Hill
#
# Bulk Modulus (GPa) = 22.60382 27.81477 25.20930
# Shear Modulus (GPa) = 28.35609 33.86146 31.10878
#
# Velocity S-wave (km/s) = 3.56989 3.90108 3.73915
# Velocity P-wave (km/s) = 5.21067 5.72643 5.47463
#
# Compressibility (1/GPa) = 0.04424030
#
# Stress axis : x y z
#
# Youngs Moduli (GPa) = 59.05183 122.15558 39.82723
#
# Poissons Ratio (x) = -0.14281 0.16883
# Poissons Ratio (y) = -0.06904 -0.00301
# Poissons Ratio (z) = 0.25033 -0.00924
#
# Static dielectric constant tensor:
#      x y z
#    x 4.375130 0.000000 -0.104990 
#    y 0.000000 -40.385100 0.000000 
#    z -0.104990 0.000000 3.824980 
# 
# 
# High freq. dielectric constant tensor:
#      x y z
#    x 1.893830 0.000000 0.000370 
#    y 0.000000 1.882930 0.000000 
#    z 0.000370 0.000000 1.861070 
# 
# From -- ./inp_files/196024.got.cif
#   From: 2010.06.25/outbox.cif.g09.slc.cpg/sg12_99_cif.got.tgz:196024.got - 2010.06.28 00:19:55.
