data_PCOD8115422
_publ_section_title
;
Structure prediction by ZEFSAII (Michael W. Deem and Ramdas Pophale) SiO2 
 PCOD8115422
Probable space group: C 2/M
;
_chemical_formula_sum "Si O2"
_cell_formula_units_Z 40
_cell_length_a 13.211977
_cell_length_b 18.011909
_cell_length_c 12.206845
_cell_angle_alpha 90.000000
_cell_angle_beta 36.106249
_cell_angle_gamma 90.000000
_cell_volume 1711.811678
_symmetry_space_group_name_H-M "C 2/M"
_symmetry_group_IT_number 12
_symmetry_cell_setting 'monoclinic'
loop_
_space_group_symop_operation_xyz
x,y,z
-x,y,-z
-x,-y,-z
x,-y,z
1/2+x,1/2+y,z
1/2-x,1/2+y,-z
1/2-x,1/2-y,-z
1/2+x,1/2-y,z
loop_
_atom_site_type_symbol
_atom_site_label
_atom_site_fract_x
_atom_site_fract_y
_atom_site_fract_z
Si Si1 0.251338 0.500000 0.632520
Si Si2 0.288143 0.637479 0.990038
Si Si3 0.360941 0.285712 0.306046
Si Si4 0.456616 0.139982 0.156189
Si Si5 0.702107 0.914619 0.307921
Si Si6 0.617792 0.500000 0.235167
O O1 0.146464 0.574267 0.692836
O O2 0.412727 0.500000 0.411160
O O3 0.309968 0.500000 0.706021
O O4 0.441886 0.695259 0.834747
O O5 0.310686 0.569531 0.889628
O O6 0.272060 0.612477 0.129826
O O7 0.107582 0.669054 0.104388
O O8 0.250000 0.250000 0.500000
O O9 0.353247 0.217297 0.225516
O O10 0.283288 0.361709 0.328314
O O11 0.500000 0.106373 0.000000
O O12 0.500000 0.907769 0.500000
O O13 0.761348 0.000000 0.274858
#
# Coordination Sequence:
#
# PCOD8115422 Si02
#       6
#     4   8   8   8   8   4
#     4  11  24  45  68 106 148 200 255 305 368 442
#     4  12  24  46  75 108 144 200 248 306 386 440
#     4  12  28  48  70 108 145 192 248 311 382 451
#     4  12  24  44  70 103 144 192 247 306 367 445
#     4  11  26  49  77 109 149 195 253 315 375 451
#     4  11  23  42  71 105 144 197 254 311 364 449
#
# _framework density 23.367058
#
# number of rings (size 3 to 8) (size 9 to 14) (size 15 to 20)
#    0.000    0.400    3.000    5.700    1.400    2.400 
#    5.400    0.000    0.000    0.000    0.000    0.000 
#    0.000    0.000    0.000    0.000    0.000    0.000 
#
# Total GULP energy -247886.601743 kJ/mol
# GULP energy per Si atom -12394.330087 kJ/mol
# Density = 2.331387 g / cm^3
# Si number density = 23.367058 Si / 1000 Ang^3
#
#
#
# Elastic Constant Matrix: (Units=GPa)
#
#
# Indices 1 2 3 4 5 6 
#
# 1 92.9096 37.5004 31.2711 0.0066 -4.5371 0.0016
# 2 37.5004 166.2294 37.7114 0.0074 -11.0213 0.0059
# 3 31.2711 37.7114 114.9973 0.0309 -3.0444 -0.0177
# 4 0.0066 0.0074 0.0309 -3.0044 -0.0221 -42.6283
# 5 -4.5371 -11.0213 -3.0444 -0.0221 40.8853 0.0029
# 6 0.0016 0.0059 -0.0177 -42.6283 0.0029 -0.1052
#
#
#
# Elastic Compliance Matrix: (Units=1/GPa)
#
#
# Indices 1 2 3 4 5 6 
#
# 1 0.012580 -0.002188 -0.002687 0.000001 0.000606 -0.000001
# 2 -0.002188 0.006986 -0.001656 0.000002 0.001517 -0.000001
# 3 -0.002687 -0.001656 0.009969 -0.000004 -0.000002 0.000007
# 4 0.000001 0.000002 -0.000004 0.000058 0.000002 -0.023463
# 5 0.000606 0.001517 -0.000002 0.000002 0.024935 -0.000013
# 6 -0.000001 -0.000001 0.000007 -0.023463 -0.000013 0.001654
#
#
# Mechanical properties :
#
#
# Convention : Reuss Voigt Hill
#
# Bulk Modulus (GPa) = 60.70470 65.23355 62.96913
# Shear Modulus (GPa) = 66.90280 25.39869 46.15075
#
# Velocity S-wave (km/s) = 5.35662 3.30046 4.44896
# Velocity P-wave (km/s) = 8.01829 6.51932 7.30734
#
# Compressibility (1/GPa) = 0.01647319
#
# Stress axis : x y z
#
# Youngs Moduli (GPa) = 79.48830 143.15134 100.30599
#
# Poissons Ratio (x) = 0.31325 0.26956
# Poissons Ratio (y) = 0.17394 0.16607
# Poissons Ratio (z) = 0.21361 0.23700
#
# Static dielectric constant tensor:
#      x y z
#    x 4.025190 -0.000020 -0.065840 
#    y -0.000020 4.502230 0.000020 
#    z -0.065840 0.000020 4.582960 
# 
# 
# High freq. dielectric constant tensor:
#      x y z
#    x 1.908200 0.000000 0.000670 
#    y 0.000000 1.954270 0.000000 
#    z 0.000670 0.000000 1.944470 
# 
# From -- ./inp_files/216646.got.cif
#   From: 2010.06.25/outbox.cif.g09.slc.cpg/sg12_109_cif.got.tgz:216646.got - 2010.06.28 00:19:55.
