data_PCOD8115265
_publ_section_title
;
Structure prediction by ZEFSAII (Michael W. Deem and Ramdas Pophale) SiO2 
 PCOD8115265
Probable space group: C 2/M
;
_chemical_formula_sum "Si O2"
_cell_formula_units_Z 56
_cell_length_a 18.809947
_cell_length_b 21.007550
_cell_length_c 16.393422
_cell_angle_alpha 90.000000
_cell_angle_beta 156.311552
_cell_angle_gamma 90.000000
_cell_volume 2602.571677
_symmetry_space_group_name_H-M "C 2/M"
_symmetry_group_IT_number 12
_symmetry_cell_setting 'monoclinic'
loop_
_space_group_symop_operation_xyz
x,y,z
-x,y,-z
-x,-y,-z
x,-y,z
1/2+x,1/2+y,z
1/2-x,1/2+y,-z
1/2-x,1/2-y,-z
1/2+x,1/2-y,z
loop_
_atom_site_type_symbol
_atom_site_label
_atom_site_fract_x
_atom_site_fract_y
_atom_site_fract_z
Si Si1 0.167373 0.928340 0.493063
Si Si2 0.804783 0.299349 0.325664
Si Si3 0.861699 0.205780 0.015634
Si Si4 0.710968 0.426931 0.823381
Si Si5 0.703015 0.842322 0.235376
Si Si6 0.731726 0.653511 0.418381
Si Si7 0.392107 0.164662 0.120417
O O1 0.291668 0.879511 0.673181
O O2 0.185693 0.913326 0.415144
O O3 0.967322 0.918904 0.312662
O O4 0.231842 0.000000 0.576255
O O5 0.661551 0.310545 0.103875
O O6 0.796131 0.225936 0.346492
O O7 0.761900 0.349779 0.352638
O O8 0.000000 0.314525 0.500000
O O9 0.728098 0.161023 0.925041
O O10 0.813972 0.279895 0.979784
O O11 0.062999 0.198235 0.256568
O O12 0.748969 0.500000 0.839547
O O13 0.696531 0.385808 0.725679
O O14 0.870735 0.401431 0.048599
O O15 0.500000 0.830791 0.000000
O O16 0.908226 0.680970 0.645144
#
# Coordination Sequence:
#
# PCOD8115265 Si02
#       7
#     8   8   8   8   8   8   8
#     4  11  26  44  65  94 131 176 229 275 327 391
#     4  12  25  42  65  99 135 172 218 274 334 400
#     4  11  23  42  61  96 135 166 215 273 331 387
#     4  11  23  44  67  94 134 180 220 269 326 397
#     4  12  25  40  63  98 137 178 218 267 332 402
#     4  12  25  41  69  93 131 174 221 269 333 385
#     4  11  23  39  65  97 129 174 214 271 324 389
#
# _framework density 21.517178999999999
#
# number of rings (size 3 to 8) (size 9 to 14) (size 15 to 20)
#    0.000    0.571    4.286    4.286    4.000    4.000 
#    0.000    0.000    0.000    3.000    0.000    0.000 
#    0.000    0.000    0.000    0.000    0.000    0.000 
#
# Total GULP energy -347182.445771 kJ/mol
# GULP energy per Si atom -12399.373063 kJ/mol
# Density = 2.146821 g / cm^3
# Si number density = 21.517179 Si / 1000 Ang^3
#
#
#
# Elastic Constant Matrix: (Units=GPa)
#
#
# Indices 1 2 3 4 5 6 
#
# 1 142.4658 42.0798 35.4293 0.0000 -3.7811 0.0000
# 2 42.0798 50.7076 18.0476 0.0000 -3.4395 0.0000
# 3 35.4293 18.0476 107.9836 0.0000 -0.7244 0.0000
# 4 0.0000 0.0000 0.0000 24.6587 0.0000 -2.8027
# 5 -3.7811 -3.4395 -0.7244 0.0000 40.9027 0.0000
# 6 0.0000 0.0000 0.0000 -2.8027 0.0000 32.2946
#
#
#
# Elastic Compliance Matrix: (Units=1/GPa)
#
#
# Indices 1 2 3 4 5 6 
#
# 1 0.009671 -0.007315 -0.001949 0.000000 0.000244 0.000000
# 2 -0.007315 0.026621 -0.002039 0.000000 0.001526 0.000000
# 3 -0.001949 -0.002039 0.010240 0.000000 -0.000170 0.000000
# 4 0.000000 0.000000 0.000000 0.040958 0.000000 0.003554
# 5 0.000244 0.001526 -0.000170 0.000000 0.024596 0.000000
# 6 0.000000 0.000000 0.000000 0.003554 0.000000 0.031273
#
#
# Mechanical properties :
#
#
# Convention : Reuss Voigt Hill
#
# Bulk Modulus (GPa) = 41.79628 54.69669 48.24648
# Shear Modulus (GPa) = 28.74556 33.27788 31.01172
#
# Velocity S-wave (km/s) = 3.65901 3.93692 3.80050
# Velocity P-wave (km/s) = 6.10884 6.79271 6.45983
#
# Compressibility (1/GPa) = 0.02392558
#
# Stress axis : x y z
#
# Youngs Moduli (GPa) = 103.40107 37.56466 97.65944
#
# Poissons Ratio (x) = 0.27480 0.19032
# Poissons Ratio (y) = 0.75642 0.19911
# Poissons Ratio (z) = 0.20151 0.07659
#
# Static dielectric constant tensor:
#      x y z
#    x 4.239920 0.000000 0.013120 
#    y 0.000000 3.612880 0.000000 
#    z 0.013120 0.000000 3.890880 
# 
# 
# High freq. dielectric constant tensor:
#      x y z
#    x 1.862120 0.000000 0.010880 
#    y 0.000000 1.802000 0.000000 
#    z 0.010880 0.000000 1.855730 
# 
# From -- ./inp_files/286090.got.cif
#   From: 2010.06.25/outbox.cif.g09.slc.cpg/sg12_144_cif.got.tgz:286090.got - 2010.06.28 00:19:55.
