data_PCOD8115826
_publ_section_title
;
Structure prediction by ZEFSAII (Michael W. Deem and Ramdas Pophale) SiO2 
 PCOD8115826
Probable space group: C 2/M
;
_chemical_formula_sum "Si O2"
_cell_formula_units_Z 36
_cell_length_a 9.252657
_cell_length_b 21.519253
_cell_length_c 9.311139
_cell_angle_alpha 90.000000
_cell_angle_beta 117.833992
_cell_angle_gamma 90.000000
_cell_volume 1639.449771
_symmetry_space_group_name_H-M "C 2/M"
_symmetry_group_IT_number 12
_symmetry_cell_setting 'monoclinic'
loop_
_space_group_symop_operation_xyz
x,y,z
-x,y,-z
-x,-y,-z
x,-y,z
1/2+x,1/2+y,z
1/2-x,1/2+y,-z
1/2-x,1/2-y,-z
1/2+x,1/2-y,z
loop_
_atom_site_type_symbol
_atom_site_label
_atom_site_fract_x
_atom_site_fract_y
_atom_site_fract_z
Si Si1 0.566243 0.431654 0.261289
Si Si2 0.740704 0.762159 0.328405
Si Si3 0.754387 0.570480 0.062346
Si Si4 0.500000 0.356612 0.500000
Si Si5 0.873247 0.701750 0.134679
O O1 0.616523 0.500000 0.332342
O O2 0.679175 0.411531 0.181594
O O3 0.594737 0.392854 0.418654
O O4 0.379500 0.429832 0.124027
O O5 0.750000 0.750000 0.500000
O O6 0.817423 0.704336 0.275947
O O7 0.557310 0.775685 0.191304
O O8 0.861433 0.819018 0.350107
O O9 0.834868 0.500000 0.103264
O O10 0.871483 0.629351 0.081891
O O11 0.750000 0.750000 0.000000
#
# Coordination Sequence:
#
# PCOD8115826 Si02
#       5
#     8   8   8   4   8
#     4   9  19  35  61  91 120 165 208 255 311 377
#     4  12  25  41  60  93 130 169 203 267 324 373
#     4   9  20  39  63  89 123 164 214 261 310 375
#     4  12  21  38  62  84 131 162 208 256 320 380
#     4  12  25  41  66  96 128 167 217 264 318 377
#
# _framework density 21.958587000000001
#
# number of rings (size 3 to 8) (size 9 to 14) (size 15 to 20)
#    0.000    1.333    2.222    5.000    6.222    0.000 
#    0.000    2.222    0.000   10.667    0.000    0.000 
#    0.000    0.000    0.000    0.000    0.000    0.000 
#
# Total GULP energy -222989.026160 kJ/mol
# GULP energy per Si atom -12388.279231 kJ/mol
# Density = 2.190861 g / cm^3
# Si number density = 21.958587 Si / 1000 Ang^3
#
#
#
# Elastic Constant Matrix: (Units=GPa)
#
#
# Indices 1 2 3 4 5 6 
#
# 1 76.8004 23.9482 4.5302 0.0000 23.1857 0.0000
# 2 23.9482 134.1413 24.7879 0.0000 10.7561 0.0000
# 3 4.5302 24.7879 63.5434 0.0000 2.5498 0.0000
# 4 0.0000 0.0000 0.0000 34.3903 0.0000 -6.7603
# 5 23.1857 10.7561 2.5498 0.0000 38.6105 0.0000
# 6 0.0000 0.0000 0.0000 -6.7603 0.0000 22.3014
#
#
#
# Elastic Compliance Matrix: (Units=1/GPa)
#
#
# Indices 1 2 3 4 5 6 
#
# 1 0.016517 -0.002214 0.000059 0.000000 -0.009306 0.000000
# 2 -0.002214 0.008494 -0.003122 0.000000 -0.000831 0.000000
# 3 0.000059 -0.003122 0.016962 0.000000 -0.000286 0.000000
# 4 0.000000 0.000000 0.000000 0.030921 0.000000 0.009373
# 5 -0.009306 -0.000831 -0.000286 0.000000 0.031738 0.000000
# 6 0.000000 0.000000 0.000000 0.009373 0.000000 0.047682
#
#
# Mechanical properties :
#
#
# Convention : Reuss Voigt Hill
#
# Bulk Modulus (GPa) = 31.82668 42.33531 37.08100
# Shear Modulus (GPa) = 28.84520 33.80835 31.32678
#
# Velocity S-wave (km/s) = 3.62832 3.92808 3.78117
# Velocity P-wave (km/s) = 5.66378 6.31622 5.99887
#
# Compressibility (1/GPa) = 0.03142018
#
# Stress axis : x y z
#
# Youngs Moduli (GPa) = 60.54425 117.73621 58.95377
#
# Poissons Ratio (x) = 0.26061 -0.00350
# Poissons Ratio (y) = 0.13402 0.18406
# Poissons Ratio (z) = -0.00359 0.36759
#
# Static dielectric constant tensor:
#      x y z
#    x 4.018110 0.000000 -0.082490 
#    y 0.000000 4.435860 0.000000 
#    z -0.082490 0.000000 3.996500 
# 
# 
# High freq. dielectric constant tensor:
#      x y z
#    x 1.843340 0.000000 -0.020150 
#    y 0.000000 1.873380 0.000000 
#    z -0.020150 0.000000 1.864710 
# 
# From -- ./inp_files/39055.got.cif
#   From: 2010.06.25/outbox.cif.g09.slc.cpg/sg12_20_cif.got.tgz:39055.got - 2010.06.28 00:19:55.
