data_PCOD8115310
_publ_section_title
;
Structure prediction by ZEFSAII (Michael W. Deem and Ramdas Pophale) SiO2 
 PCOD8115310
Probable space group: C 2/M
;
_chemical_formula_sum "Si O2"
_cell_formula_units_Z 36
_cell_length_a 17.465355
_cell_length_b 14.063086
_cell_length_c 17.476824
_cell_angle_alpha 90.000000
_cell_angle_beta 157.028727
_cell_angle_gamma 90.000000
_cell_volume 1675.271642
_symmetry_space_group_name_H-M "C 2/M"
_symmetry_group_IT_number 12
_symmetry_cell_setting 'monoclinic'
loop_
_space_group_symop_operation_xyz
x,y,z
-x,y,-z
-x,-y,-z
x,-y,z
1/2+x,1/2+y,z
1/2-x,1/2+y,-z
1/2-x,1/2-y,-z
1/2+x,1/2-y,z
loop_
_atom_site_type_symbol
_atom_site_label
_atom_site_fract_x
_atom_site_fract_y
_atom_site_fract_z
Si Si1 0.520876 0.000000 0.755591
Si Si2 0.708810 0.500000 0.587999
Si Si3 0.420258 0.203407 0.604414
Si Si4 0.711929 0.801453 0.102908
Si Si5 0.229561 0.296377 0.294742
Si Si6 0.179909 0.000000 0.850481
O O1 0.451188 0.091651 0.644559
O O2 0.422570 0.000000 0.748128
O O3 0.751078 0.000000 0.995437
O O4 0.688952 0.404260 0.619832
O O5 0.556433 0.500000 0.375896
O O6 0.250000 0.250000 0.500000
O O7 0.634633 0.251189 0.814080
O O8 0.364731 0.222966 0.465369
O O9 0.744256 0.768612 0.219919
O O10 0.736098 0.913122 0.120084
O O11 0.489160 0.780039 0.872926
#
# Coordination Sequence:
#
# PCOD8115310 Si02
#       6
#     4   4   8   8   8   4
#     4  12  26  42  60  98 134 170 211 262 326 387
#     4  12  21  39  63 101 128 164 210 271 329 379
#     4  12  24  43  65  92 133 174 217 262 320 395
#     4  11  23  40  67  96 131 170 213 274 323 385
#     4  11  23  41  65  98 130 169 219 266 329 381
#     4  12  21  37  65  97 130 166 205 272 331 379
#
# _framework density 21.489052000000001
#
# number of rings (size 3 to 8) (size 9 to 14) (size 15 to 20)
#    0.000    0.444    6.667    1.333    0.000    8.000 
#    0.000    2.222    0.000    2.667    0.000    0.000 
#    0.000    0.000    0.000    0.000    0.000    0.000 
#
# Total GULP energy -223100.292428 kJ/mol
# GULP energy per Si atom -12394.460690 kJ/mol
# Density = 2.144014 g / cm^3
# Si number density = 21.489052 Si / 1000 Ang^3
#
#
#
# Elastic Constant Matrix: (Units=GPa)
#
#
# Indices 1 2 3 4 5 6 
#
# 1 42.4968 32.6844 27.3894 0.0109 20.3704 0.0060
# 2 32.6844 121.0372 48.1842 0.0357 2.7715 0.0308
# 3 27.3894 48.1842 133.1859 0.0461 6.9537 0.0360
# 4 0.0109 0.0357 0.0461 27.4057 0.0209 -2.3098
# 5 20.3704 2.7715 6.9537 0.0209 44.6319 0.0072
# 6 0.0060 0.0308 0.0360 -2.3098 0.0072 16.4315
#
#
#
# Elastic Compliance Matrix: (Units=1/GPa)
#
#
# Indices 1 2 3 4 5 6 
#
# 1 0.042014 -0.009192 -0.004379 0.000018 -0.017922 0.000022
# 2 -0.009192 0.011663 -0.002531 -0.000012 0.003865 -0.000016
# 3 -0.004379 -0.002531 0.009288 -0.000012 0.000709 -0.000016
# 4 0.000018 -0.000012 -0.000012 0.036926 -0.000024 0.005191
# 5 -0.017922 0.003865 0.000709 -0.000024 0.030235 -0.000019
# 6 0.000022 -0.000016 -0.000016 0.005191 -0.000019 0.061588
#
#
# Mechanical properties :
#
#
# Convention : Reuss Voigt Hill
#
# Bulk Modulus (GPa) = 32.50863 57.02620 44.76742
# Shear Modulus (GPa) = 21.35195 30.25796 25.80496
#
# Velocity S-wave (km/s) = 3.15559 3.75649 3.46908
# Velocity P-wave (km/s) = 5.33272 6.73869 6.07650
#
# Compressibility (1/GPa) = 0.03076106
#
# Stress axis : x y z
#
# Youngs Moduli (GPa) = 23.80181 85.74060 107.67145
#
# Poissons Ratio (x) = 0.78809 0.47149
# Poissons Ratio (y) = 0.21878 0.27252
# Poissons Ratio (z) = 0.10423 0.21701
#
# Static dielectric constant tensor:
#      x y z
#    x 3.639960 -0.000030 0.146310 
#    y -0.000030 3.707160 -0.000080 
#    z 0.146310 -0.000080 4.517250 
# 
# 
# High freq. dielectric constant tensor:
#      x y z
#    x 1.820410 0.000000 0.004880 
#    y 0.000000 1.818190 -0.000010 
#    z 0.004880 -0.000010 1.880290 
# 
# From -- ./inp_files/321484.got.cif
#   From: 2010.06.25/outbox.cif.g09.slc.cpg/sg12_161_cif.got.tgz:321484.got - 2010.06.28 00:19:55.
