data_PCOD8115490
_publ_section_title
;
Structure prediction by ZEFSAII (Michael W. Deem and Ramdas Pophale) SiO2 
 PCOD8115490
Probable space group: C 2/M
;
_chemical_formula_sum "Si O2"
_cell_formula_units_Z 48
_cell_length_a 19.152012
_cell_length_b 14.079012
_cell_length_c 18.763221
_cell_angle_alpha 90.000000
_cell_angle_beta 152.007561
_cell_angle_gamma 90.000000
_cell_volume 2374.627347
_symmetry_space_group_name_H-M "C 2/M"
_symmetry_group_IT_number 12
_symmetry_cell_setting 'monoclinic'
loop_
_space_group_symop_operation_xyz
x,y,z
-x,y,-z
-x,-y,-z
x,-y,z
1/2+x,1/2+y,z
1/2-x,1/2+y,-z
1/2-x,1/2-y,-z
1/2+x,1/2-y,z
loop_
_atom_site_type_symbol
_atom_site_label
_atom_site_fract_x
_atom_site_fract_y
_atom_site_fract_z
Si Si1 0.027703 0.000000 0.314329
Si Si2 0.937274 0.188518 0.871187
Si Si3 0.579880 0.500000 0.944749
Si Si4 0.881597 0.500000 0.645897
Si Si5 0.365600 0.192035 0.333613
Si Si6 0.594612 0.000000 0.711491
Si Si7 0.457128 0.818429 0.157712
Si Si8 0.859077 0.185084 0.191370
O O1 0.982436 0.000000 0.190882
O O2 0.962396 0.907011 0.294237
O O3 0.204338 0.000000 0.481553
O O4 0.763488 0.172025 0.725736
O O5 0.959061 0.253967 0.823250
O O6 0.025605 0.091004 0.939073
O O7 0.000000 0.236300 0.000000
O O8 0.759631 0.500000 0.105972
O O9 0.947064 0.500000 0.625808
O O10 0.938863 0.408967 0.740218
O O11 0.500000 0.236019 0.500000
O O12 0.320399 0.267937 0.232336
O O13 0.412307 0.092066 0.343200
O O14 0.445101 0.762792 0.221434
O O15 0.293060 0.847666 0.983620
#
# Coordination Sequence:
#
# PCOD8115490 Si02
#       8
#     4   8   4   4   8   4   8   8
#     4  12  28  42  68 102 136 177 228 278 336 389
#     4  12  23  42  68 105 133 176 224 273 340 399
#     4  12  22  41  70 100 140 173 220 282 326 415
#     4  12  28  42  68 103 136 175 228 280 331 398
#     4  12  27  41  68 101 146 175 215 280 345 401
#     4  12  22  44  66 101 140 177 220 272 341 404
#     4  11  23  44  74  95 134 175 234 275 321 405
#     4  11  23  46  70  98 130 184 226 273 330 402
#
# _framework density 20.213697
#
# number of rings (size 3 to 8) (size 9 to 14) (size 15 to 20)
#    0.000    0.333    6.667    2.500    4.667    0.667 
#    0.000    1.667    0.000    0.000    0.000    0.000 
#    0.000    0.000    0.000    0.000    0.000    0.000 
#
# Total GULP energy -297729.781964 kJ/mol
# GULP energy per Si atom -12405.407582 kJ/mol
# Density = 2.016769 g / cm^3
# Si number density = 20.213697 Si / 1000 Ang^3
#
#
#
# Elastic Constant Matrix: (Units=GPa)
#
#
# Indices 1 2 3 4 5 6 
#
# 1 96.9386 40.8219 16.3859 -0.0026 10.6239 -0.0012
# 2 40.8219 112.2819 42.0874 -0.0015 12.2579 -0.0006
# 3 16.3859 42.0874 88.1773 -0.0105 8.1013 -0.0063
# 4 -0.0026 -0.0015 -0.0105 -229.4452 -0.0033 -167.2589
# 5 10.6239 12.2579 8.1013 -0.0033 36.1952 -0.0018
# 6 -0.0012 -0.0006 -0.0063 -167.2589 -0.0018 -81.0109
#
#
#
# Elastic Compliance Matrix: (Units=1/GPa)
#
#
# Indices 1 2 3 4 5 6 
#
# 1 0.012345 -0.004221 -0.000079 0.000000 -0.002176 0.000000
# 2 -0.004221 0.012529 -0.005023 0.000000 -0.001880 0.000000
# 3 -0.000079 -0.005023 0.013880 0.000000 -0.001382 0.000000
# 4 0.000000 0.000000 0.000000 0.008629 0.000000 -0.017816
# 5 -0.002176 -0.001880 -0.001382 0.000000 0.029213 0.000000
# 6 0.000000 0.000000 0.000000 -0.017816 0.000000 0.024440
#
#
# Mechanical properties :
#
#
# Convention : Reuss Voigt Hill
#
# Bulk Modulus (GPa) = 49.73321 55.10979 52.42150
# Shear Modulus (GPa) = 39.56151 -41.64533 -1.04191
#
# Velocity S-wave (km/s) = 4.42878 -4.54393 -0.71872
# Velocity P-wave (km/s) = 7.12806 0.45486 5.03003
#
# Compressibility (1/GPa) = 0.02010729
#
# Stress axis : x y z
#
# Youngs Moduli (GPa) = 81.00296 79.81643 72.04599
#
# Poissons Ratio (x) = 0.33690 0.00573
# Poissons Ratio (y) = 0.34191 0.36188
# Poissons Ratio (z) = 0.00644 0.40091
#
# Static dielectric constant tensor:
#      x y z
#    x 3.772660 0.000000 0.087910 
#    y 0.000000 3.714370 0.000000 
#    z 0.087910 0.000000 3.685250 
# 
# 
# High freq. dielectric constant tensor:
#      x y z
#    x 1.797960 0.000000 0.006510 
#    y 0.000000 1.786380 0.000000 
#    z 0.006510 0.000000 1.792740 
# 
# From -- ./inp_files/278304.got.cif
#   From: 2010.06.25/outbox.cif.g09.slc.cpg/sg12_140_cif.got.tgz:278304.got - 2010.06.28 00:19:55.
