data_PCOD8115802
_publ_section_title
;
Structure prediction by ZEFSAII (Michael W. Deem and Ramdas Pophale) SiO2 
 PCOD8115802
Probable space group: C 2/M
;
_chemical_formula_sum "Si O2"
_cell_formula_units_Z 64
_cell_length_a 11.079817
_cell_length_b 14.296367
_cell_length_c 22.626934
_cell_angle_alpha 90.000000
_cell_angle_beta 67.945825
_cell_angle_gamma 90.000000
_cell_volume 3321.878252
_symmetry_space_group_name_H-M "C 2/M"
_symmetry_group_IT_number 12
_symmetry_cell_setting 'monoclinic'
loop_
_space_group_symop_operation_xyz
x,y,z
-x,y,-z
-x,-y,-z
x,-y,z
1/2+x,1/2+y,z
1/2-x,1/2+y,-z
1/2-x,1/2-y,-z
1/2+x,1/2-y,z
loop_
_atom_site_type_symbol
_atom_site_label
_atom_site_fract_x
_atom_site_fract_y
_atom_site_fract_z
Si Si1 0.136095 0.102895 0.245127
Si Si2 0.829447 0.103697 0.089028
Si Si3 0.865235 0.609893 0.363088
Si Si4 0.935665 0.394957 0.219590
Si Si5 0.594247 0.235667 0.536368
Si Si6 0.366391 0.395442 0.949584
Si Si7 0.575277 0.393456 0.387732
Si Si8 0.366029 0.249558 0.850757
O O1 0.289104 0.109051 0.225325
O O2 0.062589 0.118828 0.319896
O O3 0.090032 0.182750 0.209627
O O4 0.099371 0.000000 0.226639
O O5 0.756796 0.182533 0.141062
O O6 0.980294 0.113250 0.072567
O O7 0.782048 0.000000 0.116582
O O8 0.797942 0.119782 0.025381
O O9 0.869841 0.500000 0.375733
O O10 0.943019 0.631396 0.287980
O O11 0.931983 0.664494 0.404827
O O12 0.715418 0.643635 0.384221
O O13 0.990733 0.500000 0.199995
O O14 0.013901 0.322346 0.163632
O O15 0.500000 0.198810 0.500000
O O16 0.750000 0.250000 0.500000
O O17 0.541774 0.338157 0.561155
O O18 0.329967 0.500000 0.932504
O O19 0.323004 0.312959 0.914079
O O20 0.557016 0.500000 0.410072
#
# Coordination Sequence:
#
# PCOD8115802 Si02
#       8
#     8   8   8   8   8   8   8   8
#     4   9  19  34  52  76 104 134 170 212 256 311
#     4   9  19  34  48  66  98 138 174 206 253 317
#     4   9  19  38  58  76 107 149 181 213 265 327
#     4   9  19  34  52  75 104 136 169 207 260 321
#     4  12  23  36  57  90 114 138 182 233 267 310
#     4   9  19  34  48  66  98 137 173 211 254 308
#     4   9  19  38  59  76 105 150 186 209 257 334
#     4  12  18  28  52  81  99 124 169 222 266 299
#
# _framework density 19.266210000000001
#
# number of rings (size 3 to 8) (size 9 to 14) (size 15 to 20)
#    0.000    2.250    1.250    4.875    0.000    1.000 
#    0.000    0.000    0.000    0.000    0.000   10.500 
#    0.000    0.000    0.000    0.000    0.000    0.000 
#
# Total GULP energy -396556.411818 kJ/mol
# GULP energy per Si atom -12392.387869 kJ/mol
# Density = 1.922236 g / cm^3
# Si number density = 19.266210 Si / 1000 Ang^3
#
#
#
# Elastic Constant Matrix: (Units=GPa)
#
#
# Indices 1 2 3 4 5 6 
#
# 1 40.3906 19.8715 4.5909 0.0000 -1.2177 0.0000
# 2 19.8715 105.0353 25.0434 0.0000 0.0798 0.0000
# 3 4.5909 25.0434 27.2061 0.0000 -1.1477 0.0000
# 4 0.0000 0.0000 0.0000 32.1099 0.0000 -2.6604
# 5 -1.2177 0.0798 -1.1477 0.0000 28.5177 0.0000
# 6 0.0000 0.0000 0.0000 -2.6604 0.0000 20.3446
#
#
#
# Elastic Compliance Matrix: (Units=1/GPa)
#
#
# Indices 1 2 3 4 5 6 
#
# 1 0.027340 -0.005234 0.000255 0.000000 0.001192 0.000000
# 2 -0.005234 0.013207 -0.011304 0.000000 -0.000715 0.000000
# 3 0.000255 -0.011304 0.047200 0.000000 0.001942 0.000000
# 4 0.000000 0.000000 0.000000 0.031484 0.000000 0.004117
# 5 0.001192 -0.000715 0.001942 0.000000 0.035197 0.000000
# 6 0.000000 0.000000 0.000000 0.004117 0.000000 0.049691
#
#
# Mechanical properties :
#
#
# Convention : Reuss Voigt Hill
#
# Bulk Modulus (GPa) = 18.12207 30.18265 24.15236
# Shear Modulus (GPa) = 19.60173 24.40285 22.00229
#
# Velocity S-wave (km/s) = 3.19315 3.56281 3.38304
# Velocity P-wave (km/s) = 4.79808 5.71183 5.27478
#
# Compressibility (1/GPa) = 0.05518133
#
# Stress axis : x y z
#
# Youngs Moduli (GPa) = 36.57598 75.72028 21.18626
#
# Poissons Ratio (x) = 0.39633 -0.00540
# Poissons Ratio (y) = 0.19144 0.23948
# Poissons Ratio (z) = -0.00932 0.85591
#
# Static dielectric constant tensor:
#      x y z
#    x 3.239100 0.000000 0.109940 
#    y 0.000000 3.716300 0.000000 
#    z 0.109940 0.000000 3.677470 
# 
# 
# High freq. dielectric constant tensor:
#      x y z
#    x 1.720920 0.000000 -0.003780 
#    y 0.000000 1.762060 0.000000 
#    z -0.003780 0.000000 1.748040 
# 
# From -- ./inp_files/335282.got.cif
#   From: 2010.06.25/outbox.cif.g09.slc.cpg/sg12_168_cif.got.tgz:335282.got - 2010.06.28 00:19:55.
