data_PCOD8115601
_publ_section_title
;
Structure prediction by ZEFSAII (Michael W. Deem and Ramdas Pophale) SiO2 
 PCOD8115601
Probable space group: C 2/M
;
_chemical_formula_sum "Si O2"
_cell_formula_units_Z 40
_cell_length_a 11.707244
_cell_length_b 29.230812
_cell_length_c 9.147979
_cell_angle_alpha 90.000000
_cell_angle_beta 141.388486
_cell_angle_gamma 90.000000
_cell_volume 1953.578180
_symmetry_space_group_name_H-M "C 2/M"
_symmetry_group_IT_number 12
_symmetry_cell_setting 'monoclinic'
loop_
_space_group_symop_operation_xyz
x,y,z
-x,y,-z
-x,-y,-z
x,-y,z
1/2+x,1/2+y,z
1/2-x,1/2+y,-z
1/2-x,1/2-y,-z
1/2+x,1/2-y,z
loop_
_atom_site_type_symbol
_atom_site_label
_atom_site_fract_x
_atom_site_fract_y
_atom_site_fract_z
Si Si1 0.711077 0.297131 0.042124
Si Si2 0.500000 0.147150 0.162608
Si Si3 0.000000 0.552865 0.734160
Si Si4 0.788923 0.202869 0.619970
Si Si5 0.199884 0.947248 0.199885
O O1 0.500000 0.310333 0.818884
O O2 0.750000 0.250000 0.000000
O O3 0.821902 0.337040 0.073045
O O4 0.772769 0.293231 0.272769
O O5 0.499999 0.091759 0.141777
O O6 0.678098 0.162960 0.429242
O O7 0.500000 0.168813 0.000000
O O8 1.000000 0.500000 0.792136
O O9 0.818084 0.564119 0.460359
O O10 0.181917 0.564119 0.824192
O O11 0.750000 0.250000 0.500000
O O12 0.157500 0.000000 0.157502
O O13 0.000000 0.921569 0.000000
#
# Coordination Sequence:
#
# PCOD8115601 Si02
#       5
#     8   8   8   8   8
#     4  11  24  42  67  94 124 162 206 260 318 375
#     4  12  26  41  62  92 130 172 213 255 311 378
#     4   9  20  37  58  88 124 162 210 261 308 370
#     4  11  24  42  67  94 124 162 206 260 318 375
#     4   8  15  31  58  87 119 156 199 259 318 365
#
# _framework density 20.475249000000002
#
# number of rings (size 3 to 8) (size 9 to 14) (size 15 to 20)
#    0.000    1.800    2.000    3.000    5.600    4.400 
#    0.000    0.000    0.000    0.000    0.000    8.400 
#    0.000    0.000    0.000    0.000    0.000    0.000 
#
# Total GULP energy -247841.844138 kJ/mol
# GULP energy per Si atom -12392.092207 kJ/mol
# Density = 2.042865 g / cm^3
# Si number density = 20.475249 Si / 1000 Ang^3
#
#
#
# Elastic Constant Matrix: (Units=GPa)
#
#
# Indices 1 2 3 4 5 6 
#
# 1 122.0042 39.5407 78.3294 0.0000 -1.8453 0.0000
# 2 39.5407 130.3298 36.9085 0.0000 -8.7851 0.0000
# 3 78.3294 36.9085 123.2094 0.0000 5.8702 0.0000
# 4 0.0000 0.0000 0.0000 24.7405 0.0000 -4.6317
# 5 -1.8453 -8.7851 5.8702 0.0000 47.3141 0.0000
# 6 0.0000 0.0000 0.0000 -4.6317 0.0000 26.1283
#
#
#
# Elastic Compliance Matrix: (Units=1/GPa)
#
#
# Indices 1 2 3 4 5 6 
#
# 1 0.014354 -0.001820 -0.008642 0.000000 0.001294 0.000000
# 2 -0.001820 0.008784 -0.001558 0.000000 0.001753 0.000000
# 3 -0.008642 -0.001558 0.014191 0.000000 -0.002387 0.000000
# 4 0.000000 0.000000 0.000000 0.041807 0.000000 0.007411
# 5 0.001294 0.001753 -0.002387 0.000000 0.021808 0.000000
# 6 0.000000 0.000000 0.000000 0.007411 0.000000 0.039586
#
#
# Mechanical properties :
#
#
# Convention : Reuss Voigt Hill
#
# Bulk Modulus (GPa) = 75.24845 76.12229 75.68537
# Shear Modulus (GPa) = 29.58573 34.35423 31.96998
#
# Velocity S-wave (km/s) = 3.80537 4.10059 3.95574
# Velocity P-wave (km/s) = 7.49257 7.72517 7.60976
#
# Compressibility (1/GPa) = 0.01328931
#
# Stress axis : x y z
#
# Youngs Moduli (GPa) = 69.66541 113.83761 70.46876
#
# Poissons Ratio (x) = 0.20723 0.60899
# Poissons Ratio (y) = 0.12682 0.10977
# Poissons Ratio (z) = 0.60205 0.17733
#
# Static dielectric constant tensor:
#      x y z
#    x 4.020500 0.000000 0.409330 
#    y 0.000000 3.617580 0.000000 
#    z 0.409330 0.000000 4.143140 
# 
# 
# High freq. dielectric constant tensor:
#      x y z
#    x 1.796820 0.000000 0.015130 
#    y 0.000000 1.802350 0.000000 
#    z 0.015130 0.000000 1.801350 
# 
# From -- ./inp_files/53982.got.cif
#   From: 2010.06.25/outbox.cif.g09.slc.cpg/sg12_27_cif.got.tgz:53982.got - 2010.06.28 00:19:55.
