data_PCOD8115210
_publ_section_title
;
Structure prediction by ZEFSAII (Michael W. Deem and Ramdas Pophale) SiO2 
 PCOD8115210
Probable space group: C 2/M
;
_chemical_formula_sum "Si O2"
_cell_formula_units_Z 56
_cell_length_a 23.066476
_cell_length_b 17.861085
_cell_length_c 21.816104
_cell_angle_alpha 90.000000
_cell_angle_beta 18.940577
_cell_angle_gamma 90.000000
_cell_volume 2917.412784
_symmetry_space_group_name_H-M "C 2/M"
_symmetry_group_IT_number 12
_symmetry_cell_setting 'monoclinic'
loop_
_space_group_symop_operation_xyz
x,y,z
-x,y,-z
-x,-y,-z
x,-y,z
1/2+x,1/2+y,z
1/2-x,1/2+y,-z
1/2-x,1/2-y,-z
1/2+x,1/2-y,z
loop_
_atom_site_type_symbol
_atom_site_label
_atom_site_fract_x
_atom_site_fract_y
_atom_site_fract_z
Si Si1 0.203103 0.163377 0.553671
Si Si2 0.500115 0.202652 0.927869
Si Si3 0.795999 0.911941 0.204000
Si Si4 0.299644 0.816822 0.589976
Si Si5 0.297247 0.336618 0.959467
Si Si6 0.799251 0.683070 0.811175
Si Si7 0.499800 0.088227 0.823403
O O1 0.250000 0.250000 0.500000
O O2 0.230596 0.143222 0.597375
O O3 0.325379 0.112275 0.388885
O O4 0.000216 0.147920 0.736943
O O5 0.676986 0.247786 0.732540
O O6 0.499922 0.125523 0.890387
O O7 0.500000 0.184282 0.000000
O O8 0.323566 0.247979 0.085957
O O9 0.698363 0.881214 0.361327
O O10 0.698655 0.881417 0.241537
O O11 0.781968 0.000000 0.218165
O O12 0.000000 0.882946 0.000000
O O13 0.500238 0.785620 0.380322
O O14 0.250000 0.250000 0.000000
O O15 0.269688 0.356852 0.058204
O O16 0.175219 0.387735 0.038923
O O17 0.499890 0.000000 0.832940
#
# Coordination Sequence:
#
# PCOD8115210 Si02
#       7
#     8   8   8   8   8   8   8
#     4  12  21  40  71  99 128 170 217 270 327 398
#     4  12  24  43  68  96 127 169 231 277 325 379
#     4  11  23  39  57  88 137 174 210 266 328 389
#     4  12  21  37  66  96 127 170 220 265 320 396
#     4  12  21  40  71  99 128 170 217 270 327 398
#     4  12  21  37  66  96 127 170 220 265 320 396
#     4  12  28  45  66 101 138 172 223 283 341 389
#
# _framework density 19.19509
#
# number of rings (size 3 to 8) (size 9 to 14) (size 15 to 20)
#    0.000    0.143   10.000    0.429    0.000    3.143 
#    0.000    0.000    0.000    0.000    0.000    4.000 
#    0.000    0.000    0.000    0.000    0.000    0.000 
#
# Total GULP energy -347332.904843 kJ/mol
# GULP energy per Si atom -12404.746602 kJ/mol
# Density = 1.915140 g / cm^3
# Si number density = 19.195090 Si / 1000 Ang^3
#
#
#
# Elastic Constant Matrix: (Units=GPa)
#
#
# Indices 1 2 3 4 5 6 
#
# 1 140.6634 45.9035 50.4200 -0.0468 11.2459 0.0060
# 2 45.9035 107.5349 47.2458 -0.1465 -0.4528 0.0312
# 3 50.4200 47.2458 164.6019 -0.2107 -18.3896 0.0550
# 4 -0.0468 -0.1465 -0.2107 20.8617 0.0554 1.4419
# 5 11.2459 -0.4528 -18.3896 0.0554 33.9718 -0.0089
# 6 0.0060 0.0312 0.0550 1.4419 -0.0089 25.9955
#
#
#
# Elastic Compliance Matrix: (Units=1/GPa)
#
#
# Indices 1 2 3 4 5 6 
#
# 1 0.009315 -0.002885 -0.002527 -0.000013 -0.004490 0.000006
# 2 -0.002885 0.011618 -0.002477 0.000051 -0.000231 -0.000011
# 3 -0.002527 -0.002477 0.008142 0.000046 0.005211 -0.000014
# 4 -0.000013 0.000051 0.000046 0.048120 -0.000049 -0.002669
# 5 -0.004490 -0.000231 0.005211 -0.000049 0.033740 0.000005
# 6 0.000006 -0.000011 -0.000014 -0.002669 0.000005 0.038616
#
#
# Mechanical properties :
#
#
# Convention : Reuss Voigt Hill
#
# Bulk Modulus (GPa) = 75.19746 77.77099 76.48422
# Shear Modulus (GPa) = 29.45273 34.11454 31.78364
#
# Velocity S-wave (km/s) = 3.92138 4.22032 4.07359
# Velocity P-wave (km/s) = 7.73068 8.02198 7.87768
#
# Compressibility (1/GPa) = 0.01329832
#
# Stress axis : x y z
#
# Youngs Moduli (GPa) = 107.34839 86.07212 122.81297
#
# Poissons Ratio (x) = 0.24833 0.31035
# Poissons Ratio (y) = 0.30972 0.30417
# Poissons Ratio (z) = 0.27127 0.21318
#
# Static dielectric constant tensor:
#      x y z
#    x 4.230220 0.000030 0.134000 
#    y 0.000030 3.201860 -0.000160 
#    z 0.134000 -0.000160 3.732540 
# 
# 
# High freq. dielectric constant tensor:
#      x y z
#    x 1.764250 -0.000010 -0.001130 
#    y -0.000010 1.714010 0.000020 
#    z -0.001130 0.000020 1.768090 
# 
# From -- ./inp_files/322616.got.cif
#   From: 2010.06.25/outbox.cif.g09.slc.cpg/sg12_162_cif.got.tgz:322616.got - 2010.06.28 00:19:55.
