data_PCOD8115700
_publ_section_title
;
Structure prediction by ZEFSAII (Michael W. Deem and Ramdas Pophale) SiO2 
 PCOD8115700
Probable space group: C 2/M
;
_chemical_formula_sum "Si O2"
_cell_formula_units_Z 64
_cell_length_a 18.813033
_cell_length_b 17.766987
_cell_length_c 14.166152
_cell_angle_alpha 90.000000
_cell_angle_beta 140.432167
_cell_angle_gamma 90.000000
_cell_volume 3016.185205
_symmetry_space_group_name_H-M "C 2/M"
_symmetry_group_IT_number 12
_symmetry_cell_setting 'monoclinic'
loop_
_space_group_symop_operation_xyz
x,y,z
-x,y,-z
-x,-y,-z
x,-y,z
1/2+x,1/2+y,z
1/2-x,1/2+y,-z
1/2-x,1/2-y,-z
1/2+x,1/2-y,z
loop_
_atom_site_type_symbol
_atom_site_label
_atom_site_fract_x
_atom_site_fract_y
_atom_site_fract_z
Si Si1 0.602219 0.149346 0.871999
Si Si2 0.810194 0.829040 0.572379
Si Si3 0.668743 0.160227 0.153717
Si Si4 0.295675 0.412906 0.941406
Si Si5 0.613897 0.912429 0.281940
Si Si6 0.368193 0.668708 0.847024
Si Si7 0.442520 0.320347 0.216008
Si Si8 0.617518 0.413455 0.670019
O O1 0.683644 0.107634 0.883036
O O2 0.478746 0.113999 0.736771
O O3 0.600981 0.235960 0.840889
O O4 0.635982 0.134772 0.015164
O O5 0.750000 0.750000 0.500000
O O6 0.734177 0.893905 0.449882
O O7 0.839257 0.847250 0.709502
O O8 0.925599 0.824915 0.632844
O O9 0.589093 0.131169 0.157265
O O10 0.674431 0.249468 0.165495
O O11 0.786685 0.119729 0.299792
O O12 0.319582 0.500000 0.978566
O O13 0.292058 0.390906 0.827131
O O14 0.404642 0.366792 0.085995
O O15 0.605878 0.000000 0.253299
O O16 0.500000 0.660476 0.000000
O O17 0.377645 0.359190 0.235047
O O18 0.500000 0.406967 0.500000
O O19 0.642432 0.500000 0.724168
#
# Coordination Sequence:
#
# PCOD8115700 Si02
#       8
#     8   8   8   8   8   8   8   8
#     4  12  24  45  69 100 140 183 232 276 337 418
#     4  12  24  46  73 101 135 176 230 282 338 407
#     4  12  22  41  70  98 135 178 232 277 335 416
#     4  12  26  43  68 103 136 176 231 289 343 393
#     4  12  27  43  69 105 141 179 222 283 351 407
#     4  12  24  46  72  98 130 177 233 284 334 407
#     4  12  22  43  71  96 132 181 229 282 337 404
#     4  11  25  40  59  97 142 177 219 279 350 410
#
# _framework density 21.218855999999999
#
# number of rings (size 3 to 8) (size 9 to 14) (size 15 to 20)
#    0.000    0.125    6.250    4.125    0.000    4.750 
#    0.000    0.625    0.000    1.500    0.000    0.000 
#    0.000    0.000    0.000    0.000    0.000    0.000 
#
# Total GULP energy -396855.653826 kJ/mol
# GULP energy per Si atom -12401.739182 kJ/mol
# Density = 2.117056 g / cm^3
# Si number density = 21.218856 Si / 1000 Ang^3
#
#
#
# Elastic Constant Matrix: (Units=GPa)
#
#
# Indices 1 2 3 4 5 6 
#
# 1 104.2111 23.0000 27.9761 0.0000 9.4347 0.0000
# 2 23.0000 113.1161 10.9602 0.0000 8.5230 0.0000
# 3 27.9761 10.9602 71.8619 0.0000 2.9811 0.0000
# 4 0.0000 0.0000 0.0000 25.1890 0.0000 -0.2863
# 5 9.4347 8.5230 2.9811 0.0000 42.1180 0.0000
# 6 0.0000 0.0000 0.0000 -0.2863 0.0000 26.3715
#
#
#
# Elastic Compliance Matrix: (Units=1/GPa)
#
#
# Indices 1 2 3 4 5 6 
#
# 1 0.011234 -0.001753 -0.004028 0.000000 -0.001877 0.000000
# 2 -0.001753 0.009373 -0.000687 0.000000 -0.001456 0.000000
# 3 -0.004028 -0.000687 0.015591 0.000000 -0.000062 0.000000
# 4 0.000000 0.000000 0.000000 0.039705 0.000000 0.000431
# 5 -0.001877 -0.001456 -0.000062 0.000000 0.024462 0.000000
# 6 0.000000 0.000000 0.000000 0.000431 0.000000 0.037924
#
#
# Mechanical properties :
#
#
# Convention : Reuss Voigt Hill
#
# Bulk Modulus (GPa) = 42.98712 45.89574 44.44143
# Shear Modulus (GPa) = 31.45066 33.88590 32.66828
#
# Velocity S-wave (km/s) = 3.85412 4.00055 3.92801
# Velocity P-wave (km/s) = 6.33313 6.55864 6.44687
#
# Compressibility (1/GPa) = 0.02326278
#
# Stress axis : x y z
#
# Youngs Moduli (GPa) = 89.01531 106.68892 64.13894
#
# Poissons Ratio (x) = 0.18697 0.25837
# Poissons Ratio (y) = 0.15600 0.04406
# Poissons Ratio (z) = 0.35858 0.07329
#
# Static dielectric constant tensor:
#      x y z
#    x 4.149960 0.000000 0.000150 
#    y 0.000000 3.766280 0.000000 
#    z 0.000150 0.000000 4.143740 
# 
# 
# High freq. dielectric constant tensor:
#      x y z
#    x 1.851070 0.000000 0.008850 
#    y 0.000000 1.830910 0.000000 
#    z 0.008850 0.000000 1.829900 
# 
# From -- ./inp_files/226871.got.cif
#   From: 2010.06.25/outbox.cif.g09.slc.cpg/sg12_114_cif.got.tgz:226871.got - 2010.06.28 00:19:55.
