data_PCOD8115624
_publ_section_title
;
Structure prediction by ZEFSAII (Michael W. Deem and Ramdas Pophale) SiO2 
 PCOD8115624
Probable space group: C 2/M
;
_chemical_formula_sum "Si O2"
_cell_formula_units_Z 36
_cell_length_a 16.596241
_cell_length_b 13.625727
_cell_length_c 11.050345
_cell_angle_alpha 90.000000
_cell_angle_beta 44.047246
_cell_angle_gamma 90.000000
_cell_volume 1737.348979
_symmetry_space_group_name_H-M "C 2/M"
_symmetry_group_IT_number 12
_symmetry_cell_setting 'monoclinic'
loop_
_space_group_symop_operation_xyz
x,y,z
-x,y,-z
-x,-y,-z
x,-y,z
1/2+x,1/2+y,z
1/2-x,1/2+y,-z
1/2-x,1/2-y,-z
1/2+x,1/2-y,z
loop_
_atom_site_type_symbol
_atom_site_label
_atom_site_fract_x
_atom_site_fract_y
_atom_site_fract_z
Si Si1 0.141354 0.000000 0.862423
Si Si2 0.143140 0.700767 0.054871
Si Si3 0.252921 0.000000 0.006729
Si Si4 0.797822 0.214334 0.263269
Si Si5 0.416779 0.710647 0.382032
Si Si6 0.496849 0.500000 0.643693
O O1 0.196351 0.096465 0.743944
O O2 0.189810 0.000000 0.945320
O O3 0.000000 0.000000 0.000000
O O4 0.036870 0.731876 0.254376
O O5 0.250000 0.750000 0.000000
O O6 0.159503 0.586129 0.053627
O O7 0.136462 0.737199 0.922384
O O8 0.141276 0.000000 0.208874
O O9 0.665093 0.253766 0.418250
O O10 0.862783 0.246568 0.314019
O O11 0.441517 0.594069 0.361969
O O12 0.500000 0.500000 0.500000
#
# Coordination Sequence:
#
# PCOD8115624 Si02
#       6
#     4   8   4   8   8   4
#     4  12  22  41  71  92 127 175 227 267 318 399
#     4  12  23  42  65  95 133 167 218 274 333 385
#     4  12  24  39  62 101 123 170 220 266 331 396
#     4  11  24  43  66  96 129 172 223 270 325 394
#     4  11  25  42  66  96 132 174 219 271 331 395
#     4  12  22  38  66  95 128 170 221 272 319 391
#
# _framework density 20.721226000000001
#
# number of rings (size 3 to 8) (size 9 to 14) (size 15 to 20)
#    0.000    0.444    4.444    5.333    0.000    0.889 
#    0.000    5.556    0.000    0.000    0.000    0.000 
#    0.000    0.000    0.000    0.000    0.000    0.000 
#
# Total GULP energy -223041.274256 kJ/mol
# GULP energy per Si atom -12391.181903 kJ/mol
# Density = 2.067406 g / cm^3
# Si number density = 20.721226 Si / 1000 Ang^3
#
#
#
# Elastic Constant Matrix: (Units=GPa)
#
#
# Indices 1 2 3 4 5 6 
#
# 1 74.8438 29.1650 23.4627 0.0000 -1.6630 0.0000
# 2 29.1650 169.4605 40.7683 0.0000 -26.9504 0.0000
# 3 23.4627 40.7683 101.3955 0.0000 -24.5063 0.0000
# 4 0.0000 0.0000 0.0000 38.7919 0.0000 -2.4358
# 5 -1.6630 -26.9504 -24.5063 0.0000 45.2739 0.0000
# 6 0.0000 0.0000 0.0000 -2.4358 0.0000 34.7598
#
#
#
# Elastic Compliance Matrix: (Units=1/GPa)
#
#
# Indices 1 2 3 4 5 6 
#
# 1 0.015188 -0.002239 -0.003223 0.000000 -0.002520 0.000000
# 2 -0.002239 0.007196 -0.001564 0.000000 0.003355 0.000000
# 3 -0.003223 -0.001564 0.012637 0.000000 0.005790 0.000000
# 4 0.000000 0.000000 0.000000 0.025892 0.000000 0.001814
# 5 -0.002520 0.003355 0.005790 0.000000 0.027127 0.000000
# 6 0.000000 0.000000 0.000000 0.001814 0.000000 0.028896
#
#
# Mechanical properties :
#
#
# Convention : Reuss Voigt Hill
#
# Bulk Modulus (GPa) = 47.69298 59.16574 53.42936
# Shear Modulus (GPa) = 36.23731 40.58539 38.41135
#
# Velocity S-wave (km/s) = 4.18640 4.43045 4.31016
# Velocity P-wave (km/s) = 6.81428 7.40183 7.11412
#
# Compressibility (1/GPa) = 0.02096744
#
# Stress axis : x y z
#
# Youngs Moduli (GPa) = 65.84057 138.95890 79.13436
#
# Poissons Ratio (x) = 0.31117 0.25506
# Poissons Ratio (y) = 0.14744 0.12381
# Poissons Ratio (z) = 0.21221 0.21740
#
# Static dielectric constant tensor:
#      x y z
#    x 4.433780 0.000000 -4.767380 
#    y 0.000000 3.747310 0.000000 
#    z -4.767380 0.000000 35.621980 
# 
# 
# High freq. dielectric constant tensor:
#      x y z
#    x 1.818870 0.000000 0.003660 
#    y 0.000000 1.815430 0.000000 
#    z 0.003660 0.000000 1.820880 
# 
# From -- ./inp_files/153260.got.cif
#   From: 2010.06.25/outbox.cif.g09.slc.cpg/sg12_77_cif.got.tgz:153260.got - 2010.06.28 00:19:55.
