data_PCOD8115417
_publ_section_title
;
Structure prediction by ZEFSAII (Michael W. Deem and Ramdas Pophale) SiO2 
 PCOD8115417
Probable space group: C 2/M
;
_chemical_formula_sum "Si O2"
_cell_formula_units_Z 24
_cell_length_a 7.590705
_cell_length_b 17.275383
_cell_length_c 8.338321
_cell_angle_alpha 90.000000
_cell_angle_beta 84.336429
_cell_angle_gamma 90.000000
_cell_volume 1088.085984
_symmetry_space_group_name_H-M "C 2/M"
_symmetry_group_IT_number 12
_symmetry_cell_setting 'monoclinic'
loop_
_space_group_symop_operation_xyz
x,y,z
-x,y,-z
-x,-y,-z
x,-y,z
1/2+x,1/2+y,z
1/2-x,1/2+y,-z
1/2-x,1/2-y,-z
1/2+x,1/2-y,z
loop_
_atom_site_type_symbol
_atom_site_label
_atom_site_fract_x
_atom_site_fract_y
_atom_site_fract_z
Si Si1 0.509212 0.680460 0.182787
Si Si2 0.366953 0.163084 0.315846
Si Si3 0.291786 0.911308 0.654121
O O1 0.448840 0.750913 0.301239
O O2 0.708408 0.653676 0.203866
O O3 0.378374 0.608224 0.222896
O O4 0.500000 0.707360 0.000000
O O5 0.527437 0.103588 0.261381
O O6 0.293701 0.145034 0.499758
O O7 0.281273 0.000000 0.599748
#
# Coordination Sequence:
#
# PCOD8115417 Si02
#       3
#     8   8   8
#     4  12  25  41  70 100 131 170 219 268 324 387
#     4  11  23  42  70  95 128 173 219 269 314 383
#     4  11  26  44  67  99 131 170 220 269 325 384
#
# _framework density 22.057079999999999
#
# number of rings (size 3 to 8) (size 9 to 14) (size 15 to 20)
#    0.000    0.667    3.333    5.000    4.667    4.667 
#    0.000    1.667    0.000    0.000    0.000    0.000 
#    0.000    0.000    0.000    0.000    0.000    0.000 
#
# Total GULP energy -148816.241645 kJ/mol
# GULP energy per Si atom -12401.353470 kJ/mol
# Density = 2.200688 g / cm^3
# Si number density = 22.057080 Si / 1000 Ang^3
#
#
#
# Elastic Constant Matrix: (Units=GPa)
#
#
# Indices 1 2 3 4 5 6 
#
# 1 153.1124 34.5401 48.1143 0.0000 28.5136 0.0000
# 2 34.5401 120.7572 59.1944 0.0000 0.3262 0.0000
# 3 48.1143 59.1944 91.8281 0.0000 11.8408 0.0000
# 4 0.0000 0.0000 0.0000 10.4277 0.0000 -2.6888
# 5 28.5136 0.3262 11.8408 0.0000 28.8854 0.0000
# 6 0.0000 0.0000 0.0000 -2.6888 0.0000 30.1516
#
#
#
# Elastic Compliance Matrix: (Units=1/GPa)
#
#
# Indices 1 2 3 4 5 6 
#
# 1 0.009209 -0.001083 -0.003121 0.000000 -0.007798 0.000000
# 2 -0.001083 0.012527 -0.008053 0.000000 0.004228 0.000000
# 3 -0.003121 -0.008053 0.018273 0.000000 -0.004319 0.000000
# 4 0.000000 0.000000 0.000000 0.098155 0.000000 0.008753
# 5 -0.007798 0.004228 -0.004319 0.000000 0.044040 0.000000
# 6 0.000000 0.000000 0.000000 0.008753 0.000000 0.033946
#
#
# Mechanical properties :
#
#
# Convention : Reuss Voigt Hill
#
# Bulk Modulus (GPa) = 64.53912 72.15503 68.34708
# Shear Modulus (GPa) = 20.33930 28.81621 24.57775
#
# Velocity S-wave (km/s) = 3.03994 3.61839 3.34170
# Velocity P-wave (km/s) = 6.45331 7.08808 6.77813
#
# Compressibility (1/GPa) = 0.01549448
#
# Stress axis : x y z
#
# Youngs Moduli (GPa) = 108.59520 79.82817 54.72436
#
# Poissons Ratio (x) = 0.08643 0.17082
# Poissons Ratio (y) = 0.11758 0.44070
# Poissons Ratio (z) = 0.33897 0.64286
#
# Static dielectric constant tensor:
#      x y z
#    x 4.552660 0.000000 0.017260 
#    y 0.000000 3.721430 0.000000 
#    z 0.017260 0.000000 3.618870 
# 
# 
# High freq. dielectric constant tensor:
#      x y z
#    x 1.896420 0.000000 -0.003090 
#    y 0.000000 1.852420 0.000000 
#    z -0.003090 0.000000 1.843640 
# 
# From -- ./inp_files/35759.got.cif
#   From: 2010.06.25/outbox.cif.g09.slc.cpg/sg12_18_cif.got.tgz:35759.got - 2010.06.28 00:19:55.
