data_PCOD8115170
_publ_section_title
;
Structure prediction by ZEFSAII (Michael W. Deem and Ramdas Pophale) SiO2 
 PCOD8115170
Probable space group: C 2/M
;
_chemical_formula_sum "Si O2"
_cell_formula_units_Z 64
_cell_length_a 9.107462
_cell_length_b 27.801130
_cell_length_c 15.550279
_cell_angle_alpha 90.000000
_cell_angle_beta 124.859257
_cell_angle_gamma 90.000000
_cell_volume 3230.781309
_symmetry_space_group_name_H-M "C 2/M"
_symmetry_group_IT_number 12
_symmetry_cell_setting 'monoclinic'
loop_
_space_group_symop_operation_xyz
x,y,z
-x,y,-z
-x,-y,-z
x,-y,z
1/2+x,1/2+y,z
1/2-x,1/2+y,-z
1/2-x,1/2-y,-z
1/2+x,1/2-y,z
loop_
_atom_site_type_symbol
_atom_site_label
_atom_site_fract_x
_atom_site_fract_y
_atom_site_fract_z
Si Si1 0.487915 0.104188 0.817793
Si Si2 0.626122 0.597755 0.797836
Si Si3 0.384634 0.797442 0.728501
Si Si4 0.040422 0.801923 0.724486
Si Si5 0.027192 0.556991 0.371778
Si Si6 0.216707 0.943084 0.393874
Si Si7 0.672634 0.299637 0.501963
Si Si8 0.336137 0.555921 0.006024
O O1 0.319812 0.090424 0.820739
O O2 0.507186 0.162034 0.814042
O O3 0.461132 0.079809 0.717370
O O4 0.664945 0.086866 0.924050
O O5 0.589101 0.654454 0.805170
O O6 0.480002 0.578868 0.681139
O O7 0.608507 0.567297 0.878335
O O8 0.211666 0.786512 0.727222
O O9 0.483250 0.746168 0.755371
O O10 0.325244 0.821758 0.616009
O O11 0.886400 0.824436 0.608036
O O12 0.031320 0.500000 0.362562
O O13 0.843089 0.572907 0.356661
O O14 0.195386 0.574402 0.486497
O O15 0.201193 0.000000 0.390051
O O16 0.500000 0.289968 0.500000
O O17 0.750000 0.250000 0.500000
O O18 0.288588 0.500000 0.980353
O O19 0.500000 0.570371 0.000000
#
# Coordination Sequence:
#
# PCOD8115170 Si02
#       8
#     8   8   8   8   8   8   8   8
#     4  11  23  37  59  89 118 148 190 243 297 347
#     4  11  23  37  59  89 118 148 190 243 297 347
#     4   9  19  34  54  81 116 154 191 234 281 335
#     4   9  19  34  54  81 116 154 191 234 281 335
#     4   9  19  36  56  81 116 155 193 233 282 347
#     4   9  19  36  56  81 116 155 193 233 282 347
#     4   8  14  28  48  72 107 148 185 221 266 319
#     4  11  25  45  66  85 110 149 196 243 290 349
#
# _framework density 19.809449999999998
#
# number of rings (size 3 to 8) (size 9 to 14) (size 15 to 20)
#    0.000    2.375    0.000    2.625    1.750    7.000 
#    0.000    1.875    0.000    0.000    0.000    0.000 
#    0.000    0.000    0.000    0.000    0.000    0.000 
#
# Total GULP energy -396507.849529 kJ/mol
# GULP energy per Si atom -12390.870298 kJ/mol
# Density = 1.976436 g / cm^3
# Si number density = 19.809450 Si / 1000 Ang^3
#
#
#
# Elastic Constant Matrix: (Units=GPa)
#
#
# Indices 1 2 3 4 5 6 
#
# 1 55.8914 15.6812 22.4503 0.0000 7.6019 0.0000
# 2 15.6812 41.3570 18.9481 0.0000 11.4763 0.0000
# 3 22.4503 18.9481 68.6871 0.0000 14.4477 0.0000
# 4 0.0000 0.0000 0.0000 30.8960 0.0000 1.0569
# 5 7.6019 11.4763 14.4477 0.0000 34.9872 0.0000
# 6 0.0000 0.0000 0.0000 1.0569 0.0000 28.2965
#
#
#
# Elastic Compliance Matrix: (Units=1/GPa)
#
#
# Indices 1 2 3 4 5 6 
#
# 1 0.021723 -0.005569 -0.005427 0.000000 -0.000652 0.000000
# 2 -0.005569 0.030520 -0.005199 0.000000 -0.006654 0.000000
# 3 -0.005427 -0.005199 0.018792 0.000000 -0.004876 0.000000
# 4 0.000000 0.000000 0.000000 0.032408 0.000000 -0.001210
# 5 -0.000652 -0.006654 -0.004876 0.000000 0.032920 0.000000
# 6 0.000000 0.000000 0.000000 -0.001210 0.000000 0.035385
#
#
# Mechanical properties :
#
#
# Convention : Reuss Voigt Hill
#
# Bulk Modulus (GPa) = 25.87686 31.12164 28.49925
# Shear Modulus (GPa) = 23.03935 26.09301 24.56618
#
# Velocity S-wave (km/s) = 3.41405 3.63326 3.52536
# Velocity P-wave (km/s) = 5.35091 5.77455 5.56676
#
# Compressibility (1/GPa) = 0.03864457
#
# Stress axis : x y z
#
# Youngs Moduli (GPa) = 46.03452 32.76538 53.21335
#
# Poissons Ratio (x) = 0.18248 0.28876
# Poissons Ratio (y) = 0.25638 0.27667
# Poissons Ratio (z) = 0.24981 0.17036
#
# Static dielectric constant tensor:
#      x y z
#    x 3.567940 0.000000 0.097590 
#    y 0.000000 3.489890 0.000000 
#    z 0.097590 0.000000 3.323400 
# 
# 
# High freq. dielectric constant tensor:
#      x y z
#    x 1.772270 0.000000 0.003230 
#    y 0.000000 1.768480 0.000000 
#    z 0.003230 0.000000 1.767690 
# 
# From -- ./inp_files/201340.got.cif
#   From: 2010.06.25/outbox.cif.g09.slc.cpg/sg12_101_cif.got.tgz:201340.got - 2010.06.28 00:19:55.
