data_PCOD8115777
_publ_section_title
;
Structure prediction by ZEFSAII (Michael W. Deem and Ramdas Pophale) SiO2 
 PCOD8115777
Probable space group: C 2/M
;
_chemical_formula_sum "Si O2"
_cell_formula_units_Z 28
_cell_length_a 9.596381
_cell_length_b 21.323147
_cell_length_c 11.671491
_cell_angle_alpha 90.000000
_cell_angle_beta 146.632753
_cell_angle_gamma 90.000000
_cell_volume 1313.561787
_symmetry_space_group_name_H-M "C 2/M"
_symmetry_group_IT_number 12
_symmetry_cell_setting 'monoclinic'
loop_
_space_group_symop_operation_xyz
x,y,z
-x,y,-z
-x,-y,-z
x,-y,z
1/2+x,1/2+y,z
1/2-x,1/2+y,-z
1/2-x,1/2-y,-z
1/2+x,1/2-y,z
loop_
_atom_site_type_symbol
_atom_site_label
_atom_site_fract_x
_atom_site_fract_y
_atom_site_fract_z
Si Si1 0.724599 0.000000 0.559854
Si Si2 0.000000 0.811688 0.500000
Si Si3 0.177866 0.500000 0.010068
Si Si4 0.719504 0.771238 0.848540
Si Si5 0.941356 0.608371 0.710565
O O1 0.500000 0.000000 0.500000
O O2 0.702451 0.064555 0.476774
O O3 0.019679 0.000000 0.790233
O O4 0.039644 0.771528 0.643811
O O5 0.243511 0.855322 0.654530
O O6 0.000000 0.500000 0.000000
O O7 0.116932 0.564592 0.906686
O O8 0.613840 0.841311 0.764092
O O9 0.750000 0.750000 0.000000
O O10 0.000000 0.770541 0.000000
#
# Coordination Sequence:
#
# PCOD8115777 Si02
#       5
#     4   4   4   8   8
#     4  11  28  45  74 102 142 193 239 310 359 427
#     4  12  26  47  74 109 148 190 242 302 364 442
#     4  11  26  47  74  98 138 191 240 301 358 430
#     4  12  28  45  73 110 146 195 240 299 371 436
#     4  11  27  44  71 105 141 185 246 297 362 433
#
# _framework density 21.316087
#
# number of rings (size 3 to 8) (size 9 to 14) (size 15 to 20)
#    0.000    0.571    2.857    2.571   14.000    3.429 
#    0.000    0.000    0.000    0.000    0.000    0.000 
#    0.000    0.000    0.000    0.000    0.000    0.000 
#
# Total GULP energy -173459.065067 kJ/mol
# GULP energy per Si atom -12389.933219 kJ/mol
# Density = 2.126757 g / cm^3
# Si number density = 21.316087 Si / 1000 Ang^3
#
#
#
# Elastic Constant Matrix: (Units=GPa)
#
#
# Indices 1 2 3 4 5 6 
#
# 1 140.1096 54.8357 70.2638 0.0052 12.7345 0.0005
# 2 54.8357 175.3523 80.0638 0.0036 -7.9350 0.0003
# 3 70.2638 80.0638 163.5666 0.0191 4.6342 0.0018
# 4 0.0052 0.0036 0.019110229.5880 0.0039 1098.4005
# 5 12.7345 -7.9350 4.6342 0.0039 48.1118 0.0003
# 6 0.0005 0.0003 0.0018 1098.4005 0.0003 145.8376
#
#
#
# Elastic Compliance Matrix: (Units=1/GPa)
#
#
# Indices 1 2 3 4 5 6 
#
# 1 0.009646 -0.001636 -0.003272 0.000000 -0.002508 0.000000
# 2 -0.001636 0.007741 -0.003143 0.000000 0.002012 0.000000
# 3 -0.003272 -0.003143 0.009073 0.000000 -0.000526 0.000000
# 4 0.000000 0.000000 0.000000 0.000511 0.000000 -0.003849
# 5 -0.002508 0.002012 -0.000526 0.000000 0.021831 0.000000
# 6 0.000000 0.000000 0.000000 -0.003849 0.000000 0.035846
#
#
# Mechanical properties :
#
#
# Convention : Reuss Voigt Hill
#
# Bulk Modulus (GPa) = 96.54980 98.81722 97.68351
# Shear Modulus (GPa) = 47.98324 2102.96517 1075.47420
#
# Velocity S-wave (km/s) = 4.74965 31.44367 22.48626
# Velocity P-wave (km/s) = 8.68744 36.94227 26.83470
#
# Compressibility (1/GPa) = 0.01035735
#
# Stress axis : x y z
#
# Youngs Moduli (GPa) = 103.66561 129.18827 110.22130
#
# Poissons Ratio (x) = 0.21138 0.36063
# Poissons Ratio (y) = 0.16962 0.34644
# Poissons Ratio (z) = 0.33918 0.40605
#
# Static dielectric constant tensor:
#      x y z
#    x 4.463190 0.000000 0.143020 
#    y 0.000000 4.323440 0.000000 
#    z 0.143020 0.000000 4.214260 
# 
# 
# High freq. dielectric constant tensor:
#      x y z
#    x 1.846460 0.000000 0.012240 
#    y 0.000000 1.862440 0.000000 
#    z 0.012240 0.000000 1.852740 
# 
# From -- ./inp_files/5761.got.cif
#   From: 2010.06.25/outbox.cif.g09.slc.cpg/sg12_3_cif.got.tgz:5761.got - 2010.06.28 00:19:55.
