data_PCOD8115595
_publ_section_title
;
Structure prediction by ZEFSAII (Michael W. Deem and Ramdas Pophale) SiO2 
 PCOD8115595
Probable space group: C 2/M
;
_chemical_formula_sum "Si O2"
_cell_formula_units_Z 40
_cell_length_a 17.662919
_cell_length_b 8.646437
_cell_length_c 13.642968
_cell_angle_alpha 90.000000
_cell_angle_beta 70.633345
_cell_angle_gamma 90.000000
_cell_volume 1965.674795
_symmetry_space_group_name_H-M "C 2/M"
_symmetry_group_IT_number 12
_symmetry_cell_setting 'monoclinic'
loop_
_space_group_symop_operation_xyz
x,y,z
-x,y,-z
-x,-y,-z
x,-y,z
1/2+x,1/2+y,z
1/2-x,1/2+y,-z
1/2-x,1/2-y,-z
1/2+x,1/2-y,z
loop_
_atom_site_type_symbol
_atom_site_label
_atom_site_fract_x
_atom_site_fract_y
_atom_site_fract_z
Si Si1 0.360818 0.320989 0.197760
Si Si2 0.927571 0.322780 0.605933
Si Si3 0.766066 0.817917 0.599141
Si Si4 0.461894 0.679465 0.798781
Si Si5 0.666397 0.817918 0.001402
O O1 0.339733 0.500000 0.194034
O O2 0.297593 0.246180 0.297361
O O3 0.448636 0.295115 0.202493
O O4 0.356433 0.240685 0.095414
O O5 0.900801 0.500000 0.633289
O O6 0.854488 0.224901 0.595600
O O7 0.956856 0.249860 0.693850
O O8 0.000000 0.310383 0.500000
O O9 0.750000 0.750000 0.500000
O O10 0.757005 0.000000 0.597215
O O11 0.437679 0.500000 0.807476
O O12 0.402466 0.769658 0.894680
O O13 0.674101 0.000000 0.995812
O O14 0.750000 0.750000 0.000000
#
# Coordination Sequence:
#
# PCOD8115595 Si02
#       5
#     8   8   8   8   8
#     4  11  24  43  66  93 127 164 206 256 310 369
#     4  11  24  42  65  93 126 164 208 257 309 368
#     4  12  25  42  65  93 127 165 208 256 309 368
#     4  11  24  42  65  93 126 164 206 255 311 369
#     4  12  25  42  65  92 126 165 208 257 309 368
#
# _framework density 20.349246000000001
#
# number of rings (size 3 to 8) (size 9 to 14) (size 15 to 20)
#    0.000    0.600    0.000    8.400    0.000   10.400 
#    0.000    0.000    0.000    0.000    0.000    0.000 
#    0.000    0.000    0.000    0.000    0.000    0.000 
#
# Total GULP energy -248148.015065 kJ/mol
# GULP energy per Si atom -12407.400753 kJ/mol
# Density = 2.030293 g / cm^3
# Si number density = 20.349246 Si / 1000 Ang^3
#
#
#
# Elastic Constant Matrix: (Units=GPa)
#
#
# Indices 1 2 3 4 5 6 
#
# 1 101.3692 93.8383 62.2976 0.0000 2.0218 0.0000
# 2 93.8383 156.7413 46.6915 0.0000 28.1112 0.0000
# 3 62.2976 46.6915 146.9804 0.0000 21.3081 0.0000
# 4 0.0000 0.0000 0.0000 31.4701 0.0000 -4.0144
# 5 2.0218 28.1112 21.3081 0.0000 43.2316 0.0000
# 6 0.0000 0.0000 0.0000 -4.0144 0.0000 20.2763
#
#
#
# Elastic Compliance Matrix: (Units=1/GPa)
#
#
# Indices 1 2 3 4 5 6 
#
# 1 0.036483 -0.021732 -0.011158 0.000000 0.017925 0.000000
# 2 -0.021732 0.020605 0.004804 0.000000 -0.014750 0.000000
# 3 -0.011158 0.004804 0.011183 0.000000 -0.008114 0.000000
# 4 0.000000 0.000000 0.000000 0.032599 0.000000 0.006454
# 5 0.017925 -0.014750 -0.008114 0.000000 0.035883 0.000000
# 6 0.000000 0.000000 0.000000 0.006454 0.000000 0.050596
#
#
# Mechanical properties :
#
#
# Convention : Reuss Voigt Hill
#
# Bulk Modulus (GPa) = 82.65887 90.08286 86.37086
# Shear Modulus (GPa) = 20.19750 32.47983 26.33867
#
# Velocity S-wave (km/s) = 3.15388 3.99948 3.60158
# Velocity P-wave (km/s) = 7.34649 8.10508 7.73509
#
# Compressibility (1/GPa) = 0.01209792
#
# Stress axis : x y z
#
# Youngs Moduli (GPa) = 27.41035 48.53178 89.42018
#
# Poissons Ratio (x) = 1.05471 0.99775
# Poissons Ratio (y) = 0.59569 -0.42957
# Poissons Ratio (z) = 0.30584 -0.23315
#
# Static dielectric constant tensor:
#      x y z
#    x 3.932210 0.000000 0.034680 
#    y 0.000000 4.045270 0.000000 
#    z 0.034680 0.000000 3.884290 
# 
# 
# High freq. dielectric constant tensor:
#      x y z
#    x 1.816980 0.000000 0.001070 
#    y 0.000000 1.818550 0.000000 
#    z 0.001070 0.000000 1.820360 
# 
# From -- ./inp_files/151727.got.cif
#   From: 2010.06.25/outbox.cif.g09.slc.cpg/sg12_76_cif.got.tgz:151727.got - 2010.06.28 00:19:55.
