data_PCOD8115575
_publ_section_title
;
Structure prediction by ZEFSAII (Michael W. Deem and Ramdas Pophale) SiO2 
 PCOD8115575
Probable space group: C 2/M
;
_chemical_formula_sum "Si O2"
_cell_formula_units_Z 56
_cell_length_a 31.122603
_cell_length_b 15.516990
_cell_length_c 10.770275
_cell_angle_alpha 90.000000
_cell_angle_beta 31.143699
_cell_angle_gamma 90.000000
_cell_volume 2690.030180
_symmetry_space_group_name_H-M "C 2/M"
_symmetry_group_IT_number 12
_symmetry_cell_setting 'monoclinic'
loop_
_space_group_symop_operation_xyz
x,y,z
-x,y,-z
-x,-y,-z
x,-y,z
1/2+x,1/2+y,z
1/2-x,1/2+y,-z
1/2-x,1/2-y,-z
1/2+x,1/2-y,z
loop_
_atom_site_type_symbol
_atom_site_label
_atom_site_fract_x
_atom_site_fract_y
_atom_site_fract_z
Si Si1 0.143688 0.596643 0.347689
Si Si2 0.093821 0.262610 0.971662
Si Si3 0.689488 0.597123 0.183020
Si Si4 0.655786 0.165910 0.572570
Si Si5 0.689359 0.594294 0.681650
Si Si6 0.054373 0.245026 0.486267
Si Si7 0.750533 0.663703 0.284156
O O1 0.115188 0.500000 0.380518
O O2 0.112594 0.615748 0.565469
O O3 0.104797 0.665760 0.348060
O O4 0.244421 0.604740 0.093227
O O5 0.001516 0.256708 0.252843
O O6 0.091723 0.305585 0.839647
O O7 0.124757 0.164741 0.887633
O O8 0.153881 0.316699 0.914907
O O9 0.652711 0.500000 0.279606
O O10 0.614798 0.663661 0.351638
O O11 0.745009 0.615660 0.167361
O O12 0.723587 0.103464 0.464066
O O13 0.699422 0.248229 0.403419
O O14 0.651602 0.500000 0.802131
O O15 0.706976 0.602793 0.492324
O O16 0.000000 0.227991 0.500000
#
# Coordination Sequence:
#
# PCOD8115575 Si02
#       7
#     8   8   8   8   8   8   8
#     4  11  24  42  66  91 118 162 214 255 296 358
#     4   9  21  37  60  91 124 166 197 244 310 373
#     4  11  24  41  65  92 120 161 212 254 296 365
#     4   9  18  36  61  88 120 156 205 248 295 355
#     4   9  17  31  58  92 123 156 201 253 299 356
#     4  12  26  42  62  87 129 165 198 253 319 362
#     4   9  17  37  62  86 118 159 208 243 293 359
#
# _framework density 20.817610999999999
#
# number of rings (size 3 to 8) (size 9 to 14) (size 15 to 20)
#    0.000    2.000    1.429    3.857    4.000    1.714 
#    0.000    5.000    0.000    2.571    0.000    0.000 
#    0.000    0.000    0.000    0.000    0.000    0.000 
#
# Total GULP energy -347121.965562 kJ/mol
# GULP energy per Si atom -12397.213056 kJ/mol
# Density = 2.077023 g / cm^3
# Si number density = 20.817611 Si / 1000 Ang^3
#
#
#
# Elastic Constant Matrix: (Units=GPa)
#
#
# Indices 1 2 3 4 5 6 
#
# 1 90.9173 43.3269 18.7863 0.0000 4.4743 0.0000
# 2 43.3269 154.1022 50.6080 0.0000 -9.5588 0.0000
# 3 18.7863 50.6080 99.7831 0.0000 3.3831 0.0000
# 4 0.0000 0.0000 0.0000 22.8238 0.0000 5.5469
# 5 4.4743 -9.5588 3.3831 0.0000 24.7157 0.0000
# 6 0.0000 0.0000 0.0000 5.5469 0.0000 9.1054
#
#
#
# Elastic Compliance Matrix: (Units=1/GPa)
#
#
# Indices 1 2 3 4 5 6 
#
# 1 0.013068 -0.003769 -0.000421 0.000000 -0.003766 0.000000
# 2 -0.003769 0.009200 -0.004119 0.000000 0.004804 0.000000
# 3 -0.000421 -0.004119 0.012299 0.000000 -0.003200 0.000000
# 4 0.000000 0.000000 0.000000 0.051428 0.000000 -0.031329
# 5 -0.003766 0.004804 -0.003200 0.000000 0.043438 0.000000
# 6 0.000000 0.000000 0.000000 -0.031329 0.000000 0.128910
#
#
# Mechanical properties :
#
#
# Convention : Reuss Voigt Hill
#
# Bulk Modulus (GPa) = 55.71887 63.36054 59.53971
# Shear Modulus (GPa) = 17.79719 26.80108 22.29913
#
# Velocity S-wave (km/s) = 2.92706 3.59196 3.27642
# Velocity P-wave (km/s) = 6.18441 6.90688 6.55561
#
# Compressibility (1/GPa) = 0.01794724
#
# Stress axis : x y z
#
# Youngs Moduli (GPa) = 76.52495 108.69849 81.30994
#
# Poissons Ratio (x) = 0.40973 0.03421
# Poissons Ratio (y) = 0.28846 0.33493
# Poissons Ratio (z) = 0.03220 0.44774
#
# Static dielectric constant tensor:
#      x y z
#    x 3.718400 0.000000 0.189090 
#    y 0.000000 3.776320 0.000000 
#    z 0.189090 0.000000 3.556890 
# 
# 
# High freq. dielectric constant tensor:
#      x y z
#    x 1.813910 0.000000 0.017410 
#    y 0.000000 1.817890 0.000000 
#    z 0.017410 0.000000 1.796140 
# 
# From -- ./inp_files/189617.got.cif
#   From: 2010.06.25/outbox.cif.g09.slc.cpg/sg12_95_cif.got.tgz:189617.got - 2010.06.28 00:19:55.
