data_PCOD8115195
_publ_section_title
;
Structure prediction by ZEFSAII (Michael W. Deem and Ramdas Pophale) SiO2 
 PCOD8115195
Probable space group: C 2/M
;
_chemical_formula_sum "Si O2"
_cell_formula_units_Z 40
_cell_length_a 15.563424
_cell_length_b 8.545731
_cell_length_c 30.702523
_cell_angle_alpha 90.000000
_cell_angle_beta 27.488077
_cell_angle_gamma 90.000000
_cell_volume 1884.778765
_symmetry_space_group_name_H-M "C 2/M"
_symmetry_group_IT_number 12
_symmetry_cell_setting 'monoclinic'
loop_
_space_group_symop_operation_xyz
x,y,z
-x,y,-z
-x,-y,-z
x,-y,z
1/2+x,1/2+y,z
1/2-x,1/2+y,-z
1/2-x,1/2-y,-z
1/2+x,1/2-y,z
loop_
_atom_site_type_symbol
_atom_site_label
_atom_site_fract_x
_atom_site_fract_y
_atom_site_fract_z
Si Si1 0.044731 0.682384 0.712956
Si Si2 0.926110 0.183095 0.396149
Si Si3 0.045820 0.179946 0.092922
Si Si4 0.733861 0.678329 0.706992
Si Si5 0.844077 0.682590 0.104291
O O1 0.082891 0.500000 0.698962
O O2 0.840546 0.720692 0.823267
O O3 0.060549 0.735681 0.656401
O O4 0.198818 0.768200 0.673253
O O5 0.750000 0.250000 0.500000
O O6 0.109382 0.214756 0.341941
O O7 0.903363 0.000000 0.399003
O O8 0.960488 0.194702 0.179482
O O9 0.913440 0.279865 0.121332
O O10 0.051099 0.000000 0.075141
O O11 0.250000 0.250000 0.000000
O O12 0.805091 0.500000 0.675364
O O13 0.796635 0.500000 0.121740
O O14 0.000000 0.735058 0.000000
#
# Coordination Sequence:
#
# PCOD8115195 Si02
#       5
#     8   8   8   8   8
#     4  12  25  43  68 100 136 178 226 276 336 403
#     4  12  26  47  74 102 135 176 223 281 342 403
#     4  11  23  38  61  92 132 176 224 276 333 399
#     4  11  24  44  68  99 136 177 225 279 336 400
#     4  11  23  39  61  92 132 177 226 277 334 397
#
# _framework density 21.222650000000002
#
# number of rings (size 3 to 8) (size 9 to 14) (size 15 to 20)
#    0.000    0.600    2.000    6.600    0.000    9.600 
#    0.000    4.000    0.000    0.000    0.000    0.000 
#    0.000    0.000    0.000    0.000    0.000    0.000 
#
# Total GULP energy -248149.885189 kJ/mol
# GULP energy per Si atom -12407.494259 kJ/mol
# Density = 2.117435 g / cm^3
# Si number density = 21.222650 Si / 1000 Ang^3
#
#
#
# Elastic Constant Matrix: (Units=GPa)
#
#
# Indices 1 2 3 4 5 6 
#
# 1 118.8747 1.4461 24.2339 -0.0101 0.8316 -0.0011
# 2 1.4461 84.1842 30.1018 -0.0098 1.5635 -0.0064
# 3 24.2339 30.1018 103.7389 0.0084 1.1433 0.0412
# 4 -0.0101 -0.0098 0.0084 38.0324 0.0503 -1.7518
# 5 0.8316 1.5635 1.1433 0.0503 24.0157 -0.0070
# 6 -0.0011 -0.0064 0.0412 -1.7518 -0.0070 38.9370
#
#
#
# Elastic Compliance Matrix: (Units=1/GPa)
#
#
# Indices 1 2 3 4 5 6 
#
# 1 0.008867 0.000660 -0.002260 0.000003 -0.000242 0.000003
# 2 0.000660 0.013314 -0.004010 0.000006 -0.000699 0.000007
# 3 -0.002260 -0.004010 0.011333 -0.000004 -0.000200 -0.000013
# 4 0.000003 0.000006 -0.000004 0.026348 -0.000055 0.001185
# 5 -0.000242 -0.000699 -0.000200 -0.000055 0.041703 0.000005
# 6 0.000003 0.000007 -0.000013 0.001185 0.000005 0.025736
#
#
# Mechanical properties :
#
#
# Convention : Reuss Voigt Hill
#
# Bulk Modulus (GPa) = 44.85385 46.48459 45.66922
# Shear Modulus (GPa) = 34.25778 36.93141 35.59459
#
# Velocity S-wave (km/s) = 4.02208 4.17608 4.09980
# Velocity P-wave (km/s) = 6.53837 6.72337 6.63152
#
# Compressibility (1/GPa) = 0.02229463
#
# Stress axis : x y z
#
# Youngs Moduli (GPa) = 112.78205 75.10789 88.23510
#
# Poissons Ratio (x) = -0.04960 0.19943
# Poissons Ratio (y) = -0.07448 0.35382
# Poissons Ratio (z) = 0.25492 0.30118
#
# Static dielectric constant tensor:
#      x y z
#    x 3.859440 0.000050 0.103190 
#    y 0.000050 4.130200 -0.000060 
#    z 0.103190 -0.000060 3.836230 
# 
# 
# High freq. dielectric constant tensor:
#      x y z
#    x 1.843890 0.000000 0.000630 
#    y 0.000000 1.846250 0.000000 
#    z 0.000630 0.000000 1.833380 
# 
# From -- ./inp_files/211178.got.cif
#   From: 2010.06.25/outbox.cif.g09.slc.cpg/sg12_106_cif.got.tgz:211178.got - 2010.06.28 00:19:55.
